REMARK  6 active torsions:
REMARK  status: ('A' for Active; 'I' for Inactive)
REMARK    1  A    between atoms: C_6  and  C_1 
REMARK    2  A    between atoms: C_2  and  C_3 
REMARK    3  A    between atoms: C_3  and  C_7 
REMARK    4  A    between atoms: O_17  and  C_3 
REMARK    5  A    between atoms: N_4  and  C_6 
REMARK    6  A    between atoms: C_7  and  N_5 
ROOT
ATOM      1  N   UNL d   1      -0.978   3.074  -0.137  0.00  0.00     0.096 N 
ATOM      2  N   UNL d   1      -3.833   2.168  -0.676  0.00  0.00     0.094 N 
ATOM      3  C   UNL d   1      -3.196   2.096   0.661  0.00  0.00     0.302 C 
ATOM      4  C   UNL d   1      -2.024   3.082   0.900  0.00  0.00     0.303 C 
ATOM      5  C   UNL d   1      -2.784   2.184  -1.714  0.00  0.00     0.302 C 
ATOM      6  C   UNL d   1      -1.605   3.158  -1.468  0.00  0.00     0.303 C 
ENDROOT
BRANCH   1   7
ATOM      7  C   UNL d   1      -0.048   1.934  -0.029  0.00  0.00     0.316 C 
BRANCH   7   8
ATOM      8  C   UNL d   1       0.956   2.049   1.102  0.00  0.00     0.030 A 
ATOM      9  C   UNL d   1       1.087   0.986   2.009  0.00  0.00     0.126 A 
ATOM     10  F   UNL d   1       0.314  -0.105   1.874  0.00  0.00    -0.205 F 
ATOM     11  C   UNL d   1       2.013   1.001   3.047  0.00  0.00     0.043 A 
ATOM     12  C   UNL d   1       2.854   2.099   3.211  0.00  0.00     0.005 A 
ATOM     13  C   UNL d   1       2.764   3.159   2.314  0.00  0.00     0.024 A 
ATOM     14  C   UNL d   1       1.838   3.131   1.259  0.00  0.00     0.045 A 
ATOM     15 CL   UNL d   1       1.886   4.458   0.150  0.00  0.00    -0.084 Cl
ENDBRANCH   7   8
ENDBRANCH   1   7
BRANCH   2  16
ATOM     16  C   UNL d   1      -4.782   3.290  -0.750  0.00  0.00     0.313 C 
BRANCH  16  17
ATOM     17  C   UNL d   1      -5.690   3.385  -1.994  0.00  0.00     0.253 C 
BRANCH  17  18
ATOM     18  C   UNL d   1      -6.583   2.151  -2.226  0.00  0.00     0.414 C 
ATOM     19  F   UNL d   1      -6.473   1.198  -1.282  0.00  0.00    -0.168 F 
ATOM     20  F   UNL d   1      -7.892   2.527  -2.238  0.00  0.00    -0.168 F 
ATOM     21  F   UNL d   1      -6.332   1.583  -3.429  0.00  0.00    -0.168 F 
ENDBRANCH  17  18
BRANCH  17  22
ATOM     22  O   UNL d   1      -6.467   4.607  -1.854  0.00  0.00    -0.385 OA
ATOM     23  H   UNL d   1      -7.282   4.378  -1.366  0.00  0.00     0.210 HD
ENDBRANCH  17  22
ENDBRANCH  16  17
ENDBRANCH   2  16
TORSDOF 6
