REMARK  4 active torsions:
REMARK  status: ('A' for Active; 'I' for Inactive)
REMARK    1  A    between atoms: N_2  and  S_1 
REMARK    2  A    between atoms: C_4  and  S_1 
REMARK    3  A    between atoms: C_3  and  C_5 
REMARK    4  A    between atoms: C_7  and  N_6 
ROOT
ATOM      1  N   UNL d   1       0.404   1.524   0.521  0.00  0.00    -0.205 NA
ATOM      2  N   UNL d   1      -0.308   4.453   0.443  0.00  0.00    -0.366 N 
ATOM      3  C   UNL d   1       1.287   2.595  -0.041  0.00  0.00     0.127 C 
ATOM      4  C   UNL d   1       1.069   3.983   0.578  0.00  0.00     0.140 C 
ATOM      5  C   UNL d   1      -1.656   2.653   1.473  0.00  0.00     0.035 C 
ATOM      6  C   UNL d   1      -1.062   1.778   0.376  0.00  0.00     0.109 C 
ATOM      7  C   UNL d   1      -1.207   4.113   1.536  0.00  0.00     0.125 C 
ENDROOT
BRANCH   2   8
ATOM      8  C   UNL d   1      -0.737   5.255  -0.591  0.00  0.00     0.102 A 
ATOM      9  N   UNL d   1      -1.827   6.029  -0.399  0.00  0.00    -0.352 N 
ATOM     10  C   UNL d   1      -2.255   6.840  -1.400  0.00  0.00     0.106 A 
ATOM     11  HN  UNL d   1      -2.325   6.004   0.491  1.00  0.00     0.166 HD
ATOM     12  C   UNL d   1      -1.668   6.902  -2.648  0.00  0.00     0.063 A 
ATOM     13  C   UNL d   1      -0.560   6.090  -2.861  0.00  0.00     0.021 A 
ATOM     14  C   UNL d   1      -0.088   5.280  -1.825  0.00  0.00     0.049 A 
BRANCH  12  15
ATOM     15  C   UNL d   1      -2.209   7.793  -3.719  0.00  0.00     0.418 C 
ATOM     16  F   UNL d   1      -3.279   8.537  -3.328  0.00  0.00    -0.166 F 
ATOM     17  F   UNL d   1      -1.283   8.682  -4.175  0.00  0.00    -0.166 F 
ATOM     18  F   UNL d   1      -2.621   7.094  -4.815  0.00  0.00    -0.166 F 
ENDBRANCH  12  15
ENDBRANCH   2   8
BRANCH   1  19
ATOM     19  S   UNL d   1       0.902  -0.073   0.102  0.00  0.00     0.243 S 
ATOM     20  O   UNL d   1       0.230  -0.988   1.001  0.00  0.00    -0.206 OA
ATOM     21  O   UNL d   1       2.342  -0.089  -0.034  0.00  0.00    -0.206 OA
BRANCH  19  22
ATOM     22  C   UNL d   1       0.210  -0.348  -1.526  0.00  0.00     0.077 A 
ATOM     23  C   UNL d   1      -1.026  -1.000  -1.631  0.00  0.00     0.067 A 
ATOM     24  C   UNL d   1      -1.543  -1.277  -2.888  0.00  0.00     0.117 A 
ATOM     25  F   UNL d   1      -2.733  -1.888  -2.986  0.00  0.00    -0.206 F 
ATOM     26  C   UNL d   1      -0.848  -0.944  -4.041  0.00  0.00     0.042 A 
ATOM     27  C   UNL d   1       0.398  -0.319  -3.939  0.00  0.00     0.005 A 
ATOM     28  C   UNL d   1       0.934  -0.025  -2.680  0.00  0.00     0.025 A 
ENDBRANCH  19  22
ENDBRANCH   1  19
TORSDOF 4
