REMARK  1 active torsions:
REMARK  status: ('A' for Active; 'I' for Inactive)
REMARK    1  A    between atoms: C_8  and  C_1 
ROOT
ATOM      1  C   UNL d   1       2.436  -0.624  -0.002  0.00  0.00     0.091 A 
ATOM      2  C   UNL d   1       2.537   0.708  -0.043  0.00  0.00     0.094 A 
ATOM      3  C   UNL d   1       1.320   1.520  -0.110  0.00  0.00     0.188 A 
ATOM      4  O   UNL d   1       1.252  -1.326  -0.015  0.00  0.00    -0.309 OA
ATOM      5  C   UNL d   1       0.021   0.802  -0.046  0.00  0.00     0.054 A 
ATOM      6  C   UNL d   1       0.074  -0.604  -0.020  0.00  0.00     0.091 A 
ATOM      7  C   UNL d   1      -1.231   1.452  -0.024  0.00  0.00    -0.044 A 
ATOM      8  C   UNL d   1      -1.099  -1.365   0.002  0.00  0.00     0.045 A 
ATOM      9  C   UNL d   1      -2.398   0.660  -0.007  0.00  0.00     0.014 A 
ATOM     10  O   UNL d   1       1.441   2.731  -0.232  0.00  0.00    -0.287 OA
ATOM     11  C   UNL d   1      -2.346  -0.738   0.000  0.00  0.00    -0.059 A 
ATOM     12  C   UNL d   1      -1.453   2.940  -0.018  0.00  0.00     0.049 C 
ATOM     13  C   UNL d   1      -3.624  -1.524   0.009  0.00  0.00     0.048 C 
ENDROOT
BRANCH   1  14
ATOM     14  C   UNL d   1       3.670  -1.423   0.050  0.00  0.00     0.020 A 
ATOM     15  C   UNL d   1       4.285  -1.783   1.261  0.00  0.00     0.047 A 
ATOM     16 CL   UNL d   1       3.545  -1.465   2.791  0.00  0.00    -0.083 Cl
ATOM     17  C   UNL d   1       5.547  -2.386   1.259  0.00  0.00     0.025 A 
ATOM     18  C   UNL d   1       6.202  -2.640   0.054  0.00  0.00     0.002 A 
ATOM     19  C   UNL d   1       5.589  -2.311  -1.153  0.00  0.00     0.001 A 
ATOM     20  C   UNL d   1       4.329  -1.709  -1.156  0.00  0.00     0.016 A 
ENDBRANCH   1  14
TORSDOF 1
