REMARK  5 active torsions:
REMARK  status: ('A' for Active; 'I' for Inactive)
REMARK    1  A    between atoms: N_6  and  C_1 
REMARK    2  A    between atoms: N_10  and  C_1 
REMARK    3  A    between atoms: C_2  and  C_8 
REMARK    4  A    between atoms: N_3  and  N_6 
REMARK    5  A    between atoms: C_8  and  N_3 
ROOT
ATOM      1  N   UNL d   1      -1.087  -1.022  -0.552  0.00  0.00    -0.309 N 
ATOM      2  HN  UNL d   1      -1.583  -0.131  -0.530  1.00  0.00     0.186 HD
ENDROOT
BRANCH   1   3
ATOM      3  N   UNL d   1       0.274  -1.099  -0.511  0.00  0.00    -0.277 N 
ATOM      4  H   UNL d   1       0.747  -1.993  -0.518  0.00  0.00     0.189 HD
BRANCH   3   5
ATOM      5  C   UNL d   1       1.030   0.043  -0.520  0.00  0.00     0.184 C 
ATOM      6  S   UNL d   1       2.685   0.019  -0.527  0.00  0.00    -0.040 SA
BRANCH   5   7
ATOM      7  N   UNL d   1       0.325   1.203  -0.535  0.00  0.00    -0.375 N 
ATOM      8  H   UNL d   1       0.779   2.102  -0.491  0.00  0.00     0.158 HD
ATOM      9  H   UNL d   1      -0.680   1.117  -0.442  0.00  0.00     0.158 HD
ENDBRANCH   5   7
ENDBRANCH   3   5
ENDBRANCH   1   3
BRANCH   1  10
ATOM     10  C   UNL d   1      -1.708  -2.158  -0.620  0.00  0.00     0.120 C 
BRANCH  10  11
ATOM     11  C   UNL d   1      -3.186  -2.224  -0.692  0.00  0.00     0.008 A 
ATOM     12  C   UNL d   1      -3.845  -3.292  -0.058  0.00  0.00     0.046 A 
ATOM     13 CL   UNL d   1      -3.004  -4.557   0.772  0.00  0.00    -0.083 Cl
ATOM     14  C   UNL d   1      -5.242  -3.355  -0.052  0.00  0.00     0.025 A 
ATOM     15  C   UNL d   1      -5.990  -2.358  -0.672  0.00  0.00     0.002 A 
ATOM     16  C   UNL d   1      -5.344  -1.310  -1.324  0.00  0.00     0.007 A 
ATOM     17  C   UNL d   1      -3.940  -1.237  -1.367  0.00  0.00    -0.049 A 
ATOM     18  C   UNL d   1      -3.333  -0.086  -2.125  0.00  0.00     0.049 C 
ENDBRANCH  10  11
ENDBRANCH   1  10
TORSDOF 5
