REMARK  3 active torsions:
REMARK  status: ('A' for Active; 'I' for Inactive)
REMARK    1  A    between atoms: C_2  and  C_1 
REMARK       I    between atoms: N_4  and  C_2 
REMARK    2  A    between atoms: C_3  and  N_8 
REMARK    3  A    between atoms: N_8  and  N_4 
ROOT
ATOM      1  C   UNL d   1      -3.039   0.341   0.191  0.00  0.00     0.244 C 
ATOM      2  N   UNL d   1      -3.531   1.626   0.093  0.00  0.00    -0.267 N 
ATOM      3  O   UNL d   1      -3.793  -0.625   0.330  0.00  0.00    -0.271 OA
ATOM      4  H   UNL d   1      -2.953   2.458   0.009  0.00  0.00     0.190 HD
ENDROOT
BRANCH   1   5
ATOM      5  C   UNL d   1      -1.511   0.206   0.095  0.00  0.00     0.043 C 
ATOM      6  C   UNL d   1      -0.802   1.000   1.219  0.00  0.00     0.024 C 
ATOM      7  C   UNL d   1       0.727   0.835   1.116  0.00  0.00    -0.013 C 
ATOM      8  C   UNL d   1       1.092  -0.652   1.244  0.00  0.00     0.009 C 
ATOM      9  C   UNL d   1       1.203   1.351  -0.253  0.00  0.00     0.009 C 
ATOM     10  C   UNL d   1       0.415  -1.457   0.124  0.00  0.00    -0.013 C 
ATOM     11  C   UNL d   1      -1.108  -1.287   0.231  0.00  0.00     0.024 C 
ATOM     12  C   UNL d   1       0.886  -0.930  -1.241  0.00  0.00     0.009 C 
ATOM     13  C   UNL d   1       0.523   0.558  -1.382  0.00  0.00    -0.013 C 
ATOM     14  C   UNL d   1      -1.003   0.724  -1.272  0.00  0.00     0.024 C 
ENDBRANCH   1   5
BRANCH   2  15
ATOM     15  N   UNL d   1      -4.915   1.814   0.183  0.00  0.00    -0.274 N 
ATOM     16  H   UNL d   1      -5.473   0.963   0.131  0.00  0.00     0.189 HD
BRANCH  15  17
ATOM     17  C   UNL d   1      -5.481   3.054   0.047  0.00  0.00     0.184 C 
ATOM     18  S   UNL d   1      -4.665   4.491  -0.160  0.00  0.00    -0.040 SA
ATOM     19  N   UNL d   1      -6.840   3.045   0.100  0.00  0.00    -0.375 N 
ATOM     20  H   UNL d   1      -7.341   2.260   0.489  0.00  0.00     0.158 HD
ATOM     21  H   UNL d   1      -7.316   3.939   0.103  0.00  0.00     0.158 HD
ENDBRANCH  15  17
ENDBRANCH   2  15
TORSDOF 3
