REMARK  4 active torsions:
REMARK  status: ('A' for Active; 'I' for Inactive)
REMARK    1  A    between atoms: C_3  and  C_1 
REMARK    2  A    between atoms: O_9  and  C_2 
REMARK    3  A    between atoms: O_8  and  C_3 
REMARK    4  A    between atoms: C_10  and  O_9 
ROOT
ATOM      1  C   UNL d   1       0.097   1.332   0.069  0.00  0.00     0.113 A 
ATOM      2  C   UNL d   1       1.402   0.863  -0.014  0.00  0.00     0.092 A 
ATOM      3  S   UNL d   1      -1.011   0.004   0.165  0.00  0.00    -0.093 SA
ATOM      4  C   UNL d   1       1.467  -0.565  -0.049  0.00  0.00     0.045 A 
ATOM      5  C   UNL d   1       0.229  -1.155   0.041  0.00  0.00     0.053 A 
ENDROOT
BRANCH   1   6
ATOM      6  C   UNL d   1      -0.433   2.687   0.027  0.00  0.00     0.302 C 
ATOM      7  O   UNL d   1       0.132   3.669  -0.441  0.00  0.00    -0.259 OA
BRANCH   6   8
ATOM      8  O   UNL d   1      -1.664   2.745   0.622  0.00  0.00    -0.322 OA
ATOM      9  C   UNL d   1      -2.260   4.043   0.636  0.00  0.00     0.213 C 
ENDBRANCH   6   8
ENDBRANCH   1   6
BRANCH   2  10
ATOM     10  O   UNL d   1       2.550   1.579  -0.144  0.00  0.00    -0.350 OA
BRANCH  10  11
ATOM     11  C   UNL d   1       2.674   2.733   0.684  0.00  0.00     0.171 C 
ATOM     12  C   UNL d   1       4.099   2.802   1.206  0.00  0.00     0.034 C 
ENDBRANCH  10  11
ENDBRANCH   2  10
TORSDOF 4
