REMARK  8 active torsions:
REMARK  status: ('A' for Active; 'I' for Inactive)
REMARK    1  A    between atoms: N_5  and  C_1 
REMARK    2  A    between atoms: N_8  and  C_1 
REMARK    3  A    between atoms: C_3  and  C_7 
REMARK    4  A    between atoms: O_15  and  C_3 
REMARK    5  A    between atoms: C_13  and  N_5 
REMARK    6  A    between atoms: C_14  and  N_8 
REMARK    7  A    between atoms: C_16  and  C_14 
REMARK    8  A    between atoms: C_23  and  O_15 
ROOT
ATOM      1  N   UNL d   1      -6.027  -2.828   3.902  0.00  0.00    -0.191 NA
ATOM      2  C   UNL d   1      -5.109  -2.662   3.208  0.00  0.00     0.099 C 
ATOM      3  C   UNL d   1      -3.982  -2.455   2.348  0.00  0.00     0.044 A 
ATOM      4  C   UNL d   1      -1.772  -2.046   0.660  0.00  0.00    -0.040 A 
ATOM      5  C   UNL d   1      -3.357  -1.207   2.302  0.00  0.00     0.023 A 
ATOM      6  C   UNL d   1      -3.508  -3.499   1.548  0.00  0.00     0.023 A 
ATOM      7  C   UNL d   1      -2.263  -1.004   1.459  0.00  0.00     0.010 A 
ATOM      8  C   UNL d   1      -2.412  -3.294   0.705  0.00  0.00     0.010 A 
ENDROOT
BRANCH   4   9
ATOM      9  C   UNL d   1      -0.623  -1.813  -0.287  0.00  0.00     0.160 C 
BRANCH   9  10
ATOM     10  N   UNL d   1       0.458  -1.071   0.340  0.00  0.00    -0.363 N 
ATOM     11  H   UNL d   1       1.035  -1.608   0.978  0.00  0.00     0.162 HD
BRANCH  10  12
ATOM     12  C   UNL d   1       1.111  -0.003  -0.206  0.00  0.00     0.172 C 
ATOM     13  S   UNL d   1       2.701   0.244   0.244  0.00  0.00    -0.041 SA
BRANCH  12  14
ATOM     14  N   UNL d   1       0.351   0.802  -1.015  0.00  0.00    -0.333 N 
ATOM     15  H   UNL d   1      -0.572   1.010  -0.655  0.00  0.00     0.168 HD
BRANCH  14  16
ATOM     16  C   UNL d   1       0.771   1.543  -2.137  0.00  0.00     0.034 A 
ATOM     17  C   UNL d   1       1.814   1.097  -2.949  0.00  0.00     0.030 A 
ATOM     18  C   UNL d   1       2.112   1.754  -4.143  0.00  0.00     0.020 A 
ATOM     19  C   UNL d   1       1.366   2.869  -4.542  0.00  0.00     0.039 A 
ATOM     20  C   UNL d   1       0.348   3.346  -3.707  0.00  0.00     0.020 A 
ATOM     21  C   UNL d   1       0.042   2.675  -2.517  0.00  0.00     0.030 A 
BRANCH  19  22
ATOM     22  C   UNL d   1       1.535   3.475  -5.891  0.00  0.00     0.293 C 
ATOM     23  O   UNL d   1       0.851   4.392  -6.316  0.00  0.00    -0.259 OA
BRANCH  22  24
ATOM     24  O   UNL d   1       2.438   2.750  -6.595  0.00  0.00    -0.318 OA
BRANCH  24  25
ATOM     25  C   UNL d   1       2.358   2.848  -8.022  0.00  0.00     0.174 C 
ATOM     26  C   UNL d   1       1.378   1.796  -8.512  0.00  0.00     0.034 C 
ENDBRANCH  24  25
ENDBRANCH  22  24
ENDBRANCH  19  22
ENDBRANCH  14  16
ENDBRANCH  12  14
ENDBRANCH  10  12
ENDBRANCH   9  10
ENDBRANCH   4   9
TORSDOF 8
