REMARK  3 active torsions:
REMARK  status: ('A' for Active; 'I' for Inactive)
REMARK    1  A    between atoms: C_14  and  C_5 
REMARK    2  A    between atoms: C_11  and  C_16 
REMARK    3  A    between atoms: C_12  and  C_17 
ROOT
ATOM      1  C   UNL d   1       0.571  -0.991   0.066  0.00  0.00     0.206 A 
ATOM      2  C   UNL d   1       1.178  -2.291   0.115  0.00  0.00     0.136 A 
ATOM      3  N   UNL d   1       1.233   0.148   0.051  0.00  0.00    -0.317 N 
ATOM      4  HN  UNL d   1       2.242   0.292   0.084  1.00  0.00     0.169 HD
ATOM      5  C   UNL d   1       0.239   1.095  -0.017  0.00  0.00     0.138 A 
ATOM      6  O   UNL d   1       0.418  -3.432   0.029  0.00  0.00    -0.305 OA
ATOM      7  C   UNL d   1       2.521  -2.649   0.244  0.00  0.00    -0.011 A 
ATOM      8  N   UNL d   1      -1.000   0.582  -0.033  0.00  0.00    -0.242 N 
ATOM      9  HN  UNL d   1      -1.888   1.080  -0.072  1.00  0.00     0.196 HD
ATOM     10  O   UNL d   1      -0.785  -0.796   0.017  0.00  0.00    -0.215 OA
ATOM     11  C   UNL d   1       2.562  -4.079   0.234  0.00  0.00     0.007 A 
ATOM     12  C   UNL d   1       1.249  -4.502   0.096  0.00  0.00     0.087 A 
ATOM     13  C   UNL d   1       3.715  -1.770   0.376  0.00  0.00     0.052 C 
ATOM     14  C   UNL d   1       3.572  -5.055   0.326  0.00  0.00     0.015 A 
ATOM     15  C   UNL d   1       0.857  -5.836   0.040  0.00  0.00     0.038 A 
ATOM     16  C   UNL d   1       3.211  -6.409   0.276  0.00  0.00     0.001 A 
ATOM     17  C   UNL d   1       1.875  -6.791   0.134  0.00  0.00     0.003 A 
ENDROOT
BRANCH   5  18
ATOM     18  C   UNL d   1       0.543   2.520  -0.095  0.00  0.00     0.011 A 
ATOM     19  C   UNL d   1       1.878   2.953  -0.107  0.00  0.00     0.031 A 
ATOM     20  C   UNL d   1       2.204   4.316  -0.218  0.00  0.00     0.049 A 
ATOM     21  C   UNL d   1       1.165   5.255  -0.309  0.00  0.00     0.032 A 
ATOM     22  C   UNL d   1      -0.179   4.848  -0.296  0.00  0.00     0.049 A 
ATOM     23  C   UNL d   1      -0.477   3.478  -0.183  0.00  0.00     0.031 A 
BRANCH  20  24
ATOM     24  C   UNL d   1       3.654   4.738  -0.249  0.00  0.00     0.417 C 
ATOM     25  F   UNL d   1       3.825   6.079  -0.411  0.00  0.00    -0.166 F 
ATOM     26  F   UNL d   1       4.315   4.411   0.895  0.00  0.00    -0.166 F 
ATOM     27  F   UNL d   1       4.344   4.148  -1.264  0.00  0.00    -0.166 F 
ENDBRANCH  20  24
BRANCH  22  28
ATOM     28  C   UNL d   1      -1.304   5.851  -0.413  0.00  0.00     0.417 C 
ATOM     29  F   UNL d   1      -0.872   7.131  -0.575  0.00  0.00    -0.166 F 
ATOM     30  F   UNL d   1      -2.118   5.594  -1.474  0.00  0.00    -0.166 F 
ATOM     31  F   UNL d   1      -2.107   5.861   0.685  0.00  0.00    -0.166 F 
ENDBRANCH  22  28
ENDBRANCH   5  18
TORSDOF 3
