REMARK  5 active torsions:
REMARK  status: ('A' for Active; 'I' for Inactive)
REMARK    1  A    between atoms: C_8  and  C_1 
REMARK    2  A    between atoms: C_9  and  C_7 
REMARK    3  A    between atoms: C_10  and  C_8 
REMARK    4  A    between atoms: C_21  and  C_16 
REMARK    5  A    between atoms: C_24  and  C_21 
ROOT
ATOM      1  C   UNL d   1      -0.163  -1.048  -0.176  0.00  0.00     0.148 A 
ATOM      2  O   UNL d   1       1.067  -0.935  -0.769  0.00  0.00    -0.277 OA
ATOM      3  N   UNL d   1      -0.635   0.110   0.242  0.00  0.00    -0.281 N 
ATOM      4  HN  UNL d   1      -1.530   0.276   0.702  1.00  0.00     0.189 HD
ATOM      5  N   UNL d   1       0.324   1.053  -0.064  0.00  0.00    -0.277 N 
ATOM      6  HN  UNL d   1       0.277   2.054   0.125  1.00  0.00     0.189 HD
ATOM      7  C   UNL d   1       1.313   0.408  -0.651  0.00  0.00     0.174 A 
ENDROOT
BRANCH   1   8
ATOM      8  C   UNL d   1      -0.759  -2.414  -0.094  0.00  0.00     0.091 C 
ATOM      9  C   UNL d   1      -2.290  -2.359  -0.153  0.00  0.00     0.023 C 
BRANCH   8  10
ATOM     10  C   UNL d   1      -0.308  -3.181   1.142  0.00  0.00    -0.046 A 
ATOM     11  C   UNL d   1      -0.508  -2.667   2.431  0.00  0.00     0.008 A 
ATOM     12  C   UNL d   1      -0.167  -3.417   3.559  0.00  0.00     0.007 A 
ATOM     13  C   UNL d   1       0.385  -4.697   3.428  0.00  0.00    -0.058 A 
ATOM     14  C   UNL d   1       0.607  -5.205   2.143  0.00  0.00     0.007 A 
ATOM     15  C   UNL d   1       0.270  -4.453   1.011  0.00  0.00     0.008 A 
BRANCH  13  16
ATOM     16  C   UNL d   1       0.662  -5.526   4.660  0.00  0.00     0.042 C 
BRANCH  16  17
ATOM     17  C   UNL d   1       2.117  -6.006   4.824  0.00  0.00    -0.019 C 
ATOM     18  C   UNL d   1       3.093  -4.838   4.985  0.00  0.00     0.010 C 
ATOM     19  C   UNL d   1       2.216  -6.930   6.042  0.00  0.00     0.010 C 
ENDBRANCH  16  17
ENDBRANCH  13  16
ENDBRANCH   8  10
ENDBRANCH   1   8
BRANCH   7  20
ATOM     20  C   UNL d   1       2.594   0.902  -1.145  0.00  0.00     0.017 A 
ATOM     21  C   UNL d   1       3.514   0.056  -1.785  0.00  0.00     0.017 A 
ATOM     22  C   UNL d   1       4.748   0.546  -2.225  0.00  0.00     0.025 A 
ATOM     23  C   UNL d   1       5.071   1.886  -2.029  0.00  0.00     0.034 A 
ATOM     24  C   UNL d   1       4.168   2.743  -1.406  0.00  0.00     0.025 A 
ATOM     25 CL   UNL d   1       6.597   2.483  -2.554  0.00  0.00    -0.084 Cl
ATOM     26  C   UNL d   1       2.933   2.252  -0.968  0.00  0.00     0.017 A 
ENDBRANCH   7  20
TORSDOF 5
