REMARK  4 active torsions:
REMARK  status: ('A' for Active; 'I' for Inactive)
REMARK    1  A    between atoms: N_3  and  C_1 
REMARK    2  A    between atoms: N_5  and  C_1 
REMARK    3  A    between atoms: C_4  and  N_3 
REMARK    4  A    between atoms: N_8  and  N_5 
ROOT
ATOM      1  N   UNL d   1       0.605  -0.776   0.845  0.00  0.00    -0.331 N 
ATOM      2  H   UNL d   1      -0.411  -0.762   0.819  0.00  0.00     0.168 HD
ENDROOT
BRANCH   1   3
ATOM      3  C   UNL d   1       1.170   0.062  -0.090  0.00  0.00     0.187 C 
ATOM      4  S   UNL d   1       2.601  -0.151  -0.928  0.00  0.00    -0.040 SA
BRANCH   3   5
ATOM      5  N   UNL d   1       0.415   1.186  -0.369  0.00  0.00    -0.296 N 
ATOM      6  H   UNL d   1       0.840   1.839  -1.024  0.00  0.00     0.183 HD
BRANCH   5   7
ATOM      7  N   UNL d   1      -0.539   1.673   0.560  0.00  0.00    -0.238 NA
ATOM      8  C   UNL d   1       0.123   2.542   1.544  0.00  0.00     0.135 C 
ATOM      9  C   UNL d   1      -1.591   2.419  -0.135  0.00  0.00     0.135 C 
ENDBRANCH   5   7
ENDBRANCH   3   5
ENDBRANCH   1   3
BRANCH   1  10
ATOM     10  C   UNL d   1       1.216  -1.771   1.642  0.00  0.00     0.058 A 
ATOM     11  C   UNL d   1       0.492  -2.918   2.017  0.00  0.00     0.082 A 
ATOM     12  C   UNL d   1       1.091  -3.873   2.854  0.00  0.00     0.058 A 
ATOM     13 CL   UNL d   1      -1.115  -3.152   1.402  0.00  0.00    -0.080 Cl
ATOM     14 CL   UNL d   1       0.293  -5.337   3.321  0.00  0.00    -0.082 Cl
ATOM     15  C   UNL d   1       2.383  -3.666   3.349  0.00  0.00     0.026 A 
ATOM     16  C   UNL d   1       3.083  -2.512   3.008  0.00  0.00     0.004 A 
ATOM     17  C   UNL d   1       2.504  -1.574   2.155  0.00  0.00     0.031 A 
ENDBRANCH   1  10
TORSDOF 4
