REMARK  2 active torsions:
REMARK  status: ('A' for Active; 'I' for Inactive)
REMARK    1  A    between atoms: C_13  and  N_3 
REMARK    2  A    between atoms: C_14  and  N_4 
ROOT
ATOM      1  C   UNL d   1       0.087  -0.194  -0.326  0.00  0.00     0.242 C 
ATOM      2  S   UNL d   1      -0.487  -0.575   1.379  0.00  0.00    -0.042 SA
ATOM      3  N   UNL d   1       1.236  -0.998  -0.694  0.00  0.00    -0.270 N 
ATOM      4  N   UNL d   1      -1.120  -0.345  -1.147  0.00  0.00    -0.242 N 
ATOM      5  C   UNL d   1      -2.118  -0.255   0.831  0.00  0.00     0.106 C 
ATOM      6  N   UNL d   1      -2.313  -0.229  -0.452  0.00  0.00    -0.286 N 
ATOM      7  HN  UNL d   1      -3.228  -0.134  -0.892  1.00  0.00     0.188 HD
ATOM      8  S   UNL d   1       0.672   1.537  -0.255  0.00  0.00    -0.092 SA
ATOM      9  C   UNL d   1       2.469  -0.419  -0.359  0.00  0.00     0.237 C 
ATOM     10  C   UNL d   1      -3.135  -0.007   1.827  0.00  0.00     0.039 A 
ATOM     11  S   UNL d   1      -4.714   0.454   1.319  0.00  0.00    -0.099 SA
ATOM     12  C   UNL d   1       2.342   1.010   0.118  0.00  0.00     0.182 C 
ATOM     13  C   UNL d   1      -3.061  -0.035   3.211  0.00  0.00     0.022 A 
ATOM     14  O   UNL d   1       3.566  -0.970  -0.384  0.00  0.00    -0.272 OA
ATOM     15  C   UNL d   1      -5.263   0.642   2.924  0.00  0.00     0.050 A 
ATOM     16  C   UNL d   1      -4.284   0.343   3.841  0.00  0.00     0.008 A 
ENDROOT
BRANCH   3  17
ATOM     17  C   UNL d   1       1.156  -2.306  -1.270  0.00  0.00     0.041 A 
ATOM     18  C   UNL d   1       0.085  -3.178  -1.033  0.00  0.00     0.030 A 
ATOM     19  C   UNL d   1       0.044  -4.448  -1.623  0.00  0.00     0.002 A 
ATOM     20  C   UNL d   1       1.060  -4.857  -2.481  0.00  0.00     0.000 A 
ATOM     21  C   UNL d   1       2.118  -4.004  -2.748  0.00  0.00     0.002 A 
ATOM     22  C   UNL d   1       2.168  -2.745  -2.142  0.00  0.00     0.030 A 
ENDBRANCH   3  17
BRANCH   4  23
ATOM     23  C   UNL d   1      -1.200  -0.339  -2.542  0.00  0.00     0.055 A 
ATOM     24  C   UNL d   1      -2.294  -0.965  -3.175  0.00  0.00     0.031 A 
ATOM     25  C   UNL d   1      -2.421  -1.016  -4.566  0.00  0.00     0.002 A 
ATOM     26  C   UNL d   1      -1.464  -0.409  -5.368  0.00  0.00     0.000 A 
ATOM     27  C   UNL d   1      -0.381   0.231  -4.776  0.00  0.00     0.002 A 
ATOM     28  C   UNL d   1      -0.245   0.252  -3.381  0.00  0.00     0.031 A 
ENDBRANCH   4  23
TORSDOF 2
