REMARK  5 active torsions:
REMARK  status: ('A' for Active; 'I' for Inactive)
REMARK    1  A    between atoms: C_8  and  N_1 
REMARK    2  A    between atoms: C_7  and  C_2 
REMARK    3  A    between atoms: N_12  and  C_9 
REMARK    4  A    between atoms: C_13  and  N_12 
REMARK    5  A    between atoms: O_23  and  C_15 
ROOT
ATOM      1  N   UNL d   1       3.777   0.700   0.078  0.00  0.00    -0.225 N 
ATOM      2  C   UNL d   1       3.671  -0.689  -0.021  0.00  0.00     0.139 C 
ATOM      3  N   UNL d   1       5.743  -0.113  -0.155  0.00  0.00    -0.007 NA
ATOM      4  N   UNL d   1       5.073   1.028  -0.144  0.00  0.00     0.001 NA
ATOM      5  N   UNL d   1       4.894  -1.184  -0.065  0.00  0.00    -0.270 N 
ATOM      6  HN  UNL d   1       5.156  -2.170  -0.037  1.00  0.00     0.185 HD
ENDROOT
BRANCH   2   7
ATOM      7  C   UNL d   1       2.419  -1.324  -0.195  0.00  0.00     0.068 C 
ATOM      8  C   UNL d   1       2.161  -2.593   0.145  0.00  0.00     0.092 C 
BRANCH   8   9
ATOM      9  N   UNL d   1       2.956  -3.545   0.725  0.00  0.00    -0.366 N 
ATOM     10  H   UNL d   1       3.931  -3.284   0.863  0.00  0.00     0.165 HD
BRANCH   9  11
ATOM     11  C   UNL d   1       2.633  -4.888   1.010  0.00  0.00     0.032 A 
ATOM     12  C   UNL d   1       1.416  -5.483   0.646  0.00  0.00     0.032 A 
ATOM     13  C   UNL d   1       1.105  -6.805   0.996  0.00  0.00     0.039 A 
ATOM     14  C   UNL d   1       2.003  -7.563   1.738  0.00  0.00     0.068 A 
ATOM     15  C   UNL d   1       3.213  -6.984   2.120  0.00  0.00     0.039 A 
ATOM     16  C   UNL d   1       3.524  -5.663   1.763  0.00  0.00     0.032 A 
BRANCH  14  17
ATOM     17  O   UNL d   1       1.812  -8.850   2.158  0.00  0.00    -0.356 OA
ATOM     18  C   UNL d   1       0.624  -9.500   1.719  0.00  0.00     0.210 C 
ENDBRANCH  14  17
ENDBRANCH   9  11
ENDBRANCH   8   9
ENDBRANCH   2   7
BRANCH   1  19
ATOM     19  C   UNL d   1       2.817   1.697   0.404  0.00  0.00     0.056 A 
ATOM     20  C   UNL d   1       1.672   1.385   1.153  0.00  0.00     0.033 A 
ATOM     21  C   UNL d   1       0.756   2.387   1.490  0.00  0.00     0.026 A 
ATOM     22  C   UNL d   1       0.979   3.700   1.082  0.00  0.00     0.034 A 
ATOM     23  C   UNL d   1       2.118   4.024   0.348  0.00  0.00     0.026 A 
ATOM     24 CL   UNL d   1      -0.149   4.927   1.504  0.00  0.00    -0.084 Cl
ATOM     25  C   UNL d   1       3.045   3.029   0.019  0.00  0.00     0.033 A 
ENDBRANCH   1  19
TORSDOF 5
