REMARK  7 active torsions:
REMARK  status: ('A' for Active; 'I' for Inactive)
REMARK    1  A    between atoms: N_2  and  C_1 
REMARK    2  A    between atoms: N_5  and  C_1 
REMARK    3  A    between atoms: C_8  and  N_2 
REMARK    4  A    between atoms: C_9  and  C_4 
REMARK    5  A    between atoms: C_13  and  N_5 
REMARK    6  A    between atoms: O_12  and  C_14 
REMARK    7  A    between atoms: C_14  and  C_13 
ROOT
ATOM      1  N   UNL d   1       0.539  -1.068  -0.341  0.00  0.00    -0.333 N 
ATOM      2  H   UNL d   1       0.360  -0.590  -1.225  0.00  0.00     0.168 HD
ENDROOT
BRANCH   1   3
ATOM      3  C   UNL d   1       0.133  -0.364   0.759  0.00  0.00     0.172 C 
ATOM      4  S   UNL d   1      -0.513  -0.970   2.176  0.00  0.00    -0.041 SA
BRANCH   3   5
ATOM      5  N   UNL d   1       0.234   0.997   0.646  0.00  0.00    -0.365 N 
ATOM      6  H   UNL d   1      -0.078   1.487   1.478  0.00  0.00     0.161 HD
BRANCH   5   7
ATOM      7  C   UNL d   1       1.163   1.706  -0.228  0.00  0.00     0.148 C 
BRANCH   7   8
ATOM      8  C   UNL d   1       0.590   2.016  -1.613  0.00  0.00     0.183 C 
BRANCH   8   9
ATOM      9  O   UNL d   1       0.434   0.823  -2.383  0.00  0.00    -0.399 OA
ATOM     10  H   UNL d   1       0.164   1.107  -3.277  0.00  0.00     0.209 HD
ENDBRANCH   8   9
ENDBRANCH   7   8
ENDBRANCH   5   7
ENDBRANCH   3   5
ENDBRANCH   1   3
BRANCH   1  11
ATOM     11  C   UNL d   1       1.022  -2.387  -0.436  0.00  0.00     0.034 A 
ATOM     12  C   UNL d   1       0.857  -3.062  -1.648  0.00  0.00     0.030 A 
ATOM     13  C   UNL d   1       1.428  -4.325  -1.841  0.00  0.00     0.010 A 
ATOM     14  C   UNL d   1       2.222  -4.910  -0.846  0.00  0.00    -0.055 A 
ATOM     15  C   UNL d   1       2.366  -4.236   0.374  0.00  0.00     0.010 A 
ATOM     16  C   UNL d   1       1.765  -2.989   0.579  0.00  0.00     0.030 A 
BRANCH  14  17
ATOM     17  C   UNL d   1       2.969  -6.211  -1.080  0.00  0.00     0.010 C 
ATOM     18  C   UNL d   1       2.024  -7.403  -1.224  0.00  0.00     0.015 C 
ATOM     19  C   UNL d   1       3.899  -6.101  -2.293  0.00  0.00     0.015 C 
ENDBRANCH  14  17
ENDBRANCH   1  11
TORSDOF 7
