REMARK  2 active torsions:
REMARK  status: ('A' for Active; 'I' for Inactive)
REMARK    1  A    between atoms: N_5  and  S_1 
REMARK    2  A    between atoms: C_6  and  N_5 
ROOT
ATOM      1  C   UNL d   1      -3.219  -2.528  -0.845  0.00  0.00     0.258 C 
ATOM      2  C   UNL d   1      -2.188  -1.633  -1.632  0.00  0.00     0.066 C 
ATOM      3  N   UNL d   1      -3.874  -1.829   0.299  0.00  0.00     0.098 NA
ATOM      4  C   UNL d   1      -1.282  -0.667  -0.831  0.00  0.00     0.099 C 
ATOM      5  C   UNL d   1      -2.893  -4.018  -0.630  0.00  0.00    -0.019 A 
ATOM      6  C   UNL d   1      -1.796  -0.592   0.611  0.00  0.00     0.056 C 
ATOM      7  C   UNL d   1      -3.313  -0.513   0.582  0.00  0.00     0.275 C 
ATOM      8  C   UNL d   1      -3.520  -4.731   0.418  0.00  0.00    -0.048 A 
ATOM      9  C   UNL d   1      -3.971  -2.595   1.546  0.00  0.00     0.278 C 
ATOM     10  C   UNL d   1      -4.458  -4.015   1.341  0.00  0.00     0.069 C 
ATOM     11  C   UNL d   1      -2.153  -4.768  -1.558  0.00  0.00     0.010 A 
ATOM     12  C   UNL d   1      -3.352  -6.119   0.562  0.00  0.00     0.008 A 
ATOM     13  C   UNL d   1      -1.996  -6.154  -1.417  0.00  0.00     0.001 A 
ATOM     14  C   UNL d   1      -2.585  -6.828  -0.351  0.00  0.00     0.001 A 
ENDROOT
BRANCH   4  15
ATOM     15  N   UNL d   1      -1.191   0.778  -1.342  0.00  0.00    -0.311 N 
ATOM     16  C   UNL d   1      -0.120   1.560  -0.632  0.00  0.00     0.163 C 
BRANCH  15  17
ATOM     17  S   UNL d   1      -1.246   1.175  -3.014  0.00  0.00     0.224 S 
ATOM     18  O   UNL d   1      -2.296   0.452  -3.699  0.00  0.00    -0.206 OA
ATOM     19  O   UNL d   1       0.110   1.152  -3.524  0.00  0.00    -0.206 OA
ATOM     20  C   UNL d   1      -1.791   2.873  -2.928  0.00  0.00     0.186 C 
ENDBRANCH  15  17
ENDBRANCH   4  15
TORSDOF 2
