REMARK  4 active torsions:
REMARK  status: ('A' for Active; 'I' for Inactive)
REMARK       I    between atoms: C_4  and  N_1 
REMARK    1  A    between atoms: C_3  and  N_8 
REMARK    2  A    between atoms: N_6  and  C_3 
REMARK    3  A    between atoms: C_9  and  N_6 
REMARK    4  A    between atoms: N_8  and  C_14 
ROOT
ATOM      1  N   UNL d   1      -3.312  -1.351   0.302  0.00  0.00    -0.333 N 
ATOM      2  H   UNL d   1      -4.056  -0.664   0.259  0.00  0.00     0.168 HD
ENDROOT
BRANCH   1   3
ATOM      3  C   UNL d   1      -3.747  -2.645   0.221  0.00  0.00     0.176 C 
ATOM      4  S   UNL d   1      -3.229  -3.912   1.184  0.00  0.00    -0.041 SA
BRANCH   3   5
ATOM      5  N   UNL d   1      -4.800  -2.877  -0.624  0.00  0.00    -0.332 N 
ATOM      6  H   UNL d   1      -5.296  -3.745  -0.431  0.00  0.00     0.168 HD
BRANCH   5   7
ATOM      7  C   UNL d   1      -5.125  -2.289  -1.875  0.00  0.00     0.056 A 
ATOM      8  C   UNL d   1      -6.281  -2.737  -2.544  0.00  0.00     0.060 A 
ATOM      9 CL   UNL d   1      -7.342  -3.896  -1.815  0.00  0.00    -0.082 Cl
ATOM     10  C   UNL d   1      -6.602  -2.274  -3.824  0.00  0.00     0.026 A 
ATOM     11  C   UNL d   1      -5.768  -1.356  -4.459  0.00  0.00     0.002 A 
ATOM     12  C   UNL d   1      -4.623  -0.902  -3.811  0.00  0.00     0.002 A 
ATOM     13  C   UNL d   1      -4.301  -1.366  -2.529  0.00  0.00     0.031 A 
ENDBRANCH   5   7
ENDBRANCH   3   5
ENDBRANCH   1   3
BRANCH   1  14
ATOM     14  C   UNL d   1      -2.010  -0.855   0.500  0.00  0.00     0.034 A 
ATOM     15  C   UNL d   1      -1.882   0.489   0.889  0.00  0.00     0.032 A 
ATOM     16  C   UNL d   1      -0.633   1.122   0.914  0.00  0.00     0.032 A 
ATOM     17  C   UNL d   1       0.477   0.408   0.506  0.00  0.00     0.043 A 
ATOM     18  N   UNL d   1       1.804   0.823   0.312  0.00  0.00    -0.318 N 
ATOM     19  C   UNL d   1       0.364  -0.950   0.200  0.00  0.00    -0.027 A 
ATOM     20  C   UNL d   1       2.371   2.074   0.245  0.00  0.00     0.220 C 
ATOM     21  C   UNL d   1       2.637  -0.373   0.113  0.00  0.00     0.137 C 
ATOM     22  O   UNL d   1       3.594   2.227   0.204  0.00  0.00    -0.273 OA
ATOM     23  C   UNL d   1       1.478   3.285   0.151  0.00  0.00     0.117 C 
ATOM     24  C   UNL d   1       1.685  -1.532  -0.199  0.00  0.00     0.061 C 
ATOM     25  C   UNL d   1      -0.867  -1.593   0.183  0.00  0.00     0.039 A 
ENDBRANCH   1  14
TORSDOF 4
