REMARK  2 active torsions:
REMARK  status: ('A' for Active; 'I' for Inactive)
REMARK       I    between atoms: C_4  and  N_14 
REMARK       I    between atoms: N_6  and  C_4 
REMARK    1  A    between atoms: C_11  and  N_6 
REMARK    2  A    between atoms: N_14  and  C_12 
ROOT
ATOM      1  C   UNL d   1      -1.047   0.678   1.707  0.00  0.00     0.069 A 
ATOM      2  S   UNL d   1       0.766   1.502   3.068  0.00  0.00     0.068 SA
ATOM      3  C   UNL d   1      -0.010  -0.406   1.816  0.00  0.00     0.067 A 
ATOM      4  C   UNL d   1      -2.250   0.468   0.988  0.00  0.00     0.062 A 
ATOM      5  N   UNL d   1      -0.705   1.800   2.356  0.00  0.00    -0.310 N 
ATOM      6  HN  UNL d   1      -1.243   2.666   2.402  1.00  0.00     0.176 HD
ATOM      7  N   UNL d   1       1.053  -0.052   2.555  0.00  0.00    -0.310 N 
ATOM      8  HN  UNL d   1       1.873  -0.624   2.761  1.00  0.00     0.176 HD
ATOM      9  C   UNL d   1      -2.428  -0.805   0.419  0.00  0.00     0.038 A 
ATOM     10  C   UNL d   1      -0.201  -1.653   1.184  0.00  0.00     0.035 A 
ATOM     11  C   UNL d   1      -1.421  -1.811   0.497  0.00  0.00     0.032 A 
ENDROOT
BRANCH   9  12
ATOM     12  N   UNL d   1      -3.626  -1.191  -0.219  0.00  0.00    -0.309 N 
ATOM     13  C   UNL d   1      -4.789  -0.489  -0.348  0.00  0.00     0.325 C 
ATOM     14  N   UNL d   1      -5.858  -1.138  -0.904  0.00  0.00    -0.303 N 
ATOM     15  O   UNL d   1      -4.948   0.692  -0.047  0.00  0.00    -0.247 OA
ATOM     16  H   UNL d   1      -6.616  -0.495  -1.100  0.00  0.00     0.171 HD
ATOM     17  H   UNL d   1      -3.666  -2.133  -0.582  0.00  0.00     0.170 HD
BRANCH  14  18
ATOM     18  C   UNL d   1      -6.115  -2.473  -1.143  0.00  0.00     0.077 A 
ATOM     19  S   UNL d   1      -5.143  -3.727  -0.540  0.00  0.00    -0.084 SA
ATOM     20  C   UNL d   1      -6.168  -4.934  -1.180  0.00  0.00     0.052 A 
ATOM     21  C   UNL d   1      -7.235  -4.390  -1.857  0.00  0.00     0.010 A 
ATOM     22  C   UNL d   1      -7.210  -2.963  -1.824  0.00  0.00     0.038 A 
ENDBRANCH  14  18
ENDBRANCH   9  12
TORSDOF 2
