REMARK  4 active torsions:
REMARK  status: ('A' for Active; 'I' for Inactive)
REMARK    1  A    between atoms: C_6  and  C_1 
REMARK    2  A    between atoms: C_2  and  C_3 
REMARK       I    between atoms: C_3  and  N_5 
REMARK    3  A    between atoms: N_5  and  C_4 
REMARK    4  A    between atoms: O_14  and  C_6 
ROOT
ATOM      1  C   UNL d   1       1.027  -0.183  -0.261  0.00  0.00     0.065 A 
ATOM      2  C   UNL d   1       0.509   1.117  -0.074  0.00  0.00     0.052 A 
ATOM      3  C   UNL d   1       0.167  -1.294  -0.269  0.00  0.00     0.027 A 
ATOM      4  C   UNL d   1      -0.863   1.271   0.146  0.00  0.00     0.031 A 
ATOM      5  C   UNL d   1      -1.202  -1.135  -0.022  0.00  0.00    -0.061 A 
ATOM      6  C   UNL d   1      -1.707   0.156   0.171  0.00  0.00     0.009 A 
ATOM      7  C   UNL d   1      -2.125  -2.317  -0.020  0.00  0.00     0.048 C 
ENDROOT
BRANCH   2   8
ATOM      8  N   UNL d   1       1.383   2.215   0.017  0.00  0.00    -0.319 N 
ATOM      9  C   UNL d   1       1.254   3.501  -0.448  0.00  0.00     0.330 C 
ATOM     10  O   UNL d   1       2.068   4.330  -0.018  0.00  0.00    -0.263 OA
ATOM     11  H   UNL d   1       2.346   2.031   0.292  0.00  0.00     0.169 HD
BRANCH   9  12
ATOM     12  C   UNL d   1       0.222   3.873  -1.532  0.00  0.00     0.472 C 
ATOM     13  F   UNL d   1      -0.482   2.828  -2.049  0.00  0.00    -0.162 F 
ATOM     14  F   UNL d   1      -0.704   4.763  -1.074  0.00  0.00    -0.162 F 
ATOM     15  F   UNL d   1       0.821   4.468  -2.606  0.00  0.00    -0.162 F 
ENDBRANCH   9  12
ENDBRANCH   2   8
BRANCH   1  16
ATOM     16  C   UNL d   1       2.469  -0.366  -0.570  0.00  0.00     0.178 C 
ATOM     17  O   UNL d   1       3.121   0.429  -1.220  0.00  0.00    -0.646 OA
BRANCH  16  18
ATOM     18  O   UNL d   1       3.011  -1.463   0.002  0.00  0.00    -0.773 OA
ATOM     19  H   UNL d   1       2.440  -1.929   0.641  0.00  0.00     0.167 HD
ENDBRANCH  16  18
ENDBRANCH   1  16
TORSDOF 4
