REMARK  4 active torsions:
REMARK  status: ('A' for Active; 'I' for Inactive)
REMARK    1  A    between atoms: C_3  and  C_1 
REMARK    2  A    between atoms: N_8  and  C_2 
REMARK    3  A    between atoms: N_6  and  N_8 
REMARK    4  A    between atoms: C_11  and  C_9 
ROOT
ATOM      1  C   UNL d   1      -1.489   0.806  -0.418  0.00  0.00     0.089 A 
ATOM      2  C   UNL d   1      -2.435  -0.167  -0.076  0.00  0.00     0.115 A 
ATOM      3  N   UNL d   1      -2.016  -1.388   0.381  0.00  0.00    -0.353 N 
ATOM      4  HN  UNL d   1      -2.700  -2.118   0.586  1.00  0.00     0.166 HD
ATOM      5  C   UNL d   1      -0.117   0.526  -0.201  0.00  0.00     0.044 A 
ATOM      6  C   UNL d   1      -0.698  -1.628   0.562  0.00  0.00     0.113 A 
ATOM      7  C   UNL d   1       0.282  -0.704   0.296  0.00  0.00     0.050 A 
ATOM      8 CL   UNL d   1       1.937  -1.059   0.549  0.00  0.00    -0.083 Cl
ENDROOT
BRANCH   2   9
ATOM      9  N   UNL d   1      -3.833   0.042  -0.225  0.00  0.00    -0.185 NA
ATOM     10  C   UNL d   1      -4.608  -1.155   0.156  0.00  0.00     0.144 C 
BRANCH   9  11
ATOM     11  N   UNL d   1      -4.321   1.239   0.262  0.00  0.00    -0.324 N 
ATOM     12  C   UNL d   1      -5.406   1.632  -0.344  0.00  0.00     0.115 C 
ATOM     13  HN  UNL d   1      -3.878   1.762   1.017  1.00  0.00     0.180 HD
BRANCH  12  14
ATOM     14  C   UNL d   1      -6.125   2.870   0.017  0.00  0.00     0.002 A 
ATOM     15  C   UNL d   1      -7.379   3.171  -0.533  0.00  0.00     0.045 A 
ATOM     16 CL   UNL d   1      -8.206   2.121  -1.631  0.00  0.00    -0.083 Cl
ATOM     17  C   UNL d   1      -8.028   4.361  -0.183  0.00  0.00     0.024 A 
ATOM     18  C   UNL d   1      -7.432   5.249   0.712  0.00  0.00     0.002 A 
ATOM     19  C   UNL d   1      -6.189   4.950   1.265  0.00  0.00     0.001 A 
ATOM     20  C   UNL d   1      -5.536   3.764   0.922  0.00  0.00     0.014 A 
ENDBRANCH  12  14
ENDBRANCH   9  11
ENDBRANCH   2   9
BRANCH   1  21
ATOM     21  C   UNL d   1      -1.818   2.145  -1.017  0.00  0.00     0.420 C 
ATOM     22  F   UNL d   1      -2.979   2.252  -1.721  0.00  0.00    -0.166 F 
ATOM     23  F   UNL d   1      -1.819   3.147  -0.095  0.00  0.00    -0.166 F 
ATOM     24  F   UNL d   1      -0.859   2.515  -1.926  0.00  0.00    -0.166 F 
ENDBRANCH   1  21
TORSDOF 4
