REMARK  4 active torsions:
REMARK  status: ('A' for Active; 'I' for Inactive)
REMARK    1  A    between atoms: C_10  and  C_3 
REMARK    2  A    between atoms: C_14  and  C_4 
REMARK    3  A    between atoms: N_11  and  C_5 
REMARK       I    between atoms: C_12  and  N_11 
REMARK       I    between atoms: N_13  and  C_12 
REMARK    4  A    between atoms: C_19  and  N_13 
ROOT
ATOM      1  C   UNL d   1       0.035   0.636  -0.523  0.00  0.00     0.077 A 
ATOM      2  C   UNL d   1      -0.204  -0.660  -0.265  0.00  0.00     0.071 A 
ATOM      3  C   UNL d   1      -2.333   0.244  -0.182  0.00  0.00     0.103 A 
ATOM      4  C   UNL d   1      -1.590  -0.945  -0.069  0.00  0.00     0.025 A 
ATOM      5  C   UNL d   1       1.969  -0.727  -0.498  0.00  0.00     0.154 A 
ATOM      6  S   UNL d   1      -1.301   1.613  -0.526  0.00  0.00    -0.075 SA
ATOM      7  S   UNL d   1       1.646   0.941  -0.798  0.00  0.00    -0.044 SA
ATOM      8  N   UNL d   1       0.904  -1.475  -0.255  0.00  0.00    -0.334 N 
ATOM      9  HN  UNL d   1       0.905  -2.482  -0.088  1.00  0.00     0.168 HD
ENDROOT
BRANCH   5  10
ATOM     10  N   UNL d   1       3.249  -1.230  -0.488  0.00  0.00    -0.289 N 
ATOM     11  C   UNL d   1       4.468  -0.657  -0.696  0.00  0.00     0.322 C 
ATOM     12  N   UNL d   1       4.515   0.626  -1.135  0.00  0.00    -0.339 N 
ATOM     13  O   UNL d   1       5.482  -1.325  -0.478  0.00  0.00    -0.247 OA
ATOM     14  H   UNL d   1       3.669   0.976  -1.558  0.00  0.00     0.164 HD
ATOM     15  H   UNL d   1       3.302  -2.198  -0.196  0.00  0.00     0.172 HD
BRANCH  12  16
ATOM     16  C   UNL d   1       5.710   1.426  -1.363  0.00  0.00     0.078 C 
ATOM     17  C   UNL d   1       6.579   1.560  -0.117  0.00  0.00     0.032 C 
ATOM     18  C   UNL d   1       6.513   0.943  -2.567  0.00  0.00     0.032 C 
ENDBRANCH  12  16
ENDBRANCH   5  10
BRANCH   4  19
ATOM     19  C   UNL d   1      -2.208  -2.263   0.079  0.00  0.00    -0.022 A 
ATOM     20  C   UNL d   1      -3.179  -2.527   1.054  0.00  0.00     0.012 A 
ATOM     21  C   UNL d   1      -3.885  -3.735   1.044  0.00  0.00     0.001 A 
ATOM     22  C   UNL d   1      -3.591  -4.709   0.092  0.00  0.00     0.000 A 
ATOM     23  C   UNL d   1      -2.571  -4.490  -0.830  0.00  0.00     0.001 A 
ATOM     24  C   UNL d   1      -1.881  -3.275  -0.835  0.00  0.00     0.012 A 
ENDBRANCH   4  19
BRANCH   3  25
ATOM     25  C   UNL d   1      -3.796   0.554  -0.086  0.00  0.00     0.424 C 
ATOM     26  F   UNL d   1      -4.604  -0.526   0.018  0.00  0.00    -0.166 F 
ATOM     27  F   UNL d   1      -4.056   1.331   1.000  0.00  0.00    -0.166 F 
ATOM     28  F   UNL d   1      -4.236   1.247  -1.171  0.00  0.00    -0.166 F 
ENDBRANCH   3  25
TORSDOF 4
