REMARK  1 active torsions:
REMARK  status: ('A' for Active; 'I' for Inactive)
REMARK    1  A    between atoms: C_2  and  N_1 
ROOT
ATOM      1  N   UNL d   1      -2.413   0.007  -0.020  0.00  0.00    -0.372 N 
ATOM      2  C   UNL d   1      -1.575   0.662  -1.036  0.00  0.00     0.162 A 
ATOM      3  C   UNL d   1      -1.615  -0.645   1.029  0.00  0.00     0.162 A 
ATOM      4  C   UNL d   1      -0.181   0.366  -0.576  0.00  0.00    -0.032 A 
ATOM      5  C   UNL d   1      -0.205  -0.378   0.606  0.00  0.00    -0.032 A 
ATOM      6  C   UNL d   1       1.018   0.731  -1.167  0.00  0.00     0.009 A 
ATOM      7  C   UNL d   1       0.970  -0.773   1.227  0.00  0.00     0.009 A 
ATOM      8  C   UNL d   1       2.207   0.336  -0.551  0.00  0.00     0.001 A 
ATOM      9  C   UNL d   1       2.183  -0.409   0.638  0.00  0.00     0.001 A 
ENDROOT
BRANCH   1  10
ATOM     10  C   UNL d   1      -3.790  -0.004  -0.050  0.00  0.00     0.031 A 
ATOM     11  C   UNL d   1      -4.514   0.613  -1.083  0.00  0.00     0.036 A 
ATOM     12  C   UNL d   1      -5.919   0.603  -1.130  0.00  0.00    -0.059 A 
ATOM     13  C   UNL d   1      -6.654   1.266  -2.258  0.00  0.00     0.048 C 
ATOM     14  C   UNL d   1      -6.630  -0.033  -0.111  0.00  0.00     0.013 A 
ATOM     15  C   UNL d   1      -5.951  -0.654   0.938  0.00  0.00    -0.059 A 
ATOM     16  C   UNL d   1      -4.546  -0.634   0.952  0.00  0.00     0.036 A 
ATOM     17  C   UNL d   1      -6.718  -1.336   2.032  0.00  0.00     0.048 C 
ENDBRANCH   1  10
TORSDOF 1
