REMARK  4 active torsions:
REMARK  status: ('A' for Active; 'I' for Inactive)
REMARK    1  A    between atoms: N_2  and  S_1 
REMARK    2  A    between atoms: C_10  and  S_1 
REMARK    3  A    between atoms: C_3  and  N_8 
REMARK    4  A    between atoms: C_4  and  C_5 
ROOT
ATOM      1  N   UNL d   1       0.428  -1.088  -0.688  0.00  0.00    -0.203 NA
ATOM      2  N   UNL d   1      -0.874  -3.227   0.807  0.00  0.00    -0.364 N 
ATOM      3  C   UNL d   1      -1.062  -1.093  -0.516  0.00  0.00     0.127 C 
ATOM      4  C   UNL d   1       0.919  -2.497  -0.750  0.00  0.00     0.127 C 
ATOM      5  C   UNL d   1      -1.512  -1.891   0.735  0.00  0.00     0.140 C 
ATOM      6  C   UNL d   1       0.567  -3.276   0.530  0.00  0.00     0.140 C 
ENDROOT
BRANCH   2   7
ATOM      7  C   UNL d   1      -1.526  -4.176   1.584  0.00  0.00     0.125 A 
ATOM      8  N   UNL d   1      -2.881  -4.186   1.442  0.00  0.00    -0.350 N 
ATOM      9  C   UNL d   1      -3.622  -5.164   2.016  0.00  0.00     0.106 A 
ATOM     10  HN  UNL d   1      -3.340  -3.453   0.900  1.00  0.00     0.166 HD
ATOM     11  C   UNL d   1      -3.093  -6.194   2.764  0.00  0.00     0.065 A 
ATOM     12  C   UNL d   1      -1.718  -6.167   2.975  0.00  0.00     0.045 A 
ATOM     13  C   UNL d   1      -0.929  -5.155   2.404  0.00  0.00     0.078 A 
ATOM     14 CL   UNL d   1       0.740  -5.204   2.869  0.00  0.00    -0.080 Cl
BRANCH  11  15
ATOM     15  C   UNL d   1      -3.977  -7.272   3.303  0.00  0.00     0.418 C 
ATOM     16  F   UNL d   1      -3.302  -8.232   3.992  0.00  0.00    -0.166 F 
ATOM     17  F   UNL d   1      -4.925  -6.795   4.155  0.00  0.00    -0.166 F 
ATOM     18  F   UNL d   1      -4.653  -7.928   2.320  0.00  0.00    -0.166 F 
ENDBRANCH  11  15
ENDBRANCH   2   7
BRANCH   1  19
ATOM     19  S   UNL d   1       1.304  -0.053   0.343  0.00  0.00     0.243 S 
ATOM     20  O   UNL d   1       2.604  -0.641   0.579  0.00  0.00    -0.206 OA
ATOM     21  O   UNL d   1       0.456   0.344   1.447  0.00  0.00    -0.206 OA
BRANCH  19  22
ATOM     22  C   UNL d   1       1.571   1.399  -0.660  0.00  0.00     0.074 A 
ATOM     23  C   UNL d   1       0.649   2.449  -0.626  0.00  0.00     0.025 A 
ATOM     24  C   UNL d   1       0.973   3.673  -1.222  0.00  0.00     0.008 A 
ATOM     25  C   UNL d   1       2.223   3.861  -1.827  0.00  0.00    -0.062 A 
ATOM     26  C   UNL d   1       3.117   2.787  -1.900  0.00  0.00     0.008 A 
ATOM     27  C   UNL d   1       2.596   5.204  -2.391  0.00  0.00     0.048 C 
ATOM     28  C   UNL d   1       2.797   1.560  -1.312  0.00  0.00     0.025 A 
ENDBRANCH  19  22
ENDBRANCH   1  19
TORSDOF 4
