REMARK  2 active torsions:
REMARK  status: ('A' for Active; 'I' for Inactive)
REMARK    1  A    between atoms: S_11  and  C_8 
REMARK    2  A    between atoms: N_12  and  C_9 
ROOT
ATOM      1  C   UNL d   1      -1.643  -0.250  -0.109  0.00  0.00     0.684 A 
ATOM      2  N   UNL d   1      -0.874  -1.332  -0.180  0.00  0.00    -0.170 N 
ATOM      3  HN  UNL d   1      -1.261  -2.271  -0.277  1.00  0.00     0.186 HD
ATOM      4  N   UNL d   1      -1.154   0.982   0.010  0.00  0.00    -0.166 N 
ATOM      5  HN  UNL d   1      -1.762   1.800   0.047  1.00  0.00     0.187 HD
ATOM      6  N   UNL d   1       1.007   0.083  -0.000  0.00  0.00    -0.312 N 
ATOM      7  HN  UNL d   1       2.019   0.210   0.028  1.00  0.00     0.170 HD
ATOM      8  C   UNL d   1       0.434  -1.107  -0.117  0.00  0.00     0.161 A 
ATOM      9  C   UNL d   1       0.160   1.089   0.076  0.00  0.00     0.171 A 
ATOM     10  N   UNL d   1      -2.999  -0.400  -0.146  0.00  0.00    -0.217 N 
ATOM     11  C   UNL d   1      -3.657  -1.664  -0.383  0.00  0.00     0.141 C 
ATOM     12  C   UNL d   1      -3.896   0.736  -0.192  0.00  0.00     0.141 C 
ATOM     13  C   UNL d   1      -5.261   0.124  -0.508  0.00  0.00     0.022 C 
ATOM     14  C   UNL d   1      -5.126  -1.343  -0.120  0.00  0.00     0.022 C 
ENDROOT
BRANCH   8  15
ATOM     15  S   UNL d   1       1.560  -2.488  -0.196  0.00  0.00    -0.098 SA
ATOM     16  C   UNL d   1       0.408  -3.845  -0.509  0.00  0.00     0.099 C 
ENDBRANCH   8  15
BRANCH   9  17
ATOM     17  N   UNL d   1       0.689   2.360   0.189  0.00  0.00    -0.273 NA
ATOM     18  H   UNL d   1       1.635   2.377  -0.169  0.00  0.00     0.127 HD
ATOM     19  H   UNL d   1       0.040   3.042  -0.174  0.00  0.00     0.127 HD
ENDBRANCH   9  17
TORSDOF 2
