REMARK  0 active torsions:
REMARK  status: ('A' for Active; 'I' for Inactive)
ROOT
ATOM      1  S   UNL d   1       0.217  -2.319  -0.461  0.00  0.00     0.181 S 
ATOM      2  C   UNL d   1      -0.916   0.479  -0.036  0.00  0.00     0.072 A 
ATOM      3  C   UNL d   1      -1.706  -0.634   0.182  0.00  0.00     0.040 A 
ATOM      4  C   UNL d   1       0.533   0.388  -0.050  0.00  0.00     0.016 A 
ATOM      5  C   UNL d   1      -1.293  -2.026   0.448  0.00  0.00     0.195 C 
ATOM      6  C   UNL d   1       1.181  -0.847  -0.204  0.00  0.00     0.072 A 
ATOM      7  N   UNL d   1      -2.918   1.473  -0.155  0.00  0.00    -0.061 NA
ATOM      8  N   UNL d   1      -1.609   1.663  -0.211  0.00  0.00    -0.291 N 
ATOM      9  HN  UNL d   1      -1.167   2.570  -0.363  1.00  0.00     0.183 HD
ATOM     10  S   UNL d   1      -3.335  -0.126   0.121  0.00  0.00    -0.002 SA
ATOM     11  O   UNL d   1      -0.081  -2.371  -1.878  0.00  0.00    -0.222 OA
ATOM     12  O   UNL d   1       0.921  -3.405   0.198  0.00  0.00    -0.222 OA
ATOM     13  C   UNL d   1       2.575  -0.954  -0.154  0.00  0.00     0.026 A 
ATOM     14  C   UNL d   1       1.316   1.538   0.116  0.00  0.00     0.039 A 
ATOM     15  C   UNL d   1       2.709   1.437   0.156  0.00  0.00     0.035 A 
ATOM     16  C   UNL d   1       3.339   0.198   0.031  0.00  0.00     0.025 A 
ATOM     17 CL   UNL d   1       3.661   2.854   0.372  0.00  0.00    -0.084 Cl
ENDROOT
TORSDOF 0
