REMARK  0 active torsions:
REMARK  status: ('A' for Active; 'I' for Inactive)
ROOT
ATOM      1  C   UNL d   1      -0.098  -0.007   0.040  0.00  0.00     0.051 A 
ATOM      2  C   UNL d   1      -0.215  -1.396   0.011  0.00  0.00     0.090 A 
ATOM      3  C   UNL d   1       1.282   0.485   0.027  0.00  0.00     0.142 A 
ATOM      4  N   UNL d   1       0.804  -2.321  -0.028  0.00  0.00    -0.344 N 
ATOM      5  HN  UNL d   1       0.624  -3.325  -0.046  1.00  0.00     0.167 HD
ATOM      6  N   UNL d   1       2.268  -0.457  -0.012  0.00  0.00    -0.234 N 
ATOM      7  S   UNL d   1      -1.882  -1.857   0.026  0.00  0.00    -0.075 SA
ATOM      8  C   UNL d   1      -1.324   0.652   0.070  0.00  0.00    -0.028 A 
ATOM      9  C   UNL d   1      -2.356  -0.248   0.063  0.00  0.00    -0.008 A 
ATOM     10  N   UNL d   1       1.798   1.688   0.044  0.00  0.00    -0.335 N 
ATOM     11  HN  UNL d   1       1.324   2.591   0.073  1.00  0.00     0.168 HD
ATOM     12  C   UNL d   1       2.020  -1.830  -0.040  0.00  0.00     0.209 A 
ATOM     13  N   UNL d   1       3.486   0.119  -0.022  0.00  0.00    -0.287 N 
ATOM     14  HN  UNL d   1       4.410  -0.312  -0.049  1.00  0.00     0.188 HD
ATOM     15  C   UNL d   1       3.144   1.416   0.014  0.00  0.00     0.199 A 
ATOM     16  C   UNL d   1      -1.816   2.047   0.100  0.00  0.00     0.041 C 
ATOM     17  C   UNL d   1      -3.696   0.388   0.084  0.00  0.00     0.047 C 
ATOM     18  C   UNL d   1      -3.322   1.863  -0.269  0.00  0.00     0.010 C 
ENDROOT
TORSDOF 0
