REMARK  0 active torsions:
REMARK  status: ('A' for Active; 'I' for Inactive)
ROOT
ATOM      1  C   UNL d   1      -0.053  -0.838   0.001  0.00  0.00     0.093 A 
ATOM      2  C   UNL d   1      -0.434   0.479   0.003  0.00  0.00     0.080 A 
ATOM      3  C   UNL d   1       0.636   1.458   0.009  0.00  0.00     0.303 A 
ATOM      4  N   UNL d   1       1.212  -1.300   0.001  0.00  0.00    -0.334 N 
ATOM      5  HN  UNL d   1       1.440  -2.294  -0.001  1.00  0.00     0.168 HD
ATOM      6  S   UNL d   1      -1.377  -1.897  -0.005  0.00  0.00    -0.076 SA
ATOM      7  C   UNL d   1      -1.870   0.637   0.001  0.00  0.00    -0.030 A 
ATOM      8  O   UNL d   1       1.918   0.971   0.008  0.00  0.00    -0.262 OA
ATOM      9  C   UNL d   1      -2.496  -0.605  -0.003  0.00  0.00    -0.012 A 
ATOM     10  C   UNL d   1       2.113  -0.373   0.004  0.00  0.00     0.124 A 
ATOM     11  O   UNL d   1       0.438   2.670   0.011  0.00  0.00    -0.259 OA
ATOM     12  C   UNL d   1      -2.615   1.936   0.003  0.00  0.00     0.050 C 
ATOM     13  C   UNL d   1      -3.959  -0.911  -0.007  0.00  0.00     0.057 C 
ATOM     14  C   UNL d   1       3.566  -0.733   0.004  0.00  0.00     0.098 C 
ENDROOT
TORSDOF 0
