REMARK  7 active torsions:
REMARK  status: ('A' for Active; 'I' for Inactive)
REMARK    1  A    between atoms: N_6  and  C_1 
REMARK    2  A    between atoms: C_10  and  C_2 
REMARK       I    between atoms: C_8  and  N_6 
REMARK       I    between atoms: C_9  and  N_7 
REMARK       I    between atoms: N_13  and  C_8 
REMARK    3  A    between atoms: O_23  and  C_9 
REMARK    4  A    between atoms: O_25  and  C_10 
REMARK    5  A    between atoms: C_17  and  N_13 
REMARK    6  A    between atoms: C_28  and  O_23 
REMARK    7  A    between atoms: C_29  and  O_25 
ROOT
ATOM      1  C   UNL d   1       1.931   1.092  -0.073  0.00  0.00     0.075 A 
ATOM      2  C   UNL d   1       0.777   1.825   0.185  0.00  0.00     0.075 A 
ATOM      3  C   UNL d   1      -0.002  -0.385  -0.192  0.00  0.00     0.010 A 
ATOM      4  C   UNL d   1      -0.381   0.932   0.041  0.00  0.00    -0.023 A 
ATOM      5  S   UNL d   1       1.661  -0.548  -0.426  0.00  0.00    -0.079 SA
ATOM      6  N   UNL d   1      -2.276  -1.137  -0.428  0.00  0.00    -0.323 N 
ATOM      7  C   UNL d   1      -3.137  -1.678  -1.372  0.00  0.00     0.363 C 
ATOM      8  C   UNL d   1      -0.901  -1.593  -0.271  0.00  0.00     0.174 C 
ATOM      9  C   UNL d   1      -1.857   1.257   0.088  0.00  0.00     0.061 C 
ATOM     10  C   UNL d   1      -2.689  -0.006   0.402  0.00  0.00     0.133 C 
ATOM     11  O   UNL d   1      -4.240  -1.202  -1.618  0.00  0.00    -0.238 OA
ENDROOT
BRANCH   1  12
ATOM     12  N   UNL d   1       3.276   1.396  -0.233  0.00  0.00    -0.203 NA
ATOM     13  C   UNL d   1       4.118   1.508   0.849  0.00  0.00     0.303 C 
ATOM     14  N   UNL d   1       3.781   2.442   1.791  0.00  0.00    -0.313 N 
ATOM     15  O   UNL d   1       5.160   0.854   0.832  0.00  0.00    -0.253 OA
ATOM     16  H   UNL d   1       3.144   3.148   1.428  0.00  0.00     0.170 HD
ATOM     17  H   UNL d   1       3.723   0.683  -0.804  0.00  0.00     0.139 HD
BRANCH  14  18
ATOM     18  C   UNL d   1       4.671   2.867   2.799  0.00  0.00     0.037 A 
ATOM     19  C   UNL d   1       5.547   2.000   3.461  0.00  0.00     0.055 A 
ATOM     20  C   UNL d   1       6.486   2.504   4.368  0.00  0.00     0.058 A 
ATOM     21 CL   UNL d   1       7.534   1.379   5.159  0.00  0.00    -0.082 Cl
ATOM     22  C   UNL d   1       6.557   3.881   4.606  0.00  0.00     0.055 A 
ATOM     23  C   UNL d   1       5.656   4.741   3.974  0.00  0.00     0.028 A 
ATOM     24 CL   UNL d   1       7.739   4.586   5.651  0.00  0.00    -0.083 Cl
ATOM     25  C   UNL d   1       4.699   4.232   3.094  0.00  0.00     0.031 A 
ENDBRANCH  14  18
ENDBRANCH   1  12
BRANCH   2  26
ATOM     26  C   UNL d   1       0.797   3.263   0.527  0.00  0.00     0.296 C 
ATOM     27  O   UNL d   1       1.831   3.893   0.716  0.00  0.00    -0.259 OA
BRANCH  26  28
ATOM     28  O   UNL d   1      -0.435   3.809   0.754  0.00  0.00    -0.318 OA
BRANCH  28  29
ATOM     29  C   UNL d   1      -0.461   4.872   1.727  0.00  0.00     0.174 C 
ATOM     30  C   UNL d   1      -0.315   6.272   1.151  0.00  0.00     0.034 C 
ENDBRANCH  28  29
ENDBRANCH  26  28
ENDBRANCH   2  26
BRANCH   7  31
ATOM     31  O   UNL d   1      -2.632  -2.772  -1.992  0.00  0.00    -0.304 OA
BRANCH  31  32
ATOM     32  C   UNL d   1      -3.388  -3.278  -3.108  0.00  0.00     0.176 C 
ATOM     33  C   UNL d   1      -4.537  -4.170  -2.671  0.00  0.00     0.034 C 
ENDBRANCH  31  32
ENDBRANCH   7  31
TORSDOF 7
