REMARK  4 active torsions:
REMARK  status: ('A' for Active; 'I' for Inactive)
REMARK    1  A    between atoms: N_2  and  C_1 
REMARK    2  A    between atoms: N_8  and  C_5 
REMARK       I    between atoms: C_6  and  N_8 
REMARK       I    between atoms: N_11  and  C_6 
REMARK    3  A    between atoms: C_13  and  N_11 
REMARK    4  A    between atoms: C_16  and  C_13 
ROOT
ATOM      1  C   UNL d   1       3.683  -0.922   0.138  0.00  0.00     0.321 C 
ATOM      2  N   UNL d   1       4.437  -2.040   0.072  0.00  0.00    -0.308 N 
ATOM      3  N   UNL d   1       4.261   0.311   0.173  0.00  0.00    -0.339 N 
ATOM      4  O   UNL d   1       2.460  -1.077   0.151  0.00  0.00    -0.247 OA
ATOM      5  H   UNL d   1       3.825  -2.846  -0.000  0.00  0.00     0.170 HD
ATOM      6  H   UNL d   1       5.100   0.406  -0.377  0.00  0.00     0.164 HD
ENDROOT
BRANCH   2   7
ATOM      7  C   UNL d   1       5.787  -2.328   0.152  0.00  0.00     0.045 A 
ATOM      8  C   UNL d   1       6.914  -1.478   0.363  0.00  0.00     0.074 A 
ATOM      9  C   UNL d   1       8.099  -2.194   0.388  0.00  0.00     0.145 A 
ATOM     10  S   UNL d   1       7.874  -3.860   0.170  0.00  0.00    -0.076 SA
ATOM     11  C   UNL d   1       6.185  -3.650   0.042  0.00  0.00     0.081 A 
BRANCH   9  12
ATOM     12  N   UNL d   1       9.427  -1.664   0.576  0.00  0.00    -0.108 N 
ATOM     13  O   UNL d   1       9.511  -0.434   0.669  0.00  0.00    -0.531 OA
ATOM     14  O   UNL d   1      10.376  -2.456   0.627  0.00  0.00    -0.531 OA
ENDBRANCH   9  12
ENDBRANCH   2   7
BRANCH   3  15
ATOM     15  C   UNL d   1       3.329   1.424   0.100  0.00  0.00     0.162 C 
BRANCH  15  16
ATOM     16  C   UNL d   1       3.895   2.807   0.291  0.00  0.00    -0.039 A 
ATOM     17  C   UNL d   1       3.236   3.883  -0.335  0.00  0.00     0.032 A 
ATOM     18  C   UNL d   1       3.619   5.200  -0.083  0.00  0.00     0.034 A 
ATOM     19 CL   UNL d   1       2.773   6.494  -0.837  0.00  0.00    -0.084 Cl
ATOM     20  C   UNL d   1       4.662   5.470   0.796  0.00  0.00     0.024 A 
ATOM     21  C   UNL d   1       5.322   4.414   1.426  0.00  0.00     0.002 A 
ATOM     22  C   UNL d   1       4.937   3.089   1.182  0.00  0.00     0.009 A 
ENDBRANCH  15  16
ENDBRANCH   3  15
TORSDOF 4
