REMARK  3 active torsions:
REMARK  status: ('A' for Active; 'I' for Inactive)
REMARK    1  A    between atoms: C_10  and  C_3 
REMARK    2  A    between atoms: S_8  and  C_4 
REMARK    3  A    between atoms: C_13  and  S_8 
ROOT
ATOM      1  N   UNL d   1       1.736   0.023   0.001  0.00  0.00    -0.335 N 
ATOM      2  HN  UNL d   1       2.754   0.081  -0.030  1.00  0.00     0.168 HD
ATOM      3  C   UNL d   1       0.963   1.128  -0.013  0.00  0.00     0.133 A 
ATOM      4  C   UNL d   1       1.097  -1.159   0.060  0.00  0.00     0.078 A 
ATOM      5  N   UNL d   1      -0.387   1.099   0.022  0.00  0.00    -0.344 N 
ATOM      6  HN  UNL d   1      -0.932   1.962   0.012  1.00  0.00     0.167 HD
ATOM      7  C   UNL d   1      -0.275  -1.280   0.096  0.00  0.00     0.061 A 
ATOM      8  C   UNL d   1      -0.990  -0.103   0.071  0.00  0.00     0.009 A 
ATOM      9  C   UNL d   1      -2.489  -0.100   0.073  0.00  0.00     0.068 C 
ENDROOT
BRANCH   4  10
ATOM     10  S   UNL d   1       2.113  -2.621  -0.027  0.00  0.00    -0.073 SA
BRANCH  10  11
ATOM     11  C   UNL d   1       2.499  -2.911   1.689  0.00  0.00     0.007 A 
ATOM     12  C   UNL d   1       2.204  -4.158   2.248  0.00  0.00     0.019 A 
ATOM     13  C   UNL d   1       2.549  -4.444   3.572  0.00  0.00     0.008 A 
ATOM     14  C   UNL d   1       3.205  -3.488   4.356  0.00  0.00    -0.062 A 
ATOM     15  C   UNL d   1       3.503  -2.240   3.796  0.00  0.00     0.008 A 
ATOM     16  C   UNL d   1       3.586  -3.815   5.769  0.00  0.00     0.048 C 
ATOM     17  C   UNL d   1       3.156  -1.955   2.471  0.00  0.00     0.019 A 
ENDBRANCH  10  11
ENDBRANCH   4  10
BRANCH   3  18
ATOM     18  C   UNL d   1       1.645   2.446  -0.101  0.00  0.00     0.076 A 
ATOM     19  N   UNL d   1       0.868   3.567  -0.050  0.00  0.00    -0.363 N 
ATOM     20  C   UNL d   1       1.474   4.771  -0.139  0.00  0.00     0.088 A 
ATOM     21  HN  UNL d   1      -0.145   3.497   0.052  1.00  0.00     0.165 HD
ATOM     22  C   UNL d   1       2.839   4.937  -0.277  0.00  0.00     0.017 A 
ATOM     23  C   UNL d   1       3.633   3.801  -0.328  0.00  0.00     0.004 A 
ATOM     24  C   UNL d   1       3.034   2.545  -0.239  0.00  0.00     0.033 A 
ENDBRANCH   3  18
TORSDOF 3
