REMARK  0 active torsions:
REMARK  status: ('A' for Active; 'I' for Inactive)
ROOT
ATOM      1  N   UNL d   1       1.199  -1.749   0.107  0.00  0.00    -0.358 N 
ATOM      2  HN  UNL d   1       0.976  -2.742   0.173  1.00  0.00     0.166 HD
ATOM      3  C   UNL d   1       1.813   0.925  -0.045  0.00  0.00     0.021 A 
ATOM      4  C   UNL d   1       0.203  -0.839   0.110  0.00  0.00     0.050 A 
ATOM      5  C   UNL d   1       0.460   0.544   0.018  0.00  0.00     0.009 A 
ATOM      6  C   UNL d   1       2.836  -0.020  -0.051  0.00  0.00    -0.018 A 
ATOM      7  C   UNL d   1       2.490  -1.355   0.017  0.00  0.00     0.013 A 
ATOM      8  S   UNL d   1       2.454   2.583  -0.138  0.00  0.00    -0.128 SA
ATOM      9  C   UNL d   1      -1.128  -1.272   0.200  0.00  0.00    -0.034 A 
ATOM     10  C   UNL d   1       4.183   2.046  -0.200  0.00  0.00     0.084 A 
ATOM     11  C   UNL d   1      -0.621   1.456  -0.016  0.00  0.00     0.015 A 
ATOM     12  C   UNL d   1       4.229   0.519  -0.141  0.00  0.00     0.052 A 
ATOM     13  C   UNL d   1       3.490  -2.468  -0.055  0.00  0.00     0.068 C 
ATOM     14  C   UNL d   1      -1.937   1.007   0.034  0.00  0.00     0.002 A 
ATOM     15  C   UNL d   1      -2.189  -0.353   0.143  0.00  0.00     0.009 A 
ATOM     16  C   UNL d   1      -1.462  -2.736   0.322  0.00  0.00     0.050 C 
ENDROOT
TORSDOF 0
