REMARK  3 active torsions:
REMARK  status: ('A' for Active; 'I' for Inactive)
REMARK    1  A    between atoms: N_2  and  C_1 
REMARK    2  A    between atoms: N_3  and  C_1 
REMARK    3  A    between atoms: C_5  and  N_3 
ROOT
ATOM      1  C   UNL d   1       1.001  -0.091   0.211  0.00  0.00     0.179 C 
ATOM      2  S   UNL d   1       2.506  -0.106   0.975  0.00  0.00    -0.040 SA
ENDROOT
BRANCH   1   3
ATOM      3  N   UNL d   1       0.433   0.942  -0.606  0.00  0.00    -0.323 N 
ATOM      4  C   UNL d   1       1.009   2.241  -0.853  0.00  0.00     0.043 A 
ATOM      5  C   UNL d   1       0.151   3.350  -1.020  0.00  0.00    -0.031 A 
ATOM      6  C   UNL d   1       2.387   2.460  -0.972  0.00  0.00     0.030 A 
ATOM      7  C   UNL d   1       0.687   4.642  -1.176  0.00  0.00     0.009 A 
ATOM      8  C   UNL d   1      -1.353   3.216  -1.078  0.00  0.00     0.042 C 
ATOM      9  C   UNL d   1       2.063   4.839  -1.213  0.00  0.00     0.001 A 
ATOM     10  C   UNL d   1       2.912   3.744  -1.139  0.00  0.00     0.002 A 
ATOM     11  C   UNL d   1      -1.863   1.819  -0.759  0.00  0.00     0.025 C 
ATOM     12  C   UNL d   1      -0.883   0.777  -1.263  0.00  0.00     0.132 C 
ENDBRANCH   1   3
BRANCH   1  13
ATOM     13  N   UNL d   1       0.064  -1.095   0.494  0.00  0.00    -0.332 N 
ATOM     14  H   UNL d   1      -0.739  -0.690   0.957  0.00  0.00     0.168 HD
BRANCH  13  15
ATOM     15  C   UNL d   1       0.345  -2.427   0.888  0.00  0.00     0.046 A 
ATOM     16  C   UNL d   1      -0.193  -2.916   2.103  0.00  0.00    -0.035 A 
ATOM     17  C   UNL d   1      -0.112  -4.288   2.393  0.00  0.00     0.009 A 
ATOM     18  C   UNL d   1      -0.802  -2.034   3.161  0.00  0.00     0.050 C 
ATOM     19  C   UNL d   1       0.522  -5.163   1.519  0.00  0.00     0.001 A 
ATOM     20  C   UNL d   1       1.101  -4.675   0.353  0.00  0.00     0.009 A 
ATOM     21  C   UNL d   1       1.018  -3.312   0.016  0.00  0.00    -0.035 A 
ATOM     22  C   UNL d   1       1.654  -2.905  -1.288  0.00  0.00     0.050 C 
ENDBRANCH  13  15
ENDBRANCH   1  13
TORSDOF 3
