REMARK  2 active torsions:
REMARK  status: ('A' for Active; 'I' for Inactive)
REMARK    1  A    between atoms: C_3  and  C_13 
REMARK    2  A    between atoms: C_14  and  C_4 
ROOT
ATOM      1  C   UNL d   1       4.788  -3.275   0.005  0.00  0.00    -0.008 A 
ATOM      2  C   UNL d   1       2.445  -1.685  -0.009  0.00  0.00    -0.008 A 
ATOM      3  C   UNL d   1       3.388  -1.563   1.019  0.00  0.00     0.014 A 
ATOM      4  C   UNL d   1       2.689  -2.603  -1.038  0.00  0.00     0.014 A 
ATOM      5  C   UNL d   1       4.546  -2.351   1.029  0.00  0.00     0.014 A 
ATOM      6  C   UNL d   1       3.852  -3.386  -1.032  0.00  0.00     0.014 A 
ENDROOT
BRANCH   1   7
ATOM      7  C   UNL d   1       5.990  -4.098  -0.018  0.00  0.00     0.063 A 
ATOM      8  N   UNL d   1       6.532  -4.548  -1.218  0.00  0.00    -0.292 N 
ATOM      9  N   UNL d   1       7.620  -5.276  -1.029  0.00  0.00    -0.061 NA
ATOM     10  HN  UNL d   1       6.137  -4.340  -2.135  1.00  0.00     0.183 HD
ATOM     11  S   UNL d   1       8.008  -5.456   0.587  0.00  0.00    -0.010 SA
ATOM     12  C   UNL d   1       6.672  -4.517   1.113  0.00  0.00     0.096 A 
ENDBRANCH   1   7
BRANCH   2  13
ATOM     13  C   UNL d   1       1.255  -0.845   0.006  0.00  0.00     0.063 A 
ATOM     14  N   UNL d   1       1.272   0.413   0.601  0.00  0.00    -0.292 N 
ATOM     15  N   UNL d   1       0.100   1.019   0.515  0.00  0.00    -0.061 NA
ATOM     16  HN  UNL d   1       2.093   0.820   1.050  1.00  0.00     0.183 HD
ATOM     17  S   UNL d   1      -1.054   0.092  -0.260  0.00  0.00    -0.010 SA
ATOM     18  C   UNL d   1       0.030  -1.212  -0.524  0.00  0.00     0.096 A 
ENDBRANCH   2  13
TORSDOF 2
