REMARK  3 active torsions:
REMARK  status: ('A' for Active; 'I' for Inactive)
REMARK    1  A    between atoms: C_2  and  C_1 
REMARK       I    between atoms: N_10  and  C_2 
REMARK    2  A    between atoms: C_5  and  C_7 
REMARK    3  A    between atoms: C_14  and  N_10 
ROOT
ATOM      1  C   UNL d   1      -3.075   0.852   0.188  0.00  0.00     0.258 C 
ATOM      2  N   UNL d   1      -3.990   1.886   0.227  0.00  0.00    -0.323 N 
ATOM      3  O   UNL d   1      -1.897   0.929  -0.139  0.00  0.00    -0.267 OA
ATOM      4  H   UNL d   1      -4.959   1.640   0.383  0.00  0.00     0.169 HD
ENDROOT
BRANCH   1   5
ATOM      5  C   UNL d   1      -3.607  -0.493   0.530  0.00  0.00     0.054 A 
ATOM      6  C   UNL d   1      -4.376  -0.774   1.662  0.00  0.00     0.021 A 
ATOM      7  N   UNL d   1      -4.798  -2.037   1.952  0.00  0.00    -0.355 N 
ATOM      8  C   UNL d   1      -4.779   0.264   2.668  0.00  0.00     0.069 C 
ATOM      9  C   UNL d   1      -4.421  -3.071   1.143  0.00  0.00     0.117 A 
ATOM     10  HN  UNL d   1      -5.389  -2.209   2.766  1.00  0.00     0.166 HD
ATOM     11  C   UNL d   1      -3.647  -2.856   0.005  0.00  0.00     0.035 A 
ATOM     12  C   UNL d   1      -3.238  -1.559  -0.299  0.00  0.00     0.021 A 
BRANCH   9  13
ATOM     13  C   UNL d   1      -4.830  -4.497   1.499  0.00  0.00     0.432 C 
ATOM     14  F   UNL d   1      -5.513  -4.611   2.672  0.00  0.00    -0.165 F 
ATOM     15  F   UNL d   1      -5.628  -5.063   0.546  0.00  0.00    -0.165 F 
ATOM     16  F   UNL d   1      -3.754  -5.331   1.614  0.00  0.00    -0.165 F 
ENDBRANCH   9  13
ENDBRANCH   1   5
BRANCH   2  17
ATOM     17  C   UNL d   1      -3.746   3.257  -0.001  0.00  0.00     0.035 A 
ATOM     18  C   UNL d   1      -2.495   3.802  -0.298  0.00  0.00     0.043 A 
ATOM     19  C   UNL d   1      -2.348   5.185  -0.542  0.00  0.00    -0.007 A 
ATOM     20  C   UNL d   1      -1.110   5.762  -0.858  0.00  0.00     0.015 A 
ATOM     21  C   UNL d   1      -3.463   6.042  -0.477  0.00  0.00     0.042 A 
ATOM     22  C   UNL d   1      -1.024   7.127  -1.114  0.00  0.00     0.025 A 
ATOM     23  C   UNL d   1      -2.182   7.888  -1.056  0.00  0.00     0.005 A 
ATOM     24  N   UNL d   1      -3.385   7.360  -0.725  0.00  0.00    -0.359 N 
ATOM     25  C   UNL d   1      -2.145   9.363  -1.326  0.00  0.00     0.068 C 
ATOM     26  HN  UNL d   1      -4.214   7.951  -0.665  1.00  0.00     0.166 HD
ATOM     27  C   UNL d   1      -4.691   5.489  -0.150  0.00  0.00     0.033 A 
ATOM     28  C   UNL d   1      -4.842   4.119   0.085  0.00  0.00     0.032 A 
ENDBRANCH   2  17
TORSDOF 3
