REMARK  4 active torsions:
REMARK  status: ('A' for Active; 'I' for Inactive)
REMARK    1  A    between atoms: C_8  and  N_1 
REMARK    2  A    between atoms: C_9  and  C_7 
REMARK    3  A    between atoms: C_11  and  C_10 
REMARK    4  A    between atoms: C_18  and  C_12 
ROOT
ATOM      1  N   UNL d   1       0.685  -0.798  -0.257  0.00  0.00    -0.179 N 
ATOM      2  N   UNL d   1      -0.651  -1.018  -0.322  0.00  0.00     0.003 NA
ATOM      3  N   UNL d   1       1.023   0.513  -0.133  0.00  0.00    -0.264 N 
ATOM      4  HN  UNL d   1       1.944   0.943  -0.043  1.00  0.00     0.190 HD
ATOM      5  N   UNL d   1      -1.211   0.180  -0.261  0.00  0.00    -0.267 N 
ATOM      6  HN  UNL d   1      -2.209   0.389  -0.285  1.00  0.00     0.186 HD
ATOM      7  C   UNL d   1      -0.189   1.084  -0.160  0.00  0.00     0.134 A 
ENDROOT
BRANCH   7   8
ATOM      8  C   UNL d   1      -0.515   2.472  -0.112  0.00  0.00     0.051 C 
ATOM      9  C   UNL d   1       0.367   3.485  -0.073  0.00  0.00     0.004 C 
BRANCH   9  10
ATOM     10  C   UNL d   1      -0.030   4.879  -0.025  0.00  0.00     0.001 C 
ATOM     11  C   UNL d   1       0.860   5.884   0.016  0.00  0.00     0.011 C 
BRANCH  11  12
ATOM     12  C   UNL d   1       0.530   7.319   0.094  0.00  0.00    -0.036 A 
ATOM     13  C   UNL d   1      -0.627   7.802   0.720  0.00  0.00     0.011 A 
ATOM     14  C   UNL d   1      -0.864   9.177   0.825  0.00  0.00     0.001 A 
ATOM     15  C   UNL d   1       0.058  10.088   0.313  0.00  0.00     0.000 A 
ATOM     16  C   UNL d   1       1.216   9.623  -0.305  0.00  0.00     0.001 A 
ATOM     17  C   UNL d   1       1.451   8.250  -0.411  0.00  0.00     0.011 A 
ENDBRANCH  11  12
ENDBRANCH   9  10
ENDBRANCH   7   8
BRANCH   1  18
ATOM     18  C   UNL d   1       1.638  -1.844  -0.354  0.00  0.00     0.073 A 
ATOM     19  C   UNL d   1       1.212  -3.165  -0.572  0.00  0.00     0.034 A 
ATOM     20  C   UNL d   1       2.154  -4.189  -0.709  0.00  0.00     0.026 A 
ATOM     21  C   UNL d   1       3.515  -3.899  -0.621  0.00  0.00     0.034 A 
ATOM     22  C   UNL d   1       3.945  -2.593  -0.387  0.00  0.00     0.026 A 
ATOM     23 CL   UNL d   1       4.670  -5.160  -0.808  0.00  0.00    -0.084 Cl
ATOM     24  C   UNL d   1       3.008  -1.562  -0.255  0.00  0.00     0.034 A 
ENDBRANCH   1  18
TORSDOF 4
