REMARK  3 active torsions:
REMARK  status: ('A' for Active; 'I' for Inactive)
REMARK    1  A    between atoms: C_6  and  N_2 
REMARK    2  A    between atoms: C_7  and  C_6 
REMARK       I    between atoms: N_11  and  C_7 
REMARK    3  A    between atoms: C_10  and  N_11 
ROOT
ATOM      1  C   UNL d   1       2.304  -2.017   0.254  0.00  0.00     0.248 C 
ENDROOT
BRANCH   1   2
ATOM      2  N   UNL d   1       1.466  -1.382   1.267  0.00  0.00    -0.228 N 
ATOM      3  S   UNL d   1      -0.168  -1.151   0.935  0.00  0.00     0.269 S 
ATOM      4  C   UNL d   1      -0.430  -0.273   2.414  0.00  0.00     0.095 A 
ATOM      5  O   UNL d   1      -0.306  -0.241  -0.174  0.00  0.00    -0.200 OA
ATOM      6  O   UNL d   1      -0.849  -2.419   1.042  0.00  0.00    -0.200 OA
ATOM      7  C   UNL d   1       0.775  -0.036   3.063  0.00  0.00     0.056 A 
ATOM      8  C   UNL d   1      -1.651   0.074   2.963  0.00  0.00     0.026 A 
ATOM      9  C   UNL d   1       0.807   0.639   4.272  0.00  0.00     0.018 A 
ATOM     10  C   UNL d   1       1.926  -0.655   2.384  0.00  0.00     0.269 C 
ATOM     11  C   UNL d   1      -0.413   1.025   4.837  0.00  0.00     0.001 A 
ATOM     12  C   UNL d   1      -1.631   0.728   4.197  0.00  0.00     0.002 A 
ATOM     13  O   UNL d   1       3.079  -0.611   2.764  0.00  0.00    -0.266 OA
ENDBRANCH   1   2
BRANCH   1  14
ATOM     14  C   UNL d   1       1.865  -3.431  -0.089  0.00  0.00     0.241 C 
ATOM     15  N   UNL d   1       1.744  -4.250   1.026  0.00  0.00    -0.326 N 
ATOM     16  H   UNL d   1       1.790  -3.787   1.927  0.00  0.00     0.169 HD
ATOM     17  O   UNL d   1       1.730  -3.772  -1.260  0.00  0.00    -0.271 OA
BRANCH  15  18
ATOM     18  C   UNL d   1       1.549  -5.648   1.041  0.00  0.00     0.037 A 
ATOM     19  C   UNL d   1       1.481  -6.432  -0.114  0.00  0.00     0.053 A 
ATOM     20  C   UNL d   1       1.369  -7.821  -0.018  0.00  0.00     0.037 A 
ATOM     21 CL   UNL d   1       1.321  -8.772  -1.453  0.00  0.00    -0.084 Cl
ATOM     22  C   UNL d   1       1.314  -8.449   1.221  0.00  0.00     0.048 A 
ATOM     23  C   UNL d   1       1.356  -7.669   2.371  0.00  0.00     0.037 A 
ATOM     24  C   UNL d   1       1.469  -6.278   2.290  0.00  0.00     0.053 A 
ATOM     25 CL   UNL d   1       1.291  -8.429   3.915  0.00  0.00    -0.084 Cl
ENDBRANCH  15  18
ENDBRANCH   1  14
TORSDOF 3
