REMARK  5 active torsions:
REMARK  status: ('A' for Active; 'I' for Inactive)
REMARK    1  A    between atoms: CG_5  and  CB_1 
REMARK    2  A    between atoms: CA_2  and  CB_1 
REMARK    3  A    between atoms: CA_2  and  N_4 
REMARK    4  A    between atoms: CA_2  and  C_3 
REMARK    5  A    between atoms: OXT_9  and  C_3 
REMARK       I    between atoms: C5_14  and  N_4 
REMARK       I    between atoms: ND2_8  and  CG_5 
ROOT
ATOM      1  CA  ASN d   1       0.575  -0.089   1.485  0.00  0.00     0.191 C 
ENDROOT
BRANCH   1   2
ATOM      2  N   ASN d   1      -0.890  -0.207   1.413  0.00  0.00    -0.346 N 
ATOM      3  C5  <1> d   1      -1.663   0.728   0.768  0.00  0.00     0.214 C 
ATOM      4  O3  <1> d   1      -1.174   1.718   0.230  0.00  0.00    -0.274 OA
ATOM      5  C6  <1> d   1      -3.135   0.424   0.734  0.00  0.00     0.117 C 
ATOM      6  H   ASN d   1      -1.288  -1.121   1.596  0.00  0.00     0.163 HD
ENDBRANCH   1   2
BRANCH   1   7
ATOM      7  C   ASN d   1       1.175  -0.299   0.082  0.00  0.00     0.164 C 
ATOM      8  O   ASN d   1       1.582  -1.383  -0.319  0.00  0.00    -0.648 OA
BRANCH   7   9
ATOM      9  OXT ASN d   1       1.062   0.767  -0.744  0.00  0.00    -0.775 OA
ATOM     10  HXT ASN d   1       0.415   1.438  -0.414  0.00  0.00     0.167 HD
ENDBRANCH   7   9
ENDBRANCH   1   7
BRANCH   1  11
ATOM     11  CB  ASN d   1       1.037   1.181   2.203  0.00  0.00     0.138 C 
BRANCH  11  12
ATOM     12  CG  ASN d   1       2.537   1.265   2.319  0.00  0.00     0.217 C 
ATOM     13  OD1 ASN d   1       3.306   0.365   2.010  0.00  0.00    -0.274 OA
ATOM     14  ND2 ASN d   1       2.995   2.441   2.834  0.00  0.00    -0.370 N 
ATOM     15 1HD2 ASN d   1       2.394   3.214   3.086  0.00  0.00     0.159 HD
ATOM     16 2HD2 ASN d   1       3.997   2.565   2.905  0.00  0.00     0.159 HD
ENDBRANCH  11  12
ENDBRANCH   1  11
TORSDOF 5
