REMARK  4 active torsions:
REMARK  status: ('A' for Active; 'I' for Inactive)
REMARK    1  A    between atoms: C_6  and  C_1 
REMARK    2  A    between atoms: N_18  and  C_2 
REMARK       I    between atoms: N_17  and  C_6 
REMARK    3  A    between atoms: C_10  and  C_15 
REMARK    4  A    between atoms: N_11  and  N_17 
ROOT
ATOM      1  C   UNL d   1       2.497  -0.015   0.022  0.00  0.00     0.103 A 
ATOM      2  C   UNL d   1       1.647   1.086   0.014  0.00  0.00     0.062 A 
ATOM      3  C   UNL d   1       0.241   0.746   0.014  0.00  0.00     0.032 A 
ATOM      4  S   UNL d   1       1.610  -1.470   0.037  0.00  0.00    -0.064 SA
ATOM      5  C   UNL d   1       0.118  -0.645   0.024  0.00  0.00     0.088 A 
ATOM      6  N   UNL d   1      -1.020  -1.371   0.024  0.00  0.00    -0.354 N 
ATOM      7  HN  UNL d   1      -1.020  -2.391   0.032  1.00  0.00     0.166 HD
ATOM      8  C   UNL d   1      -0.983   1.482   0.008  0.00  0.00    -0.045 A 
ATOM      9  C   UNL d   1      -2.180   0.738   0.005  0.00  0.00     0.032 A 
ATOM     10  C   UNL d   1      -2.153  -0.649   0.012  0.00  0.00     0.006 A 
ATOM     11  C   UNL d   1      -1.148   2.980   0.007  0.00  0.00     0.049 C 
ATOM     12  C   UNL d   1      -3.447  -1.411   0.010  0.00  0.00     0.068 C 
ENDROOT
BRANCH   1  13
ATOM     13  C   UNL d   1       3.960   0.010   0.011  0.00  0.00     0.279 C 
ATOM     14  N   UNL d   1       4.624  -1.219   0.019  0.00  0.00    -0.266 N 
ATOM     15  H   UNL d   1       4.103  -2.089   0.032  0.00  0.00     0.190 HD
ATOM     16  O   UNL d   1       4.586   1.076  -0.009  0.00  0.00    -0.265 OA
BRANCH  14  17
ATOM     17  N   UNL d   1       5.992  -1.219  -0.015  0.00  0.00    -0.308 N 
ATOM     18  C   UNL d   1       6.615  -2.352  -0.005  0.00  0.00     0.126 C 
ATOM     19  HN  UNL d   1       6.510  -0.341  -0.048  1.00  0.00     0.186 HD
BRANCH  18  20
ATOM     20  C   UNL d   1       8.060  -2.358  -0.048  0.00  0.00     0.021 A 
ATOM     21  S   UNL d   1       8.917  -3.836  -0.032  0.00  0.00    -0.101 SA
ATOM     22  C   UNL d   1      10.431  -3.034  -0.097  0.00  0.00     0.050 A 
ATOM     23  C   UNL d   1      10.288  -1.665  -0.133  0.00  0.00     0.008 A 
ATOM     24  C   UNL d   1       8.918  -1.274  -0.104  0.00  0.00     0.021 A 
ENDBRANCH  18  20
ENDBRANCH  14  17
ENDBRANCH   1  13
BRANCH   2  25
ATOM     25  N   UNL d   1       2.149   2.341   0.006  0.00  0.00    -0.397 N 
ATOM     26  H   UNL d   1       3.164   2.490  -0.020  0.00  0.00     0.156 HD
ATOM     27  H   UNL d   1       1.619   3.196  -0.065  0.00  0.00     0.156 HD
ENDBRANCH   2  25
TORSDOF 4
