REMARK  4 active torsions:
REMARK  status: ('A' for Active; 'I' for Inactive)
REMARK    1  A    between atoms: N_8  and  C_1 
REMARK    2  A    between atoms: S_11  and  C_3 
REMARK       I    between atoms: C_10  and  N_8 
REMARK    3  A    between atoms: C_14  and  C_10 
REMARK    4  A    between atoms: C_12  and  S_11 
ROOT
ATOM      1  C   UNL d   1      -0.325   0.956  -0.538  0.00  0.00     0.168 A 
ATOM      2  S   UNL d   1       0.534  -0.309  -1.297  0.00  0.00    -0.026 SA
ATOM      3  C   UNL d   1      -0.356  -1.407  -0.335  0.00  0.00     0.135 A 
ATOM      4  N   UNL d   1      -1.281   0.543   0.268  0.00  0.00    -0.278 N 
ATOM      5  HN  UNL d   1      -1.934   1.165   0.743  1.00  0.00     0.189 HD
ATOM      6  N   UNL d   1      -1.295  -0.841   0.395  0.00  0.00    -0.286 N 
ATOM      7  HN  UNL d   1      -1.953  -1.355   0.981  1.00  0.00     0.188 HD
ENDROOT
BRANCH   3   8
ATOM      8  S   UNL d   1       0.121  -3.081  -0.161  0.00  0.00    -0.063 SA
BRANCH   8   9
ATOM      9  C   UNL d   1      -1.300  -3.947  -0.831  0.00  0.00     0.021 A 
ATOM     10  C   UNL d   1      -1.180  -4.838  -1.936  0.00  0.00     0.008 A 
ATOM     11  C   UNL d   1      -2.326  -5.595  -2.277  0.00  0.00     0.045 A 
ATOM     12  C   UNL d   1       0.001  -5.034  -2.700  0.00  0.00     0.017 A 
ATOM     13  C   UNL d   1      -2.262  -6.501  -3.326  0.00  0.00     0.054 A 
ATOM     14  N   UNL d   1      -3.487  -5.495  -1.615  0.00  0.00    -0.365 N 
ATOM     15  C   UNL d   1      -1.093  -6.682  -4.059  0.00  0.00     0.036 A 
ATOM     16  C   UNL d   1       0.043  -5.948  -3.752  0.00  0.00     0.025 A 
ATOM     17 CL   UNL d   1      -1.053  -7.823  -5.346  0.00  0.00    -0.084 Cl
ATOM     18  C   UNL d   1      -3.563  -4.644  -0.573  0.00  0.00     0.090 A 
ATOM     19  HN  UNL d   1      -4.296  -6.050  -1.894  1.00  0.00     0.165 HD
ATOM     20  C   UNL d   1      -2.512  -3.862  -0.144  0.00  0.00     0.037 A 
ENDBRANCH   8   9
ENDBRANCH   3   8
BRANCH   1  21
ATOM     21  N   UNL d   1      -0.007   2.289  -0.707  0.00  0.00    -0.302 N 
ATOM     22  C   UNL d   1       1.022   2.766  -1.476  0.00  0.00     0.247 C 
ATOM     23  O   UNL d   1       1.740   2.131  -2.233  0.00  0.00    -0.268 OA
ATOM     24  H   UNL d   1      -0.543   2.915  -0.124  0.00  0.00     0.171 HD
BRANCH  22  25
ATOM     25  C   UNL d   1       1.219   4.242  -1.331  0.00  0.00     0.076 C 
ATOM     26  C   UNL d   1       2.442   4.811  -1.355  0.00  0.00    -0.082 C 
ATOM     27  C   UNL d   1       3.736   4.035  -1.351  0.00  0.00     0.043 C 
ATOM     28  C   UNL d   1       2.613   6.305  -1.404  0.00  0.00     0.043 C 
ENDBRANCH  22  25
ENDBRANCH   1  21
TORSDOF 4
