REMARK  2 active torsions:
REMARK  status: ('A' for Active; 'I' for Inactive)
REMARK       I    between atoms: N_2  and  C_1 
REMARK       I    between atoms: N_5  and  C_1 
REMARK    1  A    between atoms: C_3  and  N_4 
REMARK    2  A    between atoms: C_6  and  N_5 
ROOT
ATOM      1  C   UNL d   1       0.936  -0.060  -0.212  0.00  0.00     0.323 C 
ATOM      2  N   UNL d   1       0.266   0.264  -1.384  0.00  0.00    -0.331 N 
ATOM      3  N   UNL d   1      -0.158   1.480  -3.930  0.00  0.00    -0.214 N 
ATOM      4  N   UNL d   1       0.545   0.626   0.914  0.00  0.00    -0.309 N 
ATOM      5  O   UNL d   1       1.828  -0.907  -0.223  0.00  0.00    -0.247 OA
ATOM      6  C   UNL d   1       0.638  -0.451  -2.620  0.00  0.00     0.148 C 
ATOM      7  C   UNL d   1      -0.824   1.238  -1.571  0.00  0.00     0.148 C 
ATOM      8  C   UNL d   1       0.927   0.509  -3.791  0.00  0.00     0.161 C 
ATOM      9  C   UNL d   1      -0.530   2.213  -2.727  0.00  0.00     0.161 C 
ATOM     10  H   UNL d   1      -0.368   1.043   0.904  0.00  0.00     0.170 HD
ENDROOT
BRANCH   4  11
ATOM     11  C   UNL d   1       1.203   0.639   2.167  0.00  0.00     0.037 A 
ATOM     12  C   UNL d   1       2.491   0.135   2.365  0.00  0.00     0.036 A 
ATOM     13  C   UNL d   1       3.120   0.221   3.614  0.00  0.00    -0.059 A 
ATOM     14  C   UNL d   1       4.520  -0.289   3.793  0.00  0.00     0.048 C 
ATOM     15  C   UNL d   1       2.443   0.817   4.682  0.00  0.00     0.013 A 
ATOM     16  C   UNL d   1       1.150   1.325   4.510  0.00  0.00    -0.059 A 
ATOM     17  C   UNL d   1       0.540   1.237   3.249  0.00  0.00     0.036 A 
ATOM     18  C   UNL d   1       0.454   1.986   5.664  0.00  0.00     0.048 C 
ENDBRANCH   4  11
BRANCH   3  19
ATOM     19  C   UNL d   1      -0.928   1.535  -5.064  0.00  0.00     0.679 A 
ATOM     20  N   UNL d   1      -1.991   2.357  -5.081  0.00  0.00    -0.202 N 
ATOM     21  C   UNL d   1      -2.706   2.443  -6.220  0.00  0.00     0.107 A 
ATOM     22  HN  UNL d   1      -2.248   2.900  -4.257  1.00  0.00     0.183 HD
ATOM     23  C   UNL d   1      -2.410   1.732  -7.352  0.00  0.00     0.035 A 
ATOM     24  C   UNL d   1      -1.324   0.908  -7.247  0.00  0.00     0.107 A 
ATOM     25  N   UNL d   1      -0.582   0.792  -6.128  0.00  0.00    -0.202 N 
ATOM     26  HN  UNL d   1       0.217   0.159  -6.089  1.00  0.00     0.183 HD
ENDBRANCH   3  19
TORSDOF 2
