REMARK  3 active torsions:
REMARK  status: ('A' for Active; 'I' for Inactive)
REMARK    1  A    between atoms: N_6  and  C_1 
REMARK       I    between atoms: C_8  and  N_6 
REMARK    2  A    between atoms: C_11  and  C_7 
REMARK       I    between atoms: N_9  and  C_8 
REMARK    3  A    between atoms: C_12  and  N_9 
ROOT
ATOM      1  C   UNL d   1       0.349  -1.123   0.083  0.00  0.00     0.127 C 
ATOM      2  N   UNL d   1       0.770   0.912   0.999  0.00  0.00    -0.296 N 
ATOM      3  HN  UNL d   1       0.632   1.795   1.491  1.00  0.00     0.187 HD
ATOM      4  C   UNL d   1       1.650  -0.788  -0.221  0.00  0.00     0.082 C 
ATOM      5  N   UNL d   1      -0.088  -0.107   0.901  0.00  0.00    -0.281 N 
ATOM      6  C   UNL d   1       1.850   0.521   0.311  0.00  0.00     0.062 C 
ATOM      7  C   UNL d   1      -1.367  -0.012   1.565  0.00  0.00     0.179 C 
ENDROOT
BRANCH   1   8
ATOM      8  N   UNL d   1      -0.421  -2.221  -0.264  0.00  0.00    -0.293 N 
ATOM      9  C   UNL d   1      -0.261  -3.251  -1.227  0.00  0.00     0.326 C 
ATOM     10  N   UNL d   1       0.750  -3.113  -2.129  0.00  0.00    -0.309 N 
ATOM     11  O   UNL d   1      -1.088  -4.138  -1.127  0.00  0.00    -0.247 OA
ATOM     12  H   UNL d   1       1.296  -2.271  -2.109  0.00  0.00     0.170 HD
ATOM     13  H   UNL d   1      -1.283  -2.366   0.252  0.00  0.00     0.172 HD
BRANCH  10  14
ATOM     14  C   UNL d   1       1.150  -4.082  -3.073  0.00  0.00     0.036 A 
ATOM     15  C   UNL d   1       0.387  -5.211  -3.399  0.00  0.00     0.032 A 
ATOM     16  C   UNL d   1       0.886  -6.174  -4.281  0.00  0.00     0.044 A 
ATOM     17  C   UNL d   1       2.149  -6.012  -4.832  0.00  0.00     0.116 A 
ATOM     18  C   UNL d   1       2.909  -4.886  -4.547  0.00  0.00     0.044 A 
ATOM     19  F   UNL d   1       2.641  -6.955  -5.645  0.00  0.00    -0.206 F 
ATOM     20  C   UNL d   1       2.403  -3.911  -3.681  0.00  0.00     0.032 A 
ENDBRANCH  10  14
ENDBRANCH   1   8
BRANCH   6  21
ATOM     21  C   UNL d   1       2.995   1.414   0.140  0.00  0.00    -0.008 A 
ATOM     22  C   UNL d   1       2.787   2.804   0.118  0.00  0.00     0.014 A 
ATOM     23  C   UNL d   1       3.847   3.684  -0.089  0.00  0.00     0.001 A 
ATOM     24  C   UNL d   1       5.135   3.190  -0.269  0.00  0.00     0.000 A 
ATOM     25  C   UNL d   1       5.361   1.811  -0.237  0.00  0.00     0.001 A 
ATOM     26  C   UNL d   1       4.297   0.926  -0.037  0.00  0.00     0.014 A 
ENDBRANCH   6  21
TORSDOF 3
