REMARK  4 active torsions:
REMARK  status: ('A' for Active; 'I' for Inactive)
REMARK    1  A    between atoms: C_11  and  N_1 
REMARK    2  A    between atoms: S_9  and  C_2 
REMARK    3  A    between atoms: C_8  and  C_10 
REMARK    4  A    between atoms: C_10  and  S_9 
ROOT
ATOM      1  N   UNL d   1       2.423  -0.718  -0.009  0.00  0.00    -0.256 N 
ATOM      2  C   UNL d   1       2.394   0.678   0.064  0.00  0.00     0.155 A 
ATOM      3  C   UNL d   1       1.220  -1.438  -0.058  0.00  0.00     0.267 A 
ATOM      4  N   UNL d   1       1.303   1.376   0.104  0.00  0.00    -0.335 N 
ATOM      5  HN  UNL d   1       1.345   2.393   0.167  1.00  0.00     0.168 HD
ATOM      6  C   UNL d   1      -0.028  -0.659  -0.018  0.00  0.00     0.059 A 
ATOM      7  C   UNL d   1       0.073   0.723   0.062  0.00  0.00     0.049 A 
ATOM      8  O   UNL d   1       1.122  -2.663  -0.096  0.00  0.00    -0.267 OA
ATOM      9  C   UNL d   1      -1.278  -1.291  -0.058  0.00  0.00     0.019 A 
ATOM     10  C   UNL d   1      -1.098   1.484   0.077  0.00  0.00     0.030 A 
ATOM     11  C   UNL d   1      -2.442  -0.523  -0.036  0.00  0.00     0.001 A 
ATOM     12  C   UNL d   1      -2.351   0.867   0.026  0.00  0.00     0.002 A 
ENDROOT
BRANCH   2  13
ATOM     13  S   UNL d   1       3.897   1.601  -0.023  0.00  0.00    -0.088 SA
BRANCH  13  14
ATOM     14  C   UNL d   1       3.347   3.172   0.705  0.00  0.00     0.126 C 
BRANCH  14  15
ATOM     15  C   UNL d   1       4.466   4.167   0.871  0.00  0.00     0.012 A 
ATOM     16  C   UNL d   1       4.644   5.160  -0.101  0.00  0.00     0.125 A 
ATOM     17  F   UNL d   1       3.841   5.194  -1.175  0.00  0.00    -0.205 F 
ATOM     18  C   UNL d   1       5.624   6.144   0.017  0.00  0.00     0.043 A 
ATOM     19  C   UNL d   1       6.465   6.149   1.125  0.00  0.00     0.005 A 
ATOM     20  C   UNL d   1       6.325   5.160   2.098  0.00  0.00     0.024 A 
ATOM     21  C   UNL d   1       5.337   4.173   1.970  0.00  0.00     0.044 A 
ATOM     22 CL   UNL d   1       5.231   2.988   3.224  0.00  0.00    -0.084 Cl
ENDBRANCH  14  15
ENDBRANCH  13  14
ENDBRANCH   2  13
BRANCH   1  23
ATOM     23  C   UNL d   1       3.629  -1.496  -0.011  0.00  0.00     0.060 A 
ATOM     24  C   UNL d   1       3.825  -2.518  -0.945  0.00  0.00     0.117 A 
ATOM     25  N   UNL d   1       4.920  -3.316  -1.000  0.00  0.00    -0.373 N 
ATOM     26  C   UNL d   1       5.859  -3.116  -0.056  0.00  0.00     0.088 A 
ATOM     27  HN  UNL d   1       5.027  -4.031  -1.720  1.00  0.00     0.164 HD
ATOM     28  C   UNL d   1       5.757  -2.153   0.934  0.00  0.00     0.019 A 
ATOM     29  C   UNL d   1       4.627  -1.335   0.955  0.00  0.00     0.033 A 
ENDBRANCH   1  23
TORSDOF 4
