REMARK  2 active torsions:
REMARK  status: ('A' for Active; 'I' for Inactive)
REMARK    1  A    between atoms: C_8  and  C_2 
REMARK    2  A    between atoms: N_9  and  C_5 
ROOT
ATOM      1  S   UNL d   1       0.633   0.041  -1.562  0.00  0.00    -0.033 SA
ATOM      2  C   UNL d   1       1.520  -0.150  -0.096  0.00  0.00     0.102 A 
ATOM      3  N   UNL d   1       0.851   0.252   0.968  0.00  0.00    -0.291 N 
ATOM      4  HN  UNL d   1       1.236   0.251   1.913  1.00  0.00     0.187 HD
ATOM      5  C   UNL d   1      -0.683   0.608  -0.623  0.00  0.00     0.159 A 
ATOM      6  N   UNL d   1      -0.428   0.673   0.663  0.00  0.00    -0.279 N 
ATOM      7  HN  UNL d   1      -1.099   0.999   1.358  1.00  0.00     0.189 HD
ENDROOT
BRANCH   2   8
ATOM      8  C   UNL d   1       2.895  -0.670  -0.075  0.00  0.00    -0.001 A 
ATOM      9  C   UNL d   1       3.753  -0.303   0.976  0.00  0.00     0.014 A 
ATOM     10  C   UNL d   1       5.061  -0.790   1.041  0.00  0.00     0.001 A 
ATOM     11  C   UNL d   1       5.531  -1.660   0.060  0.00  0.00     0.000 A 
ATOM     12  C   UNL d   1       4.695  -2.042  -0.985  0.00  0.00     0.001 A 
ATOM     13  C   UNL d   1       3.387  -1.552  -1.052  0.00  0.00     0.014 A 
ENDBRANCH   2   8
BRANCH   5  14
ATOM     14  N   UNL d   1      -1.854   0.957  -1.190  0.00  0.00    -0.379 N 
ATOM     15  H   UNL d   1      -1.857   1.211  -2.170  0.00  0.00     0.158 HD
ATOM     16  H   UNL d   1      -2.483   1.502  -0.611  0.00  0.00     0.158 HD
ENDBRANCH   5  14
TORSDOF 2
