REMARK  8 active torsions:
REMARK  status: ('A' for Active; 'I' for Inactive)
REMARK    1  A    between atoms: N_3  and  C_1 
REMARK       I    between atoms: C_7  and  N_3 
REMARK    2  A    between atoms: C_11  and  C_7 
REMARK    3  A    between atoms: N_8  and  C_11 
REMARK    4  A    between atoms: C_13  and  N_8 
REMARK    5  A    between atoms: C_15  and  N_8 
REMARK    6  A    between atoms: C_10  and  C_13 
REMARK    7  A    between atoms: O_16  and  C_10 
REMARK    8  A    between atoms: C_17  and  C_15 
ROOT
ATOM      1  N   UNL d   1      -2.332  -0.719  -0.371  0.00  0.00     0.111 N 
ENDROOT
BRANCH   1   2
ATOM      2  C   UNL d   1      -2.567  -2.063   0.307  0.00  0.00     0.376 C 
BRANCH   2   3
ATOM      3  C   UNL d   1      -1.458  -3.117   0.028  0.00  0.00     0.251 C 
ATOM      4  N   UNL d   1      -0.226  -2.539  -0.214  0.00  0.00    -0.310 N 
ATOM      5  H   UNL d   1      -0.221  -1.527  -0.159  0.00  0.00     0.170 HD
ATOM      6  O   UNL d   1      -1.689  -4.322   0.094  0.00  0.00    -0.271 OA
BRANCH   4   7
ATOM      7  C   UNL d   1       1.005  -3.162  -0.346  0.00  0.00     0.125 C 
ATOM      8  N   UNL d   1       1.360  -4.495  -0.454  0.00  0.00    -0.281 N 
ATOM      9  N   UNL d   1       2.701  -4.683  -0.338  0.00  0.00    -0.308 N 
ATOM     10  C   UNL d   1       0.610  -5.630  -0.934  0.00  0.00     0.179 C 
ATOM     11  C   UNL d   1       3.207  -3.455  -0.390  0.00  0.00     0.111 C 
ATOM     12  HN  UNL d   1       3.203  -5.565  -0.234  1.00  0.00     0.186 HD
ATOM     13  C   UNL d   1       2.205  -2.477  -0.418  0.00  0.00     0.068 C 
ENDBRANCH   4   7
ENDBRANCH   2   3
ENDBRANCH   1   2
BRANCH   1  14
ATOM     14  C   UNL d   1      -2.550  -0.960  -1.849  0.00  0.00     0.382 C 
BRANCH  14  15
ATOM     15  C   UNL d   1      -2.325   0.265  -2.726  0.00  0.00     0.169 C 
ATOM     16  O   UNL d   1      -2.788   0.398  -3.840  0.00  0.00    -0.649 OA
BRANCH  15  17
ATOM     17  O   UNL d   1      -1.481   1.177  -2.168  0.00  0.00    -0.775 OA
ATOM     18  H   UNL d   1      -1.244   0.893  -1.266  0.00  0.00     0.167 HD
ENDBRANCH  15  17
ENDBRANCH  14  15
ENDBRANCH   1  14
BRANCH   1  19
ATOM     19  C   UNL d   1      -3.387   0.243   0.124  0.00  0.00     0.312 C 
BRANCH  19  20
ATOM     20  C   UNL d   1      -3.332   0.607   1.602  0.00  0.00    -0.030 A 
ATOM     21  C   UNL d   1      -2.140   0.616   2.340  0.00  0.00     0.009 A 
ATOM     22  C   UNL d   1      -2.151   0.870   3.716  0.00  0.00     0.001 A 
ATOM     23  C   UNL d   1      -3.347   1.165   4.369  0.00  0.00     0.000 A 
ATOM     24  C   UNL d   1      -4.526   1.255   3.635  0.00  0.00     0.001 A 
ATOM     25  C   UNL d   1      -4.516   0.990   2.261  0.00  0.00     0.009 A 
ENDBRANCH  19  20
ENDBRANCH   1  19
TORSDOF 8
