REMARK  8 active torsions:
REMARK  status: ('A' for Active; 'I' for Inactive)
REMARK    1  A    between atoms: C_6  and  C_1 
REMARK    2  A    between atoms: N_3  and  C_2 
REMARK    3  A    between atoms: N_4  and  N_3 
REMARK       I    between atoms: C_5  and  N_4 
REMARK    4  A    between atoms: C_19  and  C_5 
REMARK    5  A    between atoms: C_10  and  C_20 
REMARK    6  A    between atoms: O_18  and  C_10 
REMARK    7  A    between atoms: S_16  and  C_19 
REMARK    8  A    between atoms: C_20  and  S_16 
ROOT
ATOM      1  N   UNL d   1      -2.194  -3.313  -1.958  0.00  0.00    -0.183 NA
ATOM      2  C   UNL d   1      -3.257  -2.319  -2.148  0.00  0.00     0.144 C 
ENDROOT
BRANCH   1   3
ATOM      3  C   UNL d   1      -1.224  -2.916  -0.993  0.00  0.00     0.101 A 
ATOM      4  C   UNL d   1      -0.129  -3.746  -0.732  0.00  0.00     0.060 A 
ATOM      5  C   UNL d   1       0.848  -3.359   0.197  0.00  0.00     0.052 A 
ATOM      6  C   UNL d   1       0.703  -2.131   0.844  0.00  0.00     0.033 A 
ATOM      7  C   UNL d   1      -0.400  -1.361   0.535  0.00  0.00     0.090 A 
ATOM      8  N   UNL d   1      -1.349  -1.730  -0.352  0.00  0.00    -0.355 N 
ATOM      9  HN  UNL d   1      -2.148  -1.124  -0.537  1.00  0.00     0.166 HD
BRANCH   5  10
ATOM     10  C   UNL d   1       2.036  -4.231   0.499  0.00  0.00     0.417 C 
ATOM     11  F   UNL d   1       2.053  -5.393  -0.208  0.00  0.00    -0.166 F 
ATOM     12  F   UNL d   1       2.089  -4.591   1.811  0.00  0.00    -0.166 F 
ATOM     13  F   UNL d   1       3.218  -3.610   0.234  0.00  0.00    -0.166 F 
ENDBRANCH   5  10
ENDBRANCH   1   3
BRANCH   1  14
ATOM     14  N   UNL d   1      -2.652  -4.644  -1.753  0.00  0.00    -0.283 N 
ATOM     15  C   UNL d   1      -3.293  -5.320  -2.781  0.00  0.00     0.241 C 
ATOM     16  O   UNL d   1      -3.508  -4.883  -3.914  0.00  0.00    -0.271 OA
ATOM     17  H   UNL d   1      -2.827  -4.901  -0.784  0.00  0.00     0.184 HD
BRANCH  15  18
ATOM     18  C   UNL d   1      -3.816  -6.682  -2.368  0.00  0.00     0.178 C 
BRANCH  18  19
ATOM     19  S   UNL d   1      -5.514  -6.540  -1.724  0.00  0.00    -0.149 SA
BRANCH  19  20
ATOM     20  C   UNL d   1      -6.379  -5.809  -3.156  0.00  0.00     0.184 C 
BRANCH  20  21
ATOM     21  C   UNL d   1      -6.270  -6.657  -4.405  0.00  0.00     0.149 C 
ATOM     22  O   UNL d   1      -6.982  -7.624  -4.638  0.00  0.00    -0.649 OA
BRANCH  21  23
ATOM     23  O   UNL d   1      -5.287  -6.276  -5.253  0.00  0.00    -0.776 OA
ATOM     24  H   UNL d   1      -4.712  -5.532  -4.941  0.00  0.00     0.167 HD
ENDBRANCH  21  23
ENDBRANCH  20  21
ENDBRANCH  19  20
ENDBRANCH  18  19
ENDBRANCH  15  18
ENDBRANCH   1  14
TORSDOF 8
