REMARK  8 active torsions:
REMARK  status: ('A' for Active; 'I' for Inactive)
REMARK    1  A    between atoms: O_6  and  C_1 
REMARK    2  A    between atoms: C_13  and  N_2 
REMARK    3  A    between atoms: S_10  and  C_3 
REMARK    4  A    between atoms: C_9  and  O_6 
REMARK       I    between atoms: N_11  and  C_9 
REMARK    5  A    between atoms: C_18  and  S_10 
REMARK    6  A    between atoms: C_12  and  C_18 
REMARK       I    between atoms: N_14  and  C_12 
REMARK    7  A    between atoms: C_21  and  N_14 
REMARK    8  A    between atoms: C_22  and  C_16 
ROOT
ATOM      1  C   UNL d   1      -0.819   0.019   0.146  0.00  0.00     0.256 A 
ATOM      2  N   UNL d   1      -0.345   0.909  -0.821  0.00  0.00    -0.255 N 
ATOM      3  C   UNL d   1       0.991   1.078  -0.450  0.00  0.00     0.169 A 
ATOM      4  N   UNL d   1       0.145  -0.332   0.967  0.00  0.00    -0.262 N 
ATOM      5  HN  UNL d   1       0.066  -0.998   1.736  1.00  0.00     0.190 HD
ATOM      6  N   UNL d   1       1.267   0.352   0.612  0.00  0.00    -0.276 N 
ATOM      7  HN  UNL d   1       2.169   0.309   1.088  1.00  0.00     0.189 HD
ENDROOT
BRANCH   3   8
ATOM      8  S   UNL d   1       2.238   1.929  -1.335  0.00  0.00    -0.083 SA
BRANCH   8   9
ATOM      9  C   UNL d   1       3.707   1.326  -0.449  0.00  0.00     0.185 C 
BRANCH   9  10
ATOM     10  C   UNL d   1       5.032   1.822  -1.008  0.00  0.00     0.231 C 
ATOM     11  N   UNL d   1       5.078   3.157  -1.381  0.00  0.00    -0.327 N 
ATOM     12  H   UNL d   1       4.231   3.696  -1.248  0.00  0.00     0.169 HD
ATOM     13  O   UNL d   1       6.000   1.060  -0.992  0.00  0.00    -0.272 OA
BRANCH  11  14
ATOM     14  C   UNL d   1       6.213   3.860  -1.856  0.00  0.00     0.034 A 
ATOM     15  C   UNL d   1       7.412   3.240  -2.213  0.00  0.00     0.030 A 
ATOM     16  C   UNL d   1       8.514   3.985  -2.645  0.00  0.00     0.010 A 
ATOM     17  C   UNL d   1       8.451   5.383  -2.726  0.00  0.00    -0.055 A 
ATOM     18  C   UNL d   1       7.242   6.003  -2.395  0.00  0.00     0.010 A 
ATOM     19  C   UNL d   1       6.134   5.251  -1.972  0.00  0.00     0.030 A 
BRANCH  17  20
ATOM     20  C   UNL d   1       9.650   6.204  -3.172  0.00  0.00     0.010 C 
ATOM     21  C   UNL d   1      10.891   5.935  -2.312  0.00  0.00     0.015 C 
ATOM     22  C   UNL d   1       9.966   5.970  -4.651  0.00  0.00     0.015 C 
ENDBRANCH  17  20
ENDBRANCH  11  14
ENDBRANCH   9  10
ENDBRANCH   8   9
ENDBRANCH   3   8
BRANCH   2  23
ATOM     23  C   UNL d   1      -1.056   1.453  -1.934  0.00  0.00     0.045 A 
ATOM     24  C   UNL d   1      -0.740   2.722  -2.439  0.00  0.00     0.030 A 
ATOM     25  C   UNL d   1      -1.442   3.251  -3.526  0.00  0.00     0.002 A 
ATOM     26  C   UNL d   1      -2.477   2.527  -4.110  0.00  0.00     0.000 A 
ATOM     27  C   UNL d   1      -2.813   1.274  -3.607  0.00  0.00     0.002 A 
ATOM     28  C   UNL d   1      -2.107   0.735  -2.527  0.00  0.00     0.030 A 
ENDBRANCH   2  23
BRANCH   1  29
ATOM     29  O   UNL d   1      -2.029  -0.501   0.264  0.00  0.00    -0.226 OA
BRANCH  29  30
ATOM     30  C   UNL d   1      -3.020   0.362   0.597  0.00  0.00     0.369 C 
ATOM     31  N   UNL d   1      -4.200  -0.294   0.937  0.00  0.00    -0.336 N 
ATOM     32  C   UNL d   1      -5.396   0.490   1.178  0.00  0.00     0.154 C 
ATOM     33  C   UNL d   1      -4.256  -1.712   1.254  0.00  0.00     0.154 C 
ATOM     34  O   UNL d   1      -2.918   1.586   0.582  0.00  0.00    -0.238 OA
ENDBRANCH  29  30
ENDBRANCH   1  29
TORSDOF 8
