REMARK  3 active torsions:
REMARK  status: ('A' for Active; 'I' for Inactive)
REMARK    1  A    between atoms: N_3  and  S_1 
REMARK    2  A    between atoms: C_4  and  S_1 
REMARK    3  A    between atoms: N_2  and  C_7 
ROOT
ATOM      1  C   UNL d   1       0.495   1.612   0.684  0.00  0.00     0.074 A 
ATOM      2  C   UNL d   1      -0.388   4.060   1.676  0.00  0.00     0.102 A 
ATOM      3  C   UNL d   1       1.068   2.134   1.850  0.00  0.00     0.027 A 
ATOM      4  C   UNL d   1      -0.506   2.316   0.004  0.00  0.00     0.027 A 
ATOM      5  C   UNL d   1      -0.960   3.538   0.507  0.00  0.00     0.037 A 
ATOM      6  C   UNL d   1       0.626   3.362   2.350  0.00  0.00     0.037 A 
ENDROOT
BRANCH   1   7
ATOM      7  S   UNL d   1       1.155   0.115  -0.022  0.00  0.00     0.243 S 
ATOM      8  O   UNL d   1       0.836   0.121  -1.433  0.00  0.00    -0.206 OA
ATOM      9  O   UNL d   1       2.526   0.001   0.425  0.00  0.00    -0.206 OA
BRANCH   7  10
ATOM     10  N   UNL d   1       0.252  -1.117   0.731  0.00  0.00    -0.202 NA
ATOM     11  C   UNL d   1      -1.211  -1.198   0.415  0.00  0.00     0.134 C 
ATOM     12  C   UNL d   1      -1.476  -1.913  -0.918  0.00  0.00     0.183 C 
ATOM     13  O   UNL d   1      -0.868  -3.211  -0.949  0.00  0.00    -0.389 OA
ATOM     14  C   UNL d   1       0.550  -3.114  -0.749  0.00  0.00     0.183 C 
ATOM     15  C   UNL d   1       0.861  -2.486   0.613  0.00  0.00     0.134 C 
ENDBRANCH   7  10
ENDBRANCH   1   7
BRANCH   2  16
ATOM     16  N   UNL d   1      -0.842   5.361   2.187  0.00  0.00    -0.116 N 
ATOM     17  O   UNL d   1      -1.755   5.932   1.574  0.00  0.00    -0.532 OA
ATOM     18  O   UNL d   1      -0.287   5.808   3.200  0.00  0.00    -0.532 OA
ENDBRANCH   2  16
TORSDOF 3
