REMARK  3 active torsions:
REMARK  status: ('A' for Active; 'I' for Inactive)
REMARK    1  A    between atoms: C_7  and  C_1 
REMARK    2  A    between atoms: S_10  and  C_4 
REMARK    3  A    between atoms: N_11  and  C_5 
ROOT
ATOM      1  C   UNL d   1      -0.071  -1.281   0.051  0.00  0.00     0.065 A 
ATOM      2  N   UNL d   1      -0.089   1.021   0.048  0.00  0.00    -0.288 N 
ATOM      3  HN  UNL d   1       0.198   1.999   0.080  1.00  0.00     0.188 HD
ATOM      4  C   UNL d   1      -1.382  -0.840   0.000  0.00  0.00     0.100 A 
ATOM      5  C   UNL d   1       0.681  -0.064   0.063  0.00  0.00     0.107 A 
ATOM      6  N   UNL d   1      -1.329   0.521  -0.019  0.00  0.00    -0.292 N 
ATOM      7  H   UNL d   1      -2.114   1.161  -0.070  0.00  0.00     0.187 HD
ENDROOT
BRANCH   1   8
ATOM      8  C   UNL d   1       0.373  -2.668   0.080  0.00  0.00     0.048 A 
ATOM      9  N   UNL d   1      -0.407  -3.579  -0.550  0.00  0.00    -0.365 N 
ATOM     10  C   UNL d   1      -0.005  -4.869  -0.540  0.00  0.00     0.088 A 
ATOM     11  HN  UNL d   1      -1.270  -3.300  -1.016  1.00  0.00     0.165 HD
ATOM     12  C   UNL d   1       1.161  -5.308   0.060  0.00  0.00     0.017 A 
ATOM     13  C   UNL d   1       1.958  -4.369   0.698  0.00  0.00     0.004 A 
ATOM     14  C   UNL d   1       1.558  -3.034   0.718  0.00  0.00     0.030 A 
ENDBRANCH   1   8
BRANCH   4  15
ATOM     15  S   UNL d   1      -2.959  -1.557  -0.055  0.00  0.00    -0.114 SA
ATOM     16  C   UNL d   1      -2.990  -2.476   1.498  0.00  0.00     0.097 C 
ENDBRANCH   4  15
BRANCH   5  17
ATOM     17  N   UNL d   1       2.022   0.042   0.059  0.00  0.00    -0.287 NA
ATOM     18  H   UNL d   1       2.356   0.984  -0.124  0.00  0.00     0.125 HD
ATOM     19  H   UNL d   1       2.557  -0.650  -0.455  0.00  0.00     0.125 HD
ENDBRANCH   5  17
TORSDOF 3
