REMARK  6 active torsions:
REMARK  status: ('A' for Active; 'I' for Inactive)
REMARK    1  A    between atoms: N_2  and  C_1 
REMARK    2  A    between atoms: N_7  and  N_2 
REMARK    3  A    between atoms: C_8  and  N_4 
REMARK    4  A    between atoms: C_5  and  C_8 
REMARK    5  A    between atoms: O_9  and  C_5 
REMARK    6  A    between atoms: C_12  and  O_9 
ROOT
ATOM      1  C   UNL d   1       1.164  -0.011  -0.215  0.00  0.00     0.182 C 
ATOM      2  S   UNL d   1       0.489   0.146   1.307  0.00  0.00    -0.040 SA
ATOM      3  N   UNL d   1       2.482   0.313  -0.350  0.00  0.00    -0.357 N 
ATOM      4  H   UNL d   1       2.924   0.566   0.531  0.00  0.00     0.162 HD
ENDROOT
BRANCH   3   5
ATOM      5  C   UNL d   1       3.396  -0.110  -1.408  0.00  0.00     0.233 C 
BRANCH   5   6
ATOM      6  C   UNL d   1       4.859  -0.085  -0.986  0.00  0.00     0.276 C 
ATOM      7  O   UNL d   1       5.791  -0.405  -1.712  0.00  0.00    -0.263 OA
BRANCH   6   8
ATOM      8  O   UNL d   1       4.973   0.281   0.331  0.00  0.00    -0.321 OA
BRANCH   8   9
ATOM      9  C   UNL d   1       6.233  -0.006   0.954  0.00  0.00     0.174 C 
ATOM     10  C   UNL d   1       6.194  -1.438   1.461  0.00  0.00     0.034 C 
ENDBRANCH   8   9
ENDBRANCH   6   8
ENDBRANCH   5   6
ENDBRANCH   3   5
BRANCH   1  11
ATOM     11  N   UNL d   1       0.539  -0.466  -1.355  0.00  0.00    -0.296 N 
ATOM     12  H   UNL d   1       0.963  -0.289  -2.258  0.00  0.00     0.183 HD
BRANCH  11  13
ATOM     13  N   UNL d   1      -0.723  -1.083  -1.308  0.00  0.00    -0.238 NA
ATOM     14  C   UNL d   1      -1.767  -0.249  -1.898  0.00  0.00     0.135 C 
ATOM     15  C   UNL d   1      -0.684  -2.407  -1.923  0.00  0.00     0.135 C 
ENDBRANCH  11  13
ENDBRANCH   1  11
TORSDOF 6
