REMARK  3 active torsions:
REMARK  status: ('A' for Active; 'I' for Inactive)
REMARK    1  A    between atoms: C_2  and  S_1 
REMARK    2  A    between atoms: C_5  and  S_1 
REMARK    3  A    between atoms: C_10  and  C_3 
ROOT
ATOM      1  C   UNL d   1       0.436  -0.742  -1.380  0.00  0.00     0.140 C 
ATOM      2  C   UNL d   1      -0.324  -1.854  -1.329  0.00  0.00     0.046 C 
ATOM      3  C   UNL d   1       0.944  -0.089  -0.228  0.00  0.00     0.111 C 
ATOM      4  N   UNL d   1       1.307   0.432   0.742  0.00  0.00    -0.191 NA
ENDROOT
BRANCH   1   5
ATOM      5  S   UNL d   1       0.897  -0.101  -2.934  0.00  0.00     0.193 S 
ATOM      6  O   UNL d   1       0.750  -1.151  -3.932  0.00  0.00    -0.221 OA
ATOM      7  O   UNL d   1       2.185   0.557  -2.802  0.00  0.00    -0.221 OA
BRANCH   5   8
ATOM      8  C   UNL d   1      -0.344   1.187  -3.321  0.00  0.00     0.058 C 
ATOM      9  C   UNL d   1      -0.351   2.288  -2.252  0.00  0.00     0.031 C 
ATOM     10  C   UNL d   1       0.037   1.820  -4.673  0.00  0.00     0.031 C 
ATOM     11  C   UNL d   1      -1.746   0.574  -3.445  0.00  0.00     0.031 C 
ENDBRANCH   5   8
ENDBRANCH   1   5
BRANCH   2  12
ATOM     12  C   UNL d   1      -0.741  -2.492  -0.075  0.00  0.00    -0.032 A 
ATOM     13  C   UNL d   1      -1.887  -2.046   0.593  0.00  0.00     0.038 A 
ATOM     14  C   UNL d   1      -2.258  -2.631   1.807  0.00  0.00     0.073 A 
ATOM     15 CL   UNL d   1      -3.667  -2.066   2.619  0.00  0.00    -0.081 Cl
ATOM     16  C   UNL d   1      -1.487  -3.657   2.350  0.00  0.00     0.138 A 
ATOM     17  C   UNL d   1      -0.346  -4.106   1.691  0.00  0.00     0.045 A 
ATOM     18  F   UNL d   1      -1.827  -4.229   3.513  0.00  0.00    -0.204 F 
ATOM     19  C   UNL d   1       0.029  -3.525   0.477  0.00  0.00     0.014 A 
ENDBRANCH   2  12
TORSDOF 3
