REMARK  3 active torsions:
REMARK  status: ('A' for Active; 'I' for Inactive)
REMARK    1  A    between atoms: C_2  and  C_1 
REMARK       I    between atoms: N_5  and  C_2 
REMARK    2  A    between atoms: C_3  and  C_4 
REMARK    3  A    between atoms: C_4  and  N_5 
ROOT
ATOM      1  C   UNL d   1      -2.592   2.470  -0.099  0.00  0.00     0.086 C 
ATOM      2  N   UNL d   1      -3.226   3.370  -0.777  0.00  0.00    -0.388 N 
ATOM      3  HN  UNL d   1      -3.108   4.374  -0.642  1.00  0.00     0.157 HD
ATOM      4  H   UNL d   1      -3.860   2.955  -1.465  0.00  0.00     0.157 HD
ENDROOT
BRANCH   1   5
ATOM      5  C   UNL d   1      -2.779   0.954  -0.314  0.00  0.00     0.019 C 
ATOM      6  C   UNL d   1      -3.347   0.319   0.979  0.00  0.00     0.022 C 
ATOM      7  C   UNL d   1      -3.421  -1.209   0.857  0.00  0.00    -0.013 C 
ATOM      8  C   UNL d   1      -4.398  -1.583  -0.269  0.00  0.00     0.009 C 
ATOM      9  C   UNL d   1      -2.018  -1.745   0.528  0.00  0.00     0.009 C 
ATOM     10  C   UNL d   1      -3.920  -0.968  -1.592  0.00  0.00    -0.013 C 
ATOM     11  C   UNL d   1      -3.800   0.571  -1.440  0.00  0.00     0.022 C 
ATOM     12  C   UNL d   1      -2.549  -1.576  -1.927  0.00  0.00     0.009 C 
ATOM     13  C   UNL d   1      -1.541  -1.204  -0.831  0.00  0.00    -0.013 C 
ATOM     14  C   UNL d   1      -1.438   0.325  -0.764  0.00  0.00     0.022 C 
ENDBRANCH   1   5
BRANCH   1  15
ATOM     15  N   UNL d   1      -1.754   3.043   0.831  0.00  0.00    -0.312 N 
ATOM     16  C   UNL d   1      -0.873   2.596   1.819  0.00  0.00     0.261 C 
ATOM     17  O   UNL d   1      -0.549   1.422   1.971  0.00  0.00    -0.267 OA
ATOM     18  H   UNL d   1      -1.820   4.045   0.722  0.00  0.00     0.170 HD
BRANCH  16  19
ATOM     19  C   UNL d   1      -0.275   3.633   2.670  0.00  0.00     0.087 A 
ATOM     20  C   UNL d   1      -0.706   4.918   2.963  0.00  0.00     0.090 A 
ATOM     21  O   UNL d   1       0.168   5.500   3.830  0.00  0.00    -0.242 OA
ATOM     22  C   UNL d   1      -1.861   5.781   2.644  0.00  0.00     0.080 C 
ATOM     23  N   UNL d   1       1.177   4.632   4.141  0.00  0.00    -0.265 N 
ATOM     24  C   UNL d   1       0.911   3.505   3.469  0.00  0.00     0.047 A 
ATOM     25  HN  UNL d   1       1.970   4.806   4.759  1.00  0.00     0.194 HD
ATOM     26  C   UNL d   1       1.839   2.358   3.630  0.00  0.00     0.071 C 
ENDBRANCH  16  19
ENDBRANCH   1  15
TORSDOF 3
