REMARK  2 active torsions:
REMARK  status: ('A' for Active; 'I' for Inactive)
REMARK    1  A    between atoms: C_12  and  C_11 
REMARK    2  A    between atoms: C_17  and  C_12 
ROOT
ATOM      1  C   UNL d   1       0.004  -0.729   0.090  0.00  0.00     0.148 A 
ATOM      2  C   UNL d   1      -0.042   0.617  -0.032  0.00  0.00     0.141 A 
ATOM      3  N   UNL d   1       1.130   1.324  -0.075  0.00  0.00    -0.317 N 
ATOM      4  N   UNL d   1      -1.148  -1.473   0.190  0.00  0.00    -0.314 N 
ATOM      5  N   UNL d   1       2.418  -0.604   0.068  0.00  0.00    -0.298 N 
ATOM      6  C   UNL d   1       1.320  -1.419   0.140  0.00  0.00     0.278 A 
ATOM      7  C   UNL d   1       2.369   0.755  -0.019  0.00  0.00     0.180 A 
ATOM      8  C   UNL d   1      -2.428   0.512  -0.394  0.00  0.00     0.106 C 
ATOM      9  N   UNL d   1      -1.269   1.255  -0.133  0.00  0.00    -0.336 N 
ATOM     10  C   UNL d   1      -2.410  -0.929   0.107  0.00  0.00     0.273 C 
ATOM     11  C   UNL d   1      -3.465   0.977  -1.108  0.00  0.00     0.091 C 
ATOM     12  S   UNL d   1       3.748   1.680  -0.060  0.00  0.00    -0.040 SA
ATOM     13  O   UNL d   1       1.406  -2.639   0.233  0.00  0.00    -0.265 OA
ATOM     14  O   UNL d   1      -3.412  -1.531   0.476  0.00  0.00    -0.266 OA
ATOM     15  H   UNL d   1       1.095   2.335  -0.123  0.00  0.00     0.170 HD
ATOM     16  H   UNL d   1      -1.077  -2.460   0.414  0.00  0.00     0.169 HD
ATOM     17  H   UNL d   1       3.320  -1.058   0.097  0.00  0.00     0.171 HD
ATOM     18  H   UNL d   1      -1.236   2.175  -0.552  0.00  0.00     0.168 HD
ENDROOT
BRANCH  11  19
ATOM     19  C   UNL d   1      -4.470   0.084  -1.753  0.00  0.00     0.184 C 
ATOM     20  O   UNL d   1      -4.156  -1.035  -2.144  0.00  0.00    -0.288 OA
BRANCH  19  21
ATOM     21  C   UNL d   1      -5.788   0.660  -2.134  0.00  0.00     0.014 A 
ATOM     22  C   UNL d   1      -6.511   0.010  -3.146  0.00  0.00     0.015 A 
ATOM     23  C   UNL d   1      -7.728   0.527  -3.590  0.00  0.00     0.001 A 
ATOM     24  C   UNL d   1      -8.236   1.692  -3.020  0.00  0.00     0.000 A 
ATOM     25  C   UNL d   1      -7.535   2.332  -1.998  0.00  0.00     0.001 A 
ATOM     26  C   UNL d   1      -6.315   1.817  -1.548  0.00  0.00     0.015 A 
ENDBRANCH  19  21
ENDBRANCH  11  19
TORSDOF 2
