REMARK  5 active torsions:
REMARK  status: ('A' for Active; 'I' for Inactive)
REMARK    1  A    between atoms: C_2  and  C_1 
REMARK    2  A    between atoms: C_5  and  C_1 
REMARK    3  A    between atoms: C_4  and  C_2 
REMARK    4  A    between atoms: C_6  and  C_2 
REMARK    5  A    between atoms: C_7  and  C_4 
ROOT
ATOM      1  C   UNL d   1       0.548  -1.312  -0.055  0.00  0.00     0.094 C 
ENDROOT
BRANCH   1   2
ATOM      2  C   UNL d   1       1.373  -0.016   0.003  0.00  0.00     0.168 C 
ATOM      3  O   UNL d   1       2.387   0.165  -0.677  0.00  0.00    -0.292 OA
BRANCH   2   4
ATOM      4  C   UNL d   1       0.941   1.086   0.916  0.00  0.00     0.010 A 
ATOM      5  C   UNL d   1      -0.372   1.218   1.383  0.00  0.00     0.015 A 
ATOM      6  C   UNL d   1      -0.693   2.220   2.301  0.00  0.00     0.001 A 
ATOM      7  C   UNL d   1       0.287   3.107   2.742  0.00  0.00     0.000 A 
ATOM      8  C   UNL d   1       1.584   3.017   2.241  0.00  0.00     0.001 A 
ATOM      9  C   UNL d   1       1.909   2.015   1.326  0.00  0.00     0.015 A 
ENDBRANCH   2   4
ENDBRANCH   1   2
BRANCH   1  10
ATOM     10  C   UNL d   1      -0.337  -1.275  -1.328  0.00  0.00     0.021 C 
BRANCH  10  11
ATOM     11  C   UNL d   1       0.369  -1.157  -2.699  0.00  0.00    -0.022 C 
ATOM     12  C   UNL d   1       1.321  -2.310  -3.014  0.00  0.00     0.009 C 
ATOM     13  C   UNL d   1      -0.687  -1.056  -3.805  0.00  0.00     0.009 C 
ENDBRANCH  10  11
ENDBRANCH   1  10
BRANCH   1  14
ATOM     14  C   UNL d   1       1.326  -2.617   0.145  0.00  0.00    -0.046 A 
ATOM     15  C   UNL d   1       2.702  -2.654   0.417  0.00  0.00     0.008 A 
ATOM     16  C   UNL d   1       3.385  -3.870   0.508  0.00  0.00     0.001 A 
ATOM     17  C   UNL d   1       2.703  -5.073   0.356  0.00  0.00     0.000 A 
ATOM     18  C   UNL d   1       1.327  -5.061   0.157  0.00  0.00     0.001 A 
ATOM     19  C   UNL d   1       0.644  -3.847   0.069  0.00  0.00     0.008 A 
ENDBRANCH   1  14
TORSDOF 5
