REMARK  5 active torsions:
REMARK  status: ('A' for Active; 'I' for Inactive)
REMARK    1  A    between atoms: S_10  and  C_3 
REMARK    2  A    between atoms: C_8  and  C_7 
REMARK    3  A    between atoms: C_11  and  C_8 
REMARK    4  A    between atoms: C_9  and  S_10 
REMARK    5  A    between atoms: C_22  and  C_21 
ROOT
ATOM      1  S   UNL d   1      -4.382   0.720   0.015  0.00  0.00    -0.066 SA
ENDROOT
BRANCH   1   2
ATOM      2  C   UNL d   1      -4.535   2.448   0.091  0.00  0.00     0.057 C 
ATOM      3  C   UNL d   1      -5.757   3.003   0.081  0.00  0.00     0.063 C 
BRANCH   3   4
ATOM      4  C   UNL d   1      -5.945   4.479   0.145  0.00  0.00     0.182 C 
ATOM      5  O   UNL d   1      -5.042   5.261  -0.127  0.00  0.00    -0.288 OA
BRANCH   4   6
ATOM      6  C   UNL d   1      -7.304   4.981   0.508  0.00  0.00     0.014 A 
ATOM      7  C   UNL d   1      -8.162   4.258   1.347  0.00  0.00     0.016 A 
ATOM      8  C   UNL d   1      -9.432   4.754   1.657  0.00  0.00     0.008 A 
ATOM      9  C   UNL d   1      -9.862   5.985   1.147  0.00  0.00    -0.059 A 
ATOM     10  C   UNL d   1      -8.994   6.718   0.327  0.00  0.00     0.008 A 
ATOM     11  C   UNL d   1      -7.721   6.223   0.015  0.00  0.00     0.016 A 
BRANCH   9  12
ATOM     12  C   UNL d   1     -11.245   6.501   1.462  0.00  0.00     0.034 C 
ATOM     13  C   UNL d   1     -12.276   6.020   0.452  0.00  0.00     0.010 C 
ENDBRANCH   9  12
ENDBRANCH   4   6
ENDBRANCH   3   4
ENDBRANCH   1   2
BRANCH   1  14
ATOM     14  C   UNL d   1      -2.671   0.522   0.144  0.00  0.00     0.149 A 
ATOM     15  N   UNL d   1      -1.731   1.425   0.287  0.00  0.00    -0.335 N 
ATOM     16  C   UNL d   1      -0.554   0.707   0.334  0.00  0.00     0.061 A 
ATOM     17  HN  UNL d   1      -1.845   2.437   0.349  1.00  0.00     0.168 HD
ATOM     18  C   UNL d   1      -0.796  -0.659   0.223  0.00  0.00     0.061 A 
ATOM     19  C   UNL d   1       0.770   1.153   0.472  0.00  0.00     0.038 A 
ATOM     20  C   UNL d   1       0.212  -1.624   0.242  0.00  0.00     0.032 A 
ATOM     21  N   UNL d   1      -2.159  -0.745   0.102  0.00  0.00    -0.335 N 
ATOM     22  C   UNL d   1       1.525  -1.158   0.382  0.00  0.00     0.009 A 
ATOM     23  C   UNL d   1       1.815   0.211   0.496  0.00  0.00    -0.060 A 
ATOM     24  C   UNL d   1       3.241   0.657   0.642  0.00  0.00     0.048 C 
ATOM     25  H   UNL d   1      -2.703  -1.587  -0.001  0.00  0.00     0.168 HD
ENDBRANCH   1  14
TORSDOF 5
