REMARK  3 active torsions:
REMARK  status: ('A' for Active; 'I' for Inactive)
REMARK    1  A    between atoms: C_2  and  S_1 
REMARK    2  A    between atoms: C_9  and  S_1 
REMARK    3  A    between atoms: C_4  and  C_3 
ROOT
ATOM      1  C   UNL d   1       0.508  -0.980   1.235  0.00  0.00     0.146 C 
ATOM      2  C   UNL d   1      -0.357  -0.557   2.178  0.00  0.00     0.072 C 
ATOM      3  C   UNL d   1       1.028  -0.176   0.182  0.00  0.00     0.112 C 
ATOM      4  N   UNL d   1       1.428   0.478  -0.689  0.00  0.00    -0.191 NA
ENDROOT
BRANCH   1   5
ATOM      5  S   UNL d   1       0.909  -2.670   1.248  0.00  0.00     0.216 S 
ATOM      6  O   UNL d   1       0.073  -3.365   0.284  0.00  0.00    -0.216 OA
ATOM      7  O   UNL d   1       0.952  -3.152   2.619  0.00  0.00    -0.216 OA
BRANCH   5   8
ATOM      8  C   UNL d   1       2.588  -2.786   0.645  0.00  0.00     0.065 A 
ATOM      9  C   UNL d   1       3.655  -2.822   1.551  0.00  0.00     0.025 A 
ATOM     10  C   UNL d   1       4.955  -3.043   1.076  0.00  0.00     0.025 A 
ATOM     11  C   UNL d   1       5.175  -3.233  -0.288  0.00  0.00     0.034 A 
ATOM     12  C   UNL d   1       4.110  -3.200  -1.188  0.00  0.00     0.025 A 
ATOM     13 CL   UNL d   1       6.766  -3.547  -0.862  0.00  0.00    -0.084 Cl
ATOM     14  C   UNL d   1       2.811  -2.986  -0.722  0.00  0.00     0.025 A 
ENDBRANCH   5   8
ENDBRANCH   1   5
BRANCH   2  15
ATOM     15  C   UNL d   1      -0.712   0.816   2.300  0.00  0.00     0.079 A 
ATOM     16  O   UNL d   1       0.185   1.821   2.041  0.00  0.00    -0.310 OA
ATOM     17  C   UNL d   1      -0.426   3.014   2.223  0.00  0.00     0.086 A 
ATOM     18  C   UNL d   1       0.171   4.255   2.025  0.00  0.00     0.038 A 
ATOM     19  C   UNL d   1      -1.734   2.823   2.633  0.00  0.00     0.000 A 
ATOM     20  C   UNL d   1      -0.628   5.372   2.276  0.00  0.00     0.003 A 
ATOM     21  C   UNL d   1      -1.954   5.229   2.694  0.00  0.00     0.001 A 
ATOM     22  C   UNL d   1      -2.527   3.958   2.873  0.00  0.00     0.014 A 
ATOM     23  C   UNL d   1      -1.911   1.411   2.694  0.00  0.00     0.051 A 
ENDBRANCH   2  15
TORSDOF 3
