REMARK  3 active torsions:
REMARK  status: ('A' for Active; 'I' for Inactive)
REMARK    1  A    between atoms: C_7  and  C_3 
REMARK    2  A    between atoms: C_15  and  C_4 
REMARK    3  A    between atoms: C_24  and  C_12 
ROOT
ATOM      1  C   UNL d   1       4.488   2.375  -1.155  0.00  0.00    -0.042 A 
ATOM      2  C   UNL d   1       4.654   3.373  -0.177  0.00  0.00    -0.043 A 
ATOM      3  C   UNL d   1       2.428   1.589  -0.007  0.00  0.00    -0.002 A 
ATOM      4  C   UNL d   1       3.346   1.546  -1.075  0.00  0.00     0.022 A 
ATOM      5  C   UNL d   1       3.745   3.401   0.906  0.00  0.00     0.016 A 
ATOM      6  C   UNL d   1       2.657   2.509   1.025  0.00  0.00    -0.045 A 
ATOM      7  C   UNL d   1       5.477   2.168  -2.306  0.00  0.00    -0.020 C 
ATOM      8  C   UNL d   1       5.795   4.398  -0.238  0.00  0.00    -0.020 C 
ATOM      9  C   UNL d   1       6.793   2.943  -2.071  0.00  0.00     0.015 C 
ATOM     10  C   UNL d   1       6.536   4.362  -1.596  0.00  0.00     0.015 C 
ATOM     11  C   UNL d   1       4.818   2.624  -3.626  0.00  0.00     0.020 C 
ATOM     12  C   UNL d   1       5.873   0.677  -2.447  0.00  0.00     0.020 C 
ATOM     13  C   UNL d   1       6.794   4.114   0.906  0.00  0.00     0.020 C 
ATOM     14  C   UNL d   1       5.260   5.840  -0.076  0.00  0.00     0.020 C 
ENDROOT
BRANCH   3  15
ATOM     15  C   UNL d   1       1.288   0.666  -0.034  0.00  0.00     0.050 A 
ATOM     16  N   UNL d   1       0.035   1.012   0.451  0.00  0.00    -0.349 N 
ATOM     17  C   UNL d   1      -0.830   0.035   0.257  0.00  0.00     0.084 A 
ATOM     18  HN  UNL d   1      -0.187   1.903   0.896  1.00  0.00     0.166 HD
ATOM     19  S   UNL d   1      -0.172  -1.368  -0.496  0.00  0.00    -0.081 SA
ATOM     20  C   UNL d   1       1.357  -0.608  -0.565  0.00  0.00     0.082 A 
BRANCH  17  21
ATOM     21  C   UNL d   1      -2.235   0.065   0.697  0.00  0.00    -0.002 A 
ATOM     22  C   UNL d   1      -3.259  -0.615   0.012  0.00  0.00     0.017 A 
ATOM     23  C   UNL d   1      -4.575  -0.585   0.481  0.00  0.00     0.043 A 
ATOM     24  C   UNL d   1      -4.877   0.128   1.635  0.00  0.00     0.116 A 
ATOM     25  C   UNL d   1      -3.890   0.823   2.321  0.00  0.00     0.043 A 
ATOM     26  F   UNL d   1      -6.136   0.145   2.089  0.00  0.00    -0.206 F 
ATOM     27  C   UNL d   1      -2.575   0.797   1.849  0.00  0.00     0.017 A 
ENDBRANCH  17  21
ENDBRANCH   3  15
BRANCH   6  28
ATOM     28  C   UNL d   1       1.818   2.587   2.283  0.00  0.00     0.035 C 
ATOM     29  C   UNL d   1       0.741   3.660   2.223  0.00  0.00     0.010 C 
ENDBRANCH   6  28
TORSDOF 3
