REMARK  3 active torsions:
REMARK  status: ('A' for Active; 'I' for Inactive)
REMARK    1  A    between atoms: C_10  and  C_5 
REMARK    2  A    between atoms: S_16  and  C_8 
REMARK    3  A    between atoms: N_17  and  C_9 
ROOT
ATOM      1  N   UNL d   1       1.772  -0.022  -0.071  0.00  0.00    -0.322 N 
ATOM      2  HN  UNL d   1       2.789  -0.006  -0.148  1.00  0.00     0.169 HD
ATOM      3  N   UNL d   1      -0.284   1.111   0.106  0.00  0.00    -0.318 N 
ATOM      4  HN  UNL d   1      -0.811   1.983   0.156  1.00  0.00     0.170 HD
ATOM      5  C   UNL d   1       1.044   1.085   0.015  0.00  0.00     0.119 A 
ATOM      6  N   UNL d   1      -0.248  -1.235   0.034  0.00  0.00    -0.313 N 
ATOM      7  HN  UNL d   1      -0.745  -2.126   0.029  1.00  0.00     0.170 HD
ATOM      8  C   UNL d   1       1.076  -1.153  -0.050  0.00  0.00     0.147 A 
ATOM      9  C   UNL d   1      -0.871  -0.073   0.127  0.00  0.00     0.158 A 
ENDROOT
BRANCH   5  10
ATOM     10  C   UNL d   1       1.761   2.375   0.027  0.00  0.00     0.011 A 
ATOM     11  C   UNL d   1       1.073   3.595   0.163  0.00  0.00     0.039 A 
ATOM     12  C   UNL d   1       1.759   4.812   0.191  0.00  0.00     0.036 A 
ATOM     13 CL   UNL d   1       0.879   6.279   0.374  0.00  0.00    -0.084 Cl
ATOM     14  C   UNL d   1       3.143   4.848   0.078  0.00  0.00     0.047 A 
ATOM     15  C   UNL d   1       3.840   3.654  -0.062  0.00  0.00     0.036 A 
ATOM     16  C   UNL d   1       3.164   2.433  -0.086  0.00  0.00     0.039 A 
ATOM     17 CL   UNL d   1       5.555   3.680  -0.204  0.00  0.00    -0.084 Cl
ENDBRANCH   5  10
BRANCH   9  18
ATOM     18  N   UNL d   1      -2.247  -0.085   0.225  0.00  0.00    -0.274 NA
ATOM     19  H   UNL d   1      -2.636  -0.933  -0.163  0.00  0.00     0.127 HD
ATOM     20  H   UNL d   1      -2.639   0.792  -0.087  0.00  0.00     0.127 HD
ENDBRANCH   9  18
BRANCH   8  21
ATOM     21  S   UNL d   1       2.049  -2.640  -0.137  0.00  0.00    -0.098 SA
ATOM     22  C   UNL d   1       0.756  -3.898  -0.027  0.00  0.00     0.099 C 
ENDBRANCH   8  21
TORSDOF 3
