REMARK  5 active torsions:
REMARK  status: ('A' for Active; 'I' for Inactive)
REMARK    1  A    between atoms: N_2  and  C_1 
REMARK    2  A    between atoms: C_3  and  C_7 
REMARK    3  A    between atoms: N_6  and  C_4 
REMARK    4  A    between atoms: C_10  and  N_6 
REMARK    5  A    between atoms: C_16  and  C_10 
ROOT
ATOM      1  C   UNL d   1      -0.617  -0.740  -0.402  0.00  0.00     0.130 A 
ATOM      2  C   UNL d   1       0.739  -1.164  -0.429  0.00  0.00     0.062 A 
ATOM      3  C   UNL d   1      -1.002   0.525  -0.907  0.00  0.00     0.054 A 
ATOM      4  C   UNL d   1      -0.054   1.395  -1.453  0.00  0.00     0.050 A 
ATOM      5  C   UNL d   1       1.667  -0.232  -0.915  0.00  0.00     0.032 A 
ATOM      6  C   UNL d   1       1.290   1.022  -1.407  0.00  0.00     0.018 A 
ENDROOT
BRANCH   2   7
ATOM      7  N   UNL d   1       1.125  -2.482  -0.161  0.00  0.00    -0.380 N 
ATOM      8  H   UNL d   1       0.398  -3.038   0.296  0.00  0.00     0.160 HD
BRANCH   7   9
ATOM      9  C   UNL d   1       2.478  -2.900   0.220  0.00  0.00     0.111 C 
ATOM     10  C   UNL d   1       2.833  -4.177  -0.546  0.00  0.00     0.037 C 
BRANCH   9  11
ATOM     11  C   UNL d   1       2.552  -3.054   1.730  0.00  0.00    -0.036 A 
ATOM     12  C   UNL d   1       1.768  -3.997   2.417  0.00  0.00     0.009 A 
ATOM     13  C   UNL d   1       1.769  -4.044   3.813  0.00  0.00     0.001 A 
ATOM     14  C   UNL d   1       2.563  -3.163   4.542  0.00  0.00     0.000 A 
ATOM     15  C   UNL d   1       3.372  -2.245   3.877  0.00  0.00     0.001 A 
ATOM     16  C   UNL d   1       3.366  -2.190   2.482  0.00  0.00     0.009 A 
ENDBRANCH   9  11
ENDBRANCH   7   9
ENDBRANCH   2   7
BRANCH   1  17
ATOM     17  N   UNL d   1      -1.693  -1.584   0.159  0.00  0.00    -0.113 N 
ATOM     18  O   UNL d   1      -1.411  -2.731   0.536  0.00  0.00    -0.532 OA
ATOM     19  O   UNL d   1      -2.828  -1.088   0.236  0.00  0.00    -0.532 OA
ENDBRANCH   1  17
BRANCH   4  20
ATOM     20  C   UNL d   1      -0.460   2.680  -2.131  0.00  0.00     0.417 C 
ATOM     21  F   UNL d   1      -1.806   2.879  -2.156  0.00  0.00    -0.166 F 
ATOM     22  F   UNL d   1       0.076   3.780  -1.540  0.00  0.00    -0.166 F 
ATOM     23  F   UNL d   1      -0.056   2.716  -3.432  0.00  0.00    -0.166 F 
ENDBRANCH   4  20
TORSDOF 5
