REMARK  6 active torsions:
REMARK  status: ('A' for Active; 'I' for Inactive)
REMARK    1  A    between atoms: N_6  and  C_1 
REMARK    2  A    between atoms: C_7  and  C_3 
REMARK    3  A    between atoms: N_11  and  C_5 
REMARK    4  A    between atoms: O_14  and  C_7 
REMARK    5  A    between atoms: C_13  and  N_8 
REMARK    6  A    between atoms: C_15  and  O_14 
ROOT
ATOM      1  C   UNL d   1      -0.213   1.082   0.025  0.00  0.00     0.172 A 
ATOM      2  S   UNL d   1       1.358   0.463  -0.050  0.00  0.00    -0.045 SA
ATOM      3  C   UNL d   1      -0.582  -1.231  -0.029  0.00  0.00     0.102 A 
ATOM      4  C   UNL d   1       0.815  -1.171  -0.018  0.00  0.00     0.095 A 
ATOM      5  C   UNL d   1      -1.170   0.089   0.041  0.00  0.00     0.085 A 
ATOM      6  N   UNL d   1       1.665  -2.237  -0.094  0.00  0.00    -0.350 N 
ATOM      7  H   UNL d   1       1.258  -3.160  -0.274  0.00  0.00     0.166 HD
ENDROOT
BRANCH   6   8
ATOM      8  C   UNL d   1       2.991  -2.342   0.383  0.00  0.00     0.032 A 
ATOM      9  C   UNL d   1       3.482  -1.602   1.464  0.00  0.00     0.029 A 
ATOM     10  C   UNL d   1       4.816  -1.708   1.865  0.00  0.00     0.002 A 
ATOM     11  C   UNL d   1       5.683  -2.559   1.185  0.00  0.00     0.000 A 
ATOM     12  C   UNL d   1       5.211  -3.311   0.113  0.00  0.00     0.002 A 
ATOM     13  C   UNL d   1       3.873  -3.205  -0.282  0.00  0.00     0.029 A 
ENDBRANCH   6   8
BRANCH   3  14
ATOM     14  C   UNL d   1      -1.292  -2.511  -0.138  0.00  0.00     0.298 C 
ATOM     15  O   UNL d   1      -0.721  -3.587  -0.294  0.00  0.00    -0.259 OA
BRANCH  14  16
ATOM     16  O   UNL d   1      -2.652  -2.366  -0.144  0.00  0.00    -0.318 OA
BRANCH  16  17
ATOM     17  C   UNL d   1      -3.398  -3.474  -0.667  0.00  0.00     0.174 C 
ATOM     18  C   UNL d   1      -3.489  -3.314  -2.174  0.00  0.00     0.034 C 
ENDBRANCH  16  17
ENDBRANCH  14  16
ENDBRANCH   3  14
BRANCH   1  19
ATOM     19  N   UNL d   1      -0.410   2.510   0.036  0.00  0.00    -0.106 N 
ATOM     20  O   UNL d   1      -1.582   2.917   0.026  0.00  0.00    -0.531 OA
ATOM     21  O   UNL d   1       0.590   3.241   0.055  0.00  0.00    -0.531 OA
ENDBRANCH   1  19
BRANCH   5  22
ATOM     22  N   UNL d   1      -2.503   0.312   0.086  0.00  0.00    -0.396 N 
ATOM     23  H   UNL d   1      -3.191  -0.441   0.064  0.00  0.00     0.156 HD
ATOM     24  H   UNL d   1      -2.908   1.252   0.085  0.00  0.00     0.156 HD
ENDBRANCH   5  22
TORSDOF 6
