REMARK  1 active torsions:
REMARK  status: ('A' for Active; 'I' for Inactive)
REMARK    1  A    between atoms: C_8  and  C_4 
ROOT
ATOM      1  N   UNL d   1       1.240  -1.429  -0.012  0.00  0.00    -0.334 N 
ATOM      2  HN  UNL d   1       1.255  -2.448  -0.041  1.00  0.00     0.168 HD
ATOM      3  C   UNL d   1       0.021   0.654  -0.001  0.00  0.00     0.069 A 
ATOM      4  C   UNL d   1       2.338  -0.752   0.034  0.00  0.00     0.169 A 
ATOM      5  C   UNL d   1       0.032  -0.733  -0.022  0.00  0.00     0.068 A 
ATOM      6  C   UNL d   1       1.314   1.348   0.029  0.00  0.00     0.302 A 
ATOM      7  O   UNL d   1       2.437   0.598   0.058  0.00  0.00    -0.256 OA
ATOM      8  C   UNL d   1      -1.200  -1.407  -0.038  0.00  0.00     0.040 A 
ATOM      9  C   UNL d   1      -2.407  -0.702  -0.031  0.00  0.00     0.040 A 
ATOM     10  C   UNL d   1      -1.179   1.378   0.003  0.00  0.00     0.039 A 
ATOM     11  O   UNL d   1       1.360   2.572   0.035  0.00  0.00    -0.259 OA
ATOM     12  C   UNL d   1      -2.388   0.690  -0.010  0.00  0.00     0.013 A 
ATOM     13 BR   UNL d   1      -1.279  -3.305  -0.062  0.00  0.00    -0.049 Br
ATOM     14 BR   UNL d   1      -4.015   1.650   0.007  0.00  0.00    -0.051 Br
ENDROOT
BRANCH   4  15
ATOM     15  C   UNL d   1       3.647  -1.372   0.077  0.00  0.00     0.056 A 
ATOM     16  S   UNL d   1       3.795  -3.082  -0.011  0.00  0.00    -0.098 SA
ATOM     17  C   UNL d   1       5.496  -3.017   0.120  0.00  0.00     0.050 A 
ATOM     18  C   UNL d   1       5.956  -1.725   0.224  0.00  0.00     0.009 A 
ATOM     19  C   UNL d   1       4.892  -0.776   0.194  0.00  0.00     0.024 A 
ENDBRANCH   4  15
TORSDOF 1
