REMARK  6 active torsions:
REMARK  status: ('A' for Active; 'I' for Inactive)
REMARK    1  A    between atoms: C_2  and  C_1 
REMARK       I    between atoms: N_8  and  C_2 
REMARK    2  A    between atoms: O_13  and  C_3 
REMARK    3  A    between atoms: O_15  and  C_5 
REMARK    4  A    between atoms: C_16  and  N_8 
REMARK    5  A    between atoms: C_10  and  C_17 
REMARK    6  A    between atoms: C_17  and  C_16 
ROOT
ATOM      1  C   UNL d   1      -2.590   3.729  -0.079  0.00  0.00     0.127 C 
ENDROOT
BRANCH   1   2
ATOM      2  N   UNL d   1      -1.816   2.501  -0.083  0.00  0.00    -0.357 N 
ATOM      3  C   UNL d   1      -1.490   1.840   1.080  0.00  0.00     0.253 C 
ATOM      4  O   UNL d   1      -1.800   2.257   2.190  0.00  0.00    -0.268 OA
ATOM      5  H   UNL d   1      -1.596   2.075  -0.975  0.00  0.00     0.162 HD
BRANCH   3   6
ATOM      6  C   UNL d   1      -0.669   0.600   0.961  0.00  0.00     0.053 A 
ATOM      7  C   UNL d   1      -0.738  -0.319  -0.095  0.00  0.00     0.049 A 
ATOM      8 CL   UNL d   1      -1.837  -0.174  -1.423  0.00  0.00    -0.083 Cl
ATOM      9  C   UNL d   1       0.091  -1.451  -0.093  0.00  0.00     0.025 A 
ATOM     10  C   UNL d   1       0.985  -1.676   0.955  0.00  0.00     0.002 A 
ATOM     11  C   UNL d   1       1.053  -0.774   2.011  0.00  0.00     0.001 A 
ATOM     12  C   UNL d   1       0.229   0.354   2.016  0.00  0.00     0.019 A 
ENDBRANCH   3   6
ENDBRANCH   1   2
BRANCH   1  13
ATOM     13  C   UNL d   1      -4.098   3.465  -0.062  0.00  0.00     0.058 C 
BRANCH  13  14
ATOM     14  C   UNL d   1      -4.892   4.749  -0.114  0.00  0.00    -0.054 A 
ATOM     15  C   UNL d   1      -5.227   5.327  -1.349  0.00  0.00     0.046 A 
ATOM     16  C   UNL d   1      -5.931   6.540  -1.425  0.00  0.00     0.102 A 
ATOM     17  C   UNL d   1      -6.329   7.167  -0.232  0.00  0.00     0.101 A 
ATOM     18  C   UNL d   1      -5.973   6.602   1.000  0.00  0.00     0.040 A 
ATOM     19  C   UNL d   1      -5.262   5.403   1.062  0.00  0.00     0.010 A 
BRANCH  16  20
ATOM     20  O   UNL d   1      -6.223   7.169  -2.607  0.00  0.00    -0.353 OA
ATOM     21  C   UNL d   1      -5.769   6.571  -3.813  0.00  0.00     0.210 C 
ENDBRANCH  16  20
BRANCH  17  22
ATOM     22  O   UNL d   1      -7.005   8.355  -0.110  0.00  0.00    -0.353 OA
ATOM     23  C   UNL d   1      -7.978   8.635  -1.110  0.00  0.00     0.210 C 
ENDBRANCH  17  22
ENDBRANCH  13  14
ENDBRANCH   1  13
TORSDOF 6
