REMARK  7 active torsions:
REMARK  status: ('A' for Active; 'I' for Inactive)
REMARK       I    between atoms: N_2  and  C_1 
REMARK    1  A    between atoms: C_4  and  C_1 
REMARK    2  A    between atoms: C_5  and  N_2 
REMARK    3  A    between atoms: C_9  and  C_4 
REMARK    4  A    between atoms: C_10  and  C_4 
REMARK    5  A    between atoms: S_11  and  C_8 
REMARK    6  A    between atoms: C_14  and  S_11 
REMARK    7  A    between atoms: C_12  and  C_14 
ROOT
ATOM      1  N   UNL d   1       4.022  -4.669  -4.147  0.00  0.00    -0.197 NA
ATOM      2  C   UNL d   1       3.354  -4.009  -3.470  0.00  0.00     0.059 C 
ATOM      3  C   UNL d   1       2.438  -3.197  -2.650  0.00  0.00     0.134 C 
ENDROOT
BRANCH   3   4
ATOM      4  C   UNL d   1       2.915  -2.978  -1.217  0.00  0.00     0.093 C 
BRANCH   4   5
ATOM      5  S   UNL d   1       4.399  -1.933  -0.939  0.00  0.00    -0.127 SA
BRANCH   5   6
ATOM      6  C   UNL d   1       4.073  -0.500  -1.962  0.00  0.00     0.027 A 
ATOM      7  C   UNL d   1       3.007   0.398  -1.773  0.00  0.00     0.051 A 
ATOM      8  C   UNL d   1       2.850   1.475  -2.661  0.00  0.00     0.031 A 
ATOM      9  C   UNL d   1       3.732   1.665  -3.723  0.00  0.00     0.002 A 
ATOM     10  C   UNL d   1       4.780   0.776  -3.915  0.00  0.00     0.002 A 
ATOM     11  C   UNL d   1       4.951  -0.298  -3.040  0.00  0.00     0.021 A 
BRANCH   7  12
ATOM     12  N   UNL d   1       2.141   0.288  -0.661  0.00  0.00    -0.325 N 
ATOM     13  C   UNL d   1       0.800   0.639  -0.711  0.00  0.00     0.231 C 
ATOM     14  O   UNL d   1       0.170   0.771  -1.761  0.00  0.00    -0.272 OA
ATOM     15  H   UNL d   1       2.499  -0.198   0.153  0.00  0.00     0.169 HD
BRANCH  13  16
ATOM     16  C   UNL d   1       0.157   0.905   0.662  0.00  0.00     0.115 C 
BRANCH  16  17
ATOM     17  C   UNL d   1       0.495   2.332   1.086  0.00  0.00    -0.045 A 
ATOM     18  C   UNL d   1       0.195   3.429   0.260  0.00  0.00     0.008 A 
ATOM     19  C   UNL d   1       0.602   4.717   0.614  0.00  0.00     0.001 A 
ATOM     20  C   UNL d   1       1.294   4.929   1.804  0.00  0.00     0.000 A 
ATOM     21  C   UNL d   1       1.572   3.855   2.646  0.00  0.00     0.001 A 
ATOM     22  C   UNL d   1       1.177   2.563   2.290  0.00  0.00     0.008 A 
ENDBRANCH  16  17
BRANCH  16  23
ATOM     23  C   UNL d   1      -1.366   0.616   0.614  0.00  0.00     0.003 C 
ATOM     24  C   UNL d   1      -2.126   0.945   1.910  0.00  0.00     0.006 C 
ATOM     25  C   UNL d   1      -3.115  -0.194   2.154  0.00  0.00     0.000 C 
ATOM     26  C   UNL d   1      -3.041  -1.099   0.937  0.00  0.00     0.000 C 
ATOM     27  C   UNL d   1      -1.647  -0.876   0.381  0.00  0.00     0.006 C 
ENDBRANCH  16  23
ENDBRANCH  13  16
ENDBRANCH   7  12
ENDBRANCH   5   6
ENDBRANCH   4   5
ENDBRANCH   3   4
TORSDOF 7
