REMARK  9 active torsions:
REMARK  status: ('A' for Active; 'I' for Inactive)
REMARK    1  A    between atoms: C_6  and  C_1 
REMARK    2  A    between atoms: O_8  and  C_1 
REMARK    3  A    between atoms: C_2  and  O_7 
REMARK    4  A    between atoms: C_5  and  C_2 
REMARK    5  A    between atoms: O_7  and  C_14 
REMARK    6  A    between atoms: C_13  and  O_8 
REMARK    7  A    between atoms: C_16  and  C_13 
REMARK    8  A    between atoms: C_14  and  C_15 
REMARK    9  A    between atoms: C_15  and  C_16 
ROOT
ATOM      1  C   UNL d   1       5.383   2.276   0.070  0.00  0.00     0.029 C 
ENDROOT
BRANCH   1   2
ATOM      2  C   UNL d   1       6.889   2.031   0.099  0.00  0.00     0.179 C 
BRANCH   2   3
ATOM      3  O   UNL d   1       7.253   1.241   1.241  0.00  0.00    -0.318 OA
BRANCH   3   4
ATOM      4  C   UNL d   1       7.442   1.931   2.393  0.00  0.00     0.293 C 
ATOM      5  O   UNL d   1       7.341   3.139   2.538  0.00  0.00    -0.259 OA
BRANCH   4   6
ATOM      6  C   UNL d   1       7.861   1.007   3.474  0.00  0.00     0.039 A 
ATOM      7  C   UNL d   1       7.508  -0.349   3.473  0.00  0.00     0.017 A 
ATOM      8  C   UNL d   1       7.931  -1.179   4.514  0.00  0.00     0.001 A 
ATOM      9  C   UNL d   1       8.706  -0.660   5.552  0.00  0.00     0.000 A 
ATOM     10  C   UNL d   1       9.052   0.691   5.561  0.00  0.00     0.001 A 
ATOM     11  C   UNL d   1       8.624   1.526   4.527  0.00  0.00     0.017 A 
ENDBRANCH   4   6
ENDBRANCH   3   4
ENDBRANCH   2   3
ENDBRANCH   1   2
BRANCH   1  12
ATOM     12  C   UNL d   1       4.595   0.966  -0.041  0.00  0.00     0.029 C 
BRANCH  12  13
ATOM     13  C   UNL d   1       3.089   1.202   0.027  0.00  0.00     0.179 C 
BRANCH  13  14
ATOM     14  O   UNL d   1       2.726   1.792   1.286  0.00  0.00    -0.318 OA
BRANCH  14  15
ATOM     15  C   UNL d   1       2.536   0.920   2.307  0.00  0.00     0.293 C 
ATOM     16  O   UNL d   1       2.640  -0.294   2.251  0.00  0.00    -0.259 OA
BRANCH  15  17
ATOM     17  C   UNL d   1       2.112   1.652   3.524  0.00  0.00     0.039 A 
ATOM     18  C   UNL d   1       2.464   2.989   3.749  0.00  0.00     0.017 A 
ATOM     19  C   UNL d   1       2.035   3.636   4.910  0.00  0.00     0.001 A 
ATOM     20  C   UNL d   1       1.256   2.953   5.845  0.00  0.00     0.000 A 
ATOM     21  C   UNL d   1       0.913   1.618   5.629  0.00  0.00     0.001 A 
ATOM     22  C   UNL d   1       1.345   0.966   4.474  0.00  0.00     0.017 A 
ENDBRANCH  15  17
ENDBRANCH  14  15
ENDBRANCH  13  14
ENDBRANCH  12  13
ENDBRANCH   1  12
TORSDOF 9
