REMARK  6 active torsions:
REMARK  status: ('A' for Active; 'I' for Inactive)
REMARK    1  A    between atoms: C_3  and  S_1 
REMARK    2  A    between atoms: C_5  and  S_1 
REMARK    3  A    between atoms: N_2  and  C_8 
REMARK    4  A    between atoms: C_9  and  C_3 
REMARK    5  A    between atoms: C_8  and  C_9 
REMARK    6  A    between atoms: O_17  and  C_9 
ROOT
ATOM      1  C   UNL d   1       0.236  -1.292  -0.838  0.00  0.00     0.179 C 
ENDROOT
BRANCH   1   2
ATOM      2  S   UNL d   1       0.732   0.048   0.218  0.00  0.00     0.178 S 
ATOM      3  O   UNL d   1       0.095   1.255  -0.278  0.00  0.00    -0.223 OA
ATOM      4  O   UNL d   1       2.166  -0.004   0.414  0.00  0.00    -0.223 OA
BRANCH   2   5
ATOM      5  C   UNL d   1       0.055  -0.283   1.830  0.00  0.00     0.059 A 
ATOM      6  C   UNL d   1       0.285  -1.522   2.440  0.00  0.00     0.025 A 
ATOM      7  C   UNL d   1      -0.062  -1.698   3.784  0.00  0.00     0.025 A 
ATOM      8  C   UNL d   1      -0.623  -0.640   4.502  0.00  0.00     0.034 A 
ATOM      9  C   UNL d   1      -0.877   0.583   3.882  0.00  0.00     0.025 A 
ATOM     10 CL   UNL d   1      -0.961  -0.834   6.177  0.00  0.00    -0.084 Cl
ATOM     11  C   UNL d   1      -0.543   0.763   2.538  0.00  0.00     0.025 A 
ENDBRANCH   2   5
ENDBRANCH   1   2
BRANCH   1  12
ATOM     12  C   UNL d   1       0.796  -1.142  -2.253  0.00  0.00     0.150 C 
BRANCH  12  13
ATOM     13  C   UNL d   1       2.339  -1.102  -2.397  0.00  0.00     0.158 C 
BRANCH  13  14
ATOM     14  N   UNL d   1       3.015  -2.339  -2.020  0.00  0.00    -0.350 N 
ATOM     15  C   UNL d   1       3.136  -3.422  -2.868  0.00  0.00     0.219 C 
ATOM     16  O   UNL d   1       2.734  -3.462  -4.020  0.00  0.00    -0.273 OA
ATOM     17  C   UNL d   1       3.743  -4.566  -2.106  0.00  0.00     0.104 C 
ATOM     18  C   UNL d   1       4.184  -3.953  -0.782  0.00  0.00     0.029 C 
ATOM     19  C   UNL d   1       3.462  -2.623  -0.681  0.00  0.00     0.126 C 
ENDBRANCH  13  14
ENDBRANCH  12  13
BRANCH  12  20
ATOM     20  O   UNL d   1       0.239  -2.220  -3.029  0.00  0.00    -0.393 OA
ATOM     21  H   UNL d   1       0.941  -2.584  -3.611  0.00  0.00     0.210 HD
ENDBRANCH  12  20
ENDBRANCH   1  12
TORSDOF 6
