REMARK  8 active torsions:
REMARK  status: ('A' for Active; 'I' for Inactive)
REMARK    1  A    between atoms: C_5  and  C_1 
REMARK    2  A    between atoms: C_2  and  C_6 
REMARK       I    between atoms: N_16  and  C_2 
REMARK    3  A    between atoms: C_15  and  N_3 
REMARK    4  A    between atoms: N_4  and  C_22 
REMARK    5  A    between atoms: C_21  and  C_15 
REMARK    6  A    between atoms: C_24  and  N_16 
REMARK    7  A    between atoms: C_22  and  C_23 
REMARK    8  A    between atoms: C_23  and  C_24 
ROOT
ATOM      1  C   UNL d   1      -1.720   8.685   6.595  0.00  0.00     0.050 C 
ENDROOT
BRANCH   1   2
ATOM      2  C   UNL d   1      -2.220   7.243   6.722  0.00  0.00     0.274 C 
BRANCH   2   3
ATOM      3  N   UNL d   1      -2.905   6.925   7.987  0.00  0.00     0.091 N 
ATOM      4  C   UNL d   1      -4.153   7.695   8.194  0.00  0.00     0.302 C 
ATOM      5  C   UNL d   1      -5.360   7.241   7.338  0.00  0.00     0.303 C 
ATOM      6  N   UNL d   1      -5.667   5.796   7.415  0.00  0.00     0.096 N 
ATOM      7  C   UNL d   1      -4.417   5.046   7.151  0.00  0.00     0.303 C 
ATOM      8  C   UNL d   1      -3.221   5.478   8.044  0.00  0.00     0.302 C 
BRANCH   6   9
ATOM      9  C   UNL d   1      -6.230   5.395   8.719  0.00  0.00     0.311 C 
BRANCH   9  10
ATOM     10  C   UNL d   1      -7.539   6.067   9.071  0.00  0.00    -0.030 A 
ATOM     11  C   UNL d   1      -8.666   5.934   8.247  0.00  0.00     0.009 A 
ATOM     12  C   UNL d   1      -9.862   6.574   8.577  0.00  0.00     0.001 A 
ATOM     13  C   UNL d   1      -9.946   7.343   9.738  0.00  0.00     0.000 A 
ATOM     14  C   UNL d   1      -8.840   7.467  10.574  0.00  0.00     0.001 A 
ATOM     15  C   UNL d   1      -7.643   6.831  10.244  0.00  0.00     0.009 A 
ENDBRANCH   9  10
ENDBRANCH   6   9
ENDBRANCH   2   3
ENDBRANCH   1   2
BRANCH   1  16
ATOM     16  C   UNL d   1      -0.751   9.081   7.706  0.00  0.00     0.124 C 
BRANCH  16  17
ATOM     17  N   UNL d   1      -0.296  10.450   7.538  0.00  0.00    -0.357 N 
ATOM     18  C   UNL d   1       0.716  10.768   6.656  0.00  0.00     0.251 C 
ATOM     19  O   UNL d   1       1.341   9.908   6.038  0.00  0.00    -0.268 OA
ATOM     20  H   UNL d   1      -0.792  11.165   8.048  0.00  0.00     0.162 HD
BRANCH  18  21
ATOM     21  C   UNL d   1       1.036  12.212   6.439  0.00  0.00     0.032 A 
ATOM     22  C   UNL d   1       2.144  12.515   5.634  0.00  0.00     0.018 A 
ATOM     23  C   UNL d   1       2.474  13.840   5.333  0.00  0.00     0.017 A 
ATOM     24  C   UNL d   1       1.698  14.895   5.833  0.00  0.00     0.048 A 
ATOM     25  C   UNL d   1       0.602  14.596   6.653  0.00  0.00     0.017 A 
ATOM     26  C   UNL d   1       0.270  13.267   6.953  0.00  0.00     0.018 A 
BRANCH  24  27
ATOM     27  C   UNL d   1       2.045  16.320   5.470  0.00  0.00     0.417 C 
ATOM     28  F   UNL d   1       1.180  17.237   5.987  0.00  0.00    -0.166 F 
ATOM     29  F   UNL d   1       2.046  16.526   4.124  0.00  0.00    -0.166 F 
ATOM     30  F   UNL d   1       3.282  16.684   5.907  0.00  0.00    -0.166 F 
ENDBRANCH  24  27
ENDBRANCH  18  21
ENDBRANCH  16  17
ENDBRANCH   1  16
TORSDOF 8
