REMARK  5 active torsions:
REMARK  status: ('A' for Active; 'I' for Inactive)
REMARK    1  A    between atoms: N_17  and  N_9 
REMARK    2  A    between atoms: C_24  and  C_10 
REMARK    3  A    between atoms: C_25  and  C_15 
REMARK    4  A    between atoms: C_20  and  N_17 
REMARK    5  A    between atoms: C_19  and  C_20 
ROOT
ATOM      1  C   UNL d   1      -1.100   1.023   0.125  0.00  0.00     0.104 A 
ATOM      2  C   UNL d   1      -0.718  -0.288   0.179  0.00  0.00     0.070 A 
ATOM      3  C   UNL d   1       0.706  -0.498   0.088  0.00  0.00     0.041 A 
ATOM      4  C   UNL d   1      -2.475   1.468   0.094  0.00  0.00     0.286 A 
ATOM      5  S   UNL d   1       0.224   2.070   0.063  0.00  0.00    -0.062 SA
ATOM      6  C   UNL d   1       1.308   0.756   0.037  0.00  0.00     0.103 A 
ATOM      7  N   UNL d   1      -1.671  -1.311   0.255  0.00  0.00    -0.349 N 
ATOM      8  HN  UNL d   1      -1.413  -2.294   0.340  1.00  0.00     0.167 HD
ATOM      9  N   UNL d   1      -3.374   0.388   0.130  0.00  0.00    -0.215 N 
ATOM     10  C   UNL d   1       1.583  -1.629   0.041  0.00  0.00     0.018 A 
ATOM     11  N   UNL d   1       3.433  -0.040  -0.103  0.00  0.00    -0.298 N 
ATOM     12  HN  UNL d   1       4.438   0.120  -0.173  1.00  0.00     0.187 HD
ATOM     13  N   UNL d   1       2.626   0.992  -0.037  0.00  0.00    -0.292 N 
ATOM     14  HN  UNL d   1       2.990   1.945  -0.042  1.00  0.00     0.187 HD
ATOM     15  C   UNL d   1       2.965  -1.319  -0.081  0.00  0.00     0.070 A 
ATOM     16  C   UNL d   1      -2.904  -0.915   0.210  0.00  0.00     0.211 A 
ATOM     17  O   UNL d   1      -2.780   2.654   0.040  0.00  0.00    -0.265 OA
ENDROOT
BRANCH   9  18
ATOM     18  N   UNL d   1      -4.763   0.468   0.102  0.00  0.00    -0.301 N 
ATOM     19  HN  UNL d   1      -5.305  -0.395   0.077  1.00  0.00     0.186 HD
BRANCH  18  20
ATOM     20  C   UNL d   1      -5.389   1.598   0.105  0.00  0.00     0.120 C 
BRANCH  20  21
ATOM     21  C   UNL d   1      -6.875   1.636   0.098  0.00  0.00     0.003 A 
ATOM     22  C   UNL d   1      -7.580   2.849   0.144  0.00  0.00     0.047 A 
ATOM     23  C   UNL d   1      -8.980   2.845   0.164  0.00  0.00     0.048 A 
ATOM     24 CL   UNL d   1      -6.804   4.392   0.184  0.00  0.00    -0.083 Cl
ATOM     25  C   UNL d   1      -9.672   1.637   0.137  0.00  0.00     0.035 A 
ATOM     26  C   UNL d   1      -8.985   0.429   0.088  0.00  0.00     0.025 A 
ATOM     27 CL   UNL d   1     -11.392   1.640   0.169  0.00  0.00    -0.084 Cl
ATOM     28  C   UNL d   1      -7.587   0.426   0.068  0.00  0.00     0.016 A 
ENDBRANCH  20  21
ENDBRANCH  18  20
ENDBRANCH   9  18
BRANCH  10  29
ATOM     29  C   UNL d   1       1.039  -3.009   0.136  0.00  0.00    -0.023 A 
ATOM     30  C   UNL d   1      -0.016  -3.445  -0.686  0.00  0.00     0.012 A 
ATOM     31  C   UNL d   1      -0.553  -4.732  -0.579  0.00  0.00     0.001 A 
ATOM     32  C   UNL d   1       0.018  -5.653   0.290  0.00  0.00     0.000 A 
ATOM     33  C   UNL d   1       1.104  -5.274   1.072  0.00  0.00     0.001 A 
ATOM     34  C   UNL d   1       1.580  -3.958   1.024  0.00  0.00     0.012 A 
ENDBRANCH  10  29
BRANCH  15  35
ATOM     35  C   UNL d   1       4.070  -2.310  -0.191  0.00  0.00    -0.007 A 
ATOM     36  C   UNL d   1       3.965  -3.485  -0.957  0.00  0.00     0.014 A 
ATOM     37  C   UNL d   1       4.980  -4.447  -0.961  0.00  0.00     0.001 A 
ATOM     38  C   UNL d   1       6.156  -4.224  -0.254  0.00  0.00     0.000 A 
ATOM     39  C   UNL d   1       6.323  -3.037   0.449  0.00  0.00     0.001 A 
ATOM     40  C   UNL d   1       5.290  -2.096   0.484  0.00  0.00     0.014 A 
ENDBRANCH  15  35
TORSDOF 5
