REMARK  3 active torsions:
REMARK  status: ('A' for Active; 'I' for Inactive)
REMARK    1  A    between atoms: C_11  and  C_5 
REMARK    2  A    between atoms: O_20  and  C_15 
REMARK    3  A    between atoms: O_21  and  C_17 
ROOT
ATOM      1  N   UNL d   1       0.920   0.505  -0.046  0.00  0.00    -0.322 N 
ATOM      2  C   UNL d   1       1.720  -0.614  -0.128  0.00  0.00     0.044 A 
ATOM      3  N   UNL d   1      -0.345  -2.004  -0.031  0.00  0.00    -0.374 N 
ATOM      4  C   UNL d   1      -1.083  -0.825   0.029  0.00  0.00     0.059 A 
ATOM      5  C   UNL d   1       1.075  -1.943  -0.359  0.00  0.00     0.165 C 
ATOM      6  C   UNL d   1      -0.491   0.445  -0.054  0.00  0.00     0.065 A 
ATOM      7  C   UNL d   1      -2.482  -0.899   0.091  0.00  0.00     0.068 A 
ATOM      8  C   UNL d   1       1.734   1.611   0.065  0.00  0.00     0.097 A 
ATOM      9  C   UNL d   1       3.041  -0.215  -0.051  0.00  0.00     0.029 A 
ATOM     10  C   UNL d   1      -1.273   1.604  -0.090  0.00  0.00     0.035 A 
ATOM     11  C   UNL d   1       3.048   1.190   0.082  0.00  0.00     0.020 A 
ATOM     12  C   UNL d   1      -3.276   0.253   0.047  0.00  0.00     0.070 A 
ATOM     13  C   UNL d   1      -2.666   1.503  -0.051  0.00  0.00     0.039 A 
ATOM     14  H   UNL d   1      -0.623  -2.729   0.624  0.00  0.00     0.160 HD
ENDROOT
BRANCH   5  15
ATOM     15  C   UNL d   1       1.796  -3.100   0.320  0.00  0.00    -0.030 A 
ATOM     16  C   UNL d   1       1.982  -3.138   1.712  0.00  0.00     0.012 A 
ATOM     17  C   UNL d   1       2.635  -4.217   2.319  0.00  0.00     0.037 A 
ATOM     18  C   UNL d   1       3.107  -5.277   1.544  0.00  0.00     0.068 A 
ATOM     19  C   UNL d   1       2.909  -5.257   0.164  0.00  0.00     0.037 A 
ATOM     20  C   UNL d   1       2.268  -4.177  -0.446  0.00  0.00     0.012 A 
BRANCH  18  21
ATOM     21  O   UNL d   1       3.721  -6.401   2.023  0.00  0.00    -0.356 OA
ATOM     22  C   UNL d   1       4.484  -6.229   3.212  0.00  0.00     0.210 C 
ENDBRANCH  18  21
ENDBRANCH   5  15
BRANCH  12  23
ATOM     23  O   UNL d   1      -4.625   0.023   0.090  0.00  0.00    -0.356 OA
ATOM     24  C   UNL d   1      -5.472   1.165   0.028  0.00  0.00     0.210 C 
ENDBRANCH  12  23
TORSDOF 3
