REMARK  3 active torsions:
REMARK  status: ('A' for Active; 'I' for Inactive)
REMARK    1  A    between atoms: C_14  and  N_9 
REMARK    2  A    between atoms: N_13  and  C_18 
REMARK    3  A    between atoms: C_18  and  C_14 
ROOT
ATOM      1  C   UNL d   1       0.569  -0.801  -0.493  0.00  0.00     0.145 A 
ATOM      2  C   UNL d   1       0.795   0.467  -0.938  0.00  0.00     0.149 A 
ATOM      3  N   UNL d   1      -0.204  -1.689  -1.204  0.00  0.00    -0.287 N 
ATOM      4  N   UNL d   1      -0.529   0.025  -2.839  0.00  0.00    -0.269 N 
ATOM      5  C   UNL d   1      -0.779  -1.283  -2.409  0.00  0.00     0.332 A 
ATOM      6  C   UNL d   1       0.258   0.965  -2.158  0.00  0.00     0.282 A 
ATOM      7  N   UNL d   1       1.181  -1.041   0.699  0.00  0.00    -0.336 N 
ATOM      8  HN  UNL d   1       1.179  -1.906   1.239  1.00  0.00     0.168 HD
ATOM      9  N   UNL d   1       1.577   1.044   0.023  0.00  0.00    -0.334 N 
ATOM     10  C   UNL d   1       1.774   0.095   0.996  0.00  0.00     0.185 A 
ATOM     11  O   UNL d   1      -1.476  -2.055  -3.066  0.00  0.00    -0.246 OA
ATOM     12  O   UNL d   1       0.465   2.104  -2.575  0.00  0.00    -0.265 OA
ATOM     13  C   UNL d   1      -0.452  -3.037  -0.731  0.00  0.00     0.163 C 
ATOM     14  C   UNL d   1      -1.109   0.481  -4.082  0.00  0.00     0.164 C 
ENDROOT
BRANCH   9  15
ATOM     15  C   UNL d   1       2.049   2.415   0.079  0.00  0.00     0.160 C 
BRANCH  15  16
ATOM     16  C   UNL d   1       3.575   2.507   0.110  0.00  0.00     0.292 C 
BRANCH  16  17
ATOM     17  N   UNL d   1       4.159   3.839   0.216  0.00  0.00     0.094 N 
ATOM     18  C   UNL d   1       3.588   4.693   1.269  0.00  0.00     0.298 C 
ATOM     19  C   UNL d   1       4.539   5.877   1.484  0.00  0.00     0.198 C 
ATOM     20  O   UNL d   1       4.666   6.652   0.281  0.00  0.00    -0.388 OA
ATOM     21  C   UNL d   1       5.132   5.832  -0.805  0.00  0.00     0.198 C 
ATOM     22  C   UNL d   1       4.217   4.613  -1.035  0.00  0.00     0.298 C 
ENDBRANCH  16  17
ENDBRANCH  15  16
ENDBRANCH   9  15
TORSDOF 3
