REMARK  4 active torsions:
REMARK  status: ('A' for Active; 'I' for Inactive)
REMARK    1  A    between atoms: C_4  and  C_1 
REMARK       I    between atoms: N_7  and  C_4 
REMARK    2  A    between atoms: C_11  and  N_7 
REMARK    3  A    between atoms: O_10  and  C_12 
REMARK    4  A    between atoms: C_13  and  O_10 
ROOT
ATOM      1  C   UNL d   1      -3.989   0.524  -0.103  0.00  0.00     0.035 C 
ATOM      2  C   UNL d   1      -4.186   3.322  -0.259  0.00  0.00     0.076 C 
ATOM      3  C   UNL d   1      -3.332   1.234  -1.113  0.00  0.00     0.032 C 
ATOM      4  C   UNL d   1      -4.862   1.217   0.743  0.00  0.00     0.032 C 
ATOM      5  C   UNL d   1      -3.453   2.618  -1.211  0.00  0.00     0.039 C 
ATOM      6  C   UNL d   1      -4.950   2.616   0.672  0.00  0.00     0.039 C 
ENDROOT
BRANCH   1   7
ATOM      7  N   UNL d   1      -3.781  -0.858   0.099  0.00  0.00    -0.322 N 
ATOM      8  C   UNL d   1      -2.690  -1.576  -0.366  0.00  0.00     0.274 C 
ATOM      9  O   UNL d   1      -1.742  -1.104  -0.992  0.00  0.00    -0.266 OA
ATOM     10  H   UNL d   1      -4.388  -1.351   0.750  0.00  0.00     0.169 HD
BRANCH   8  11
ATOM     11  C   UNL d   1      -2.686  -3.001  -0.030  0.00  0.00     0.125 A 
ATOM     12  N   UNL d   1      -3.674  -3.610   0.646  0.00  0.00    -0.256 N 
ATOM     13  O   UNL d   1      -3.297  -4.947   0.731  0.00  0.00    -0.242 OA
ATOM     14  HN  UNL d   1      -4.522  -3.183   1.018  1.00  0.00     0.195 HD
ATOM     15  C   UNL d   1      -2.096  -5.123   0.114  0.00  0.00     0.075 A 
ATOM     16  C   UNL d   1      -1.664  -3.921  -0.376  0.00  0.00     0.071 A 
ATOM     17  C   UNL d   1      -1.533  -6.484   0.099  0.00  0.00     0.079 C 
ENDBRANCH   8  11
ENDBRANCH   1   7
BRANCH   2  18
ATOM     18  O   UNL d   1      -4.207   4.699  -0.195  0.00  0.00    -0.311 OA
BRANCH  18  19
ATOM     19  C   UNL d   1      -3.035   5.383  -0.465  0.00  0.00     0.076 A 
ATOM     20  C   UNL d   1      -3.166   6.635  -1.069  0.00  0.00     0.037 A 
ATOM     21  C   UNL d   1      -2.028   7.364  -1.427  0.00  0.00     0.003 A 
ATOM     22  C   UNL d   1      -0.757   6.844  -1.181  0.00  0.00     0.000 A 
ATOM     23  C   UNL d   1      -0.621   5.617  -0.536  0.00  0.00     0.003 A 
ATOM     24  C   UNL d   1      -1.757   4.903  -0.150  0.00  0.00     0.037 A 
ENDBRANCH  18  19
ENDBRANCH   2  18
TORSDOF 4
