REMARK  8 active torsions:
REMARK  status: ('A' for Active; 'I' for Inactive)
REMARK    1  A    between atoms: C_8  and  N_1 
REMARK    2  A    between atoms: C_7  and  C_6 
REMARK    3  A    between atoms: C_20  and  C_8 
REMARK    4  A    between atoms: O_23  and  C_10 
REMARK    5  A    between atoms: O_25  and  C_12 
REMARK    6  A    between atoms: O_26  and  C_14 
REMARK    7  A    between atoms: C_19  and  C_20 
REMARK    8  A    between atoms: C_27  and  O_25 
ROOT
ATOM      1  N   UNL d   1       0.904   0.365  -0.047  0.00  0.00    -0.298 N 
ATOM      2  C   UNL d   1       0.565  -0.974  -0.054  0.00  0.00     0.148 C 
ATOM      3  C   UNL d   1      -1.454   0.519   0.046  0.00  0.00     0.076 C 
ATOM      4  C   UNL d   1      -0.163   1.250   0.069  0.00  0.00     0.266 C 
ATOM      5  S   UNL d   1      -1.178  -1.149  -0.228  0.00  0.00    -0.055 SA
ATOM      6  C   UNL d   1      -2.626   1.133   0.244  0.00  0.00     0.038 C 
ATOM      7  S   UNL d   1       1.538  -2.316   0.125  0.00  0.00    -0.052 SA
ATOM      8  O   UNL d   1      -0.089   2.464   0.203  0.00  0.00    -0.266 OA
ENDROOT
BRANCH   1   9
ATOM      9  C   UNL d   1       2.256   0.928   0.077  0.00  0.00     0.138 C 
BRANCH   9  10
ATOM     10  C   UNL d   1       3.359   0.391  -0.849  0.00  0.00     0.059 C 
BRANCH  10  11
ATOM     11  C   UNL d   1       3.033   0.255  -2.318  0.00  0.00    -0.054 A 
ATOM     12  C   UNL d   1       2.250   1.197  -3.003  0.00  0.00     0.046 A 
ATOM     13  C   UNL d   1       1.969   1.058  -4.374  0.00  0.00     0.102 A 
ATOM     14  C   UNL d   1       2.530  -0.022  -5.077  0.00  0.00     0.101 A 
ATOM     15  C   UNL d   1       3.314  -0.959  -4.397  0.00  0.00     0.040 A 
ATOM     16  C   UNL d   1       3.571  -0.819  -3.035  0.00  0.00     0.010 A 
BRANCH  13  17
ATOM     17  O   UNL d   1       1.151   1.912  -5.064  0.00  0.00    -0.353 OA
ATOM     18  C   UNL d   1       0.508   2.954  -4.342  0.00  0.00     0.210 C 
ENDBRANCH  13  17
BRANCH  14  19
ATOM     19  O   UNL d   1       2.361  -0.321  -6.406  0.00  0.00    -0.353 OA
ATOM     20  C   UNL d   1       2.258   0.785  -7.294  0.00  0.00     0.210 C 
ENDBRANCH  14  19
ENDBRANCH  10  11
ENDBRANCH   9  10
ENDBRANCH   1   9
BRANCH   6  21
ATOM     21  C   UNL d   1      -3.929   0.461   0.155  0.00  0.00    -0.000 A 
ATOM     22  C   UNL d   1      -4.688   0.392  -1.028  0.00  0.00     0.079 A 
ATOM     23  C   UNL d   1      -5.827  -0.424  -1.062  0.00  0.00     0.039 A 
ATOM     24  C   UNL d   1      -6.238  -1.139   0.064  0.00  0.00     0.022 A 
ATOM     25  C   UNL d   1      -5.507  -1.038   1.242  0.00  0.00     0.011 A 
ATOM     26  C   UNL d   1      -4.364  -0.242   1.294  0.00  0.00     0.033 A 
ATOM     27 BR   UNL d   1      -6.042  -2.018   2.767  0.00  0.00    -0.051 Br
BRANCH  22  28
ATOM     28  O   UNL d   1      -4.422   0.987  -2.234  0.00  0.00    -0.351 OA
BRANCH  28  29
ATOM     29  C   UNL d   1      -3.756   2.247  -2.230  0.00  0.00     0.171 C 
ATOM     30  C   UNL d   1      -4.150   3.001  -3.487  0.00  0.00     0.034 C 
ENDBRANCH  28  29
ENDBRANCH  22  28
ENDBRANCH   6  21
TORSDOF 8
