REMARK  4 active torsions:
REMARK  status: ('A' for Active; 'I' for Inactive)
REMARK    1  A    between atoms: C_8  and  C_2 
REMARK    2  A    between atoms: C_11  and  N_5 
REMARK    3  A    between atoms: C_16  and  C_7 
REMARK    4  A    between atoms: O_17  and  C_8 
ROOT
ATOM      1  C   UNL d   1      -0.623   1.299  -0.062  0.00  0.00     0.123 A 
ATOM      2  C   UNL d   1       1.329  -0.082  -0.001  0.00  0.00     0.132 A 
ATOM      3  N   UNL d   1       0.663  -1.196   0.001  0.00  0.00    -0.285 N 
ATOM      4  HN  UNL d   1       1.149  -2.092   0.046  1.00  0.00     0.188 HD
ATOM      5  N   UNL d   1      -0.716  -1.146  -0.058  0.00  0.00    -0.219 N 
ATOM      6  C   UNL d   1      -1.432   0.054  -0.104  0.00  0.00     0.288 A 
ATOM      7  C   UNL d   1       0.723   1.280  -0.007  0.00  0.00     0.002 A 
ATOM      8  C   UNL d   1      -1.351   2.525  -0.058  0.00  0.00     0.106 C 
ATOM      9  N   UNL d   1      -1.885   3.554  -0.049  0.00  0.00    -0.191 NA
ATOM     10  O   UNL d   1      -2.658   0.166  -0.120  0.00  0.00    -0.265 OA
ENDROOT
BRANCH   7  11
ATOM     11  C   UNL d   1       1.574   2.522   0.126  0.00  0.00     0.038 C 
ATOM     12  C   UNL d   1       1.966   3.135  -1.214  0.00  0.00     0.010 C 
ENDBRANCH   7  11
BRANCH   5  13
ATOM     13  C   UNL d   1      -1.371  -2.428  -0.024  0.00  0.00     0.060 A 
ATOM     14  C   UNL d   1      -2.670  -2.605  -0.523  0.00  0.00     0.032 A 
ATOM     15  C   UNL d   1      -3.355  -3.815  -0.372  0.00  0.00     0.009 A 
ATOM     16  C   UNL d   1      -2.757  -4.889   0.285  0.00  0.00    -0.062 A 
ATOM     17  C   UNL d   1      -1.437  -4.755   0.724  0.00  0.00     0.009 A 
ATOM     18  C   UNL d   1      -3.551  -6.138   0.528  0.00  0.00     0.048 C 
ATOM     19  C   UNL d   1      -0.746  -3.543   0.556  0.00  0.00     0.032 A 
ENDBRANCH   5  13
BRANCH   2  20
ATOM     20  C   UNL d   1       2.862  -0.187  -0.043  0.00  0.00     0.311 C 
ATOM     21  O   UNL d   1       3.539   0.523  -0.765  0.00  0.00    -0.258 OA
BRANCH  20  22
ATOM     22  O   UNL d   1       3.315  -1.134   0.800  0.00  0.00    -0.321 OA
ATOM     23  C   UNL d   1       4.736  -1.290   0.753  0.00  0.00     0.213 C 
ENDBRANCH  20  22
ENDBRANCH   2  20
TORSDOF 4
