REMARK  5 active torsions:
REMARK  status: ('A' for Active; 'I' for Inactive)
REMARK    1  A    between atoms: C_7  and  C_1 
REMARK    2  A    between atoms: C_6  and  C_2 
REMARK    3  A    between atoms: N_9  and  C_3 
REMARK    4  A    between atoms: C_8  and  C_4 
REMARK    5  A    between atoms: O_14  and  C_7 
ROOT
ATOM      1  C   UNL d   1      -0.281   1.080   0.029  0.00  0.00     0.107 A 
ATOM      2  C   UNL d   1       0.750  -1.194  -0.047  0.00  0.00     0.102 A 
ATOM      3  C   UNL d   1      -1.218   0.068   0.065  0.00  0.00     0.061 A 
ATOM      4  C   UNL d   1      -0.641  -1.266   0.034  0.00  0.00     0.024 A 
ATOM      5  S   UNL d   1       1.299   0.437   0.004  0.00  0.00    -0.076 SA
ENDROOT
BRANCH   4   6
ATOM      6  C   UNL d   1      -1.382  -2.542   0.004  0.00  0.00    -0.022 A 
ATOM      7  C   UNL d   1      -2.517  -2.679  -0.812  0.00  0.00     0.012 A 
ATOM      8  C   UNL d   1      -3.225  -3.883  -0.872  0.00  0.00     0.001 A 
ATOM      9  C   UNL d   1      -2.780  -4.987  -0.152  0.00  0.00     0.000 A 
ATOM     10  C   UNL d   1      -1.659  -4.871   0.666  0.00  0.00     0.001 A 
ATOM     11  C   UNL d   1      -0.989  -3.647   0.773  0.00  0.00     0.012 A 
ENDBRANCH   4   6
BRANCH   3  12
ATOM     12  N   UNL d   1      -2.551   0.299   0.117  0.00  0.00    -0.397 N 
ATOM     13  H   UNL d   1      -2.914   1.249   0.203  0.00  0.00     0.156 HD
ATOM     14  H   UNL d   1      -3.216  -0.415   0.401  0.00  0.00     0.156 HD
ENDBRANCH   3  12
BRANCH   2  15
ATOM     15  C   UNL d   1       1.823  -2.236  -0.159  0.00  0.00     0.424 C 
ATOM     16  F   UNL d   1       1.378  -3.477  -0.475  0.00  0.00    -0.166 F 
ATOM     17  F   UNL d   1       2.742  -1.925  -1.115  0.00  0.00    -0.166 F 
ATOM     18  F   UNL d   1       2.510  -2.361   1.009  0.00  0.00    -0.166 F 
ENDBRANCH   2  15
BRANCH   1  19
ATOM     19  C   UNL d   1      -0.418   2.532   0.023  0.00  0.00     0.302 C 
ATOM     20  O   UNL d   1       0.498   3.345   0.013  0.00  0.00    -0.259 OA
BRANCH  19  21
ATOM     21  O   UNL d   1      -1.739   2.892   0.032  0.00  0.00    -0.322 OA
ATOM     22  C   UNL d   1      -1.959   4.304  -0.007  0.00  0.00     0.213 C 
ENDBRANCH  19  21
ENDBRANCH   1  19
TORSDOF 5
