REMARK  5 active torsions:
REMARK  status: ('A' for Active; 'I' for Inactive)
REMARK    1  A    between atoms: C_8  and  N_1 
REMARK    2  A    between atoms: C_7  and  C_2 
REMARK    3  A    between atoms: N_12  and  C_9 
REMARK    4  A    between atoms: C_13  and  N_12 
REMARK    5  A    between atoms: O_22  and  C_14 
ROOT
ATOM      1  N   UNL d   1       3.665   0.647   0.014  0.00  0.00    -0.225 N 
ATOM      2  C   UNL d   1       3.529  -0.739  -0.095  0.00  0.00     0.139 C 
ATOM      3  N   UNL d   1       5.612  -0.207  -0.242  0.00  0.00    -0.007 NA
ATOM      4  N   UNL d   1       4.968   0.949  -0.215  0.00  0.00     0.001 NA
ATOM      5  N   UNL d   1       4.742  -1.259  -0.155  0.00  0.00    -0.270 N 
ATOM      6  HN  UNL d   1       4.983  -2.250  -0.141  1.00  0.00     0.185 HD
ENDROOT
BRANCH   2   7
ATOM      7  C   UNL d   1       2.265  -1.356  -0.245  0.00  0.00     0.068 C 
ATOM      8  C   UNL d   1       2.009  -2.622   0.106  0.00  0.00     0.092 C 
BRANCH   8   9
ATOM      9  N   UNL d   1       2.827  -3.564   0.675  0.00  0.00    -0.366 N 
ATOM     10  H   UNL d   1       3.802  -3.290   0.783  0.00  0.00     0.165 HD
BRANCH   9  11
ATOM     11  C   UNL d   1       2.528  -4.905   0.981  0.00  0.00     0.032 A 
ATOM     12  C   UNL d   1       1.310  -5.518   0.656  0.00  0.00     0.032 A 
ATOM     13  C   UNL d   1       1.029  -6.840   1.027  0.00  0.00     0.039 A 
ATOM     14  C   UNL d   1       1.962  -7.580   1.745  0.00  0.00     0.068 A 
ATOM     15  C   UNL d   1       3.173  -6.981   2.091  0.00  0.00     0.039 A 
ATOM     16  C   UNL d   1       3.451  -5.660   1.716  0.00  0.00     0.032 A 
BRANCH  14  17
ATOM     17  O   UNL d   1       1.806  -8.871   2.170  0.00  0.00    -0.356 OA
ATOM     18  C   UNL d   1       0.625  -9.543   1.748  0.00  0.00     0.210 C 
ENDBRANCH  14  17
ENDBRANCH   9  11
ENDBRANCH   8   9
ENDBRANCH   2   7
BRANCH   1  19
ATOM     19  C   UNL d   1       2.733   1.664   0.359  0.00  0.00     0.056 A 
ATOM     20  C   UNL d   1       1.579   1.373   1.100  0.00  0.00     0.032 A 
ATOM     21  C   UNL d   1       0.701   2.397   1.467  0.00  0.00     0.009 A 
ATOM     22  C   UNL d   1       0.965   3.724   1.112  0.00  0.00    -0.062 A 
ATOM     23  C   UNL d   1       2.112   4.012   0.365  0.00  0.00     0.009 A 
ATOM     24  C   UNL d   1       0.014   4.810   1.520  0.00  0.00     0.048 C 
ATOM     25  C   UNL d   1       3.001   2.994   0.004  0.00  0.00     0.032 A 
ENDBRANCH   1  19
TORSDOF 5
