REMARK  10 active torsions:
REMARK  status: ('A' for Active; 'I' for Inactive)
REMARK    1  A    between atoms: C_13  and  N_3 
REMARK    2  A    between atoms: C_14  and  N_5 
REMARK    3  A    between atoms: C_10  and  C_7 
REMARK    4  A    between atoms: O_11  and  C_8 
REMARK    5  A    between atoms: O_20  and  C_10 
REMARK    6  A    between atoms: C_19  and  O_11 
REMARK    7  A    between atoms: C_16  and  C_19 
REMARK    8  A    between atoms: O_21  and  C_16 
REMARK    9  A    between atoms: C_26  and  O_20 
REMARK   10  A    between atoms: C_27  and  O_21 
ROOT
ATOM      1  C   UNL d   1       0.028  -0.771   0.029  0.00  0.00     0.102 C 
ATOM      2  C   UNL d   1      -0.218   0.569  -0.140  0.00  0.00     0.103 C 
ATOM      3  N   UNL d   1       0.741   1.592  -0.082  0.00  0.00    -0.281 N 
ATOM      4  C   UNL d   1       2.111   1.214   0.113  0.00  0.00     0.194 C 
ATOM      5  N   UNL d   1       2.370  -0.192   0.117  0.00  0.00    -0.254 N 
ATOM      6  C   UNL d   1       1.392  -1.194   0.270  0.00  0.00     0.270 C 
ATOM      7  C   UNL d   1      -2.315  -0.758  -0.194  0.00  0.00     0.116 C 
ATOM      8  C   UNL d   1      -1.189  -1.555  -0.060  0.00  0.00     0.111 C 
ATOM      9  S   UNL d   1      -1.853   0.853  -0.525  0.00  0.00    -0.062 SA
ATOM     10  S   UNL d   1       3.344   2.348   0.462  0.00  0.00    -0.039 SA
ATOM     11  O   UNL d   1       1.653  -2.352   0.582  0.00  0.00    -0.266 OA
ENDROOT
BRANCH   8  12
ATOM     12  O   UNL d   1      -1.363  -2.898   0.062  0.00  0.00    -0.339 OA
BRANCH  12  13
ATOM     13  C   UNL d   1      -0.434  -3.696  -0.654  0.00  0.00     0.286 C 
BRANCH  13  14
ATOM     14  C   UNL d   1      -0.990  -5.019  -1.159  0.00  0.00     0.283 C 
ATOM     15  O   UNL d   1      -2.136  -5.424  -1.049  0.00  0.00    -0.263 OA
BRANCH  14  16
ATOM     16  O   UNL d   1       0.055  -5.737  -1.680  0.00  0.00    -0.320 OA
BRANCH  16  17
ATOM     17  C   UNL d   1      -0.144  -7.152  -1.757  0.00  0.00     0.174 C 
ATOM     18  C   UNL d   1       0.191  -7.754  -0.405  0.00  0.00     0.034 C 
ENDBRANCH  16  17
ENDBRANCH  14  16
ENDBRANCH  13  14
ENDBRANCH  12  13
ENDBRANCH   8  12
BRANCH   7  19
ATOM     19  C   UNL d   1      -3.719  -1.148  -0.144  0.00  0.00     0.303 C 
ATOM     20  O   UNL d   1      -4.142  -2.292  -0.046  0.00  0.00    -0.259 OA
BRANCH  19  21
ATOM     21  O   UNL d   1      -4.535  -0.049  -0.187  0.00  0.00    -0.317 OA
BRANCH  21  22
ATOM     22  C   UNL d   1      -5.946  -0.304  -0.122  0.00  0.00     0.174 C 
ATOM     23  C   UNL d   1      -6.483  -0.606  -1.508  0.00  0.00     0.034 C 
ENDBRANCH  21  22
ENDBRANCH  19  21
ENDBRANCH   7  19
BRANCH   3  24
ATOM     24  C   UNL d   1       0.322   2.963  -0.219  0.00  0.00     0.042 A 
ATOM     25  C   UNL d   1      -0.699   3.504   0.581  0.00  0.00     0.030 A 
ATOM     26  C   UNL d   1      -1.147   4.815   0.391  0.00  0.00     0.002 A 
ATOM     27  C   UNL d   1      -0.539   5.626  -0.563  0.00  0.00     0.000 A 
ATOM     28  C   UNL d   1       0.511   5.126  -1.328  0.00  0.00     0.002 A 
ATOM     29  C   UNL d   1       0.926   3.800  -1.169  0.00  0.00     0.030 A 
ENDBRANCH   3  24
BRANCH   5  30
ATOM     30  C   UNL d   1       3.725  -0.674   0.090  0.00  0.00     0.045 A 
ATOM     31  C   UNL d   1       4.508  -0.502  -1.062  0.00  0.00     0.030 A 
ATOM     32  C   UNL d   1       5.813  -0.998  -1.107  0.00  0.00     0.002 A 
ATOM     33  C   UNL d   1       6.346  -1.663  -0.004  0.00  0.00     0.000 A 
ATOM     34  C   UNL d   1       5.572  -1.846   1.141  0.00  0.00     0.002 A 
ATOM     35  C   UNL d   1       4.264  -1.362   1.186  0.00  0.00     0.030 A 
ENDBRANCH   5  30
TORSDOF 10
