REMARK  1 active torsions:
REMARK  status: ('A' for Active; 'I' for Inactive)
REMARK    1  A    between atoms: O_20  and  C_13 
ROOT
ATOM      1  C   UNL d   1      -1.433   1.641   0.406  0.00  0.00     0.026 C 
ATOM      2  C   UNL d   1      -3.160   3.345   2.265  0.00  0.00     0.021 C 
ATOM      3  C   UNL d   1      -2.141   2.265   2.697  0.00  0.00     0.006 C 
ATOM      4  C   UNL d   1      -2.193   1.125   1.685  0.00  0.00    -0.000 C 
ATOM      5  C   UNL d   1      -0.044   0.981   0.293  0.00  0.00    -0.013 C 
ATOM      6  C   UNL d   1      -0.033  -0.442   0.438  0.00  0.00    -0.043 C 
ATOM      7  C   UNL d   1      -2.880   4.340   3.377  0.00  0.00     0.135 C 
ATOM      8  C   UNL d   1      -2.885   3.769   0.808  0.00  0.00     0.018 C 
ATOM      9  C   UNL d   1      -1.563   3.196   0.258  0.00  0.00     0.011 C 
ATOM     10  C   UNL d   1      -1.746  -0.246   2.182  0.00  0.00     0.010 C 
ATOM     11  C   UNL d   1      -1.277  -1.098   1.001  0.00  0.00     0.040 C 
ATOM     12  C   UNL d   1      -2.310   2.156   4.200  0.00  0.00     0.013 C 
ATOM     13  C   UNL d   1       1.174   1.635   0.026  0.00  0.00     0.075 C 
ATOM     14  C   UNL d   1       1.118  -1.197   0.140  0.00  0.00    -0.055 C 
ATOM     15  C   UNL d   1      -2.291   3.648   4.600  0.00  0.00     0.079 C 
ATOM     16  O   UNL d   1      -3.134   5.538   3.328  0.00  0.00    -0.297 OA
ATOM     17  C   UNL d   1       2.340   0.877  -0.141  0.00  0.00     0.038 C 
ATOM     18  C   UNL d   1       2.307  -0.517  -0.114  0.00  0.00     0.010 C 
ATOM     19  C   UNL d   1      -4.648   2.954   2.427  0.00  0.00     0.024 C 
ATOM     20  C   UNL d   1       1.127  -2.699   0.134  0.00  0.00     0.049 C 
ENDROOT
BRANCH  13  21
ATOM     21  O   UNL d   1       1.167   2.999  -0.046  0.00  0.00    -0.355 OA
ATOM     22  C   UNL d   1       2.410   3.680  -0.169  0.00  0.00     0.210 C 
ENDBRANCH  13  21
TORSDOF 1
