REMARK  4 active torsions:
REMARK  status: ('A' for Active; 'I' for Inactive)
REMARK    1  A    between atoms: C_9  and  N_1 
REMARK    2  A    between atoms: N_7  and  N_2 
REMARK    3  A    between atoms: C_11  and  C_12 
REMARK    4  A    between atoms: O_21  and  C_19 
ROOT
ATOM      1  N   UNL d   1      -0.682  -1.118   0.197  0.00  0.00    -0.308 N 
ATOM      2  N   UNL d   1       0.810   1.163   0.231  0.00  0.00    -0.251 N 
ATOM      3  C   UNL d   1      -1.389   0.094   0.071  0.00  0.00     0.244 C 
ATOM      4  C   UNL d   1       1.535  -0.016  -0.001  0.00  0.00     0.257 C 
ATOM      5  C   UNL d   1      -0.517   1.268  -0.368  0.00  0.00     0.255 C 
ATOM      6  C   UNL d   1       0.645  -1.174  -0.437  0.00  0.00     0.236 C 
ATOM      7  O   UNL d   1       2.761  -0.122   0.012  0.00  0.00    -0.270 OA
ATOM      8  O   UNL d   1      -2.600   0.249   0.215  0.00  0.00    -0.271 OA
ENDROOT
BRANCH   2   9
ATOM      9  N   UNL d   1       1.396   2.367   0.580  0.00  0.00    -0.304 N 
ATOM     10  C   UNL d   1       2.472   2.352   1.304  0.00  0.00     0.144 C 
ATOM     11  HN  UNL d   1       0.989   3.250   0.274  1.00  0.00     0.186 HD
BRANCH  10  12
ATOM     12  C   UNL d   1       3.083   3.581   1.725  0.00  0.00     0.092 A 
ATOM     13  O   UNL d   1       4.212   3.501   2.491  0.00  0.00    -0.314 OA
ATOM     14  C   UNL d   1       4.582   4.774   2.802  0.00  0.00     0.050 A 
ATOM     15  C   UNL d   1       5.786   4.922   3.644  0.00  0.00     0.076 C 
ATOM     16  C   UNL d   1       3.703   5.674   2.242  0.00  0.00     0.035 A 
ATOM     17  C   UNL d   1       2.741   4.906   1.542  0.00  0.00     0.041 A 
ENDBRANCH  10  12
ENDBRANCH   2   9
BRANCH   1  18
ATOM     18  C   UNL d   1      -1.302  -2.359   0.565  0.00  0.00     0.040 A 
ATOM     19  C   UNL d   1      -2.668  -2.604   0.349  0.00  0.00     0.066 A 
ATOM     20  C   UNL d   1      -3.243  -3.842   0.658  0.00  0.00     0.070 A 
ATOM     21  C   UNL d   1      -2.454  -4.844   1.221  0.00  0.00     0.037 A 
ATOM     22  C   UNL d   1      -1.107  -4.614   1.477  0.00  0.00     0.005 A 
ATOM     23  C   UNL d   1      -0.537  -3.381   1.150  0.00  0.00     0.030 A 
BRANCH  20  24
ATOM     24  O   UNL d   1      -4.547  -4.198   0.441  0.00  0.00    -0.356 OA
ATOM     25  C   UNL d   1      -5.390  -3.217  -0.154  0.00  0.00     0.210 C 
ENDBRANCH  20  24
ENDBRANCH   1  18
TORSDOF 4
