REMARK  5 active torsions:
REMARK  status: ('A' for Active; 'I' for Inactive)
REMARK    1  A    between atoms: C_13  and  N_3 
REMARK    2  A    between atoms: C_11  and  C_4 
REMARK    3  A    between atoms: O_18  and  C_11 
REMARK    4  A    between atoms: C_15  and  C_13 
REMARK    5  A    between atoms: C_20  and  O_18 
ROOT
ATOM      1  C   UNL d   1       1.577  -0.898   0.039  0.00  0.00     0.165 A 
ATOM      2  N   UNL d   1       0.875   0.292   0.035  0.00  0.00    -0.220 N 
ATOM      3  N   UNL d   1       0.895  -2.129   0.057  0.00  0.00    -0.293 N 
ATOM      4  C   UNL d   1       2.905  -0.480  -0.020  0.00  0.00     0.168 A 
ATOM      5  N   UNL d   1       1.692   1.355  -0.029  0.00  0.00    -0.013 NA
ATOM      6  C   UNL d   1      -0.515  -2.124   0.081  0.00  0.00     0.262 A 
ATOM      7  N   UNL d   1       2.932   0.901  -0.078  0.00  0.00    -0.275 N 
ATOM      8  HN  UNL d   1       3.772   1.475  -0.148  1.00  0.00     0.184 HD
ATOM      9  C   UNL d   1      -1.226  -0.816   0.070  0.00  0.00     0.061 A 
ATOM     10  C   UNL d   1      -0.518   0.384   0.046  0.00  0.00     0.072 A 
ATOM     11  O   UNL d   1      -1.197  -3.148   0.086  0.00  0.00    -0.267 OA
ATOM     12  C   UNL d   1      -2.626  -0.779   0.053  0.00  0.00     0.019 A 
ATOM     13  C   UNL d   1      -1.179   1.617   0.013  0.00  0.00     0.032 A 
ATOM     14  C   UNL d   1      -3.297   0.446   0.017  0.00  0.00     0.001 A 
ATOM     15  C   UNL d   1      -2.575   1.641  -0.002  0.00  0.00     0.002 A 
ENDROOT
BRANCH   4  16
ATOM     16  C   UNL d   1       4.150  -1.231  -0.041  0.00  0.00     0.315 C 
ATOM     17  O   UNL d   1       4.292  -2.361   0.412  0.00  0.00    -0.257 OA
BRANCH  16  18
ATOM     18  O   UNL d   1       5.155  -0.532  -0.649  0.00  0.00    -0.317 OA
BRANCH  18  19
ATOM     19  C   UNL d   1       6.423  -1.197  -0.747  0.00  0.00     0.175 C 
ATOM     20  C   UNL d   1       6.430  -2.176  -1.907  0.00  0.00     0.034 C 
ENDBRANCH  18  19
ENDBRANCH  16  18
ENDBRANCH   4  16
BRANCH   3  21
ATOM     21  C   UNL d   1       1.538  -3.437  -0.030  0.00  0.00     0.160 C 
BRANCH  21  22
ATOM     22  C   UNL d   1       1.875  -4.036   1.308  0.00  0.00    -0.017 C 
ATOM     23  C   UNL d   1       1.630  -3.561   2.537  0.00  0.00     0.008 C 
ENDBRANCH  21  22
ENDBRANCH   3  21
TORSDOF 5
