REMARK  2 active torsions:
REMARK  status: ('A' for Active; 'I' for Inactive)
REMARK    1  A    between atoms: C_2  and  C_1 
REMARK       I    between atoms: N_8  and  C_2 
REMARK    2  A    between atoms: C_3  and  C_5 
REMARK       I    between atoms: C_5  and  N_11 
ROOT
ATOM      1  C   UNL d   1      -0.358  -2.799   0.468  0.00  0.00     0.263 C 
ATOM      2  C   UNL d   1       4.311  -5.545  -0.790  0.00  0.00     0.251 C 
ATOM      3  N   UNL d   1       0.827  -3.457   0.101  0.00  0.00    -0.344 N 
ATOM      4  N   UNL d   1       3.407  -4.500  -0.640  0.00  0.00    -0.347 N 
ATOM      5  O   UNL d   1      -0.383  -2.092   1.478  0.00  0.00    -0.267 OA
ATOM      6  C   UNL d   1       1.910  -3.551   1.095  0.00  0.00     0.146 C 
ATOM      7  C   UNL d   1       0.974  -4.333  -1.075  0.00  0.00     0.146 C 
ATOM      8  C   UNL d   1       3.314  -3.537   0.462  0.00  0.00     0.145 C 
ATOM      9  C   UNL d   1       2.386  -4.297  -1.668  0.00  0.00     0.145 C 
ATOM     10  O   UNL d   1       4.229  -6.297  -1.768  0.00  0.00    -0.270 OA
ENDROOT
BRANCH   2  11
ATOM     11  C   UNL d   1       5.495  -5.684   0.201  0.00  0.00     0.245 C 
ATOM     12  O   UNL d   1       5.191  -5.576   1.587  0.00  0.00    -0.331 OA
ATOM     13  C   UNL d   1       4.723  -6.745   2.115  0.00  0.00     0.103 A 
ATOM     14  C   UNL d   1       4.050  -6.649   3.332  0.00  0.00     0.040 A 
ATOM     15  C   UNL d   1       4.898  -7.984   1.501  0.00  0.00     0.102 A 
ATOM     16  C   UNL d   1       3.513  -7.795   3.918  0.00  0.00     0.003 A 
ATOM     17  C   UNL d   1       3.659  -9.032   3.290  0.00  0.00     0.003 A 
ATOM     18  C   UNL d   1       4.354  -9.127   2.083  0.00  0.00     0.039 A 
ATOM     19  O   UNL d   1       5.580  -8.150   0.328  0.00  0.00    -0.345 OA
ATOM     20  C   UNL d   1       6.292  -6.967  -0.063  0.00  0.00     0.218 C 
ENDBRANCH   2  11
BRANCH   1  21
ATOM     21  C   UNL d   1      -1.526  -2.913  -0.371  0.00  0.00     0.110 C 
ATOM     22  C   UNL d   1      -2.351  -1.929  -0.901  0.00  0.00     0.043 C 
ATOM     23  N   UNL d   1      -3.418  -2.415  -1.654  0.00  0.00    -0.296 N 
ATOM     24  C   UNL d   1      -2.224  -0.457  -0.771  0.00  0.00     0.071 C 
ATOM     25  N   UNL d   1      -3.478  -3.735  -1.634  0.00  0.00    -0.061 NA
ATOM     26  HN  UNL d   1      -4.074  -1.822  -2.161  1.00  0.00     0.183 HD
ATOM     27  S   UNL d   1      -2.290  -4.419  -0.681  0.00  0.00     0.007 SA
ENDBRANCH   1  21
TORSDOF 2
