REMARK  2 active torsions:
REMARK  status: ('A' for Active; 'I' for Inactive)
REMARK    1  A    between atoms: C_2  and  N_1 
REMARK    2  A    between atoms: C_18  and  N_8 
ROOT
ATOM      1  N   UNL d   1      -2.239  -0.810   0.097  0.00  0.00    -0.237 N 
ATOM      2  C   UNL d   1      -1.091   1.296   0.444  0.00  0.00     0.073 A 
ATOM      3  C   UNL d   1       0.056   0.562   0.394  0.00  0.00     0.093 A 
ATOM      4  C   UNL d   1      -1.021  -1.525   0.064  0.00  0.00     0.188 A 
ATOM      5  C   UNL d   1      -2.362   0.596   0.302  0.00  0.00     0.269 A 
ATOM      6  N   UNL d   1       0.128  -0.786   0.225  0.00  0.00    -0.326 N 
ATOM      7  S   UNL d   1       1.477   1.423   0.561  0.00  0.00    -0.076 SA
ATOM      8  C   UNL d   1      -0.782   2.694   0.658  0.00  0.00    -0.031 A 
ATOM      9  C   UNL d   1       0.598   2.890   0.737  0.00  0.00    -0.012 A 
ATOM     10  S   UNL d   1      -0.790  -3.166  -0.241  0.00  0.00    -0.040 SA
ATOM     11  O   UNL d   1      -3.432   1.192   0.405  0.00  0.00    -0.266 OA
ATOM     12  C   UNL d   1      -1.780   3.803   0.788  0.00  0.00     0.050 C 
ATOM     13  C   UNL d   1       1.363   4.156   0.948  0.00  0.00     0.057 C 
ATOM     14  H   UNL d   1       1.032  -1.243   0.181  0.00  0.00     0.169 HD
ENDROOT
BRANCH   1  15
ATOM     15  C   UNL d   1      -3.462  -1.501   0.004  0.00  0.00     0.141 C 
ATOM     16  N   UNL d   1      -4.488  -1.185  -0.886  0.00  0.00    -0.239 N 
ATOM     17  N   UNL d   1      -5.645  -1.822  -0.550  0.00  0.00    -0.297 N 
ATOM     18  C   UNL d   1      -5.297  -2.682   0.411  0.00  0.00     0.026 C 
ATOM     19  HN  UNL d   1      -6.573  -1.675  -0.945  1.00  0.00     0.187 HD
ATOM     20  C   UNL d   1      -3.949  -2.526   0.791  0.00  0.00     0.077 C 
ATOM     21  C   UNL d   1      -6.296  -3.629   0.963  0.00  0.00     0.070 C 
BRANCH  16  22
ATOM     22  C   UNL d   1      -4.423  -0.447  -2.103  0.00  0.00     0.058 A 
ATOM     23  C   UNL d   1      -3.224  -0.337  -2.822  0.00  0.00     0.031 A 
ATOM     24  C   UNL d   1      -3.187   0.389  -4.014  0.00  0.00     0.002 A 
ATOM     25  C   UNL d   1      -4.341   1.010  -4.490  0.00  0.00     0.000 A 
ATOM     26  C   UNL d   1      -5.540   0.886  -3.789  0.00  0.00     0.002 A 
ATOM     27  C   UNL d   1      -5.588   0.144  -2.607  0.00  0.00     0.031 A 
ENDBRANCH  16  22
ENDBRANCH   1  15
TORSDOF 2
