REMARK  4 active torsions:
REMARK  status: ('A' for Active; 'I' for Inactive)
REMARK    1  A    between atoms: C_11  and  C_2 
REMARK    2  A    between atoms: S_12  and  C_5 
REMARK       I    between atoms: N_8  and  C_10 
REMARK       I    between atoms: C_9  and  N_8 
REMARK       I    between atoms: N_15  and  C_9 
REMARK    3  A    between atoms: C_10  and  C_18 
REMARK    4  A    between atoms: C_18  and  S_12 
ROOT
ATOM      1  O   UNL d   1      -0.501   0.827  -1.083  0.00  0.00    -0.267 OA
ATOM      2  C   UNL d   1      -0.318  -0.500  -1.369  0.00  0.00     0.175 A 
ATOM      3  N   UNL d   1      -0.445  -1.268  -0.307  0.00  0.00    -0.277 N 
ATOM      4  HN  UNL d   1      -0.351  -2.283  -0.272  1.00  0.00     0.189 HD
ATOM      5  C   UNL d   1      -0.763   0.789   0.258  0.00  0.00     0.204 A 
ATOM      6  N   UNL d   1      -0.729  -0.429   0.750  0.00  0.00    -0.272 N 
ATOM      7  HN  UNL d   1      -0.882  -0.700   1.721  1.00  0.00     0.189 HD
ENDROOT
BRANCH   5   8
ATOM      8  S   UNL d   1      -1.252   2.177   1.176  0.00  0.00    -0.075 SA
BRANCH   8   9
ATOM      9  C   UNL d   1      -2.570   2.788   0.094  0.00  0.00     0.186 C 
BRANCH   9  10
ATOM     10  C   UNL d   1      -3.726   1.822  -0.112  0.00  0.00     0.235 C 
ATOM     11  N   UNL d   1      -3.981   0.929   0.914  0.00  0.00    -0.279 N 
ATOM     12  C   UNL d   1      -4.920  -0.073   0.966  0.00  0.00     0.322 C 
ATOM     13  H   UNL d   1      -3.337   0.885   1.694  0.00  0.00     0.173 HD
ATOM     14  O   UNL d   1      -4.940  -0.843   1.923  0.00  0.00    -0.247 OA
ATOM     15  N   UNL d   1      -5.777  -0.143  -0.089  0.00  0.00    -0.347 N 
ATOM     16  C   UNL d   1      -6.838  -1.108  -0.185  0.00  0.00     0.151 C 
ATOM     17  H   UNL d   1      -5.728   0.608  -0.774  0.00  0.00     0.163 HD
ATOM     18  O   UNL d   1      -4.443   1.923  -1.110  0.00  0.00    -0.272 OA
ENDBRANCH   9  10
ENDBRANCH   8   9
ENDBRANCH   5   8
BRANCH   2  19
ATOM     19  C   UNL d   1      -0.101  -0.858  -2.764  0.00  0.00     0.017 A 
ATOM     20  C   UNL d   1       0.153   0.110  -3.748  0.00  0.00     0.017 A 
ATOM     21  C   UNL d   1       0.319  -0.259  -5.087  0.00  0.00     0.025 A 
ATOM     22  C   UNL d   1       0.230  -1.601  -5.452  0.00  0.00     0.034 A 
ATOM     23  C   UNL d   1      -0.012  -2.577  -4.488  0.00  0.00     0.025 A 
ATOM     24 CL   UNL d   1       0.415  -2.052  -7.101  0.00  0.00    -0.084 Cl
ATOM     25  C   UNL d   1      -0.172  -2.207  -3.151  0.00  0.00     0.017 A 
ENDBRANCH   2  19
TORSDOF 4
