REMARK  5 active torsions:
REMARK  status: ('A' for Active; 'I' for Inactive)
REMARK    1  A    between atoms: C_2  and  N_1 
REMARK       I    between atoms: C_3  and  N_1 
REMARK    2  A    between atoms: C_11  and  C_3 
REMARK    3  A    between atoms: C_5  and  C_12 
REMARK    4  A    between atoms: O_13  and  C_5 
REMARK    5  A    between atoms: C_12  and  C_11 
ROOT
ATOM      1  N   UNL d   1       1.099  -0.152   0.183  0.00  0.00    -0.327 N 
ATOM      2  C   UNL d   1       2.462   0.002   0.020  0.00  0.00     0.222 C 
ATOM      3  O   UNL d   1       3.249   0.319   0.907  0.00  0.00    -0.273 OA
ATOM      4  H   UNL d   1       0.604  -0.747  -0.481  0.00  0.00     0.169 HD
ENDROOT
BRANCH   1   5
ATOM      5  C   UNL d   1       0.393   0.245   1.336  0.00  0.00     0.040 A 
ATOM      6  C   UNL d   1      -0.650  -0.550   1.847  0.00  0.00    -0.032 A 
ATOM      7  C   UNL d   1      -1.409  -0.060   2.924  0.00  0.00     0.051 A 
ATOM      8  C   UNL d   1      -0.938  -1.949   1.375  0.00  0.00     0.050 C 
ATOM      9  C   UNL d   1      -1.126   1.183   3.479  0.00  0.00     0.117 A 
ATOM     10  C   UNL d   1      -0.086   1.958   2.994  0.00  0.00     0.044 A 
ATOM     11  F   UNL d   1      -1.864   1.630   4.504  0.00  0.00    -0.206 F 
ATOM     12  C   UNL d   1       0.680   1.486   1.927  0.00  0.00     0.033 A 
ENDBRANCH   1   5
BRANCH   2  13
ATOM     13  C   UNL d   1       2.964  -0.311  -1.378  0.00  0.00     0.113 C 
BRANCH  13  14
ATOM     14  C   UNL d   1       3.139  -1.805  -1.627  0.00  0.00     0.119 C 
BRANCH  14  15
ATOM     15  C   UNL d   1       1.818  -2.525  -1.686  0.00  0.00     0.139 C 
ATOM     16  O   UNL d   1       0.740  -1.967  -1.865  0.00  0.00    -0.650 OA
BRANCH  15  17
ATOM     17  O   UNL d   1       1.918  -3.853  -1.501  0.00  0.00    -0.776 OA
ATOM     18  H   UNL d   1       2.827  -4.173  -1.337  0.00  0.00     0.167 HD
ENDBRANCH  15  17
ENDBRANCH  14  15
ENDBRANCH  13  14
ENDBRANCH   2  13
TORSDOF 5
