REMARK  5 active torsions:
REMARK  status: ('A' for Active; 'I' for Inactive)
REMARK    1  A    between atoms: N_2  and  C_1 
REMARK    2  A    between atoms: C_9  and  C_1 
REMARK    3  A    between atoms: C_7  and  N_2 
REMARK    4  A    between atoms: O_13  and  N_5 
REMARK    5  A    between atoms: O_14  and  C_8 
ROOT
ATOM      1  C   UNL d   1       1.145  -0.085  -0.122  0.00  0.00     0.115 C 
ATOM      2  N   UNL d   1       0.606   0.971   0.432  0.00  0.00    -0.257 N 
ATOM      3  HN  UNL d   1       1.086   1.860   0.570  1.00  0.00     0.195 HD
ENDROOT
BRANCH   1   4
ATOM      4  N   UNL d   1       0.423  -1.252  -0.295  0.00  0.00    -0.243 NA
ATOM      5  H   UNL d   1      -0.534  -1.055   0.005  0.00  0.00     0.135 HD
BRANCH   4   6
ATOM      6  C   UNL d   1       0.789  -2.521   0.216  0.00  0.00     0.015 A 
ATOM      7  C   UNL d   1       0.077  -3.640  -0.237  0.00  0.00     0.050 A 
ATOM      8  C   UNL d   1       0.350  -4.937   0.232  0.00  0.00     0.069 A 
ATOM      9 CL   UNL d   1      -0.593  -6.186  -0.502  0.00  0.00    -0.081 Cl
ATOM     10  C   UNL d   1       1.343  -5.132   1.198  0.00  0.00     0.089 A 
ATOM     11  C   UNL d   1       2.050  -4.006   1.653  0.00  0.00     0.040 A 
ATOM     12  C   UNL d   1       1.779  -2.718   1.175  0.00  0.00     0.026 A 
BRANCH  10  13
ATOM     13  O   UNL d   1       1.788  -6.277   1.797  0.00  0.00    -0.354 OA
ATOM     14  C   UNL d   1       1.049  -7.482   1.681  0.00  0.00     0.210 C 
ENDBRANCH  10  13
ENDBRANCH   4   6
ENDBRANCH   1   4
BRANCH   1  15
ATOM     15  C   UNL d   1       2.547   0.051  -0.652  0.00  0.00     0.004 A 
ATOM     16  C   UNL d   1       3.034  -0.831  -1.625  0.00  0.00     0.015 A 
ATOM     17  C   UNL d   1       4.313  -0.651  -2.159  0.00  0.00     0.001 A 
ATOM     18  C   UNL d   1       5.107   0.412  -1.731  0.00  0.00     0.000 A 
ATOM     19  C   UNL d   1       4.629   1.294  -0.763  0.00  0.00     0.001 A 
ATOM     20  C   UNL d   1       3.353   1.115  -0.225  0.00  0.00     0.015 A 
ENDBRANCH   1  15
BRANCH   2  21
ATOM     21  O   UNL d   1      -0.723   0.719   0.812  0.00  0.00    -0.289 OA
ATOM     22  H   UNL d   1      -1.007   1.593   1.141  0.00  0.00     0.244 HD
ENDBRANCH   2  21
TORSDOF 5
