REMARK  3 active torsions:
REMARK  status: ('A' for Active; 'I' for Inactive)
REMARK    1  A    between atoms: C_10  and  C_1 
REMARK    2  A    between atoms: O_14  and  C_10 
REMARK    3  A    between atoms: C_13  and  O_14 
ROOT
ATOM      1  C   UNL d   1      -1.224   1.023   0.055  0.00  0.00    -0.021 A 
ATOM      2  C   UNL d   1       0.026   1.706   0.119  0.00  0.00    -0.047 A 
ATOM      3  C   UNL d   1      -1.237  -0.404   0.006  0.00  0.00    -0.047 A 
ATOM      4  C   UNL d   1       1.240   0.970   0.025  0.00  0.00    -0.049 A 
ATOM      5  C   UNL d   1      -0.017  -1.137   0.003  0.00  0.00    -0.049 A 
ATOM      6  C   UNL d   1       1.220  -0.449  -0.004  0.00  0.00    -0.049 A 
ATOM      7  C   UNL d   1       2.587   1.669  -0.035  0.00  0.00     0.049 C 
ATOM      8  C   UNL d   1      -0.013  -2.652   0.002  0.00  0.00     0.049 C 
ATOM      9  C   UNL d   1       0.114   3.211   0.258  0.00  0.00     0.049 C 
ATOM     10  C   UNL d   1       2.538  -1.199  -0.034  0.00  0.00     0.049 C 
ATOM     11  C   UNL d   1      -2.541  -1.176  -0.038  0.00  0.00     0.049 C 
ENDROOT
BRANCH   1  12
ATOM     12  C   UNL d   1      -2.551   1.783   0.050  0.00  0.00     0.215 C 
BRANCH  12  13
ATOM     13  O   UNL d   1      -3.214   1.594  -1.204  0.00  0.00    -0.347 OA
BRANCH  13  14
ATOM     14  C   UNL d   1      -4.471   2.121  -1.343  0.00  0.00     0.070 A 
ATOM     15  C   UNL d   1      -5.138   2.935  -0.427  0.00  0.00     0.045 A 
ATOM     16  C   UNL d   1      -6.430   3.423  -0.705  0.00  0.00    -0.037 A 
ATOM     17  C   UNL d   1      -7.108   4.308   0.308  0.00  0.00     0.050 C 
ATOM     18  C   UNL d   1      -7.057   3.076  -1.921  0.00  0.00     0.046 A 
ATOM     19  C   UNL d   1      -6.399   2.253  -2.849  0.00  0.00    -0.037 A 
ATOM     20 CL   UNL d   1      -8.649   3.682  -2.255  0.00  0.00    -0.083 Cl
ATOM     21  C   UNL d   1      -5.105   1.791  -2.543  0.00  0.00     0.045 A 
ATOM     22  C   UNL d   1      -6.981   1.840  -4.174  0.00  0.00     0.050 C 
ENDBRANCH  13  14
ENDBRANCH  12  13
ENDBRANCH   1  12
TORSDOF 3
