REMARK  2 active torsions:
REMARK  status: ('A' for Active; 'I' for Inactive)
REMARK    1  A    between atoms: C_2  and  C_1 
REMARK    2  A    between atoms: N_3  and  C_4 
REMARK       I    between atoms: C_7  and  N_3 
ROOT
ATOM      1  C   UNL d   1       0.558  -0.284   1.379  0.00  0.00     0.049 A 
ATOM      2  C   UNL d   1      -0.309  -0.482   4.071  0.00  0.00     0.056 A 
ATOM      3  C   UNL d   1      -0.213   0.768   3.431  0.00  0.00     0.061 A 
ATOM      4  C   UNL d   1       0.222   0.868   2.103  0.00  0.00     0.042 A 
ATOM      5  C   UNL d   1       0.436  -1.530   2.008  0.00  0.00     0.018 A 
ATOM      6  C   UNL d   1       0.007  -1.627   3.336  0.00  0.00     0.032 A 
ATOM      7 CL   UNL d   1      -0.604   2.231   4.271  0.00  0.00    -0.082 Cl
ENDROOT
BRANCH   2   8
ATOM      8  N   UNL d   1      -0.735  -0.534   5.422  0.00  0.00    -0.326 N 
ATOM      9  C   UNL d   1      -0.676  -1.624   6.268  0.00  0.00     0.218 C 
ATOM     10  O   UNL d   1      -0.181  -2.719   6.011  0.00  0.00    -0.274 OA
ATOM     11  C   UNL d   1      -1.299  -1.378   7.617  0.00  0.00     0.117 C 
ATOM     12  H   UNL d   1      -1.021   0.355   5.817  0.00  0.00     0.169 HD
ENDBRANCH   2   8
BRANCH   1  13
ATOM     13  C   UNL d   1       1.046  -0.211  -0.046  0.00  0.00     0.417 C 
ATOM     14  F   UNL d   1       1.139   1.060  -0.525  0.00  0.00    -0.166 F 
ATOM     15  F   UNL d   1       0.231  -0.878  -0.909  0.00  0.00    -0.166 F 
ATOM     16  F   UNL d   1       2.283  -0.759  -0.199  0.00  0.00    -0.166 F 
ENDBRANCH   1  13
TORSDOF 2
