REMARK  6 active torsions:
REMARK  status: ('A' for Active; 'I' for Inactive)
REMARK    1  A    between atoms: C_9  and  N_1 
REMARK    2  A    between atoms: S_16  and  C_2 
REMARK    3  A    between atoms: C_3  and  C_15 
REMARK    4  A    between atoms: O_25  and  C_4 
REMARK    5  A    between atoms: C_15  and  C_21 
REMARK    6  A    between atoms: C_21  and  S_16 
ROOT
ATOM      1  N   UNL d   1      -0.404  -1.242  -0.090  0.00  0.00    -0.255 N 
ATOM      2  C   UNL d   1       0.838  -0.602  -0.149  0.00  0.00     0.169 A 
ATOM      3  C   UNL d   1      -1.295  -0.187  -0.146  0.00  0.00     0.245 A 
ATOM      4  N   UNL d   1       0.662   0.705  -0.219  0.00  0.00    -0.276 N 
ATOM      5  HN  UNL d   1       1.402   1.406  -0.252  1.00  0.00     0.189 HD
ATOM      6  N   UNL d   1      -0.678   0.960  -0.239  0.00  0.00    -0.263 N 
ATOM      7  HN  UNL d   1      -1.116   1.878  -0.313  1.00  0.00     0.190 HD
ENDROOT
BRANCH   2   8
ATOM      8  S   UNL d   1       2.405  -1.337  -0.338  0.00  0.00    -0.084 SA
BRANCH   8   9
ATOM      9  C   UNL d   1       3.396   0.193  -0.330  0.00  0.00     0.166 C 
BRANCH   9  10
ATOM     10  C   UNL d   1       4.894   0.007  -0.557  0.00  0.00     0.170 C 
ATOM     11  O   UNL d   1       5.362  -0.918  -1.218  0.00  0.00    -0.291 OA
BRANCH  10  12
ATOM     12  C   UNL d   1       5.760   0.975   0.148  0.00  0.00     0.029 C 
ATOM     13  C   UNL d   1       5.346   2.219   0.603  0.00  0.00     0.066 C 
ATOM     14  S   UNL d   1       6.028   2.467   2.175  0.00  0.00    -0.100 SA
ATOM     15  C   UNL d   1       6.816   0.930   2.063  0.00  0.00     0.016 C 
ATOM     16  C   UNL d   1       7.064   0.705   0.707  0.00  0.00    -0.005 C 
ATOM     17  C   UNL d   1       7.178  -0.006   3.038  0.00  0.00     0.019 C 
ATOM     18  C   UNL d   1       8.023  -0.279   0.388  0.00  0.00     0.014 C 
ATOM     19  C   UNL d   1       8.227  -1.316   1.293  0.00  0.00     0.001 C 
ATOM     20  C   UNL d   1       7.752  -1.203   2.593  0.00  0.00     0.001 C 
ENDBRANCH  10  12
ENDBRANCH   9  10
ENDBRANCH   8   9
ENDBRANCH   2   8
BRANCH   1  21
ATOM     21  C   UNL d   1      -0.728  -2.619   0.069  0.00  0.00     0.048 A 
ATOM     22  C   UNL d   1      -1.915  -3.122  -0.514  0.00  0.00     0.069 A 
ATOM     23  C   UNL d   1      -2.350  -4.410  -0.239  0.00  0.00     0.104 A 
ATOM     24  O   UNL d   1      -3.557  -4.779  -0.776  0.00  0.00    -0.346 OA
ATOM     25  C   UNL d   1      -1.582  -5.254   0.563  0.00  0.00     0.102 A 
ATOM     26  C   UNL d   1      -4.102  -5.910  -0.085  0.00  0.00     0.202 C 
ATOM     27  C   UNL d   1      -3.046  -6.994   0.071  0.00  0.00     0.202 C 
ATOM     28  O   UNL d   1      -1.953  -6.536   0.878  0.00  0.00    -0.346 OA
ATOM     29  C   UNL d   1      -0.388  -4.786   1.110  0.00  0.00     0.042 A 
ATOM     30  C   UNL d   1       0.040  -3.472   0.865  0.00  0.00     0.033 A 
ENDBRANCH   1  21
BRANCH   3  31
ATOM     31  O   UNL d   1      -2.628  -0.241  -0.015  0.00  0.00    -0.331 OA
ATOM     32  H   UNL d   1      -2.822  -1.049   0.488  0.00  0.00     0.221 HD
ENDBRANCH   3  31
TORSDOF 6
