REMARK  2 active torsions:
REMARK  status: ('A' for Active; 'I' for Inactive)
REMARK    1  A    between atoms: N_3  and  C_2 
REMARK    2  A    between atoms: C_9  and  C_5 
ROOT
ATOM      1  C   UNL d   1      -5.806  -1.120  -0.411  0.00  0.00     0.144 A 
ATOM      2  S   UNL d   1      -4.624  -0.310  -1.323  0.00  0.00    -0.066 SA
ATOM      3  C   UNL d   1      -2.691   1.101  -0.008  0.00  0.00     0.043 C 
ATOM      4  C   UNL d   1      -3.858   0.299   0.093  0.00  0.00     0.008 A 
ATOM      5  C   UNL d   1      -5.667  -0.917   0.944  0.00  0.00     0.045 A 
ATOM      6  C   UNL d   1      -4.543  -0.087   1.233  0.00  0.00     0.022 A 
ENDROOT
BRANCH   3   7
ATOM      7  C   UNL d   1      -1.457   0.582  -0.026  0.00  0.00     0.077 A 
ATOM      8  C   UNL d   1      -0.249   1.448  -0.074  0.00  0.00     0.264 A 
ATOM      9  N   UNL d   1       0.874   0.669  -0.086  0.00  0.00    -0.307 N 
ATOM     10  O   UNL d   1      -0.253   2.667  -0.085  0.00  0.00    -0.267 OA
ATOM     11  C   UNL d   1       0.718  -0.683  -0.047  0.00  0.00     0.146 A 
ATOM     12  H   UNL d   1       1.787   1.096  -0.113  0.00  0.00     0.170 HD
ATOM     13  S   UNL d   1      -0.984  -1.079   0.019  0.00  0.00    -0.055 SA
ATOM     14  S   UNL d   1       1.978  -1.754  -0.057  0.00  0.00    -0.052 SA
ENDBRANCH   3   7
BRANCH   1  15
ATOM     15  N   UNL d   1      -6.818  -1.915  -1.057  0.00  0.00    -0.108 N 
ATOM     16  O   UNL d   1      -7.637  -2.470  -0.311  0.00  0.00    -0.531 OA
ATOM     17  O   UNL d   1      -6.809  -1.990  -2.292  0.00  0.00    -0.531 OA
ENDBRANCH   1  15
TORSDOF 2
