REMARK  3 active torsions:
REMARK  status: ('A' for Active; 'I' for Inactive)
REMARK    1  A    between atoms: N_2  and  C_1 
REMARK       I    between atoms: C_3  and  N_2 
REMARK    2  A    between atoms: O_10  and  C_6 
REMARK    3  A    between atoms: O_11  and  C_7 
ROOT
ATOM      1  C   UNL d   1       1.352  -0.437   0.078  0.00  0.00     0.040 A 
ATOM      2  C   UNL d   1       0.425  -1.472  -0.048  0.00  0.00     0.066 A 
ATOM      3  C   UNL d   1       0.880   0.880   0.150  0.00  0.00     0.066 A 
ATOM      4  C   UNL d   1      -0.495   1.156   0.115  0.00  0.00     0.073 A 
ATOM      5  C   UNL d   1      -0.945  -1.214  -0.072  0.00  0.00     0.073 A 
ATOM      6  C   UNL d   1      -1.401   0.102   0.003  0.00  0.00     0.073 A 
ENDROOT
BRANCH   1   7
ATOM      7  N   UNL d   1       2.748  -0.660   0.156  0.00  0.00    -0.327 N 
ATOM      8  C   UNL d   1       3.392  -1.890   0.157  0.00  0.00     0.218 C 
ATOM      9  O   UNL d   1       2.873  -2.995   0.058  0.00  0.00    -0.274 OA
ATOM     10  C   UNL d   1       4.889  -1.789   0.303  0.00  0.00     0.117 C 
ATOM     11  H   UNL d   1       3.322   0.167   0.251  0.00  0.00     0.169 HD
ENDBRANCH   1   7
BRANCH   5  12
ATOM     12  O   UNL d   1      -1.926  -2.168  -0.156  0.00  0.00    -0.356 OA
ATOM     13  C   UNL d   1      -1.487  -3.524  -0.168  0.00  0.00     0.210 C 
ENDBRANCH   5  12
BRANCH   4  14
ATOM     14  O   UNL d   1      -0.827   2.482   0.212  0.00  0.00    -0.356 OA
ATOM     15  C   UNL d   1      -2.217   2.793   0.210  0.00  0.00     0.210 C 
ENDBRANCH   4  14
TORSDOF 3
