REMARK  4 active torsions:
REMARK  status: ('A' for Active; 'I' for Inactive)
REMARK    1  A    between atoms: S_2  and  C_1 
REMARK    2  A    between atoms: O_8  and  S_2 
REMARK    3  A    between atoms: C_7  and  C_11 
REMARK    4  A    between atoms: C_13  and  O_8 
ROOT
ATOM      1  O   UNL d   1       2.986  -2.674  -1.281  0.00  0.00    -0.229 OA
ENDROOT
BRANCH   1   2
ATOM      2  S   UNL d   1       2.908  -1.244  -0.493  0.00  0.00     0.311 S 
ATOM      3  O   UNL d   1       1.548  -0.970  -0.074  0.00  0.00    -0.192 OA
ATOM      4  O   UNL d   1       3.722  -0.272  -1.191  0.00  0.00    -0.192 OA
BRANCH   2   5
ATOM      5  C   UNL d   1       3.755  -1.572   1.029  0.00  0.00     0.146 A 
ATOM      6  S   UNL d   1       3.632  -3.166   1.655  0.00  0.00    -0.067 SA
ATOM      7  C   UNL d   1       4.465  -2.737   3.066  0.00  0.00     0.054 A 
ATOM      8 BR   UNL d   1       4.791  -3.937   4.467  0.00  0.00    -0.043 Br
ATOM      9  C   UNL d   1       4.859  -1.424   3.090  0.00  0.00     0.048 A 
ATOM     10  C   UNL d   1       4.439  -0.759   1.908  0.00  0.00     0.043 A 
ATOM     11 BR   UNL d   1       4.772   1.088   1.685  0.00  0.00    -0.049 Br
ENDBRANCH   2   5
ENDBRANCH   1   2
BRANCH   1  12
ATOM     12  C   UNL d   1       2.418  -2.820  -2.523  0.00  0.00     0.090 A 
ATOM     13  C   UNL d   1       1.242  -2.180  -2.922  0.00  0.00     0.054 A 
ATOM     14  C   UNL d   1       0.700  -2.398  -4.199  0.00  0.00     0.050 A 
ATOM     15  C   UNL d   1       1.355  -3.278  -5.071  0.00  0.00     0.016 A 
ATOM     16  C   UNL d   1       2.521  -3.932  -4.672  0.00  0.00     0.004 A 
ATOM     17  C   UNL d   1       3.047  -3.708  -3.397  0.00  0.00     0.038 A 
BRANCH  14  18
ATOM     18  C   UNL d   1      -0.574  -1.708  -4.624  0.00  0.00     0.417 C 
ATOM     19  F   UNL d   1      -1.092  -0.883  -3.672  0.00  0.00    -0.166 F 
ATOM     20  F   UNL d   1      -0.405  -0.937  -5.733  0.00  0.00    -0.166 F 
ATOM     21  F   UNL d   1      -1.564  -2.592  -4.928  0.00  0.00    -0.166 F 
ENDBRANCH  14  18
ENDBRANCH   1  12
TORSDOF 4
