REMARK  2 active torsions:
REMARK  status: ('A' for Active; 'I' for Inactive)
REMARK    1  A    between atoms: C_5  and  C_1 
REMARK    2  A    between atoms: C_8  and  C_2 
REMARK       I    between atoms: N_12  and  C_5 
ROOT
ATOM      1  C   UNL d   1       0.576   0.175   0.616  0.00  0.00     0.137 A 
ATOM      2  C   UNL d   1       0.607  -1.081   0.033  0.00  0.00     0.119 A 
ATOM      3  N   UNL d   1      -0.680   0.748   0.421  0.00  0.00    -0.340 N 
ATOM      4  HN  UNL d   1      -1.027   1.643   0.766  1.00  0.00     0.167 HD
ATOM      5  C   UNL d   1      -1.310  -0.140  -0.310  0.00  0.00     0.234 A 
ATOM      6  O   UNL d   1      -0.607  -1.268  -0.589  0.00  0.00    -0.303 OA
ENDROOT
BRANCH   2   7
ATOM      7  C   UNL d   1       1.513  -2.223   0.003  0.00  0.00     0.000 A 
ATOM      8  C   UNL d   1       2.411  -2.456   1.053  0.00  0.00     0.015 A 
ATOM      9  C   UNL d   1       3.229  -3.588   1.065  0.00  0.00     0.007 A 
ATOM     10  C   UNL d   1       3.160  -4.523   0.031  0.00  0.00    -0.062 A 
ATOM     11  C   UNL d   1       2.279  -4.295  -1.030  0.00  0.00     0.007 A 
ATOM     12  C   UNL d   1       4.010  -5.756   0.089  0.00  0.00     0.048 C 
ATOM     13  C   UNL d   1       1.464  -3.156  -1.042  0.00  0.00     0.015 A 
ENDBRANCH   2   7
BRANCH   1  14
ATOM     14  C   UNL d   1       1.631   0.842   1.362  0.00  0.00     0.268 C 
ATOM     15  O   UNL d   1       2.830   0.608   1.252  0.00  0.00    -0.266 OA
ATOM     16  N   UNL d   1       1.178   1.775   2.249  0.00  0.00    -0.365 N 
ATOM     17  H   UNL d   1       0.185   1.962   2.328  0.00  0.00     0.159 HD
ATOM     18  H   UNL d   1       1.844   2.273   2.817  0.00  0.00     0.159 HD
ENDBRANCH   1  14
TORSDOF 2
