REMARK  6 active torsions:
REMARK  status: ('A' for Active; 'I' for Inactive)
REMARK    1  A    between atoms: C_3  and  C_1 
REMARK    2  A    between atoms: N_4  and  C_2 
REMARK    3  A    between atoms: O_11  and  C_3 
REMARK       I    between atoms: C_5  and  N_4 
REMARK    4  A    between atoms: C_7  and  C_5 
REMARK    5  A    between atoms: N_6  and  C_7 
REMARK    6  A    between atoms: C_18  and  O_11 
ROOT
ATOM      1  C   UNL d   1       1.447  -0.443   1.487  0.00  0.00     0.066 A 
ATOM      2  C   UNL d   1       0.732  -1.488   0.863  0.00  0.00     0.051 A 
ATOM      3  C   UNL d   1       0.866   0.838   1.551  0.00  0.00     0.020 A 
ATOM      4  C   UNL d   1      -0.588  -1.266   0.445  0.00  0.00     0.030 A 
ATOM      5  C   UNL d   1      -0.413   1.067   1.044  0.00  0.00     0.001 A 
ATOM      6  C   UNL d   1      -1.150   0.009   0.519  0.00  0.00     0.002 A 
ENDROOT
BRANCH   2   7
ATOM      7  N   UNL d   1       1.285  -2.749   0.540  0.00  0.00    -0.325 N 
ATOM      8  C   UNL d   1       2.525  -2.847  -0.077  0.00  0.00     0.250 C 
ATOM      9  O   UNL d   1       3.234  -1.890  -0.396  0.00  0.00    -0.271 OA
ATOM     10  H   UNL d   1       0.655  -3.507   0.295  0.00  0.00     0.169 HD
BRANCH   8  11
ATOM     11  C   UNL d   1       2.930  -4.273  -0.429  0.00  0.00     0.375 C 
BRANCH  11  12
ATOM     12  N   UNL d   1       2.013  -4.903  -1.411  0.00  0.00     0.101 N 
ATOM     13  C   UNL d   1       2.545  -6.243  -1.786  0.00  0.00     0.299 C 
ATOM     14  C   UNL d   1       3.770  -6.199  -2.722  0.00  0.00     0.198 C 
ATOM     15  O   UNL d   1       3.470  -5.479  -3.921  0.00  0.00    -0.388 OA
ATOM     16  C   UNL d   1       3.064  -4.139  -3.615  0.00  0.00     0.198 C 
ATOM     17  C   UNL d   1       1.852  -4.124  -2.666  0.00  0.00     0.299 C 
ENDBRANCH  11  12
ENDBRANCH   8  11
ENDBRANCH   2   7
BRANCH   1  18
ATOM     18  C   UNL d   1       2.734  -0.693   2.208  0.00  0.00     0.295 C 
ATOM     19  O   UNL d   1       3.072  -1.774   2.671  0.00  0.00    -0.259 OA
BRANCH  18  20
ATOM     20  O   UNL d   1       3.428   0.471   2.337  0.00  0.00    -0.318 OA
BRANCH  20  21
ATOM     21  C   UNL d   1       4.685   0.386   3.020  0.00  0.00     0.174 C 
ATOM     22  C   UNL d   1       4.491   0.493   4.525  0.00  0.00     0.034 C 
ENDBRANCH  20  21
ENDBRANCH  18  20
ENDBRANCH   1  18
TORSDOF 6
