REMARK  7 active torsions:
REMARK  status: ('A' for Active; 'I' for Inactive)
REMARK    1  A    between atoms: C_15  and  C_2 
REMARK    2  A    between atoms: C_5  and  C_6 
REMARK    3  A    between atoms: C_6  and  O_13 
REMARK    4  A    between atoms: O_13  and  N_11 
REMARK    5  A    between atoms: C_14  and  C_19 
REMARK    6  A    between atoms: N_20  and  C_14 
REMARK    7  A    between atoms: C_19  and  C_21 
ROOT
ATOM      1  C   UNL d   1       6.910  -6.077  -1.606  0.00  0.00     0.116 C 
ENDROOT
BRANCH   1   2
ATOM      2  C   UNL d   1       5.762  -5.104  -1.371  0.00  0.00     0.100 C 
ATOM      3  N   UNL d   1       5.933  -3.861  -1.719  0.00  0.00    -0.246 N 
ATOM      4  HN  UNL d   1       6.775  -3.490  -2.158  1.00  0.00     0.196 HD
BRANCH   3   5
ATOM      5  O   UNL d   1       4.787  -3.100  -1.401  0.00  0.00    -0.198 OA
BRANCH   5   6
ATOM      6  C   UNL d   1       4.914  -1.749  -1.658  0.00  0.00     0.285 C 
ATOM      7  O   UNL d   1       3.998  -0.969  -1.423  0.00  0.00    -0.263 OA
BRANCH   6   8
ATOM      8  C   UNL d   1       6.220  -1.258  -2.204  0.00  0.00     0.087 A 
ATOM      9  C   UNL d   1       7.016  -0.234  -1.421  0.00  0.00     0.015 A 
ATOM     10  C   UNL d   1       6.362   0.164  -2.711  0.00  0.00     0.015 A 
ENDBRANCH   6   8
ENDBRANCH   5   6
ENDBRANCH   3   5
BRANCH   2  11
ATOM     11  N   UNL d   1       4.624  -5.591  -0.772  0.00  0.00    -0.387 N 
ATOM     12  H   UNL d   1       3.827  -4.966  -0.827  0.00  0.00     0.157 HD
ATOM     13  H   UNL d   1       4.395  -6.565  -0.929  0.00  0.00     0.157 HD
ENDBRANCH   2  11
ENDBRANCH   1   2
BRANCH   1  14
ATOM     14  C   UNL d   1       6.855  -6.832  -2.915  0.00  0.00    -0.051 A 
ATOM     15  C   UNL d   1       7.485  -6.319  -4.056  0.00  0.00     0.008 A 
ATOM     16  C   UNL d   1       7.567  -7.074  -5.232  0.00  0.00     0.014 A 
ATOM     17  C   UNL d   1       7.011  -8.358  -5.299  0.00  0.00    -0.008 A 
ATOM     18  C   UNL d   1       6.323  -8.844  -4.178  0.00  0.00     0.014 A 
ATOM     19  C   UNL d   1       6.246  -8.091  -2.999  0.00  0.00     0.008 A 
BRANCH  17  20
ATOM     20  C   UNL d   1       7.144  -9.198  -6.488  0.00  0.00     0.063 A 
ATOM     21  N   UNL d   1       6.221 -10.201  -6.770  0.00  0.00    -0.292 N 
ATOM     22  N   UNL d   1       6.526 -10.861  -7.877  0.00  0.00    -0.061 NA
ATOM     23  HN  UNL d   1       5.405 -10.404  -6.192  1.00  0.00     0.183 HD
ATOM     24  S   UNL d   1       7.931 -10.312  -8.594  0.00  0.00    -0.010 SA
ATOM     25  C   UNL d   1       8.191  -9.114  -7.391  0.00  0.00     0.096 A 
ENDBRANCH  17  20
ENDBRANCH   1  14
TORSDOF 7
