REMARK  3 active torsions:
REMARK  status: ('A' for Active; 'I' for Inactive)
REMARK    1  A    between atoms: C_2  and  C_1 
REMARK    2  A    between atoms: N_3  and  N_4 
REMARK    3  A    between atoms: C_8  and  C_6 
ROOT
ATOM      1  C   UNL d   1       1.025   1.454   0.654  0.00  0.00     0.049 A 
ATOM      2  C   UNL d   1       0.080   3.533   2.302  0.00  0.00     0.002 A 
ATOM      3  C   UNL d   1      -0.312   2.208   2.547  0.00  0.00     0.046 A 
ATOM      4  C   UNL d   1       0.160   1.180   1.726  0.00  0.00     0.041 A 
ATOM      5  C   UNL d   1       1.416   2.781   0.424  0.00  0.00     0.017 A 
ATOM      6  C   UNL d   1       0.948   3.813   1.241  0.00  0.00     0.015 A 
ATOM      7 CL   UNL d   1      -1.382   1.756   3.826  0.00  0.00    -0.083 Cl
ENDROOT
BRANCH   2   8
ATOM      8  C   UNL d   1      -0.431   4.639   3.125  0.00  0.00     0.114 C 
ATOM      9  N   UNL d   1      -0.145   5.889   2.899  0.00  0.00    -0.329 N 
ATOM     10  HN  UNL d   1       0.482   6.220   2.165  1.00  0.00     0.180 HD
BRANCH   9  11
ATOM     11  N   UNL d   1      -0.798   6.689   3.776  0.00  0.00    -0.228 NA
ATOM     12  C   UNL d   1      -0.112   7.911   4.234  0.00  0.00     0.139 C 
ATOM     13  C   UNL d   1      -0.834   8.450   5.478  0.00  0.00     0.183 C 
ATOM     14  O   UNL d   1      -2.216   8.737   5.210  0.00  0.00    -0.389 OA
ATOM     15  C   UNL d   1      -2.883   7.573   4.702  0.00  0.00     0.183 C 
ATOM     16  C   UNL d   1      -2.194   7.050   3.442  0.00  0.00     0.139 C 
ENDBRANCH   9  11
ENDBRANCH   2   8
BRANCH   1  17
ATOM     17  C   UNL d   1       1.522   0.351  -0.247  0.00  0.00     0.417 C 
ATOM     18  F   UNL d   1       1.052  -0.880   0.094  0.00  0.00    -0.166 F 
ATOM     19  F   UNL d   1       2.879   0.249  -0.241  0.00  0.00    -0.166 F 
ATOM     20  F   UNL d   1       1.162   0.542  -1.545  0.00  0.00    -0.166 F 
ENDBRANCH   1  17
TORSDOF 3
