REMARK  4 active torsions:
REMARK  status: ('A' for Active; 'I' for Inactive)
REMARK    1  A    between atoms: C_2  and  S_1 
REMARK    2  A    between atoms: N_4  and  S_1 
REMARK    3  A    between atoms: C_8  and  C_3 
REMARK    4  A    between atoms: O_15  and  C_8 
ROOT
ATOM      1  C   UNL d   1       0.400   1.691  -0.004  0.00  0.00     0.186 A 
ATOM      2  C   UNL d   1       0.307   3.970  -0.084  0.00  0.00     0.072 A 
ATOM      3  C   UNL d   1       1.167   2.845   0.077  0.00  0.00     0.071 A 
ATOM      4  O   UNL d   1      -0.911   2.071  -0.194  0.00  0.00    -0.301 OA
ATOM      5  C   UNL d   1      -0.956   3.433  -0.252  0.00  0.00     0.067 A 
ATOM      6  C   UNL d   1      -2.291   4.029  -0.486  0.00  0.00     0.078 C 
ENDROOT
BRANCH   1   7
ATOM      7  S   UNL d   1       0.905  -0.032   0.074  0.00  0.00     0.266 S 
ATOM      8  O   UNL d   1       1.457  -0.195   1.400  0.00  0.00    -0.204 OA
ATOM      9  O   UNL d   1       1.720  -0.204  -1.104  0.00  0.00    -0.204 OA
BRANCH   7  10
ATOM     10  N   UNL d   1      -0.460  -1.025  -0.082  0.00  0.00    -0.195 NA
ATOM     11  C   UNL d   1      -1.426  -0.981   1.021  0.00  0.00     0.181 C 
ATOM     12  S   UNL d   1      -1.120  -2.412   2.070  0.00  0.00    -0.152 SA
ATOM     13  C   UNL d   1      -0.260  -3.333   0.779  0.00  0.00     0.090 C 
ATOM     14  C   UNL d   1      -0.194  -2.437  -0.452  0.00  0.00     0.118 C 
ENDBRANCH   7  10
ENDBRANCH   1   7
BRANCH   2  15
ATOM     15  C   UNL d   1       0.648   5.383  -0.088  0.00  0.00     0.295 C 
ATOM     16  O   UNL d   1      -0.173   6.279  -0.233  0.00  0.00    -0.259 OA
BRANCH  15  17
ATOM     17  O   UNL d   1       1.987   5.584   0.088  0.00  0.00    -0.322 OA
ATOM     18  C   UNL d   1       2.384   6.957   0.094  0.00  0.00     0.213 C 
ENDBRANCH  15  17
ENDBRANCH   2  15
TORSDOF 4
