REMARK  7 active torsions:
REMARK  status: ('A' for Active; 'I' for Inactive)
REMARK    1  A    between atoms: O_2  and  C_1 
REMARK    2  A    between atoms: C_5  and  O_2 
REMARK       I    between atoms: C_6  and  N_8 
REMARK    3  A    between atoms: C_15  and  C_6 
REMARK    4  A    between atoms: C_7  and  C_16 
REMARK    5  A    between atoms: O_20  and  C_7 
REMARK    6  A    between atoms: N_8  and  C_13 
REMARK    7  A    between atoms: C_16  and  C_15 
ROOT
ATOM      1  N   UNL d   1      -1.603   3.409  -1.123  0.00  0.00    -0.344 N 
ATOM      2  HN  UNL d   1      -1.046   3.450  -1.977  1.00  0.00     0.167 HD
ATOM      3  C   UNL d   1      -1.150   2.811  -0.002  0.00  0.00     0.148 A 
ATOM      4  C   UNL d   1      -3.671   3.910   0.083  0.00  0.00     0.050 A 
ATOM      5  C   UNL d   1      -2.846   3.954  -1.046  0.00  0.00     0.119 A 
ATOM      6  C   UNL d   1      -1.904   2.675   1.154  0.00  0.00     0.059 A 
ATOM      7  C   UNL d   1      -3.181   3.231   1.194  0.00  0.00     0.035 A 
ENDROOT
BRANCH   4   8
ATOM      8  N   UNL d   1      -4.931   4.546   0.043  0.00  0.00    -0.326 N 
ATOM      9  C   UNL d   1      -5.747   4.808   1.130  0.00  0.00     0.222 C 
ATOM     10  O   UNL d   1      -5.507   4.553   2.308  0.00  0.00    -0.273 OA
ATOM     11  H   UNL d   1      -5.189   4.971  -0.839  0.00  0.00     0.169 HD
BRANCH   9  12
ATOM     12  C   UNL d   1      -7.025   5.541   0.763  0.00  0.00     0.113 C 
BRANCH  12  13
ATOM     13  C   UNL d   1      -7.415   6.495   1.885  0.00  0.00     0.119 C 
BRANCH  13  14
ATOM     14  C   UNL d   1      -6.356   7.556   2.054  0.00  0.00     0.139 C 
ATOM     15  O   UNL d   1      -6.371   8.620   1.453  0.00  0.00    -0.650 OA
BRANCH  14  16
ATOM     16  O   UNL d   1      -5.348   7.196   2.876  0.00  0.00    -0.776 OA
ATOM     17  H   UNL d   1      -5.386   6.256   3.171  0.00  0.00     0.167 HD
ENDBRANCH  14  16
ENDBRANCH  13  14
ENDBRANCH  12  13
ENDBRANCH   9  12
ENDBRANCH   4   8
BRANCH   3  18
ATOM     18  O   UNL d   1       0.138   2.292   0.074  0.00  0.00    -0.290 OA
BRANCH  18  19
ATOM     19  C   UNL d   1       1.023   2.586  -0.935  0.00  0.00     0.121 A 
ATOM     20  C   UNL d   1       1.517   3.878  -1.165  0.00  0.00     0.069 A 
ATOM     21 CL   UNL d   1       1.017   5.247  -0.233  0.00  0.00    -0.081 Cl
ATOM     22  C   UNL d   1       2.513   4.089  -2.127  0.00  0.00     0.027 A 
ATOM     23  C   UNL d   1       3.053   3.014  -2.833  0.00  0.00     0.003 A 
ATOM     24  C   UNL d   1       2.592   1.723  -2.584  0.00  0.00     0.027 A 
ATOM     25  C   UNL d   1       1.583   1.510  -1.641  0.00  0.00     0.069 A 
ATOM     26 CL   UNL d   1       1.083  -0.118  -1.341  0.00  0.00    -0.081 Cl
ENDBRANCH  18  19
ENDBRANCH   3  18
TORSDOF 7
