REMARK  7 active torsions:
REMARK  status: ('A' for Active; 'I' for Inactive)
REMARK    1  A    between atoms: C_13  and  N_1 
REMARK    2  A    between atoms: C_6  and  C_2 
REMARK    3  A    between atoms: C_9  and  C_8 
REMARK    4  A    between atoms: O_16  and  C_9 
REMARK    5  A    between atoms: N_11  and  C_18 
REMARK    6  A    between atoms: C_15  and  C_13 
REMARK    7  A    between atoms: C_18  and  C_15 
ROOT
ATOM      1  N   UNL d   1       2.136  -0.208   0.140  0.00  0.00    -0.327 N 
ATOM      2  C   UNL d   1       1.830  -1.593  -0.231  0.00  0.00     0.200 C 
ATOM      3  C   UNL d   1       1.222   0.799  -0.165  0.00  0.00     0.257 C 
ATOM      4  N   UNL d   1       0.449  -1.905   0.121  0.00  0.00    -0.266 NA
ATOM      5  C   UNL d   1      -0.198   0.411  -0.245  0.00  0.00     0.053 A 
ATOM      6  C   UNL d   1      -0.526  -0.935  -0.102  0.00  0.00     0.026 A 
ATOM      7  O   UNL d   1       1.532   1.982  -0.290  0.00  0.00    -0.267 OA
ATOM      8  C   UNL d   1      -1.188   1.397  -0.357  0.00  0.00     0.019 A 
ATOM      9  C   UNL d   1      -1.883  -1.272   0.004  0.00  0.00     0.024 A 
ATOM     10  C   UNL d   1      -2.532   1.041  -0.275  0.00  0.00     0.001 A 
ATOM     11  C   UNL d   1      -2.878  -0.294  -0.086  0.00  0.00     0.002 A 
ATOM     12  H   UNL d   1       0.170  -2.823  -0.216  0.00  0.00     0.130 HD
ENDROOT
BRANCH   2  13
ATOM     13  C   UNL d   1       2.683  -2.618   0.523  0.00  0.00    -0.004 A 
ATOM     14  C   UNL d   1       3.505  -3.584  -0.092  0.00  0.00     0.047 A 
ATOM     15  C   UNL d   1       4.233  -4.498   0.698  0.00  0.00     0.019 A 
ATOM     16  C   UNL d   1       4.177  -4.440   2.091  0.00  0.00     0.001 A 
ATOM     17  C   UNL d   1       3.371  -3.495   2.711  0.00  0.00     0.001 A 
ATOM     18  C   UNL d   1       2.624  -2.608   1.938  0.00  0.00     0.011 A 
BRANCH  14  19
ATOM     19  C   UNL d   1       3.569  -3.728  -1.569  0.00  0.00     0.176 C 
ATOM     20  O   UNL d   1       2.602  -3.589  -2.289  0.00  0.00    -0.646 OA
BRANCH  19  21
ATOM     21  O   UNL d   1       4.806  -4.004  -2.037  0.00  0.00    -0.773 OA
ATOM     22  H   UNL d   1       5.523  -4.050  -1.377  0.00  0.00     0.167 HD
ENDBRANCH  19  21
ENDBRANCH  14  19
ENDBRANCH   2  13
BRANCH   1  23
ATOM     23  C   UNL d   1       3.519   0.219   0.335  0.00  0.00     0.130 C 
BRANCH  23  24
ATOM     24  C   UNL d   1       4.287   0.524  -0.954  0.00  0.00     0.050 C 
BRANCH  24  25
ATOM     25  C   UNL d   1       5.739   0.871  -0.593  0.00  0.00     0.274 C 
BRANCH  25  26
ATOM     26  N   UNL d   1       6.565   1.358  -1.705  0.00  0.00     0.092 N 
ATOM     27  C   UNL d   1       7.936   1.678  -1.237  0.00  0.00     0.298 C 
ATOM     28  C   UNL d   1       8.794   0.430  -0.958  0.00  0.00     0.198 C 
ATOM     29  O   UNL d   1       8.875  -0.418  -2.109  0.00  0.00    -0.388 OA
ATOM     30  C   UNL d   1       7.570  -0.796  -2.566  0.00  0.00     0.198 C 
ATOM     31  C   UNL d   1       6.683   0.428  -2.845  0.00  0.00     0.298 C 
ENDBRANCH  25  26
ENDBRANCH  24  25
ENDBRANCH  23  24
ENDBRANCH   1  23
TORSDOF 7
