REMARK  6 active torsions:
REMARK  status: ('A' for Active; 'I' for Inactive)
REMARK    1  A    between atoms: N_3  and  C_1 
REMARK       I    between atoms: C_7  and  N_3 
REMARK    2  A    between atoms: C_11  and  C_7 
REMARK    3  A    between atoms: C_9  and  C_11 
REMARK    4  A    between atoms: C_13  and  C_9 
REMARK    5  A    between atoms: C_10  and  C_13 
REMARK    6  A    between atoms: O_15  and  C_10 
ROOT
ATOM      1  C   UNL d   1      -2.067  -2.214  -0.475  0.00  0.00     0.113 C 
ENDROOT
BRANCH   1   2
ATOM      2  C   UNL d   1      -2.387  -0.690  -0.354  0.00  0.00    -0.023 C 
ATOM      3  C   UNL d   1      -2.522  -0.385   1.163  0.00  0.00     0.010 C 
ATOM      4  C   UNL d   1      -2.111   0.992   1.690  0.00  0.00     0.001 C 
ATOM      5  C   UNL d   1      -1.518   2.025   0.741  0.00  0.00     0.000 C 
ATOM      6  C   UNL d   1      -1.352   1.623  -0.713  0.00  0.00     0.001 C 
ATOM      7  C   UNL d   1      -1.197   0.123  -0.919  0.00  0.00     0.010 C 
BRANCH   2   8
ATOM      8  C   UNL d   1      -3.675  -0.285  -1.135  0.00  0.00     0.119 C 
BRANCH   8   9
ATOM      9  C   UNL d   1      -4.918  -1.128  -0.930  0.00  0.00     0.140 C 
ATOM     10  O   UNL d   1      -4.991  -2.135  -0.239  0.00  0.00    -0.650 OA
BRANCH   9  11
ATOM     11  O   UNL d   1      -5.966  -0.681  -1.656  0.00  0.00    -0.776 OA
ATOM     12  H   UNL d   1      -5.762   0.091  -2.221  0.00  0.00     0.167 HD
ENDBRANCH   9  11
ENDBRANCH   8   9
ENDBRANCH   2   8
ENDBRANCH   1   2
BRANCH   1  13
ATOM     13  C   UNL d   1      -2.175  -2.816  -1.871  0.00  0.00     0.224 C 
ATOM     14  N   UNL d   1      -3.219  -3.708  -1.978  0.00  0.00    -0.312 N 
ATOM     15  H   UNL d   1      -3.911  -3.683  -1.224  0.00  0.00     0.170 HD
ATOM     16  O   UNL d   1      -1.393  -2.497  -2.760  0.00  0.00    -0.273 OA
BRANCH  14  17
ATOM     17  C   UNL d   1      -3.529  -4.546  -3.032  0.00  0.00     0.125 A 
ATOM     18  N   UNL d   1      -2.827  -4.890  -4.172  0.00  0.00    -0.281 N 
ATOM     19  N   UNL d   1      -3.504  -5.765  -4.960  0.00  0.00    -0.308 N 
ATOM     20  C   UNL d   1      -1.502  -4.534  -4.619  0.00  0.00     0.179 C 
ATOM     21  C   UNL d   1      -4.629  -6.008  -4.294  0.00  0.00     0.111 A 
ATOM     22  HN  UNL d   1      -3.214  -6.149  -5.859  1.00  0.00     0.186 HD
ATOM     23  C   UNL d   1      -4.697  -5.283  -3.096  0.00  0.00     0.068 A 
ENDBRANCH  14  17
ENDBRANCH   1  13
TORSDOF 6
