REMARK  2 active torsions:
REMARK  status: ('A' for Active; 'I' for Inactive)
REMARK    1  A    between atoms: N_8  and  C_3 
REMARK    2  A    between atoms: C_9  and  C_4 
ROOT
ATOM      1  N   UNL d   1       1.380  -0.551  -0.027  0.00  0.00    -0.321 N 
ATOM      2  HN  UNL d   1       2.304  -0.957  -0.174  1.00  0.00     0.169 HD
ATOM      3  C   UNL d   1       0.255  -1.236   0.031  0.00  0.00     0.165 A 
ATOM      4  C   UNL d   1       1.123   0.813   0.143  0.00  0.00     0.123 A 
ATOM      5  N   UNL d   1      -0.142   1.197   0.353  0.00  0.00    -0.309 N 
ATOM      6  HN  UNL d   1      -0.466   2.150   0.516  1.00  0.00     0.176 HD
ATOM      7  S   UNL d   1      -1.083  -0.163   0.299  0.00  0.00     0.024 SA
ENDROOT
BRANCH   3   8
ATOM      8  N   UNL d   1       0.140  -2.584  -0.170  0.00  0.00    -0.356 N 
ATOM      9  C   UNL d   1       1.376  -3.360  -0.348  0.00  0.00     0.151 C 
ATOM     10  C   UNL d   1       1.051  -4.699  -1.037  0.00  0.00     0.187 C 
ATOM     11  O   UNL d   1       0.036  -5.433  -0.333  0.00  0.00    -0.388 OA
ATOM     12  C   UNL d   1      -1.168  -4.656  -0.246  0.00  0.00     0.187 C 
ATOM     13  C   UNL d   1      -0.923  -3.342   0.509  0.00  0.00     0.151 C 
ENDBRANCH   3   8
BRANCH   4  14
ATOM     14  C   UNL d   1       2.205   1.799   0.042  0.00  0.00     0.009 A 
ATOM     15  C   UNL d   1       3.539   1.392  -0.101  0.00  0.00     0.015 A 
ATOM     16  C   UNL d   1       4.558   2.337  -0.256  0.00  0.00     0.001 A 
ATOM     17  C   UNL d   1       4.255   3.699  -0.266  0.00  0.00     0.000 A 
ATOM     18  C   UNL d   1       2.936   4.119  -0.107  0.00  0.00     0.001 A 
ATOM     19  C   UNL d   1       1.921   3.175   0.050  0.00  0.00     0.015 A 
ENDBRANCH   4  14
TORSDOF 2
