REMARK  3 active torsions:
REMARK  status: ('A' for Active; 'I' for Inactive)
REMARK    1  A    between atoms: C_2  and  C_1 
REMARK    2  A    between atoms: C_13  and  N_3 
REMARK    3  A    between atoms: C_16  and  C_8 
ROOT
ATOM      1  C   UNL d   1      -0.298  -2.812  -0.093  0.00  0.00     0.038 A 
ATOM      2  C   UNL d   1       0.025  -3.560   1.068  0.00  0.00     0.002 A 
ATOM      3  C   UNL d   1      -0.310  -4.967   1.080  0.00  0.00     0.004 A 
ATOM      4  C   UNL d   1      -0.842  -3.505  -1.173  0.00  0.00     0.104 A 
ATOM      5  N   UNL d   1      -1.135  -4.817  -1.189  0.00  0.00    -0.364 N 
ATOM      6  HN  UNL d   1      -1.550  -5.253  -2.013  1.00  0.00     0.165 HD
ATOM      7  C   UNL d   1      -0.866  -5.530  -0.096  0.00  0.00     0.043 A 
ATOM      8  C   UNL d   1      -0.126  -5.854   2.180  0.00  0.00     0.038 A 
ATOM      9  C   UNL d   1      -1.151  -6.886  -0.163  0.00  0.00     0.032 A 
ATOM     10  C   UNL d   1      -0.396  -7.221   2.080  0.00  0.00     0.035 A 
ATOM     11  C   UNL d   1      -0.905  -7.745   0.907  0.00  0.00     0.026 A 
ATOM     12 CL   UNL d   1      -0.077  -8.260   3.412  0.00  0.00    -0.084 Cl
ENDROOT
BRANCH   1  13
ATOM     13  C   UNL d   1      -0.025  -1.384  -0.283  0.00  0.00     0.151 A 
ATOM     14  N   UNL d   1      -0.882  -0.424  -0.836  0.00  0.00    -0.224 N 
ATOM     15  N   UNL d   1      -0.143   0.671  -1.129  0.00  0.00     0.001 NA
ATOM     16  N   UNL d   1       1.064   0.445  -0.642  0.00  0.00    -0.007 NA
ATOM     17  N   UNL d   1       1.157  -0.815  -0.126  0.00  0.00    -0.269 N 
ATOM     18  HN  UNL d   1       1.982  -1.237   0.301  1.00  0.00     0.185 HD
BRANCH  14  19
ATOM     19  C   UNL d   1      -2.277  -0.452  -1.120  0.00  0.00     0.056 A 
ATOM     20  C   UNL d   1      -3.151  -1.306  -0.433  0.00  0.00     0.034 A 
ATOM     21  C   UNL d   1      -4.512  -1.321  -0.764  0.00  0.00     0.044 A 
ATOM     22  C   UNL d   1      -4.991  -0.496  -1.771  0.00  0.00     0.116 A 
ATOM     23  C   UNL d   1      -4.143   0.372  -2.450  0.00  0.00     0.044 A 
ATOM     24  F   UNL d   1      -6.292  -0.530  -2.091  0.00  0.00    -0.206 F 
ATOM     25  C   UNL d   1      -2.789   0.408  -2.114  0.00  0.00     0.034 A 
ENDBRANCH  14  19
ENDBRANCH   1  13
BRANCH   2  26
ATOM     26  C   UNL d   1       0.734  -2.937   2.233  0.00  0.00    -0.024 A 
ATOM     27  C   UNL d   1       0.290  -1.750   2.840  0.00  0.00     0.012 A 
ATOM     28  C   UNL d   1       0.976  -1.181   3.923  0.00  0.00     0.001 A 
ATOM     29  C   UNL d   1       2.093  -1.813   4.456  0.00  0.00     0.000 A 
ATOM     30  C   UNL d   1       2.554  -2.991   3.884  0.00  0.00     0.001 A 
ATOM     31  C   UNL d   1       1.902  -3.525   2.767  0.00  0.00     0.012 A 
ENDBRANCH   2  26
TORSDOF 3
