REMARK  5 active torsions:
REMARK  status: ('A' for Active; 'I' for Inactive)
REMARK    1  A    between atoms: C_6  and  C_1 
REMARK    2  A    between atoms: N_2  and  C_7 
REMARK    3  A    between atoms: C_3  and  C_4 
REMARK    4  A    between atoms: N_8  and  C_5 
REMARK    5  A    between atoms: O_17  and  C_6 
ROOT
ATOM      1  C   UNL d   1       0.640   0.317   0.664  0.00  0.00     0.120 C 
ATOM      2  C   UNL d   1       0.244   1.077  -0.374  0.00  0.00     0.042 C 
ATOM      3  C   UNL d   1      -0.026  -0.924   0.902  0.00  0.00     0.105 C 
ATOM      4  N   UNL d   1      -0.588  -1.927   1.064  0.00  0.00    -0.191 NA
ENDROOT
BRANCH   1   5
ATOM      5  C   UNL d   1       1.734   0.722   1.590  0.00  0.00     0.303 C 
ATOM      6  O   UNL d   1       2.145   1.863   1.732  0.00  0.00    -0.258 OA
BRANCH   5   7
ATOM      7  O   UNL d   1       2.168  -0.355   2.295  0.00  0.00    -0.322 OA
ATOM      8  C   UNL d   1       3.134  -0.083   3.314  0.00  0.00     0.213 C 
ENDBRANCH   5   7
ENDBRANCH   1   5
BRANCH   2   9
ATOM      9  C   UNL d   1       0.877   2.325  -0.848  0.00  0.00    -0.006 A 
ATOM     10  C   UNL d   1       1.938   2.307  -1.798  0.00  0.00     0.040 A 
ATOM     11  C   UNL d   1       2.562   3.532  -2.099  0.00  0.00     0.032 A 
ATOM     12  C   UNL d   1       2.159   4.731  -1.505  0.00  0.00     0.038 A 
ATOM     13  C   UNL d   1       1.099   4.727  -0.597  0.00  0.00     0.103 A 
ATOM     14  C   UNL d   1       0.450   3.532  -0.269  0.00  0.00     0.049 A 
BRANCH  10  15
ATOM     15  N   UNL d   1       2.375   1.103  -2.368  0.00  0.00    -0.380 N 
ATOM     16  C   UNL d   1       3.767   0.997  -2.833  0.00  0.00     0.123 C 
ATOM     17  C   UNL d   1       4.164  -0.479  -2.809  0.00  0.00     0.020 C 
ATOM     18  C   UNL d   1       3.201  -1.333  -3.634  0.00  0.00     0.003 C 
ATOM     19  C   UNL d   1       1.744  -1.070  -3.248  0.00  0.00     0.020 C 
ATOM     20  C   UNL d   1       1.428   0.427  -3.272  0.00  0.00     0.123 C 
ENDBRANCH  10  15
BRANCH  13  21
ATOM     21  N   UNL d   1       0.671   5.985   0.023  0.00  0.00    -0.116 N 
ATOM     22  O   UNL d   1      -0.303   5.950   0.788  0.00  0.00    -0.532 OA
ATOM     23  O   UNL d   1       1.296   7.016  -0.270  0.00  0.00    -0.532 OA
ENDBRANCH  13  21
ENDBRANCH   2   9
TORSDOF 5
