REMARK  6 active torsions:
REMARK  status: ('A' for Active; 'I' for Inactive)
REMARK    1  A    between atoms: C_10  and  C_1 
REMARK    2  A    between atoms: N_7  and  C_2 
REMARK    3  A    between atoms: C_6  and  C_3 
REMARK       I    between atoms: C_9  and  N_7 
REMARK       I    between atoms: N_13  and  C_9 
REMARK    4  A    between atoms: O_19  and  C_10 
REMARK    5  A    between atoms: C_20  and  N_13 
REMARK    6  A    between atoms: C_18  and  C_20 
ROOT
ATOM      1  C   UNL d   1      -1.118  -0.369   0.805  0.00  0.00     0.122 A 
ATOM      2  C   UNL d   1      -0.799   0.871   0.289  0.00  0.00     0.193 A 
ATOM      3  C   UNL d   1      -0.132  -1.248   0.239  0.00  0.00     0.089 A 
ATOM      4  N   UNL d   1       0.763  -0.530  -0.461  0.00  0.00    -0.257 N 
ATOM      5  HN  UNL d   1       1.583  -0.891  -0.948  1.00  0.00     0.195 HD
ATOM      6  O   UNL d   1       0.363   0.783  -0.395  0.00  0.00    -0.218 OA
ENDROOT
BRANCH   2   7
ATOM      7  N   UNL d   1      -1.486   2.057   0.316  0.00  0.00    -0.286 N 
ATOM      8  C   UNL d   1      -1.071   3.273  -0.123  0.00  0.00     0.322 C 
ATOM      9  N   UNL d   1       0.263   3.510  -0.241  0.00  0.00    -0.337 N 
ATOM     10  O   UNL d   1      -1.908   4.158  -0.309  0.00  0.00    -0.247 OA
ATOM     11  H   UNL d   1       0.953   2.771  -0.166  0.00  0.00     0.164 HD
ATOM     12  H   UNL d   1      -2.469   2.020   0.572  0.00  0.00     0.172 HD
BRANCH   9  13
ATOM     13  C   UNL d   1       0.730   4.838  -0.571  0.00  0.00     0.181 C 
BRANCH  13  14
ATOM     14  C   UNL d   1       2.227   5.047  -0.465  0.00  0.00     0.026 A 
ATOM     15  N   UNL d   1       3.025   4.009  -0.109  0.00  0.00    -0.368 N 
ATOM     16  C   UNL d   1       4.354   4.258  -0.022  0.00  0.00     0.088 A 
ATOM     17  HN  UNL d   1       2.642   3.084   0.083  1.00  0.00     0.165 HD
ATOM     18  C   UNL d   1       4.934   5.495  -0.272  0.00  0.00     0.017 A 
ATOM     19  C   UNL d   1       4.104   6.541  -0.636  0.00  0.00     0.003 A 
ATOM     20  C   UNL d   1       2.734   6.322  -0.735  0.00  0.00     0.027 A 
ENDBRANCH  13  14
ENDBRANCH   9  13
ENDBRANCH   2   7
BRANCH   1  21
ATOM     21  C   UNL d   1      -2.240  -0.621   1.679  0.00  0.00     0.299 C 
ATOM     22  O   UNL d   1      -3.215   0.114   1.743  0.00  0.00    -0.259 OA
BRANCH  21  23
ATOM     23  O   UNL d   1      -2.065  -1.735   2.452  0.00  0.00    -0.322 OA
ATOM     24  C   UNL d   1      -3.148  -2.015   3.345  0.00  0.00     0.213 C 
ENDBRANCH  21  23
ENDBRANCH   1  21
BRANCH   3  25
ATOM     25  C   UNL d   1      -0.035  -2.718   0.260  0.00  0.00     0.037 A 
ATOM     26  C   UNL d   1      -1.151  -3.537  -0.026  0.00  0.00     0.048 A 
ATOM     27 CL   UNL d   1      -2.690  -2.914  -0.533  0.00  0.00    -0.083 Cl
ATOM     28  C   UNL d   1      -1.057  -4.937   0.004  0.00  0.00     0.025 A 
ATOM     29  C   UNL d   1       0.162  -5.556   0.246  0.00  0.00     0.003 A 
ATOM     30  C   UNL d   1       1.289  -4.775   0.468  0.00  0.00     0.025 A 
ATOM     31  C   UNL d   1       1.196  -3.373   0.493  0.00  0.00     0.048 A 
ATOM     32 CL   UNL d   1       2.678  -2.540   0.837  0.00  0.00    -0.083 Cl
ENDBRANCH   3  25
TORSDOF 6
