REMARK  7 active torsions:
REMARK  status: ('A' for Active; 'I' for Inactive)
REMARK    1  A    between atoms: C_3  and  C_1 
REMARK    2  A    between atoms: S_2  and  C_4 
REMARK    3  A    between atoms: C_5  and  S_2 
REMARK    4  A    between atoms: O_7  and  C_3 
REMARK    5  A    between atoms: C_11  and  O_7 
REMARK    6  A    between atoms: C_8  and  C_11 
REMARK    7  A    between atoms: C_9  and  C_8 
ROOT
ATOM      1  C   UNL d   1       1.343  -0.167   0.193  0.00  0.00     0.056 C 
ATOM      2  C   UNL d   1       0.618  -1.296   0.539  0.00  0.00     0.021 C 
ATOM      3  C   UNL d   1       0.673   1.062  -0.069  0.00  0.00     0.019 C 
ATOM      4  C   UNL d   1      -0.782  -1.249   0.415  0.00  0.00     0.020 C 
ATOM      5  C   UNL d   1      -0.722   1.109  -0.073  0.00  0.00     0.001 C 
ATOM      6  C   UNL d   1      -1.448  -0.058   0.119  0.00  0.00     0.001 C 
ENDROOT
BRANCH   1   7
ATOM      7  C   UNL d   1       2.836  -0.086  -0.104  0.00  0.00     0.295 C 
ATOM      8  O   UNL d   1       3.521   0.916  -0.036  0.00  0.00    -0.259 OA
BRANCH   7   9
ATOM      9  O   UNL d   1       3.146  -1.251  -0.776  0.00  0.00    -0.310 OA
BRANCH   9  10
ATOM     10  C   UNL d   1       3.999  -1.078  -1.903  0.00  0.00     0.263 C 
BRANCH  10  11
ATOM     11  C   UNL d   1       3.136  -0.974  -3.155  0.00  0.00     0.183 C 
ATOM     12  O   UNL d   1       1.899  -0.995  -3.120  0.00  0.00    -0.290 OA
BRANCH  11  13
ATOM     13  C   UNL d   1       3.801  -0.834  -4.490  0.00  0.00     0.012 A 
ATOM     14  C   UNL d   1       5.192  -0.753  -4.629  0.00  0.00     0.016 A 
ATOM     15  C   UNL d   1       5.765  -0.621  -5.899  0.00  0.00     0.020 A 
ATOM     16  C   UNL d   1       4.952  -0.572  -7.030  0.00  0.00     0.011 A 
ATOM     17  C   UNL d   1       3.567  -0.653  -6.908  0.00  0.00     0.020 A 
ATOM     18 BR   UNL d   1       5.734  -0.385  -8.741  0.00  0.00    -0.051 Br
ATOM     19  C   UNL d   1       2.994  -0.784  -5.641  0.00  0.00     0.016 A 
ENDBRANCH  11  13
ENDBRANCH  10  11
ENDBRANCH   9  10
ENDBRANCH   7   9
ENDBRANCH   1   7
BRANCH   2  20
ATOM     20  S   UNL d   1       1.258  -2.868   1.137  0.00  0.00    -0.089 SA
BRANCH  20  21
ATOM     21  C   UNL d   1       1.921  -2.451   2.758  0.00  0.00     0.016 C 
ATOM     22  C   UNL d   1       1.190  -1.870   3.829  0.00  0.00    -0.009 C 
ATOM     23  C   UNL d   1       1.918  -1.355   4.931  0.00  0.00    -0.028 C 
ATOM     24  C   UNL d   1      -0.217  -1.838   3.959  0.00  0.00     0.010 C 
ATOM     25  C   UNL d   1       1.298  -0.518   5.859  0.00  0.00    -0.011 C 
ATOM     26  C   UNL d   1       3.271  -1.651   5.088  0.00  0.00     0.012 C 
ATOM     27  C   UNL d   1      -0.028  -0.181   5.663  0.00  0.00     0.055 C 
ATOM     28  C   UNL d   1      -0.802  -1.103   4.984  0.00  0.00    -0.022 C 
ATOM     29  C   UNL d   1       3.943  -2.369   4.112  0.00  0.00     0.002 C 
ATOM     30  C   UNL d   1       3.287  -2.720   2.935  0.00  0.00     0.020 C 
ENDBRANCH  20  21
ENDBRANCH   2  20
TORSDOF 7
