REMARK  4 active torsions:
REMARK  status: ('A' for Active; 'I' for Inactive)
REMARK    1  A    between atoms: C_9  and  N_1 
REMARK    2  A    between atoms: N_7  and  N_2 
REMARK    3  A    between atoms: C_15  and  C_13 
REMARK    4  A    between atoms: O_23  and  C_14 
ROOT
ATOM      1  N   UNL d   1      -0.697  -1.139   0.161  0.00  0.00    -0.308 N 
ATOM      2  N   UNL d   1       0.771   1.142   0.243  0.00  0.00    -0.251 N 
ATOM      3  C   UNL d   1      -1.408   0.072   0.027  0.00  0.00     0.244 C 
ATOM      4  C   UNL d   1       1.516  -0.031   0.041  0.00  0.00     0.257 C 
ATOM      5  C   UNL d   1      -0.532   1.243  -0.404  0.00  0.00     0.255 C 
ATOM      6  C   UNL d   1       0.645  -1.186  -0.443  0.00  0.00     0.236 C 
ATOM      7  O   UNL d   1       2.737  -0.137   0.119  0.00  0.00    -0.270 OA
ATOM      8  O   UNL d   1      -2.619   0.227   0.161  0.00  0.00    -0.271 OA
ENDROOT
BRANCH   2   9
ATOM      9  N   UNL d   1       1.299   2.329   0.698  0.00  0.00    -0.306 N 
ATOM     10  C   UNL d   1       2.287   2.287   1.533  0.00  0.00     0.118 C 
ATOM     11  HN  UNL d   1       0.920   3.222   0.383  1.00  0.00     0.186 HD
BRANCH  10  12
ATOM     12  C   UNL d   1       2.826   3.523   2.138  0.00  0.00    -0.019 A 
ATOM     13  C   UNL d   1       2.297   4.774   1.804  0.00  0.00     0.014 A 
ATOM     14  C   UNL d   1       2.752   5.918   2.463  0.00  0.00     0.024 A 
ATOM     15  C   UNL d   1       3.731   5.805   3.449  0.00  0.00     0.034 A 
ATOM     16  C   UNL d   1       4.273   4.560   3.772  0.00  0.00     0.024 A 
ATOM     17 CL   UNL d   1       4.265   7.210   4.287  0.00  0.00    -0.084 Cl
ATOM     18  C   UNL d   1       3.822   3.413   3.113  0.00  0.00     0.014 A 
ENDBRANCH  10  12
ENDBRANCH   2   9
BRANCH   1  19
ATOM     19  C   UNL d   1      -1.315  -2.377   0.543  0.00  0.00     0.040 A 
ATOM     20  C   UNL d   1      -2.683  -2.619   0.340  0.00  0.00     0.066 A 
ATOM     21  C   UNL d   1      -3.261  -3.851   0.663  0.00  0.00     0.070 A 
ATOM     22  C   UNL d   1      -2.473  -4.851   1.228  0.00  0.00     0.037 A 
ATOM     23  C   UNL d   1      -1.123  -4.624   1.472  0.00  0.00     0.005 A 
ATOM     24  C   UNL d   1      -0.550  -3.397   1.132  0.00  0.00     0.030 A 
BRANCH  21  25
ATOM     25  O   UNL d   1      -4.570  -4.199   0.459  0.00  0.00    -0.356 OA
ATOM     26  C   UNL d   1      -5.411  -3.216  -0.134  0.00  0.00     0.210 C 
ENDBRANCH  21  25
ENDBRANCH   1  19
TORSDOF 4
