REMARK  2 active torsions:
REMARK  status: ('A' for Active; 'I' for Inactive)
REMARK       I    between atoms: N_3  and  C_1 
REMARK    1  A    between atoms: C_6  and  C_1 
REMARK    2  A    between atoms: C_2  and  C_5 
REMARK       I    between atoms: N_4  and  C_2 
ROOT
ATOM      1  C   UNL d   1      -1.291   3.720   0.337  0.00  0.00     0.032 C 
ATOM      2  C   UNL d   1       0.148   1.316   0.304  0.00  0.00     0.032 C 
ATOM      3  C   UNL d   1      -1.721   2.637   1.107  0.00  0.00     0.018 C 
ATOM      4  C   UNL d   1      -0.977   1.456   1.124  0.00  0.00     0.018 C 
ATOM      5  C   UNL d   1      -0.070   3.635  -0.344  0.00  0.00     0.018 C 
ATOM      6  C   UNL d   1       0.629   2.426  -0.390  0.00  0.00     0.018 C 
ENDROOT
BRANCH   1   7
ATOM      7  C   UNL d   1      -2.127   4.952   0.342  0.00  0.00     0.253 C 
ATOM      8  N   UNL d   1      -2.316   5.689  -0.836  0.00  0.00    -0.348 N 
ATOM      9  C   UNL d   1      -3.008   6.972  -0.718  0.00  0.00     0.126 C 
ATOM     10  C   UNL d   1      -1.929   5.213  -2.165  0.00  0.00     0.126 C 
ATOM     11  C   UNL d   1      -4.500   6.862  -1.025  0.00  0.00     0.020 C 
ATOM     12  C   UNL d   1      -4.825   6.820  -2.516  0.00  0.00     0.002 C 
ATOM     13  C   UNL d   1      -4.186   5.661  -3.275  0.00  0.00     0.002 C 
ATOM     14  C   UNL d   1      -2.671   5.789  -3.368  0.00  0.00     0.020 C 
ATOM     15  O   UNL d   1      -2.655   5.262   1.412  0.00  0.00    -0.267 OA
ENDBRANCH   1   7
BRANCH   2  16
ATOM     16  C   UNL d   1       0.879   0.025   0.240  0.00  0.00     0.253 C 
ATOM     17  N   UNL d   1       0.157  -1.183   0.212  0.00  0.00    -0.348 N 
ATOM     18  C   UNL d   1       0.957  -2.392   0.374  0.00  0.00     0.126 C 
ATOM     19  C   UNL d   1      -1.162  -1.310  -0.422  0.00  0.00     0.126 C 
ATOM     20  C   UNL d   1       0.192  -3.680   0.668  0.00  0.00     0.020 C 
ATOM     21  C   UNL d   1      -0.908  -3.527   1.714  0.00  0.00     0.002 C 
ATOM     22  C   UNL d   1      -2.240  -3.110   1.093  0.00  0.00     0.002 C 
ATOM     23  C   UNL d   1      -2.276  -1.683   0.558  0.00  0.00     0.020 C 
ATOM     24  O   UNL d   1       2.108   0.071   0.241  0.00  0.00    -0.267 OA
ENDBRANCH   2  16
TORSDOF 2
