REMARK  6 active torsions:
REMARK  status: ('A' for Active; 'I' for Inactive)
REMARK    1  A    between atoms: C_3  and  N_1 
REMARK    2  A    between atoms: C_4  and  C_2 
REMARK       I    between atoms: N_11  and  C_4 
REMARK    3  A    between atoms: C_10  and  C_19 
REMARK       I    between atoms: N_17  and  C_10 
REMARK    4  A    between atoms: C_19  and  N_11 
REMARK    5  A    between atoms: C_14  and  N_15 
REMARK    6  A    between atoms: N_15  and  N_17 
ROOT
ATOM      1  C   UNL d   1      -1.553   3.783  -5.114  0.00  0.00     0.141 C 
ATOM      2  C   UNL d   1      -1.713   4.096  -6.493  0.00  0.00     0.112 C 
ATOM      3  C   UNL d   1      -1.984   4.727  -4.140  0.00  0.00     0.112 C 
ATOM      4  N   UNL d   1      -1.845   4.347  -7.617  0.00  0.00    -0.191 NA
ATOM      5  N   UNL d   1      -2.325   5.478  -3.322  0.00  0.00    -0.191 NA
ATOM      6  C   UNL d   1      -1.022   2.618  -4.705  0.00  0.00     0.141 C 
ENDROOT
BRANCH   6   7
ATOM      7  N   UNL d   1      -0.539   1.551  -5.426  0.00  0.00    -0.307 N 
ATOM      8  H   UNL d   1      -0.291   1.715  -6.412  0.00  0.00     0.186 HD
BRANCH   7   9
ATOM      9  N   UNL d   1       0.240   0.567  -4.811  0.00  0.00    -0.269 N 
ATOM     10  C   UNL d   1       1.223  -0.046  -5.569  0.00  0.00     0.253 C 
ATOM     11  O   UNL d   1       1.576   0.365  -6.674  0.00  0.00    -0.270 OA
ATOM     12  H   UNL d   1      -0.141   0.091  -3.987  0.00  0.00     0.190 HD
BRANCH  10  13
ATOM     13  C   UNL d   1       1.769  -1.334  -4.948  0.00  0.00     0.227 C 
BRANCH  13  14
ATOM     14  N   UNL d   1       2.479  -1.141  -3.691  0.00  0.00    -0.348 N 
ATOM     15  C   UNL d   1       1.805  -1.037  -2.496  0.00  0.00     0.254 C 
ATOM     16  O   UNL d   1       0.597  -0.839  -2.430  0.00  0.00    -0.268 OA
ATOM     17  H   UNL d   1       3.492  -1.147  -3.734  0.00  0.00     0.163 HD
BRANCH  15  18
ATOM     18  C   UNL d   1       2.620  -1.110  -1.259  0.00  0.00     0.065 A 
ATOM     19  C   UNL d   1       3.590  -2.090  -1.027  0.00  0.00     0.118 A 
ATOM     20  C   UNL d   1       4.354  -2.113   0.147  0.00  0.00     0.037 A 
ATOM     21  C   UNL d   1       4.121  -1.147   1.124  0.00  0.00     0.002 A 
ATOM     22  C   UNL d   1       3.131  -0.180   0.928  0.00  0.00     0.001 A 
ATOM     23  C   UNL d   1       2.381  -0.162  -0.255  0.00  0.00     0.020 A 
BRANCH  19  24
ATOM     24  N   UNL d   1       3.801  -3.150  -1.984  0.00  0.00    -0.115 N 
ATOM     25  O   UNL d   1       2.865  -3.932  -2.185  0.00  0.00    -0.532 OA
ATOM     26  O   UNL d   1       4.906  -3.180  -2.541  0.00  0.00    -0.532 OA
ENDBRANCH  19  24
ENDBRANCH  15  18
ENDBRANCH  13  14
ENDBRANCH  10  13
ENDBRANCH   7   9
ENDBRANCH   6   7
TORSDOF 6
