REMARK  5 active torsions:
REMARK  status: ('A' for Active; 'I' for Inactive)
REMARK    1  A    between atoms: C_8  and  N_1 
REMARK    2  A    between atoms: S_7  and  C_2 
REMARK    3  A    between atoms: C_13  and  S_7 
REMARK    4  A    between atoms: C_9  and  C_11 
REMARK    5  A    between atoms: C_11  and  C_13 
ROOT
ATOM      1  S   UNL d   1       2.516  -1.426  -0.647  0.00  0.00    -0.084 SA
ENDROOT
BRANCH   1   2
ATOM      2  C   UNL d   1       0.935  -0.859  -0.231  0.00  0.00     0.177 C 
ATOM      3  N   UNL d   1       0.455   0.422  -0.464  0.00  0.00    -0.219 N 
ATOM      4  N   UNL d   1      -0.662   0.572   0.297  0.00  0.00     0.001 NA
ATOM      5  N   UNL d   1      -0.915  -0.618   0.823  0.00  0.00    -0.006 NA
ATOM      6  N   UNL d   1       0.072  -1.514   0.516  0.00  0.00    -0.264 N 
ATOM      7  HN  UNL d   1       0.128  -2.490   0.807  1.00  0.00     0.186 HD
BRANCH   3   8
ATOM      8  C   UNL d   1       0.863   1.455  -1.348  0.00  0.00     0.057 A 
ATOM      9  C   UNL d   1       1.577   1.174  -2.522  0.00  0.00     0.034 A 
ATOM     10  C   UNL d   1       1.880   2.203  -3.419  0.00  0.00     0.044 A 
ATOM     11  C   UNL d   1       1.488   3.506  -3.138  0.00  0.00     0.116 A 
ATOM     12  C   UNL d   1       0.794   3.804  -1.972  0.00  0.00     0.044 A 
ATOM     13  F   UNL d   1       1.767   4.481  -4.011  0.00  0.00    -0.206 F 
ATOM     14  C   UNL d   1       0.469   2.780  -1.080  0.00  0.00     0.034 A 
ENDBRANCH   3   8
ENDBRANCH   1   2
BRANCH   1  15
ATOM     15  C   UNL d   1       2.447  -3.154  -0.082  0.00  0.00     0.166 C 
BRANCH  15  16
ATOM     16  C   UNL d   1       3.796  -3.842  -0.243  0.00  0.00     0.169 C 
ATOM     17  O   UNL d   1       4.789  -3.290  -0.716  0.00  0.00    -0.291 OA
BRANCH  16  18
ATOM     18  C   UNL d   1       3.926  -5.266   0.202  0.00  0.00     0.011 A 
ATOM     19  C   UNL d   1       5.185  -5.880   0.096  0.00  0.00     0.027 A 
ATOM     20  C   UNL d   1       5.388  -7.204   0.521  0.00  0.00    -0.025 A 
ATOM     21  C   UNL d   1       6.649  -7.816   0.423  0.00  0.00     0.012 A 
ATOM     22  C   UNL d   1       4.307  -7.929   1.064  0.00  0.00    -0.026 A 
ATOM     23  C   UNL d   1       6.842  -9.125   0.868  0.00  0.00     0.001 A 
ATOM     24  C   UNL d   1       5.780  -9.836   1.415  0.00  0.00     0.001 A 
ATOM     25  C   UNL d   1       4.518  -9.245   1.510  0.00  0.00     0.012 A 
ATOM     26  C   UNL d   1       3.046  -7.317   1.151  0.00  0.00     0.013 A 
ATOM     27  C   UNL d   1       2.855  -5.997   0.724  0.00  0.00     0.016 A 
ENDBRANCH  16  18
ENDBRANCH  15  16
ENDBRANCH   1  15
TORSDOF 5
