REMARK  6 active torsions:
REMARK  status: ('A' for Active; 'I' for Inactive)
REMARK    1  A    between atoms: N_3  and  C_1 
REMARK    2  A    between atoms: N_7  and  C_1 
REMARK    3  A    between atoms: C_2  and  N_3 
REMARK    4  A    between atoms: C_14  and  N_7 
REMARK    5  A    between atoms: O_12  and  C_15 
REMARK    6  A    between atoms: C_15  and  C_14 
ROOT
ATOM      1  N   UNL d   1       0.367   0.348  -1.199  0.00  0.00    -0.333 N 
ATOM      2  H   UNL d   1       0.246  -0.514  -0.670  0.00  0.00     0.168 HD
ENDROOT
BRANCH   1   3
ATOM      3  C   UNL d   1       0.944   0.257  -2.489  0.00  0.00     0.041 A 
ATOM      4  C   UNL d   1       0.690   1.268  -3.429  0.00  0.00     0.053 A 
ATOM      5  C   UNL d   1       1.228   1.202  -4.712  0.00  0.00     0.036 A 
ATOM      6 CL   UNL d   1       0.894   2.450  -5.849  0.00  0.00    -0.084 Cl
ATOM      7  C   UNL d   1       2.031   0.132  -5.080  0.00  0.00     0.024 A 
ATOM      8  C   UNL d   1       2.265  -0.895  -4.165  0.00  0.00     0.011 A 
ATOM      9  C   UNL d   1       1.702  -0.867  -2.873  0.00  0.00    -0.035 A 
ATOM     10  C   UNL d   1       2.069  -1.984  -1.938  0.00  0.00     0.050 C 
ENDBRANCH   1   3
BRANCH   1  11
ATOM     11  C   UNL d   1       0.274   1.471  -0.412  0.00  0.00     0.172 C 
ATOM     12  S   UNL d   1       1.200   2.862  -0.502  0.00  0.00    -0.041 SA
BRANCH  11  13
ATOM     13  N   UNL d   1      -0.660   1.420   0.585  0.00  0.00    -0.365 N 
ATOM     14  H   UNL d   1      -0.690   2.257   1.155  0.00  0.00     0.161 HD
BRANCH  13  15
ATOM     15  C   UNL d   1      -1.756   0.469   0.726  0.00  0.00     0.148 C 
BRANCH  15  16
ATOM     16  C   UNL d   1      -1.357  -0.779   1.512  0.00  0.00     0.183 C 
BRANCH  16  17
ATOM     17  O   UNL d   1      -0.474  -1.595   0.741  0.00  0.00    -0.399 OA
ATOM     18  H   UNL d   1      -0.274  -2.373   1.293  0.00  0.00     0.209 HD
ENDBRANCH  16  17
ENDBRANCH  15  16
ENDBRANCH  13  15
ENDBRANCH  11  13
ENDBRANCH   1  11
TORSDOF 6
