REMARK  7 active torsions:
REMARK  status: ('A' for Active; 'I' for Inactive)
REMARK    1  A    between atoms: S_2  and  N_1 
REMARK    2  A    between atoms: S_3  and  N_1 
REMARK    3  A    between atoms: C_5  and  N_1 
REMARK    4  A    between atoms: C_11  and  S_2 
REMARK    5  A    between atoms: C_12  and  S_3 
REMARK    6  A    between atoms: S_4  and  C_6 
REMARK    7  A    between atoms: N_15  and  S_4 
ROOT
ATOM      1  N   UNL d   1       0.928  -0.131  -0.146  0.00  0.00    -0.157 N 
ENDROOT
BRANCH   1   2
ATOM      2  S   UNL d   1       0.440  -1.690   0.109  0.00  0.00     0.278 S 
ATOM      3  O   UNL d   1       1.189  -2.576  -0.765  0.00  0.00    -0.199 OA
ATOM      4  O   UNL d   1       0.469  -1.906   1.546  0.00  0.00    -0.199 OA
BRANCH   2   5
ATOM      5  C   UNL d   1      -1.253  -1.840  -0.410  0.00  0.00     0.081 A 
ATOM      6  C   UNL d   1      -1.595  -1.642  -1.751  0.00  0.00     0.025 A 
ATOM      7  C   UNL d   1      -2.931  -1.762  -2.143  0.00  0.00     0.002 A 
ATOM      8  C   UNL d   1      -3.910  -2.103  -1.208  0.00  0.00     0.000 A 
ATOM      9  C   UNL d   1      -3.558  -2.348   0.119  0.00  0.00     0.002 A 
ATOM     10  C   UNL d   1      -2.227  -2.227   0.520  0.00  0.00     0.025 A 
ENDBRANCH   2   5
ENDBRANCH   1   2
BRANCH   1  11
ATOM     11  S   UNL d   1       0.001   1.248  -0.179  0.00  0.00     0.278 S 
ATOM     12  O   UNL d   1       0.744   2.345   0.406  0.00  0.00    -0.199 OA
ATOM     13  O   UNL d   1      -0.497   1.375  -1.539  0.00  0.00    -0.199 OA
BRANCH  11  14
ATOM     14  C   UNL d   1      -1.413   1.075   0.885  0.00  0.00     0.081 A 
ATOM     15  C   UNL d   1      -1.246   0.969   2.269  0.00  0.00     0.025 A 
ATOM     16  C   UNL d   1      -2.365   1.074   3.102  0.00  0.00     0.002 A 
ATOM     17  C   UNL d   1      -3.632   1.295   2.559  0.00  0.00     0.000 A 
ATOM     18  C   UNL d   1      -3.794   1.396   1.178  0.00  0.00     0.002 A 
ATOM     19  C   UNL d   1      -2.686   1.288   0.340  0.00  0.00     0.025 A 
ENDBRANCH  11  14
ENDBRANCH   1  11
BRANCH   1  20
ATOM     20  C   UNL d   1       2.335   0.101  -0.306  0.00  0.00     0.062 A 
ATOM     21  C   UNL d   1       2.906   0.135  -1.585  0.00  0.00     0.033 A 
ATOM     22  C   UNL d   1       4.206   0.622  -1.758  0.00  0.00     0.027 A 
ATOM     23  C   UNL d   1       4.928   1.067  -0.647  0.00  0.00     0.074 A 
ATOM     24  C   UNL d   1       4.382   0.984   0.637  0.00  0.00     0.027 A 
ATOM     25  C   UNL d   1       3.093   0.480   0.808  0.00  0.00     0.033 A 
BRANCH  23  26
ATOM     26  S   UNL d   1       6.501   1.850  -0.860  0.00  0.00     0.239 S 
ATOM     27  O   UNL d   1       6.622   2.316  -2.222  0.00  0.00    -0.206 OA
ATOM     28  O   UNL d   1       6.768   2.701   0.276  0.00  0.00    -0.206 OA
BRANCH  26  29
ATOM     29  N   UNL d   1       7.549   0.550  -0.716  0.00  0.00    -0.225 NA
ATOM     30  H   UNL d   1       8.105   0.461  -1.566  0.00  0.00     0.136 HD
ATOM     31  H   UNL d   1       8.105   0.645   0.134  0.00  0.00     0.136 HD
ENDBRANCH  26  29
ENDBRANCH  23  26
ENDBRANCH   1  20
TORSDOF 7
