REMARK  3 active torsions:
REMARK  status: ('A' for Active; 'I' for Inactive)
REMARK    1  A    between atoms: C_7  and  C_2 
REMARK    2  A    between atoms: C_8  and  O_9 
REMARK    3  A    between atoms: O_9  and  C_13 
ROOT
ATOM      1  C   UNL d   1       2.436  -1.663   0.017  0.00  0.00    -0.008 A 
ATOM      2  C   UNL d   1       2.545  -2.539  -1.075  0.00  0.00     0.016 A 
ATOM      3  C   UNL d   1       3.467  -1.641   0.968  0.00  0.00     0.016 A 
ATOM      4  C   UNL d   1       4.657  -3.358  -0.249  0.00  0.00     0.079 A 
ATOM      5  C   UNL d   1       4.576  -2.482   0.834  0.00  0.00     0.038 A 
ATOM      6  C   UNL d   1       3.658  -3.376  -1.217  0.00  0.00     0.038 A 
ENDROOT
BRANCH   1   7
ATOM      7  C   UNL d   1       1.254  -0.818   0.150  0.00  0.00     0.063 A 
ATOM      8  N   UNL d   1       0.031  -1.198  -0.398  0.00  0.00    -0.292 N 
ATOM      9  N   UNL d   1      -0.919  -0.311  -0.155  0.00  0.00    -0.061 NA
ATOM     10  HN  UNL d   1      -0.114  -2.059  -0.925  1.00  0.00     0.183 HD
ATOM     11  S   UNL d   1      -0.371   1.005   0.716  0.00  0.00    -0.010 SA
ATOM     12  C   UNL d   1       1.234   0.404   0.801  0.00  0.00     0.096 A 
ENDBRANCH   1   7
BRANCH   4  13
ATOM     13  O   UNL d   1       5.822  -4.152  -0.307  0.00  0.00    -0.279 OA
BRANCH  13  14
ATOM     14  C   UNL d   1       5.817  -5.436  -0.852  0.00  0.00     0.260 C 
ATOM     15  O   UNL d   1       4.863  -6.021  -1.349  0.00  0.00    -0.265 OA
ATOM     16  C   UNL d   1       7.189  -6.034  -0.740  0.00  0.00     0.126 C 
ENDBRANCH  13  14
ENDBRANCH   4  13
TORSDOF 3
