REMARK  4 active torsions:
REMARK  status: ('A' for Active; 'I' for Inactive)
REMARK       I    between atoms: C_6  and  N_1 
REMARK    1  A    between atoms: C_9  and  C_3 
REMARK    2  A    between atoms: C_8  and  C_6 
REMARK    3  A    between atoms: O_15  and  C_9 
REMARK    4  A    between atoms: C_21  and  O_15 
ROOT
ATOM      1  N   UNL d   1       0.967  -0.538   0.017  0.00  0.00    -0.203 N 
ATOM      2  C   UNL d   1      -0.318  -0.754  -0.482  0.00  0.00     0.142 A 
ATOM      3  C   UNL d   1      -1.010   0.432  -0.335  0.00  0.00     0.101 A 
ATOM      4  N   UNL d   1       1.100   0.728   0.512  0.00  0.00    -0.300 N 
ATOM      5  HN  UNL d   1       1.925   1.151   0.938  1.00  0.00     0.186 HD
ATOM      6  C   UNL d   1       2.070  -1.428  -0.001  0.00  0.00     0.279 C 
ATOM      7  C   UNL d   1      -0.095   1.287   0.311  0.00  0.00     0.129 A 
ATOM      8  O   UNL d   1       1.826  -2.624  -0.157  0.00  0.00    -0.265 OA
ATOM      9  N   UNL d   1      -0.699  -1.906  -1.080  0.00  0.00    -0.383 N 
ATOM     10  H   UNL d   1      -0.138  -2.760  -0.997  0.00  0.00     0.157 HD
ATOM     11  H   UNL d   1      -1.658  -2.045  -1.401  0.00  0.00     0.157 HD
ENDROOT
BRANCH   6  12
ATOM     12  C   UNL d   1       3.496  -0.980   0.039  0.00  0.00     0.045 A 
ATOM     13  C   UNL d   1       4.509  -1.732   0.700  0.00  0.00    -0.010 A 
ATOM     14  C   UNL d   1       5.859  -1.328   0.522  0.00  0.00    -0.025 A 
ATOM     15  C   UNL d   1       4.275  -2.857   1.529  0.00  0.00     0.013 A 
ATOM     16  C   UNL d   1       6.900  -2.047   1.133  0.00  0.00     0.012 A 
ATOM     17  C   UNL d   1       6.164  -0.212  -0.270  0.00  0.00     0.012 A 
ATOM     18  C   UNL d   1       6.635  -3.153   1.936  0.00  0.00     0.001 A 
ATOM     19  C   UNL d   1       5.322  -3.556   2.138  0.00  0.00     0.001 A 
ATOM     20  C   UNL d   1       5.160   0.525  -0.888  0.00  0.00     0.002 A 
ATOM     21  C   UNL d   1       3.834   0.140  -0.741  0.00  0.00     0.018 A 
ENDBRANCH   6  12
BRANCH   3  22
ATOM     22  C   UNL d   1      -2.341   0.707  -0.828  0.00  0.00     0.298 C 
ATOM     23  O   UNL d   1      -3.036  -0.122  -1.405  0.00  0.00    -0.259 OA
BRANCH  22  24
ATOM     24  O   UNL d   1      -2.681   2.021  -0.679  0.00  0.00    -0.318 OA
BRANCH  24  25
ATOM     25  C   UNL d   1      -3.720   2.475  -1.559  0.00  0.00     0.174 C 
ATOM     26  C   UNL d   1      -3.061   2.977  -2.832  0.00  0.00     0.034 C 
ENDBRANCH  24  25
ENDBRANCH  22  24
ENDBRANCH   3  22
TORSDOF 4
