REMARK  2 active torsions:
REMARK  status: ('A' for Active; 'I' for Inactive)
REMARK    1  A    between atoms: C_13  and  N_6 
REMARK    2  A    between atoms: C_12  and  C_13 
ROOT
ATOM      1  N   UNL d   1      -0.936   0.463  -0.000  0.00  0.00    -0.248 N 
ATOM      2  C   UNL d   1      -1.782  -0.583   0.147  0.00  0.00     0.117 A 
ATOM      3  C   UNL d   1      -1.743   1.573  -0.167  0.00  0.00     0.349 A 
ATOM      4  N   UNL d   1      -3.050  -0.280   0.102  0.00  0.00    -0.281 N 
ATOM      5  HN  UNL d   1      -3.850  -0.905   0.198  1.00  0.00     0.188 HD
ATOM      6  N   UNL d   1      -3.053   1.079  -0.105  0.00  0.00    -0.237 N 
ATOM      7  C   UNL d   1       0.473   0.393  -0.000  0.00  0.00     0.062 A 
ATOM      8  S   UNL d   1       0.213  -2.366  -0.445  0.00  0.00    -0.120 SA
ATOM      9  C   UNL d   1      -1.297  -1.965   0.453  0.00  0.00     0.158 C 
ATOM     10  C   UNL d   1       1.117  -0.853  -0.144  0.00  0.00     0.028 A 
ATOM     11  O   UNL d   1      -1.427   2.737  -0.362  0.00  0.00    -0.244 OA
ATOM     12  C   UNL d   1       1.265   1.542   0.134  0.00  0.00     0.031 A 
ATOM     13  C   UNL d   1       2.517  -0.930  -0.137  0.00  0.00     0.021 A 
ATOM     14  C   UNL d   1       2.660   1.455   0.154  0.00  0.00     0.002 A 
ATOM     15  C   UNL d   1       3.286   0.220   0.024  0.00  0.00     0.002 A 
ENDROOT
BRANCH   6  16
ATOM     16  C   UNL d   1      -4.263   1.848  -0.259  0.00  0.00     0.180 C 
BRANCH  16  17
ATOM     17  C   UNL d   1      -4.748   2.296   1.088  0.00  0.00    -0.015 C 
ATOM     18  C   UNL d   1      -4.932   3.576   1.439  0.00  0.00     0.008 C 
ENDBRANCH  16  17
ENDBRANCH   6  16
TORSDOF 2
