REMARK  5 active torsions:
REMARK  status: ('A' for Active; 'I' for Inactive)
REMARK    1  A    between atoms: C_2  and  C_1 
REMARK       I    between atoms: N_12  and  C_2 
REMARK    2  A    between atoms: N_3  and  C_4 
REMARK    3  A    between atoms: C_7  and  N_3 
REMARK    4  A    between atoms: C_5  and  C_7 
REMARK    5  A    between atoms: C_6  and  C_5 
ROOT
ATOM      1  N   UNL d   1       1.111  -2.611   0.069  0.00  0.00    -0.382 N 
ATOM      2  H   UNL d   1       0.476  -3.267   0.527  0.00  0.00     0.160 HD
ENDROOT
BRANCH   1   3
ATOM      3  C   UNL d   1       0.688  -1.288   0.115  0.00  0.00     0.044 A 
ATOM      4  C   UNL d   1       1.454  -0.102   0.182  0.00  0.00     0.058 A 
ATOM      5  C   UNL d   1       0.828   1.163   0.113  0.00  0.00     0.019 A 
ATOM      6  C   UNL d   1      -0.552   1.282  -0.021  0.00  0.00     0.001 A 
ATOM      7  C   UNL d   1      -1.323   0.136  -0.092  0.00  0.00     0.002 A 
ATOM      8  C   UNL d   1      -0.710  -1.119  -0.033  0.00  0.00     0.030 A 
BRANCH   4   9
ATOM      9  C   UNL d   1       2.927  -0.037   0.364  0.00  0.00     0.251 C 
ATOM     10  O   UNL d   1       3.735  -0.537  -0.407  0.00  0.00    -0.268 OA
ATOM     11  N   UNL d   1       3.359   0.698   1.438  0.00  0.00    -0.366 N 
ATOM     12  H   UNL d   1       2.730   1.145   2.091  0.00  0.00     0.159 HD
ATOM     13  H   UNL d   1       4.357   0.804   1.569  0.00  0.00     0.159 HD
ENDBRANCH   4   9
ENDBRANCH   1   3
BRANCH   1  14
ATOM     14  C   UNL d   1       2.489  -3.071   0.089  0.00  0.00     0.203 C 
BRANCH  14  15
ATOM     15  C   UNL d   1       2.515  -4.595  -0.057  0.00  0.00     0.176 C 
ATOM     16  O   UNL d   1       1.927  -5.347   0.720  0.00  0.00    -0.291 OA
BRANCH  15  17
ATOM     17  C   UNL d   1       3.303  -5.174  -1.181  0.00  0.00     0.011 A 
ATOM     18  C   UNL d   1       4.042  -6.341  -0.951  0.00  0.00     0.017 A 
ATOM     19  C   UNL d   1       4.826  -6.885  -1.973  0.00  0.00     0.025 A 
ATOM     20  C   UNL d   1       4.858  -6.268  -3.224  0.00  0.00     0.034 A 
ATOM     21  C   UNL d   1       4.100  -5.125  -3.467  0.00  0.00     0.025 A 
ATOM     22 CL   UNL d   1       5.839  -6.924  -4.474  0.00  0.00    -0.084 Cl
ATOM     23  C   UNL d   1       3.316  -4.577  -2.448  0.00  0.00     0.017 A 
ENDBRANCH  15  17
ENDBRANCH  14  15
ENDBRANCH   1  14
TORSDOF 5
