REMARK  4 active torsions:
REMARK  status: ('A' for Active; 'I' for Inactive)
REMARK    1  A    between atoms: N_10  and  C_4 
REMARK    2  A    between atoms: C_8  and  C_13 
REMARK    3  A    between atoms: C_23  and  C_16 
REMARK    4  A    between atoms: O_28  and  C_24 
ROOT
ATOM      1  C   UNL d   1      -1.042   0.393  -0.017  0.00  0.00     0.058 A 
ATOM      2  N   UNL d   1      -1.853   1.497  -0.207  0.00  0.00    -0.335 N 
ATOM      3  HN  UNL d   1      -1.520   2.451  -0.349  1.00  0.00     0.168 HD
ATOM      4  C   UNL d   1      -3.127   1.135  -0.176  0.00  0.00     0.149 A 
ATOM      5  C   UNL d   1      -1.709  -0.796   0.189  0.00  0.00     0.014 A 
ATOM      6  S   UNL d   1      -3.384  -0.556   0.141  0.00  0.00    -0.056 SA
ATOM      7  C   UNL d   1       0.419   0.380  -0.030  0.00  0.00    -0.002 A 
ATOM      8  C   UNL d   1       1.081  -0.867  -0.138  0.00  0.00    -0.043 A 
ATOM      9  C   UNL d   1       1.180   1.545   0.096  0.00  0.00     0.017 A 
ATOM     10  C   UNL d   1      -1.051  -2.110   0.426  0.00  0.00     0.053 C 
ATOM     11  C   UNL d   1       2.480  -0.918  -0.128  0.00  0.00     0.044 A 
ATOM     12  C   UNL d   1       0.284  -2.145  -0.333  0.00  0.00     0.045 C 
ATOM     13  C   UNL d   1       3.237   0.245   0.018  0.00  0.00     0.068 A 
ATOM     14  C   UNL d   1       2.585   1.477   0.126  0.00  0.00     0.037 A 
ENDROOT
BRANCH   4  15
ATOM     15  N   UNL d   1      -4.244   1.888  -0.383  0.00  0.00    -0.346 N 
ATOM     16  C   UNL d   1      -4.042   3.136  -0.637  0.00  0.00     0.101 C 
ATOM     17  HN  UNL d   1      -5.182   1.489  -0.340  1.00  0.00     0.167 HD
BRANCH  16  18
ATOM     18  C   UNL d   1      -5.152   4.066  -0.956  0.00  0.00    -0.021 A 
ATOM     19  C   UNL d   1      -6.483   3.640  -1.005  0.00  0.00     0.013 A 
ATOM     20  C   UNL d   1      -7.489   4.533  -1.398  0.00  0.00     0.017 A 
ATOM     21  C   UNL d   1      -7.173   5.856  -1.749  0.00  0.00     0.048 A 
ATOM     22  C   UNL d   1      -5.837   6.280  -1.656  0.00  0.00     0.017 A 
ATOM     23  C   UNL d   1      -4.833   5.391  -1.263  0.00  0.00     0.013 A 
BRANCH  21  24
ATOM     24  C   UNL d   1      -8.228   6.816  -2.249  0.00  0.00     0.417 C 
ATOM     25  F   UNL d   1      -9.470   6.266  -2.346  0.00  0.00    -0.166 F 
ATOM     26  F   UNL d   1      -8.363   7.909  -1.448  0.00  0.00    -0.166 F 
ATOM     27  F   UNL d   1      -7.937   7.299  -3.490  0.00  0.00    -0.166 F 
ENDBRANCH  21  24
ENDBRANCH  16  18
ENDBRANCH   4  15
BRANCH  13  28
ATOM     28  O   UNL d   1       4.586   0.027   0.036  0.00  0.00    -0.356 OA
ATOM     29  C   UNL d   1       5.432   1.153   0.220  0.00  0.00     0.210 C 
ENDBRANCH  13  28
TORSDOF 4
