REMARK  3 active torsions:
REMARK  status: ('A' for Active; 'I' for Inactive)
REMARK       I    between atoms: N_2  and  C_1 
REMARK       I    between atoms: N_4  and  C_1 
REMARK    1  A    between atoms: C_6  and  N_3 
REMARK    2  A    between atoms: C_5  and  N_4 
REMARK    3  A    between atoms: O_20  and  C_17 
ROOT
ATOM      1  C   UNL d   1       1.171  -0.068  -0.088  0.00  0.00     0.323 C 
ATOM      2  N   UNL d   1       0.671  -0.843   0.962  0.00  0.00    -0.331 N 
ATOM      3  N   UNL d   1      -0.427  -2.042   3.340  0.00  0.00    -0.376 N 
ATOM      4  N   UNL d   1       0.576  -0.290  -1.314  0.00  0.00    -0.309 N 
ATOM      5  O   UNL d   1       2.082   0.734   0.097  0.00  0.00    -0.247 OA
ATOM      6  C   UNL d   1       1.195  -0.506   2.303  0.00  0.00     0.147 C 
ATOM      7  C   UNL d   1      -0.670  -1.454   0.970  0.00  0.00     0.147 C 
ATOM      8  C   UNL d   1       0.981  -1.606   3.368  0.00  0.00     0.143 C 
ATOM      9  C   UNL d   1      -0.825  -2.559   2.024  0.00  0.00     0.143 C 
ATOM     10  H   UNL d   1      -0.066  -1.057  -1.375  0.00  0.00     0.170 HD
ENDROOT
BRANCH   4  11
ATOM     11  C   UNL d   1       0.854   0.349  -2.542  0.00  0.00     0.039 A 
ATOM     12  C   UNL d   1       1.806   1.359  -2.712  0.00  0.00     0.053 A 
ATOM     13  C   UNL d   1       2.027   1.909  -3.976  0.00  0.00     0.037 A 
ATOM     14 CL   UNL d   1       3.219   3.137  -4.174  0.00  0.00    -0.084 Cl
ATOM     15  C   UNL d   1       1.301   1.481  -5.082  0.00  0.00     0.048 A 
ATOM     16  C   UNL d   1       0.346   0.487  -4.914  0.00  0.00     0.037 A 
ATOM     17  C   UNL d   1       0.120  -0.077  -3.658  0.00  0.00     0.053 A 
ATOM     18 CL   UNL d   1      -0.570  -0.053  -6.261  0.00  0.00    -0.084 Cl
ENDBRANCH   4  11
BRANCH   3  19
ATOM     19  C   UNL d   1      -1.013  -2.572   4.489  0.00  0.00     0.064 A 
ATOM     20  C   UNL d   1      -1.097  -1.863   5.710  0.00  0.00     0.094 A 
ATOM     21  C   UNL d   1      -1.826  -2.367   6.798  0.00  0.00     0.039 A 
ATOM     22  C   UNL d   1      -2.486  -3.589   6.707  0.00  0.00     0.003 A 
ATOM     23  C   UNL d   1      -2.375  -4.335   5.544  0.00  0.00     0.002 A 
ATOM     24  C   UNL d   1      -1.645  -3.833   4.460  0.00  0.00     0.032 A 
BRANCH  20  25
ATOM     25  O   UNL d   1      -0.442  -0.684   5.969  0.00  0.00    -0.354 OA
ATOM     26  C   UNL d   1      -0.892   0.416   5.187  0.00  0.00     0.210 C 
ENDBRANCH  20  25
ENDBRANCH   3  19
TORSDOF 3
