REMARK  2 active torsions:
REMARK  status: ('A' for Active; 'I' for Inactive)
REMARK    1  A    between atoms: C_8  and  N_1 
REMARK    2  A    between atoms: C_7  and  C_2 
ROOT
ATOM      1  N   UNL d   1      -0.187  -1.332  -0.108  0.00  0.00    -0.239 N 
ATOM      2  C   UNL d   1       0.997  -0.697   0.044  0.00  0.00     0.147 A 
ATOM      3  N   UNL d   1       0.890   0.592   0.108  0.00  0.00    -0.238 N 
ATOM      4  HN  UNL d   1       1.640   1.269   0.245  1.00  0.00     0.196 HD
ATOM      5  C   UNL d   1      -1.126  -0.355  -0.203  0.00  0.00     0.395 A 
ATOM      6  O   UNL d   1      -0.498   0.862  -0.055  0.00  0.00    -0.179 OA
ATOM      7  O   UNL d   1      -2.334  -0.472  -0.349  0.00  0.00    -0.235 OA
ENDROOT
BRANCH   2   8
ATOM      8  C   UNL d   1       2.313  -1.377   0.044  0.00  0.00     0.012 A 
ATOM      9  C   UNL d   1       2.553  -2.512  -0.742  0.00  0.00     0.039 A 
ATOM     10  C   UNL d   1       3.807  -3.119  -0.720  0.00  0.00     0.035 A 
ATOM     11 CL   UNL d   1       4.076  -4.545  -1.644  0.00  0.00    -0.084 Cl
ATOM     12  C   UNL d   1       4.843  -2.581   0.040  0.00  0.00     0.024 A 
ATOM     13  C   UNL d   1       4.623  -1.420   0.782  0.00  0.00     0.003 A 
ATOM     14  C   UNL d   1       3.362  -0.818   0.783  0.00  0.00     0.015 A 
ENDBRANCH   2   8
BRANCH   1  15
ATOM     15  C   UNL d   1      -0.492  -2.700  -0.004  0.00  0.00     0.046 A 
ATOM     16  C   UNL d   1      -1.302  -3.311  -0.968  0.00  0.00     0.030 A 
ATOM     17  C   UNL d   1      -1.534  -4.687  -0.920  0.00  0.00     0.002 A 
ATOM     18  C   UNL d   1      -1.000  -5.450   0.116  0.00  0.00     0.000 A 
ATOM     19  C   UNL d   1      -0.230  -4.842   1.105  0.00  0.00     0.002 A 
ATOM     20  C   UNL d   1       0.034  -3.473   1.041  0.00  0.00     0.030 A 
ENDBRANCH   1  15
TORSDOF 2
