REMARK  3 active torsions:
REMARK  status: ('A' for Active; 'I' for Inactive)
REMARK    1  A    between atoms: N_8  and  N_1 
REMARK    2  A    between atoms: C_7  and  N_8 
REMARK    3  A    between atoms: C_16  and  N_11 
ROOT
ATOM      1  N   UNL d   1      -0.278   3.155  -0.523  0.00  0.00    -0.222 N 
ATOM      2  C   UNL d   1       0.973   4.189  -2.371  0.00  0.00     0.120 C 
ATOM      3  C   UNL d   1       0.282   2.988  -1.795  0.00  0.00     0.288 C 
ATOM      4  C   UNL d   1       1.073   5.315  -1.636  0.00  0.00    -0.034 C 
ATOM      5  C   UNL d   1       0.023   4.237   0.293  0.00  0.00     0.034 C 
ATOM      6  C   UNL d   1       0.650   5.303  -0.248  0.00  0.00     0.035 C 
ATOM      7  C   UNL d   1       1.464   4.092  -3.701  0.00  0.00     0.105 C 
ATOM      8  N   UNL d   1       1.906   4.063  -4.775  0.00  0.00    -0.191 NA
ATOM      9  O   UNL d   1       0.210   1.925  -2.413  0.00  0.00    -0.265 OA
ATOM     10  C   UNL d   1       1.624   6.619  -2.164  0.00  0.00     0.050 C 
ATOM     11  C   UNL d   1      -0.302   4.214   1.758  0.00  0.00     0.070 C 
ENDROOT
BRANCH   1  12
ATOM     12  N   UNL d   1      -1.180   2.111  -0.102  0.00  0.00    -0.267 N 
ATOM     13  H   UNL d   1      -0.884   1.210  -0.468  0.00  0.00     0.190 HD
BRANCH  12  14
ATOM     14  C   UNL d   1      -2.542   2.326  -0.153  0.00  0.00     0.187 C 
ATOM     15  N   UNL d   1      -3.366   1.245  -0.131  0.00  0.00    -0.361 N 
ATOM     16  H   UNL d   1      -4.338   1.540  -0.115  0.00  0.00     0.162 HD
ATOM     17  S   UNL d   1      -3.335   3.807  -0.165  0.00  0.00    -0.040 SA
BRANCH  15  18
ATOM     18  C   UNL d   1      -3.191  -0.213  -0.202  0.00  0.00     0.083 C 
ATOM     19  C   UNL d   1      -2.557  -0.791   1.062  0.00  0.00     0.025 C 
ATOM     20  C   UNL d   1      -2.739  -2.309   1.159  0.00  0.00     0.002 C 
ATOM     21  C   UNL d   1      -1.641  -3.107   0.467  0.00  0.00     0.000 C 
ATOM     22  C   UNL d   1      -1.558  -2.946  -1.046  0.00  0.00     0.000 C 
ATOM     23  C   UNL d   1      -1.361  -1.514  -1.543  0.00  0.00     0.002 C 
ATOM     24  C   UNL d   1      -2.641  -0.681  -1.558  0.00  0.00     0.025 C 
ENDBRANCH  15  18
ENDBRANCH  12  14
ENDBRANCH   1  12
TORSDOF 3
