REMARK  4 active torsions:
REMARK  status: ('A' for Active; 'I' for Inactive)
REMARK    1  A    between atoms: C_3  and  N_1 
REMARK    2  A    between atoms: O_19  and  C_7 
REMARK    3  A    between atoms: C_10  and  C_11 
REMARK    4  A    between atoms: C_21  and  O_19 
ROOT
ATOM      1  C   UNL d   1      -0.512  -2.441   0.055  0.00  0.00     0.154 A 
ATOM      2  N   UNL d   1       0.392  -3.285   0.624  0.00  0.00    -0.348 N 
ATOM      3  HN  UNL d   1       1.313  -2.942   0.896  1.00  0.00     0.167 HD
ATOM      4  C   UNL d   1      -1.159  -5.127   0.484  0.00  0.00     0.065 A 
ATOM      5  C   UNL d   1      -1.764  -2.926  -0.355  0.00  0.00     0.081 A 
ATOM      6  C   UNL d   1      -2.078  -4.275  -0.130  0.00  0.00     0.045 A 
ATOM      7  C   UNL d   1       0.063  -4.582   0.829  0.00  0.00     0.106 A 
ATOM      8 CL   UNL d   1      -2.973  -2.014  -1.192  0.00  0.00    -0.080 Cl
ENDROOT
BRANCH   1   9
ATOM      9  N   UNL d   1      -0.128  -1.083  -0.050  0.00  0.00    -0.177 N 
ATOM     10  C   UNL d   1       1.131  -0.561   0.191  0.00  0.00     0.396 A 
ATOM     11  O   UNL d   1       1.004   0.799   0.132  0.00  0.00    -0.219 OA
ATOM     12  O   UNL d   1       2.204  -1.111   0.395  0.00  0.00    -0.235 OA
ATOM     13  C   UNL d   1      -0.299   0.976  -0.157  0.00  0.00     0.289 A 
ATOM     14  N   UNL d   1      -1.030  -0.079  -0.277  0.00  0.00    -0.246 N 
ATOM     15  HN  UNL d   1      -2.025  -0.148  -0.488  1.00  0.00     0.192 HD
BRANCH  13  16
ATOM     16  O   UNL d   1      -0.657   2.267  -0.296  0.00  0.00    -0.315 OA
BRANCH  16  17
ATOM     17  C   UNL d   1      -1.955   2.478  -0.866  0.00  0.00     0.175 C 
ATOM     18  C   UNL d   1      -2.270   3.961  -0.813  0.00  0.00     0.034 C 
ENDBRANCH  16  17
ENDBRANCH  13  16
ENDBRANCH   1   9
BRANCH   4  19
ATOM     19  C   UNL d   1      -1.452  -6.567   0.769  0.00  0.00     0.418 C 
ATOM     20  F   UNL d   1      -2.699  -6.949   0.376  0.00  0.00    -0.166 F 
ATOM     21  F   UNL d   1      -0.588  -7.410   0.144  0.00  0.00    -0.166 F 
ATOM     22  F   UNL d   1      -1.374  -6.860   2.095  0.00  0.00    -0.166 F 
ENDBRANCH   4  19
TORSDOF 4
