REMARK  4 active torsions:
REMARK  status: ('A' for Active; 'I' for Inactive)
REMARK    1  A    between atoms: N_3  and  C_6 
REMARK    2  A    between atoms: C_4  and  N_3 
REMARK    3  A    between atoms: C_6  and  C_5 
REMARK    4  A    between atoms: O_12  and  C_7 
ROOT
ATOM      1  N   UNL d   1      -0.710   3.611  -0.357  0.00  0.00    -0.287 NA
ATOM      2  H   UNL d   1      -1.396   2.904  -0.083  0.00  0.00     0.128 HD
ENDROOT
BRANCH   1   3
ATOM      3  C   UNL d   1      -0.111   3.224  -1.636  0.00  0.00     0.149 C 
BRANCH   3   4
ATOM      4  C   UNL d   1      -0.138   1.712  -1.804  0.00  0.00     0.022 A 
ATOM      5  N   UNL d   1      -1.167   1.029  -1.228  0.00  0.00    -0.368 N 
ATOM      6  C   UNL d   1      -1.210  -0.307  -1.423  0.00  0.00     0.088 A 
ATOM      7  HN  UNL d   1      -1.876   1.507  -0.672  1.00  0.00     0.165 HD
ATOM      8  C   UNL d   1      -0.283  -1.006  -2.178  0.00  0.00     0.017 A 
ATOM      9  C   UNL d   1       0.751  -0.294  -2.773  0.00  0.00     0.003 A 
ATOM     10  C   UNL d   1       0.826   1.084  -2.591  0.00  0.00     0.026 A 
ENDBRANCH   3   4
ENDBRANCH   1   3
BRANCH   1  11
ATOM     11  C   UNL d   1      -1.192   4.916  -0.225  0.00  0.00     0.008 A 
ATOM     12  C   UNL d   1      -2.204   5.179   0.709  0.00  0.00     0.026 A 
ATOM     13  C   UNL d   1      -2.696   6.476   0.910  0.00  0.00     0.038 A 
ATOM     14  C   UNL d   1      -2.160   7.544   0.198  0.00  0.00     0.068 A 
ATOM     15  C   UNL d   1      -1.109   7.304  -0.687  0.00  0.00     0.038 A 
ATOM     16  C   UNL d   1      -0.619   6.010  -0.881  0.00  0.00     0.026 A 
BRANCH  14  17
ATOM     17  O   UNL d   1      -2.552   8.851   0.273  0.00  0.00    -0.356 OA
ATOM     18  C   UNL d   1      -3.621   9.152   1.160  0.00  0.00     0.210 C 
ENDBRANCH  14  17
ENDBRANCH   1  11
TORSDOF 4
