REMARK  2 active torsions:
REMARK  status: ('A' for Active; 'I' for Inactive)
REMARK    1  A    between atoms: C_4  and  N_1 
REMARK    2  A    between atoms: S_10  and  C_8 
ROOT
ATOM      1  C   UNL d   1       0.233  -2.370  -0.010  0.00  0.00     0.060 A 
ATOM      2  C   UNL d   1       0.890  -3.128   0.980  0.00  0.00     0.027 A 
ATOM      3  C   UNL d   1      -0.561  -3.016  -0.978  0.00  0.00     0.031 A 
ATOM      4  C   UNL d   1       0.705  -4.523   0.984  0.00  0.00     0.021 A 
ATOM      5  C   UNL d   1      -0.717  -4.401  -0.963  0.00  0.00     0.002 A 
ATOM      6  C   UNL d   1      -0.092  -5.153   0.024  0.00  0.00     0.002 A 
ENDROOT
BRANCH   1   7
ATOM      7  N   UNL d   1       0.377  -0.959  -0.111  0.00  0.00    -0.265 N 
ATOM      8  C   UNL d   1      -0.667  -0.078   0.103  0.00  0.00     0.148 A 
ATOM      9  S   UNL d   1      -0.139   1.565  -0.220  0.00  0.00    -0.090 SA
ATOM     10  S   UNL d   1      -2.213  -0.391   0.659  0.00  0.00    -0.052 SA
ATOM     11  C   UNL d   1       1.542   1.068  -0.624  0.00  0.00     0.185 A 
ATOM     12  C   UNL d   1       1.571  -0.435  -0.580  0.00  0.00     0.239 A 
ATOM     13  O   UNL d   1       2.549  -1.071  -0.965  0.00  0.00    -0.272 OA
ENDBRANCH   1   7
BRANCH   2  14
ATOM     14  S   UNL d   1       2.003  -2.501   2.244  0.00  0.00    -0.132 SA
ATOM     15  C   UNL d   1       1.050  -1.155   2.991  0.00  0.00     0.095 C 
ENDBRANCH   2  14
TORSDOF 2
