REMARK  5 active torsions:
REMARK  status: ('A' for Active; 'I' for Inactive)
REMARK       I    between atoms: N_2  and  C_1 
REMARK    1  A    between atoms: C_9  and  C_1 
REMARK    2  A    between atoms: C_10  and  N_2 
REMARK    3  A    between atoms: C_3  and  C_4 
REMARK    4  A    between atoms: S_5  and  C_9 
REMARK    5  A    between atoms: C_11  and  S_5 
ROOT
ATOM      1  C   UNL d   1      -0.859   0.222  -1.162  0.00  0.00     0.231 C 
ATOM      2  N   UNL d   1       0.183  -0.669  -1.023  0.00  0.00    -0.327 N 
ATOM      3  O   UNL d   1      -1.569   0.331  -2.164  0.00  0.00    -0.272 OA
ATOM      4  H   UNL d   1       0.605  -0.743  -0.102  0.00  0.00     0.169 HD
ENDROOT
BRANCH   2   5
ATOM      5  C   UNL d   1       0.749  -1.462  -2.051  0.00  0.00     0.034 A 
ATOM      6  C   UNL d   1       0.421  -1.318  -3.399  0.00  0.00     0.030 A 
ATOM      7  C   UNL d   1       1.081  -2.059  -4.388  0.00  0.00     0.010 A 
ATOM      8  C   UNL d   1       2.093  -2.979  -4.071  0.00  0.00    -0.051 A 
ATOM      9  C   UNL d   1       2.378  -3.155  -2.707  0.00  0.00     0.010 A 
ATOM     10  C   UNL d   1       1.724  -2.402  -1.714  0.00  0.00     0.030 A 
BRANCH   8  11
ATOM     11  C   UNL d   1       2.857  -3.697  -5.197  0.00  0.00    -0.024 C 
ATOM     12  C   UNL d   1       3.941  -4.670  -4.683  0.00  0.00     0.019 C 
ATOM     13  C   UNL d   1       1.886  -4.512  -6.079  0.00  0.00     0.019 C 
ATOM     14  C   UNL d   1       3.569  -2.650  -6.085  0.00  0.00     0.019 C 
ENDBRANCH   8  11
ENDBRANCH   2   5
BRANCH   1  15
ATOM     15  C   UNL d   1      -1.219   1.056   0.053  0.00  0.00     0.182 C 
BRANCH  15  16
ATOM     16  S   UNL d   1       0.201   1.674   0.999  0.00  0.00    -0.121 SA
BRANCH  16  17
ATOM     17  C   UNL d   1      -0.627   2.570   2.318  0.00  0.00     0.001 A 
ATOM     18  C   UNL d   1       0.023   2.667   3.554  0.00  0.00     0.019 A 
ATOM     19  C   UNL d   1      -0.594   3.296   4.641  0.00  0.00     0.008 A 
ATOM     20  C   UNL d   1      -1.875   3.849   4.511  0.00  0.00    -0.062 A 
ATOM     21  C   UNL d   1      -2.504   3.797   3.267  0.00  0.00     0.008 A 
ATOM     22  C   UNL d   1      -2.558   4.458   5.698  0.00  0.00     0.048 C 
ATOM     23  C   UNL d   1      -1.882   3.173   2.180  0.00  0.00     0.019 A 
ENDBRANCH  16  17
ENDBRANCH  15  16
ENDBRANCH   1  15
TORSDOF 5
