REMARK  4 active torsions:
REMARK  status: ('A' for Active; 'I' for Inactive)
REMARK    1  A    between atoms: C_3  and  C_1 
REMARK    2  A    between atoms: N_4  and  C_2 
REMARK       I    between atoms: N_6  and  C_3 
REMARK       I    between atoms: C_5  and  N_4 
REMARK    3  A    between atoms: C_8  and  C_5 
REMARK    4  A    between atoms: C_12  and  N_6 
ROOT
ATOM      1  C   UNL d   1       0.011   2.499   0.139  0.00  0.00     0.061 C 
ATOM      2  C   UNL d   1      -1.165   1.829  -0.259  0.00  0.00     0.068 C 
ATOM      3  C   UNL d   1      -1.068   0.464  -0.592  0.00  0.00     0.040 C 
ATOM      4  C   UNL d   1       0.100  -0.259  -0.336  0.00  0.00     0.040 C 
ATOM      5  C   UNL d   1       1.165   1.759   0.451  0.00  0.00     0.038 C 
ATOM      6  C   UNL d   1       1.190   0.383   0.242  0.00  0.00     0.013 C 
ATOM      7 BR   UNL d   1      -2.530  -0.469  -1.374  0.00  0.00    -0.049 Br
ATOM      8 BR   UNL d   1       2.732  -0.607   0.697  0.00  0.00    -0.051 Br
ENDROOT
BRANCH   1   9
ATOM      9  C   UNL d   1       0.201   3.978   0.072  0.00  0.00     0.258 C 
ATOM     10  N   UNL d   1      -0.598   4.645  -0.852  0.00  0.00    -0.321 N 
ATOM     11  H   UNL d   1      -1.462   4.171  -1.083  0.00  0.00     0.169 HD
ATOM     12  O   UNL d   1       1.050   4.507   0.781  0.00  0.00    -0.267 OA
BRANCH  10  13
ATOM     13  C   UNL d   1      -0.614   6.050  -0.954  0.00  0.00     0.056 A 
ATOM     14  C   UNL d   1       0.526   6.825  -1.216  0.00  0.00     0.060 A 
ATOM     15 CL   UNL d   1       2.038   6.127  -1.694  0.00  0.00    -0.082 Cl
ATOM     16  C   UNL d   1       0.427   8.219  -1.242  0.00  0.00     0.026 A 
ATOM     17  C   UNL d   1      -0.800   8.843  -1.014  0.00  0.00     0.002 A 
ATOM     18  C   UNL d   1      -1.943   8.075  -0.804  0.00  0.00     0.002 A 
ATOM     19  C   UNL d   1      -1.850   6.686  -0.795  0.00  0.00     0.031 A 
ENDBRANCH  10  13
ENDBRANCH   1   9
BRANCH   2  20
ATOM     20  N   UNL d   1      -2.464   2.421  -0.273  0.00  0.00    -0.320 N 
ATOM     21  C   UNL d   1      -2.920   3.278   0.729  0.00  0.00     0.263 C 
ATOM     22  O   UNL d   1      -2.182   3.742   1.592  0.00  0.00    -0.267 OA
ATOM     23  H   UNL d   1      -3.199   1.872  -0.716  0.00  0.00     0.169 HD
BRANCH  21  24
ATOM     24  C   UNL d   1      -4.338   3.604   0.696  0.00  0.00     0.072 A 
ATOM     25  S   UNL d   1      -5.471   2.722  -0.238  0.00  0.00    -0.097 SA
ATOM     26  C   UNL d   1      -6.781   3.653   0.350  0.00  0.00     0.050 A 
ATOM     27  C   UNL d   1      -6.368   4.643   1.212  0.00  0.00     0.009 A 
ATOM     28  C   UNL d   1      -4.957   4.613   1.411  0.00  0.00     0.025 A 
ENDBRANCH  21  24
ENDBRANCH   2  20
TORSDOF 4
