REMARK  5 active torsions:
REMARK  status: ('A' for Active; 'I' for Inactive)
REMARK    1  A    between atoms: S_16  and  C_6 
REMARK    2  A    between atoms: C_11  and  C_26 
REMARK       I    between atoms: N_21  and  C_11 
REMARK    3  A    between atoms: N_13  and  N_21 
REMARK    4  A    between atoms: C_15  and  C_19 
REMARK    5  A    between atoms: C_26  and  S_16 
ROOT
ATOM      1  C   UNL d   1       1.585  -0.827  -0.054  0.00  0.00     0.089 A 
ATOM      2  C   UNL d   1       0.931   0.396   0.019  0.00  0.00     0.039 A 
ATOM      3  C   UNL d   1      -0.841  -1.134  -0.087  0.00  0.00    -0.008 C 
ATOM      4  C   UNL d   1      -0.498   0.207  -0.115  0.00  0.00    -0.029 C 
ATOM      5  S   UNL d   1       0.517  -2.154  -0.132  0.00  0.00    -0.075 SA
ATOM      6  C   UNL d   1       1.775   1.507   0.205  0.00  0.00     0.084 A 
ATOM      7  N   UNL d   1       2.914  -1.028  -0.038  0.00  0.00    -0.346 N 
ATOM      8  HN  UNL d   1       3.348  -1.948  -0.116  1.00  0.00     0.167 HD
ATOM      9  N   UNL d   1       3.114   1.351   0.233  0.00  0.00    -0.346 N 
ATOM     10  HN  UNL d   1       3.735   2.150   0.358  1.00  0.00     0.167 HD
ATOM     11  C   UNL d   1      -1.549   1.280  -0.195  0.00  0.00     0.041 C 
ATOM     12  C   UNL d   1       3.602   0.108   0.090  0.00  0.00     0.182 A 
ATOM     13  C   UNL d   1      -2.243  -1.672  -0.052  0.00  0.00     0.051 C 
ATOM     14  C   UNL d   1      -2.945   0.714  -0.487  0.00  0.00     0.009 C 
ATOM     15  C   UNL d   1      -3.242  -0.556   0.335  0.00  0.00    -0.014 C 
ATOM     16  C   UNL d   1      -3.220  -0.268   1.843  0.00  0.00     0.010 C 
ENDROOT
BRANCH   6  17
ATOM     17  S   UNL d   1       1.060   3.103   0.497  0.00  0.00    -0.102 SA
BRANCH  17  18
ATOM     18  C   UNL d   1       2.521   4.130   0.843  0.00  0.00     0.185 C 
BRANCH  18  19
ATOM     19  C   UNL d   1       2.162   5.559   1.258  0.00  0.00     0.245 C 
ATOM     20  N   UNL d   1       0.848   5.767   1.659  0.00  0.00    -0.270 N 
ATOM     21  H   UNL d   1       0.183   4.998   1.586  0.00  0.00     0.190 HD
ATOM     22  O   UNL d   1       3.029   6.432   1.264  0.00  0.00    -0.271 OA
BRANCH  20  23
ATOM     23  N   UNL d   1       0.430   7.013   2.038  0.00  0.00    -0.307 N 
ATOM     24  C   UNL d   1      -0.825   7.126   2.341  0.00  0.00     0.144 C 
ATOM     25  HN  UNL d   1       1.069   7.807   2.079  1.00  0.00     0.186 HD
BRANCH  24  26
ATOM     26  C   UNL d   1      -1.381   8.386   2.748  0.00  0.00     0.091 A 
ATOM     27  O   UNL d   1      -2.713   8.431   3.057  0.00  0.00    -0.321 OA
ATOM     28  C   UNL d   1      -2.999   9.712   3.411  0.00  0.00     0.142 A 
ATOM     29  C   UNL d   1      -1.873  10.496   3.334  0.00  0.00     0.027 A 
ATOM     30  C   UNL d   1      -0.828   9.642   2.905  0.00  0.00     0.040 A 
ENDBRANCH  24  26
ENDBRANCH  20  23
ENDBRANCH  18  19
ENDBRANCH  17  18
ENDBRANCH   6  17
TORSDOF 5
