REMARK  5 active torsions:
REMARK  status: ('A' for Active; 'I' for Inactive)
REMARK    1  A    between atoms: S_2  and  N_1 
REMARK    2  A    between atoms: S_3  and  N_1 
REMARK    3  A    between atoms: C_4  and  N_1 
REMARK    4  A    between atoms: C_13  and  S_2 
REMARK    5  A    between atoms: C_14  and  S_3 
ROOT
ATOM      1  N   UNL d   1       0.800   0.083  -0.050  0.00  0.00    -0.156 N 
ENDROOT
BRANCH   1   2
ATOM      2  S   UNL d   1      -0.220  -1.240  -0.117  0.00  0.00     0.278 S 
ATOM      3  O   UNL d   1      -0.556  -1.604   1.246  0.00  0.00    -0.199 OA
ATOM      4  O   UNL d   1      -1.264  -1.036  -1.096  0.00  0.00    -0.199 OA
BRANCH   2   5
ATOM      5  C   UNL d   1       0.804  -2.552  -0.751  0.00  0.00     0.081 C 
ATOM      6  C   UNL d   1       1.355  -3.476   0.140  0.00  0.00     0.026 C 
ATOM      7  C   UNL d   1       2.374  -4.315  -0.299  0.00  0.00     0.008 C 
ATOM      8  C   UNL d   1       2.826  -4.245  -1.624  0.00  0.00    -0.062 C 
ATOM      9  C   UNL d   1       2.173  -3.402  -2.534  0.00  0.00     0.008 C 
ATOM     10  C   UNL d   1       4.035  -5.032  -2.033  0.00  0.00     0.048 C 
ATOM     11  C   UNL d   1       1.145  -2.565  -2.105  0.00  0.00     0.026 C 
ENDBRANCH   2   5
ENDBRANCH   1   2
BRANCH   1  12
ATOM     12  S   UNL d   1       0.163   1.631  -0.110  0.00  0.00     0.278 S 
ATOM     13  O   UNL d   1       1.188   2.554   0.361  0.00  0.00    -0.199 OA
ATOM     14  O   UNL d   1      -0.470   1.860  -1.391  0.00  0.00    -0.199 OA
BRANCH  12  15
ATOM     15  C   UNL d   1      -1.134   1.668   1.121  0.00  0.00     0.081 A 
ATOM     16  C   UNL d   1      -0.851   2.154   2.399  0.00  0.00     0.026 A 
ATOM     17  C   UNL d   1      -1.869   2.227   3.354  0.00  0.00     0.008 A 
ATOM     18  C   UNL d   1      -3.173   1.823   3.039  0.00  0.00    -0.062 A 
ATOM     19  C   UNL d   1      -3.457   1.388   1.739  0.00  0.00     0.008 A 
ATOM     20  C   UNL d   1      -4.235   1.847   4.101  0.00  0.00     0.048 C 
ATOM     21  C   UNL d   1      -2.447   1.328   0.774  0.00  0.00     0.026 A 
ENDBRANCH  12  15
ENDBRANCH   1  12
BRANCH   1  22
ATOM     22  C   UNL d   1       2.242  -0.075  -0.062  0.00  0.00     0.085 A 
ATOM     23  C   UNL d   1       3.026   0.241  -1.202  0.00  0.00     0.077 A 
ATOM     24  C   UNL d   1       4.432   0.049  -1.198  0.00  0.00     0.053 A 
ATOM     25 CL   UNL d   1       2.199   0.728  -2.653  0.00  0.00    -0.081 Cl
ATOM     26  C   UNL d   1       5.307   0.482  -2.319  0.00  0.00     0.196 C 
ATOM     27  C   UNL d   1       5.037  -0.549  -0.088  0.00  0.00     0.031 A 
ATOM     28  C   UNL d   1       6.732   0.114  -2.345  0.00  0.00     0.029 A 
ATOM     29  O   UNL d   1       4.894   1.194  -3.226  0.00  0.00    -0.287 OA
ATOM     30  C   UNL d   1       7.507   0.454  -3.465  0.00  0.00     0.016 A 
ATOM     31  C   UNL d   1       7.313  -0.539  -1.267  0.00  0.00     0.029 A 
ATOM     32  C   UNL d   1       8.863   0.129  -3.507  0.00  0.00     0.001 A 
ATOM     33  C   UNL d   1       9.448  -0.532  -2.429  0.00  0.00     0.001 A 
ATOM     34  C   UNL d   1       8.677  -0.868  -1.310  0.00  0.00     0.016 A 
ATOM     35  C   UNL d   1       6.489  -0.871  -0.086  0.00  0.00     0.194 C 
ATOM     36  O   UNL d   1       6.998  -1.424   0.884  0.00  0.00    -0.287 OA
ATOM     37  C   UNL d   1       4.262  -0.881   1.035  0.00  0.00     0.019 A 
ATOM     38  C   UNL d   1       2.883  -0.622   1.059  0.00  0.00     0.034 A 
ENDBRANCH   1  22
TORSDOF 5
