REMARK  5 active torsions:
REMARK  status: ('A' for Active; 'I' for Inactive)
REMARK    1  A    between atoms: C_5  and  S_1 
REMARK    2  A    between atoms: N_11  and  S_1 
REMARK    3  A    between atoms: N_2  and  C_6 
REMARK       I    between atoms: C_4  and  N_9 
REMARK    4  A    between atoms: C_6  and  C_4 
REMARK    5  A    between atoms: N_9  and  C_17 
ROOT
ATOM      1  C   UNL d   1      -1.411   4.608  -3.722  0.00  0.00     0.240 C 
ATOM      2  N   UNL d   1      -1.879   5.655  -2.941  0.00  0.00    -0.326 N 
ATOM      3  O   UNL d   1      -0.287   4.521  -4.216  0.00  0.00    -0.271 OA
ATOM      4  H   UNL d   1      -2.711   5.471  -2.398  0.00  0.00     0.169 HD
ENDROOT
BRANCH   2   5
ATOM      5  C   UNL d   1      -1.327   6.952  -2.858  0.00  0.00     0.034 A 
ATOM      6  C   UNL d   1      -0.265   7.383  -3.663  0.00  0.00     0.031 A 
ATOM      7  C   UNL d   1       0.120   8.728  -3.684  0.00  0.00     0.027 A 
ATOM      8  C   UNL d   1      -0.557   9.646  -2.886  0.00  0.00     0.074 A 
ATOM      9  C   UNL d   1      -1.559   9.216  -2.010  0.00  0.00     0.027 A 
ATOM     10  C   UNL d   1      -1.944   7.871  -2.002  0.00  0.00     0.031 A 
BRANCH   8  11
ATOM     11  S   UNL d   1      -0.240  11.374  -3.071  0.00  0.00     0.239 S 
ATOM     12  O   UNL d   1      -1.021  12.099  -2.088  0.00  0.00    -0.206 OA
ATOM     13  O   UNL d   1      -0.270  11.705  -4.473  0.00  0.00    -0.206 OA
BRANCH  11  14
ATOM     14  N   UNL d   1       1.351  11.533  -2.566  0.00  0.00    -0.225 NA
ATOM     15  H   UNL d   1       1.390  11.698  -1.562  0.00  0.00     0.136 HD
ATOM     16  H   UNL d   1       1.782  12.290  -3.103  0.00  0.00     0.136 HD
ENDBRANCH  11  14
ENDBRANCH   8  11
ENDBRANCH   2   5
BRANCH   1  17
ATOM     17  C   UNL d   1      -2.459   3.520  -3.967  0.00  0.00     0.226 C 
BRANCH  17  18
ATOM     18  N   UNL d   1      -2.436   2.513  -2.931  0.00  0.00    -0.371 N 
ATOM     19  C   UNL d   1      -3.377   2.265  -1.963  0.00  0.00     0.037 A 
ATOM     20  C   UNL d   1      -3.175   1.023  -1.353  0.00  0.00    -0.030 A 
ATOM     21  C   UNL d   1      -4.429   3.064  -1.556  0.00  0.00     0.030 A 
ATOM     22  C   UNL d   1      -4.009   0.548  -0.353  0.00  0.00     0.009 A 
ATOM     23  C   UNL d   1      -2.018   0.327  -1.999  0.00  0.00     0.060 C 
ATOM     24  C   UNL d   1      -5.060   1.363   0.065  0.00  0.00     0.001 A 
ATOM     25  C   UNL d   1      -5.266   2.616  -0.528  0.00  0.00     0.002 A 
ATOM     26  C   UNL d   1      -1.435   1.449  -2.886  0.00  0.00     0.128 C 
ENDBRANCH  17  18
ENDBRANCH   1  17
TORSDOF 5
