REMARK  6 active torsions:
REMARK  status: ('A' for Active; 'I' for Inactive)
REMARK    1  A    between atoms: N_2  and  S_1 
REMARK    2  A    between atoms: C_6  and  S_1 
REMARK    3  A    between atoms: C_3  and  N_2 
REMARK    4  A    between atoms: N_10  and  C_19 
REMARK    5  A    between atoms: C_13  and  C_12 
REMARK    6  A    between atoms: O_22  and  C_16 
ROOT
ATOM      1  C   UNL d   1       0.573  -1.298   1.017  0.00  0.00     0.075 A 
ATOM      2  C   UNL d   1       0.722  -2.633   0.634  0.00  0.00     0.027 A 
ATOM      3  C   UNL d   1       0.127  -0.976   2.299  0.00  0.00     0.027 A 
ATOM      4  C   UNL d   1      -0.101  -3.351   2.808  0.00  0.00     0.032 A 
ATOM      5  C   UNL d   1       0.394  -3.652   1.532  0.00  0.00     0.031 A 
ATOM      6  C   UNL d   1      -0.210  -2.006   3.184  0.00  0.00     0.031 A 
ENDROOT
BRANCH   1   7
ATOM      7  S   UNL d   1       1.089  -0.014  -0.100  0.00  0.00     0.247 S 
ATOM      8  O   UNL d   1       1.371   1.162   0.693  0.00  0.00    -0.205 OA
ATOM      9  O   UNL d   1       2.090  -0.580  -0.979  0.00  0.00    -0.205 OA
BRANCH   7  10
ATOM     10  N   UNL d   1      -0.347   0.324  -0.929  0.00  0.00    -0.160 NA
ATOM     11  H   UNL d   1      -0.523   1.322  -0.802  0.00  0.00     0.148 HD
BRANCH  10  12
ATOM     12  C   UNL d   1      -0.249   0.053  -2.309  0.00  0.00     0.136 A 
ATOM     13  N   UNL d   1      -0.175   1.059  -3.144  0.00  0.00    -0.350 N 
ATOM     14  C   UNL d   1      -0.082   0.562  -4.431  0.00  0.00     0.097 A 
ATOM     15  HN  UNL d   1      -0.185   2.046  -2.887  1.00  0.00     0.166 HD
ATOM     16  C   UNL d   1      -0.202  -0.807  -4.553  0.00  0.00     0.069 A 
ATOM     17  S   UNL d   1      -0.385  -1.506  -2.996  0.00  0.00    -0.070 SA
ENDBRANCH  10  12
ENDBRANCH   7  10
ENDBRANCH   1   7
BRANCH   4  18
ATOM     18  N   UNL d   1      -0.457  -4.325   3.758  0.00  0.00    -0.365 N 
ATOM     19  C   UNL d   1      -1.066  -5.397   3.356  0.00  0.00     0.102 C 
ATOM     20  HN  UNL d   1      -0.239  -4.191   4.746  1.00  0.00     0.165 HD
BRANCH  19  21
ATOM     21  C   UNL d   1      -1.536  -6.424   4.307  0.00  0.00     0.012 A 
ATOM     22  C   UNL d   1      -1.465  -6.246   5.692  0.00  0.00     0.077 A 
ATOM     23  C   UNL d   1      -1.996  -7.205   6.551  0.00  0.00     0.037 A 
ATOM     24  C   UNL d   1      -2.590  -8.354   6.026  0.00  0.00     0.003 A 
ATOM     25  C   UNL d   1      -2.645  -8.548   4.646  0.00  0.00     0.001 A 
ATOM     26  C   UNL d   1      -2.119  -7.584   3.783  0.00  0.00     0.015 A 
BRANCH  22  27
ATOM     27  O   UNL d   1      -0.900  -5.142   6.272  0.00  0.00    -0.360 OA
ATOM     28  H   UNL d   1      -0.558  -4.578   5.542  0.00  0.00     0.217 HD
ENDBRANCH  22  27
ENDBRANCH  19  21
ENDBRANCH   4  18
TORSDOF 6
