REMARK  1 active torsions:
REMARK  status: ('A' for Active; 'I' for Inactive)
REMARK    1  A    between atoms: C_8  and  N_1 
ROOT
ATOM      1  N   UNL d   1       2.436  -0.590  -0.035  0.00  0.00    -0.254 N 
ATOM      2  C   UNL d   1       2.402   0.813   0.002  0.00  0.00     0.186 A 
ATOM      3  C   UNL d   1       1.276  -1.392  -0.043  0.00  0.00     0.267 A 
ATOM      4  C   UNL d   1      -0.023  -0.694  -0.020  0.00  0.00     0.059 A 
ATOM      5  N   UNL d   1       1.159   1.397   0.042  0.00  0.00    -0.332 N 
ATOM      6  C   UNL d   1      -0.039   0.692   0.014  0.00  0.00     0.050 A 
ATOM      7  S   UNL d   1       3.691   1.893  -0.074  0.00  0.00    -0.040 SA
ATOM      8  O   UNL d   1       1.259  -2.623  -0.047  0.00  0.00    -0.267 OA
ATOM      9  C   UNL d   1      -1.225  -1.411  -0.038  0.00  0.00     0.019 A 
ATOM     10  C   UNL d   1      -1.253   1.382   0.009  0.00  0.00     0.030 A 
ATOM     11  C   UNL d   1      -2.441  -0.726  -0.043  0.00  0.00     0.001 A 
ATOM     12  C   UNL d   1      -2.453   0.669  -0.025  0.00  0.00     0.002 A 
ATOM     13  H   UNL d   1       1.143   2.412   0.047  0.00  0.00     0.168 HD
ENDROOT
BRANCH   1  14
ATOM     14  C   UNL d   1       3.682  -1.299  -0.083  0.00  0.00     0.045 A 
ATOM     15  C   UNL d   1       3.948  -2.168  -1.151  0.00  0.00     0.030 A 
ATOM     16  C   UNL d   1       5.143  -2.887  -1.199  0.00  0.00     0.002 A 
ATOM     17  C   UNL d   1       6.073  -2.761  -0.169  0.00  0.00     0.000 A 
ATOM     18  C   UNL d   1       5.812  -1.912   0.905  0.00  0.00     0.002 A 
ATOM     19  C   UNL d   1       4.623  -1.179   0.949  0.00  0.00     0.030 A 
ENDBRANCH   1  14
TORSDOF 1
