REMARK  3 active torsions:
REMARK  status: ('A' for Active; 'I' for Inactive)
REMARK    1  A    between atoms: C_3  and  C_1 
REMARK    2  A    between atoms: O_6  and  C_1 
REMARK    3  A    between atoms: C_4  and  C_3 
ROOT
ATOM      1  C   UNL d   1      -1.183  -0.910  -0.504  0.00  0.00    -0.048 A 
ATOM      2  C   UNL d   1      -3.950  -0.600  -0.349  0.00  0.00     0.116 A 
ATOM      3  F   UNL d   1      -5.278  -0.451  -0.266  0.00  0.00    -0.206 F 
ATOM      4  C   UNL d   1      -3.140   0.525  -0.457  0.00  0.00     0.043 A 
ATOM      5  C   UNL d   1      -3.402  -1.877  -0.330  0.00  0.00     0.043 A 
ATOM      6  C   UNL d   1      -2.018  -2.034  -0.409  0.00  0.00     0.011 A 
ATOM      7  C   UNL d   1      -1.756   0.372  -0.537  0.00  0.00     0.011 A 
ENDROOT
BRANCH   1   8
ATOM      8  C   UNL d   1       0.314  -1.082  -0.620  0.00  0.00     0.148 C 
BRANCH   8   9
ATOM      9  C   UNL d   1       0.870  -1.212  -2.022  0.00  0.00     0.143 C 
ATOM     10  O   UNL d   1       2.068  -1.364  -2.233  0.00  0.00    -0.650 OA
BRANCH   9  11
ATOM     11  O   UNL d   1      -0.012  -1.153  -3.042  0.00  0.00    -0.776 OA
ATOM     12  H   UNL d   1      -0.945  -1.032  -2.780  0.00  0.00     0.167 HD
ENDBRANCH   9  11
ENDBRANCH   8   9
ENDBRANCH   1   8
TORSDOF 3
