REMARK  7 active torsions:
REMARK  status: ('A' for Active; 'I' for Inactive)
REMARK    1  A    between atoms: C_3  and  C_1 
REMARK       I    between atoms: N_6  and  C_1 
REMARK    2  A    between atoms: C_2  and  C_7 
REMARK    3  A    between atoms: C_5  and  C_4 
REMARK    4  A    between atoms: O_21  and  C_5 
REMARK    5  A    between atoms: C_19  and  N_6 
REMARK    6  A    between atoms: O_13  and  C_10 
REMARK    7  A    between atoms: C_15  and  O_13 
ROOT
ATOM      1  N   UNL d   1      -3.330   2.290   1.013  0.00  0.00    -0.344 N 
ATOM      2  HN  UNL d   1      -3.847   3.168   1.052  1.00  0.00     0.167 HD
ATOM      3  C   UNL d   1      -3.965   1.099   1.006  0.00  0.00     0.148 A 
ATOM      4  C   UNL d   1      -1.226   1.103   0.867  0.00  0.00     0.050 A 
ATOM      5  C   UNL d   1      -1.981   2.267   0.967  0.00  0.00     0.119 A 
ATOM      6  C   UNL d   1      -3.309  -0.117   0.906  0.00  0.00     0.059 A 
ATOM      7  C   UNL d   1      -1.915  -0.111   0.831  0.00  0.00     0.035 A 
ENDROOT
BRANCH   4   8
ATOM      8  N   UNL d   1       0.180   1.085   0.748  0.00  0.00    -0.322 N 
ATOM      9  C   UNL d   1       1.011   2.154   1.031  0.00  0.00     0.257 C 
ATOM     10  O   UNL d   1       0.650   3.190   1.583  0.00  0.00    -0.267 OA
ATOM     11  H   UNL d   1       0.572   0.195   0.460  0.00  0.00     0.169 HD
BRANCH   9  12
ATOM     12  C   UNL d   1       2.451   2.037   0.676  0.00  0.00     0.049 A 
ATOM     13  C   UNL d   1       3.225   0.868   0.677  0.00  0.00     0.053 A 
ATOM     14  C   UNL d   1       4.569   0.932   0.262  0.00  0.00     0.019 A 
ATOM     15  C   UNL d   1       5.149   2.143  -0.123  0.00  0.00     0.001 A 
ATOM     16  C   UNL d   1       4.395   3.308  -0.096  0.00  0.00     0.001 A 
ATOM     17  C   UNL d   1       3.060   3.255   0.303  0.00  0.00     0.018 A 
BRANCH  13  18
ATOM     18  C   UNL d   1       2.749  -0.490   1.038  0.00  0.00     0.177 C 
ATOM     19  O   UNL d   1       3.105  -1.481   0.431  0.00  0.00    -0.646 OA
BRANCH  18  20
ATOM     20  O   UNL d   1       1.877  -0.549   2.066  0.00  0.00    -0.773 OA
ATOM     21  H   UNL d   1       1.710   0.269   2.574  0.00  0.00     0.167 HD
ENDBRANCH  18  20
ENDBRANCH  13  18
ENDBRANCH   9  12
ENDBRANCH   4   8
BRANCH   3  22
ATOM     22  O   UNL d   1      -5.349   1.077   1.098  0.00  0.00    -0.294 OA
BRANCH  22  23
ATOM     23  C   UNL d   1      -5.937   2.094   1.819  0.00  0.00     0.078 A 
ATOM     24  C   UNL d   1      -5.416   2.560   3.032  0.00  0.00     0.053 A 
ATOM     25  C   UNL d   1      -6.062   3.575   3.748  0.00  0.00     0.050 A 
ATOM     26  C   UNL d   1      -7.260   4.100   3.242  0.00  0.00     0.016 A 
ATOM     27  C   UNL d   1      -7.796   3.619   2.044  0.00  0.00     0.004 A 
ATOM     28  C   UNL d   1      -7.137   2.612   1.336  0.00  0.00     0.037 A 
BRANCH  25  29
ATOM     29  C   UNL d   1      -5.487   4.077   5.048  0.00  0.00     0.417 C 
ATOM     30  F   UNL d   1      -4.298   3.501   5.382  0.00  0.00    -0.166 F 
ATOM     31  F   UNL d   1      -5.262   5.420   5.044  0.00  0.00    -0.166 F 
ATOM     32  F   UNL d   1      -6.318   3.840   6.102  0.00  0.00    -0.166 F 
ENDBRANCH  25  29
ENDBRANCH  22  23
ENDBRANCH   3  22
TORSDOF 7
