REMARK  3 active torsions:
REMARK  status: ('A' for Active; 'I' for Inactive)
REMARK    1  A    between atoms: C_7  and  C_1 
REMARK       I    between atoms: C_4  and  N_3 
REMARK       I    between atoms: N_8  and  C_4 
REMARK    2  A    between atoms: C_6  and  C_5 
REMARK       I    between atoms: N_21  and  C_7 
REMARK    3  A    between atoms: C_9  and  N_8 
ROOT
ATOM      1  C   UNL d   1       0.826  -1.225  -0.170  0.00  0.00     0.038 C 
ATOM      2  C   UNL d   1      -0.499  -1.186  -0.406  0.00  0.00     0.109 C 
ATOM      3  N   UNL d   1      -1.240  -0.013  -0.305  0.00  0.00    -0.309 N 
ATOM      4  C   UNL d   1      -2.636   0.076  -0.428  0.00  0.00     0.326 C 
ATOM      5  C   UNL d   1       1.639   0.017   0.144  0.00  0.00     0.135 C 
ATOM      6  N   UNL d   1      -3.227  -0.940  -1.159  0.00  0.00    -0.307 N 
ATOM      7  C   UNL d   1       0.877   1.276  -0.285  0.00  0.00     0.039 C 
ATOM      8  C   UNL d   1      -0.574   1.203   0.172  0.00  0.00     0.134 C 
ATOM      9  O   UNL d   1      -3.257   1.037   0.030  0.00  0.00    -0.246 OA
ATOM     10  H   UNL d   1      -2.635  -1.320  -1.887  0.00  0.00     0.170 HD
ENDROOT
BRANCH   1  11
ATOM     11  C   UNL d   1       1.630  -2.479  -0.247  0.00  0.00     0.247 C 
ATOM     12  O   UNL d   1       2.844  -2.445  -0.385  0.00  0.00    -0.268 OA
ATOM     13  N   UNL d   1       0.977  -3.657  -0.090  0.00  0.00    -0.366 N 
ATOM     14  H   UNL d   1       0.026  -3.741   0.235  0.00  0.00     0.159 HD
ATOM     15  H   UNL d   1       1.559  -4.485  -0.044  0.00  0.00     0.159 HD
ENDBRANCH   1  11
BRANCH   6  16
ATOM     16  C   UNL d   1      -4.614  -0.944  -1.472  0.00  0.00     0.058 A 
ATOM     17  C   UNL d   1      -5.032  -1.377  -2.742  0.00  0.00     0.062 A 
ATOM     18  C   UNL d   1      -6.369  -1.258  -3.130  0.00  0.00     0.050 A 
ATOM     19 CL   UNL d   1      -3.895  -1.999  -3.887  0.00  0.00    -0.082 Cl
ATOM     20  C   UNL d   1      -7.299  -0.741  -2.233  0.00  0.00     0.035 A 
ATOM     21  C   UNL d   1      -6.914  -0.377  -0.945  0.00  0.00     0.026 A 
ATOM     22 CL   UNL d   1      -8.936  -0.535  -2.722  0.00  0.00    -0.084 Cl
ATOM     23  C   UNL d   1      -5.574  -0.484  -0.565  0.00  0.00     0.033 A 
ENDBRANCH   6  16
BRANCH   5  24
ATOM     24  C   UNL d   1       2.081   0.081   1.612  0.00  0.00     0.395 C 
ATOM     25  F   UNL d   1       1.832  -1.067   2.287  0.00  0.00    -0.170 F 
ATOM     26  F   UNL d   1       3.407   0.325   1.706  0.00  0.00    -0.170 F 
ATOM     27  F   UNL d   1       1.453   1.070   2.288  0.00  0.00    -0.170 F 
ENDBRANCH   5  24
TORSDOF 3
