REMARK  9 active torsions:
REMARK  status: ('A' for Active; 'I' for Inactive)
REMARK    1  A    between atoms: C_2  and  C_1 
REMARK       I    between atoms: N_6  and  C_2 
REMARK    2  A    between atoms: C_5  and  C_3 
REMARK    3  A    between atoms: C_4  and  C_7 
REMARK    4  A    between atoms: C_7  and  N_6 
REMARK    5  A    between atoms: C_8  and  C_21 
REMARK    6  A    between atoms: O_20  and  C_12 
REMARK    7  A    between atoms: O_25  and  C_14 
REMARK    8  A    between atoms: O_26  and  C_15 
REMARK    9  A    between atoms: C_21  and  O_20 
ROOT
ATOM      1  C   UNL d   1       0.200   1.208   1.026  0.00  0.00     0.062 A 
ATOM      2  C   UNL d   1       0.228   0.312   2.108  0.00  0.00     0.069 A 
ATOM      3  C   UNL d   1      -0.484   0.809  -0.109  0.00  0.00     0.108 A 
ATOM      4  N   UNL d   1      -1.192  -0.348  -0.218  0.00  0.00    -0.346 N 
ATOM      5  HN  UNL d   1      -1.714  -0.568  -1.066  1.00  0.00     0.167 HD
ATOM      6  C   UNL d   1      -1.179  -1.187   0.826  0.00  0.00     0.142 A 
ATOM      7  C   UNL d   1      -0.472  -0.912   1.985  0.00  0.00     0.073 A 
ENDROOT
BRANCH   1   8
ATOM      8  C   UNL d   1       1.008   2.448   0.951  0.00  0.00     0.255 C 
ATOM      9  N   UNL d   1       0.468   3.640   0.437  0.00  0.00    -0.348 N 
ATOM     10  C   UNL d   1      -0.963   3.923   0.320  0.00  0.00     0.153 C 
ATOM     11  O   UNL d   1       2.172   2.324   1.315  0.00  0.00    -0.267 OA
BRANCH   9  12
ATOM     12  C   UNL d   1       1.337   4.824   0.445  0.00  0.00     0.169 C 
BRANCH  12  13
ATOM     13  C   UNL d   1       1.655   5.503  -0.880  0.00  0.00     0.026 C 
ATOM     14  C   UNL d   1       1.209   6.826  -1.135  0.00  0.00     0.078 C 
ATOM     15  C   UNL d   1       1.772   7.572  -2.182  0.00  0.00     0.037 C 
ATOM     16  C   UNL d   1       2.802   7.045  -2.953  0.00  0.00     0.005 C 
ATOM     17  C   UNL d   1       3.209   5.735  -2.746  0.00  0.00     0.037 C 
ATOM     18  C   UNL d   1       2.599   4.940  -1.767  0.00  0.00     0.078 C 
BRANCH  14  19
ATOM     19  O   UNL d   1       0.236   7.323  -0.302  0.00  0.00    -0.355 OA
ATOM     20  C   UNL d   1      -0.025   8.722  -0.382  0.00  0.00     0.210 C 
ENDBRANCH  14  19
BRANCH  18  21
ATOM     21  O   UNL d   1       3.013   3.650  -1.562  0.00  0.00    -0.355 OA
ATOM     22  C   UNL d   1       3.120   2.861  -2.749  0.00  0.00     0.210 C 
ENDBRANCH  18  21
ENDBRANCH  12  13
ENDBRANCH   9  12
ENDBRANCH   1   8
BRANCH   2  23
ATOM     23  C   UNL d   1       0.977   0.523   3.399  0.00  0.00     0.418 C 
ATOM     24  F   UNL d   1       1.462   1.763   3.644  0.00  0.00    -0.166 F 
ATOM     25  F   UNL d   1       0.161   0.256   4.468  0.00  0.00    -0.166 F 
ATOM     26  F   UNL d   1       2.014  -0.349   3.535  0.00  0.00    -0.166 F 
ENDBRANCH   2  23
BRANCH   6  27
ATOM     27  O   UNL d   1      -1.867  -2.341   0.593  0.00  0.00    -0.327 OA
BRANCH  27  28
ATOM     28  C   UNL d   1      -2.463  -2.974   1.728  0.00  0.00     0.294 C 
BRANCH  28  29
ATOM     29  C   UNL d   1      -3.729  -3.736   1.338  0.00  0.00     0.408 C 
ATOM     30  F   UNL d   1      -4.082  -3.561   0.048  0.00  0.00    -0.169 F 
ATOM     31  F   UNL d   1      -3.576  -5.065   1.544  0.00  0.00    -0.169 F 
ATOM     32  F   UNL d   1      -4.775  -3.334   2.101  0.00  0.00    -0.169 F 
ENDBRANCH  28  29
ENDBRANCH  27  28
ENDBRANCH   6  27
TORSDOF 9
