REMARK  3 active torsions:
REMARK  status: ('A' for Active; 'I' for Inactive)
REMARK    1  A    between atoms: C_2  and  C_1 
REMARK       I    between atoms: N_3  and  C_1 
REMARK    2  A    between atoms: C_16  and  N_3 
REMARK    3  A    between atoms: C_15  and  C_16 
ROOT
ATOM      1  C   UNL d   1       0.886   0.094  -0.107  0.00  0.00     0.251 C 
ATOM      2  N   UNL d   1       0.204   0.353   1.062  0.00  0.00    -0.353 N 
ATOM      3  O   UNL d   1       0.359  -0.324  -1.130  0.00  0.00    -0.268 OA
ATOM      4  H   UNL d   1       0.711   0.584   1.903  0.00  0.00     0.163 HD
ENDROOT
BRANCH   2   5
ATOM      5  C   UNL d   1      -1.233   0.227   1.166  0.00  0.00     0.161 C 
BRANCH   5   6
ATOM      6  C   UNL d   1      -1.859   1.550   1.541  0.00  0.00    -0.040 A 
ATOM      7  C   UNL d   1      -1.780   2.637   0.652  0.00  0.00     0.018 A 
ATOM      8  C   UNL d   1      -2.353   3.842   1.022  0.00  0.00    -0.022 A 
ATOM      9  C   UNL d   1      -2.460   5.110   0.268  0.00  0.00     0.068 C 
ATOM     10  C   UNL d   1      -3.013   3.974   2.232  0.00  0.00     0.075 A 
ATOM     11  C   UNL d   1      -2.929   6.024   1.400  0.00  0.00     0.180 C 
ATOM     12  O   UNL d   1      -3.541   5.222   2.438  0.00  0.00    -0.350 OA
ATOM     13  C   UNL d   1      -3.129   2.923   3.117  0.00  0.00     0.038 A 
ATOM     14  C   UNL d   1      -2.539   1.704   2.769  0.00  0.00     0.011 A 
ENDBRANCH   5   6
ENDBRANCH   2   5
BRANCH   1  15
ATOM     15  C   UNL d   1       2.356   0.327  -0.064  0.00  0.00     0.032 A 
ATOM     16  C   UNL d   1       2.910   1.362   0.699  0.00  0.00     0.024 A 
ATOM     17  C   UNL d   1       4.300   1.563   0.736  0.00  0.00    -0.055 A 
ATOM     18  C   UNL d   1       4.856   2.704   1.544  0.00  0.00     0.049 C 
ATOM     19  C   UNL d   1       5.144   0.702   0.005  0.00  0.00    -0.056 A 
ATOM     20  C   UNL d   1       4.575  -0.308  -0.788  0.00  0.00     0.008 A 
ATOM     21  C   UNL d   1       6.641   0.850   0.048  0.00  0.00     0.049 C 
ATOM     22  C   UNL d   1       3.190  -0.489  -0.831  0.00  0.00     0.017 A 
ENDBRANCH   1  15
TORSDOF 3
