REMARK  5 active torsions:
REMARK  status: ('A' for Active; 'I' for Inactive)
REMARK    1  A    between atoms: C_2  and  S_1 
REMARK    2  A    between atoms: C_6  and  S_1 
REMARK    3  A    between atoms: C_3  and  C_2 
REMARK       I    between atoms: N_4  and  C_3 
REMARK    4  A    between atoms: C_5  and  C_9 
REMARK    5  A    between atoms: C_14  and  C_5 
ROOT
ATOM      1  C   UNL d   1       0.825   1.707   1.951  0.00  0.00     0.234 C 
ATOM      2  N   UNL d   1       1.878   1.166   2.686  0.00  0.00    -0.351 N 
ATOM      3  C   UNL d   1       4.023   0.181   4.435  0.00  0.00     0.064 C 
ATOM      4  C   UNL d   1       1.580   0.717   4.043  0.00  0.00     0.126 C 
ATOM      5  C   UNL d   1       3.071   0.556   2.083  0.00  0.00     0.126 C 
ATOM      6  O   UNL d   1      -0.297   1.863   2.444  0.00  0.00    -0.272 OA
ATOM      7  C   UNL d   1       2.782   0.912   4.957  0.00  0.00     0.032 C 
ATOM      8  C   UNL d   1       4.298   0.665   2.995  0.00  0.00     0.032 C 
ENDROOT
BRANCH   1   9
ATOM      9  C   UNL d   1       1.079   2.211   0.567  0.00  0.00     0.248 C 
BRANCH   9  10
ATOM     10  S   UNL d   1       0.576   1.034  -0.641  0.00  0.00     0.183 S 
ATOM     11  O   UNL d   1       1.302  -0.201  -0.414  0.00  0.00    -0.222 OA
ATOM     12  O   UNL d   1       0.649   1.684  -1.938  0.00  0.00    -0.222 OA
BRANCH  10  13
ATOM     13  C   UNL d   1      -1.146   0.720  -0.342  0.00  0.00     0.059 A 
ATOM     14  C   UNL d   1      -2.063   1.766  -0.495  0.00  0.00     0.025 A 
ATOM     15  C   UNL d   1      -3.410   1.544  -0.211  0.00  0.00     0.025 A 
ATOM     16  C   UNL d   1      -3.833   0.280   0.203  0.00  0.00     0.034 A 
ATOM     17  C   UNL d   1      -2.922  -0.773   0.314  0.00  0.00     0.025 A 
ATOM     18 CL   UNL d   1      -5.491   0.019   0.584  0.00  0.00    -0.084 Cl
ATOM     19  C   UNL d   1      -1.571  -0.556   0.039  0.00  0.00     0.025 A 
ENDBRANCH  10  13
ENDBRANCH   9  10
ENDBRANCH   1   9
BRANCH   3  20
ATOM     20  C   UNL d   1       3.917  -1.352   4.484  0.00  0.00     0.163 C 
ATOM     21  O   UNL d   1       3.970  -2.024   3.455  0.00  0.00    -0.292 OA
BRANCH  20  22
ATOM     22  C   UNL d   1       3.780  -2.077   5.788  0.00  0.00     0.010 A 
ATOM     23  C   UNL d   1       3.859  -1.447   7.034  0.00  0.00     0.015 A 
ATOM     24  C   UNL d   1       3.687  -2.186   8.210  0.00  0.00     0.001 A 
ATOM     25  C   UNL d   1       3.472  -3.562   8.151  0.00  0.00     0.000 A 
ATOM     26  C   UNL d   1       3.425  -4.205   6.918  0.00  0.00     0.001 A 
ATOM     27  C   UNL d   1       3.573  -3.466   5.742  0.00  0.00     0.015 A 
ENDBRANCH  20  22
ENDBRANCH   3  20
TORSDOF 5
