REMARK  2 active torsions:
REMARK  status: ('A' for Active; 'I' for Inactive)
REMARK    1  A    between atoms: C_11  and  N_3 
REMARK    2  A    between atoms: C_13  and  C_11 
ROOT
ATOM      1  C   UNL d   1       1.261   0.126   0.831  0.00  0.00     0.153 A 
ATOM      2  C   UNL d   1       0.967  -1.004   0.100  0.00  0.00     0.129 A 
ATOM      3  N   UNL d   1       1.512   1.070  -0.122  0.00  0.00    -0.254 N 
ATOM      4  N   UNL d   1       1.044  -0.741  -1.232  0.00  0.00    -0.278 N 
ATOM      5  HN  UNL d   1       0.870  -1.402  -1.989  1.00  0.00     0.184 HD
ATOM      6  N   UNL d   1       1.389   0.540  -1.366  0.00  0.00    -0.018 NA
ATOM      7  N   UNL d   1       1.299   0.267   2.179  0.00  0.00    -0.336 N 
ATOM      8  HN  UNL d   1       1.538   1.141   2.648  1.00  0.00     0.168 HD
ATOM      9  C   UNL d   1       0.662  -2.200   0.831  0.00  0.00     0.133 A 
ATOM     10  N   UNL d   1       0.689  -2.038   2.208  0.00  0.00    -0.341 N 
ATOM     11  C   UNL d   1       1.000  -0.828   2.811  0.00  0.00     0.183 A 
ATOM     12  S   UNL d   1       0.328  -3.635   0.080  0.00  0.00    -0.058 SA
ATOM     13  H   UNL d   1       0.483  -2.847   2.776  0.00  0.00     0.167 HD
ENDROOT
BRANCH   3  14
ATOM     14  C   UNL d   1       1.962   2.439   0.058  0.00  0.00     0.189 C 
BRANCH  14  15
ATOM     15  C   UNL d   1       0.803   3.404   0.102  0.00  0.00    -0.017 A 
ATOM     16  C   UNL d   1       0.237   3.868   1.300  0.00  0.00     0.042 A 
ATOM     17 CL   UNL d   1       0.896   3.481   2.848  0.00  0.00    -0.084 Cl
ATOM     18  C   UNL d   1      -0.888   4.699   1.280  0.00  0.00     0.024 A 
ATOM     19  C   UNL d   1      -1.450   5.097   0.069  0.00  0.00     0.002 A 
ATOM     20  C   UNL d   1      -0.881   4.674  -1.128  0.00  0.00     0.001 A 
ATOM     21  C   UNL d   1       0.233   3.832  -1.113  0.00  0.00     0.010 A 
ENDBRANCH  14  15
ENDBRANCH   3  14
TORSDOF 2
