REMARK  3 active torsions:
REMARK  status: ('A' for Active; 'I' for Inactive)
REMARK    1  A    between atoms: N_4  and  C_2 
REMARK       I    between atoms: C_5  and  N_11 
REMARK    2  A    between atoms: C_9  and  C_5 
REMARK    3  A    between atoms: N_11  and  C_7 
ROOT
ATOM      1  C   UNL d   1      -0.405   0.741  -0.002  0.00  0.00    -0.009 C 
ATOM      2  C   UNL d   1       0.762   1.466  -0.241  0.00  0.00     0.118 C 
ATOM      3  C   UNL d   1      -0.302  -0.654   0.086  0.00  0.00    -0.038 C 
ATOM      4  C   UNL d   1      -1.851   1.192   0.104  0.00  0.00    -0.017 C 
ATOM      5  C   UNL d   1       2.112  -0.563  -0.181  0.00  0.00     0.044 C 
ATOM      6  C   UNL d   1       2.002   0.819  -0.482  0.00  0.00    -0.002 C 
ATOM      7  C   UNL d   1      -1.658  -1.319   0.176  0.00  0.00    -0.019 C 
ATOM      8  C   UNL d   1       0.944  -1.292   0.077  0.00  0.00     0.038 C 
ATOM      9  C   UNL d   1      -2.586  -0.140  -0.218  0.00  0.00     0.027 C 
ATOM     10  C   UNL d   1      -2.241   1.697   1.501  0.00  0.00     0.020 C 
ATOM     11  C   UNL d   1      -2.254   2.246  -0.941  0.00  0.00     0.020 C 
ATOM     12  C   UNL d   1       3.160   1.560  -1.108  0.00  0.00     0.053 C 
ATOM     13  C   UNL d   1      -1.951  -1.861   1.577  0.00  0.00     0.020 C 
ATOM     14  C   UNL d   1      -1.815  -2.453  -0.850  0.00  0.00     0.020 C 
ENDROOT
BRANCH   5  15
ATOM     15  N   UNL d   1       3.414  -1.135  -0.094  0.00  0.00    -0.322 N 
ATOM     16  C   UNL d   1       3.761  -2.425   0.290  0.00  0.00     0.262 C 
ATOM     17  O   UNL d   1       2.977  -3.357   0.422  0.00  0.00    -0.267 OA
ATOM     18  H   UNL d   1       4.185  -0.489  -0.221  0.00  0.00     0.169 HD
BRANCH  16  19
ATOM     19  C   UNL d   1       5.207  -2.651   0.599  0.00  0.00     0.109 A 
ATOM     20  C   UNL d   1       5.585  -3.676   1.472  0.00  0.00     0.135 A 
ATOM     21  F   UNL d   1       4.680  -4.502   2.016  0.00  0.00    -0.205 F 
ATOM     22  C   UNL d   1       6.922  -3.865   1.841  0.00  0.00     0.043 A 
ATOM     23  C   UNL d   1       7.914  -3.031   1.331  0.00  0.00     0.006 A 
ATOM     24  C   UNL d   1       7.561  -2.024   0.434  0.00  0.00     0.043 A 
ATOM     25  C   UNL d   1       6.221  -1.844   0.077  0.00  0.00     0.135 A 
ATOM     26  F   UNL d   1       5.931  -0.851  -0.778  0.00  0.00    -0.205 F 
ENDBRANCH  16  19
ENDBRANCH   5  15
BRANCH   2  27
ATOM     27  N   UNL d   1       0.732   2.916  -0.130  0.00  0.00    -0.114 N 
ATOM     28  O   UNL d   1       0.635   3.384   1.007  0.00  0.00    -0.532 OA
ATOM     29  O   UNL d   1       0.812   3.571  -1.177  0.00  0.00    -0.532 OA
ENDBRANCH   2  27
TORSDOF 3
