REMARK  4 active torsions:
REMARK  status: ('A' for Active; 'I' for Inactive)
REMARK    1  A    between atoms: C_11  and  N_1 
REMARK    2  A    between atoms: C_4  and  C_2 
REMARK       I    between atoms: N_9  and  C_4 
REMARK    3  A    between atoms: C_15  and  N_9 
REMARK    4  A    between atoms: C_12  and  C_11 
ROOT
ATOM      1  C   UNL d   1      -1.615   0.875  -1.738  0.00  0.00     0.228 C 
ATOM      2  N   UNL d   1      -1.969  -0.227  -2.496  0.00  0.00    -0.327 N 
ATOM      3  O   UNL d   1      -1.416   2.008  -2.181  0.00  0.00    -0.273 OA
ATOM      4  H   UNL d   1      -2.313  -1.046  -2.007  0.00  0.00     0.169 HD
ENDROOT
BRANCH   1   5
ATOM      5  C   UNL d   1      -1.452   0.629  -0.240  0.00  0.00     0.105 C 
ATOM      6  C   UNL d   1      -2.732   0.180   0.434  0.00  0.00     0.140 C 
ATOM      7  N   UNL d   1      -2.605  -1.258   0.484  0.00  0.00    -0.345 N 
ATOM      8  C   UNL d   1      -1.310  -1.690   0.256  0.00  0.00     0.221 C 
ATOM      9  C   UNL d   1      -0.439  -0.477   0.056  0.00  0.00     0.118 C 
ATOM     10  O   UNL d   1      -0.935  -2.847   0.183  0.00  0.00    -0.273 OA
BRANCH   7  11
ATOM     11  C   UNL d   1      -3.743  -2.157   0.557  0.00  0.00     0.190 C 
BRANCH  11  12
ATOM     12  C   UNL d   1      -4.638  -1.841   1.695  0.00  0.00     0.070 A 
ATOM     13  O   UNL d   1      -5.865  -1.333   1.376  0.00  0.00    -0.325 OA
ATOM     14  C   UNL d   1      -6.559  -1.207   2.536  0.00  0.00     0.142 A 
ATOM     15  C   UNL d   1      -5.790  -1.609   3.602  0.00  0.00     0.027 A 
ATOM     16  C   UNL d   1      -4.543  -2.009   3.062  0.00  0.00     0.036 A 
ENDBRANCH  11  12
ENDBRANCH   7  11
ENDBRANCH   1   5
BRANCH   2  17
ATOM     17  C   UNL d   1      -1.864  -0.359  -3.900  0.00  0.00     0.035 A 
ATOM     18  C   UNL d   1      -1.261   0.593  -4.722  0.00  0.00     0.043 A 
ATOM     19  C   UNL d   1      -1.065   0.347  -6.094  0.00  0.00    -0.007 A 
ATOM     20  C   UNL d   1      -0.414   1.276  -6.914  0.00  0.00     0.015 A 
ATOM     21  C   UNL d   1      -1.492  -0.861  -6.676  0.00  0.00     0.042 A 
ATOM     22  C   UNL d   1      -0.179   0.975  -8.249  0.00  0.00     0.025 A 
ATOM     23  C   UNL d   1      -0.607  -0.252  -8.738  0.00  0.00     0.005 A 
ATOM     24  N   UNL d   1      -1.274  -1.152  -7.973  0.00  0.00    -0.359 N 
ATOM     25  C   UNL d   1      -0.322  -0.628 -10.160  0.00  0.00     0.068 C 
ATOM     26  HN  UNL d   1      -1.604  -2.031  -8.371  1.00  0.00     0.166 HD
ATOM     27  C   UNL d   1      -2.135  -1.777  -5.856  0.00  0.00     0.033 A 
ATOM     28  C   UNL d   1      -2.318  -1.544  -4.484  0.00  0.00     0.032 A 
ENDBRANCH   2  17
TORSDOF 4
