REMARK  6 active torsions:
REMARK  status: ('A' for Active; 'I' for Inactive)
REMARK    1  A    between atoms: N_2  and  S_1 
REMARK    2  A    between atoms: C_7  and  S_1 
REMARK    3  A    between atoms: C_3  and  N_2 
REMARK    4  A    between atoms: C_6  and  C_9 
REMARK    5  A    between atoms: N_12  and  C_21 
REMARK    6  A    between atoms: O_27  and  C_14 
ROOT
ATOM      1  C   UNL d   1       0.464  -1.710   0.041  0.00  0.00     0.075 A 
ATOM      2  C   UNL d   1       1.328  -2.733  -0.358  0.00  0.00     0.027 A 
ATOM      3  C   UNL d   1      -0.809  -2.014   0.525  0.00  0.00     0.027 A 
ATOM      4  C   UNL d   1      -0.393  -4.386   0.125  0.00  0.00     0.032 A 
ATOM      5  C   UNL d   1      -1.229  -3.349   0.559  0.00  0.00     0.031 A 
ATOM      6  C   UNL d   1       0.900  -4.063  -0.308  0.00  0.00     0.031 A 
ENDROOT
BRANCH   4   7
ATOM      7  N   UNL d   1      -0.890  -5.701   0.199  0.00  0.00    -0.365 N 
ATOM      8  C   UNL d   1      -0.556  -6.557  -0.716  0.00  0.00     0.102 C 
ATOM      9  HN  UNL d   1      -1.505  -5.978   0.964  1.00  0.00     0.165 HD
BRANCH   8  10
ATOM     10  C   UNL d   1      -1.095  -7.934  -0.717  0.00  0.00     0.014 A 
ATOM     11  C   UNL d   1      -2.073  -8.351   0.194  0.00  0.00     0.077 A 
ATOM     12  C   UNL d   1      -2.596  -9.640   0.124  0.00  0.00     0.039 A 
ATOM     13  C   UNL d   1      -2.135 -10.525  -0.853  0.00  0.00     0.022 A 
ATOM     14  C   UNL d   1      -1.151 -10.113  -1.751  0.00  0.00     0.011 A 
ATOM     15  C   UNL d   1      -0.628  -8.820  -1.693  0.00  0.00     0.034 A 
ATOM     16 BR   UNL d   1      -0.524 -11.315  -3.069  0.00  0.00    -0.051 Br
BRANCH  11  17
ATOM     17  O   UNL d   1      -2.570  -7.538   1.175  0.00  0.00    -0.360 OA
ATOM     18  H   UNL d   1      -2.087  -6.682   1.115  0.00  0.00     0.217 HD
ENDBRANCH  11  17
ENDBRANCH   8  10
ENDBRANCH   4   7
BRANCH   1  19
ATOM     19  S   UNL d   1       1.058  -0.033   0.055  0.00  0.00     0.247 S 
ATOM     20  O   UNL d   1       0.200   0.722   0.941  0.00  0.00    -0.205 OA
ATOM     21  O   UNL d   1       2.489  -0.087   0.261  0.00  0.00    -0.205 OA
BRANCH  19  22
ATOM     22  N   UNL d   1       0.672   0.482  -1.513  0.00  0.00    -0.160 NA
ATOM     23  H   UNL d   1       0.096   1.315  -1.392  0.00  0.00     0.148 HD
BRANCH  22  24
ATOM     24  C   UNL d   1       1.825   0.836  -2.246  0.00  0.00     0.136 A 
ATOM     25  N   UNL d   1       2.126   2.102  -2.385  0.00  0.00    -0.350 N 
ATOM     26  C   UNL d   1       3.296   2.202  -3.116  0.00  0.00     0.097 A 
ATOM     27  HN  UNL d   1       1.587   2.885  -2.016  1.00  0.00     0.166 HD
ATOM     28  C   UNL d   1       3.789   1.015  -3.618  0.00  0.00     0.069 A 
ATOM     29  S   UNL d   1       2.790  -0.282  -3.105  0.00  0.00    -0.070 SA
ENDBRANCH  22  24
ENDBRANCH  19  22
ENDBRANCH   1  19
TORSDOF 6
