REMARK  8 active torsions:
REMARK  status: ('A' for Active; 'I' for Inactive)
REMARK    1  A    between atoms: C_9  and  C_1 
REMARK    2  A    between atoms: N_6  and  C_2 
REMARK       I    between atoms: C_7  and  N_6 
REMARK       I    between atoms: N_11  and  C_7 
REMARK    3  A    between atoms: C_10  and  C_8 
REMARK    4  A    between atoms: O_23  and  C_9 
REMARK    5  A    between atoms: O_25  and  C_10 
REMARK    6  A    between atoms: C_16  and  N_11 
REMARK    7  A    between atoms: C_27  and  O_23 
REMARK    8  A    between atoms: C_28  and  O_25 
ROOT
ATOM      1  C   UNL d   1       1.126  -1.395  -0.027  0.00  0.00     0.076 C 
ATOM      2  C   UNL d   1       2.079  -0.387   0.128  0.00  0.00     0.075 C 
ATOM      3  C   UNL d   1      -0.182  -0.782  -0.029  0.00  0.00    -0.013 C 
ATOM      4  C   UNL d   1      -0.116   0.554   0.279  0.00  0.00    -0.007 C 
ATOM      5  S   UNL d   1       1.425   1.169   0.407  0.00  0.00    -0.081 SA
ATOM      6  C   UNL d   1      -1.620  -1.186  -0.244  0.00  0.00     0.121 C 
ATOM      7  C   UNL d   1      -2.375   0.203  -0.193  0.00  0.00     0.024 C 
ATOM      8  C   UNL d   1      -1.409   1.257   0.388  0.00  0.00     0.048 C 
ENDROOT
BRANCH   2   9
ATOM      9  N   UNL d   1       3.445  -0.381  -0.144  0.00  0.00    -0.203 NA
ATOM     10  C   UNL d   1       4.312  -0.147   0.902  0.00  0.00     0.303 C 
ATOM     11  N   UNL d   1       4.471  -1.204   1.766  0.00  0.00    -0.313 N 
ATOM     12  O   UNL d   1       4.949   0.903   0.901  0.00  0.00    -0.253 OA
ATOM     13  H   UNL d   1       4.066  -2.074   1.430  0.00  0.00     0.170 HD
ATOM     14  H   UNL d   1       3.624   0.440  -0.717  0.00  0.00     0.139 HD
BRANCH  11  15
ATOM     15  C   UNL d   1       5.442  -1.265   2.792  0.00  0.00     0.037 A 
ATOM     16  C   UNL d   1       5.837  -2.525   3.253  0.00  0.00     0.055 A 
ATOM     17  C   UNL d   1       6.870  -2.646   4.196  0.00  0.00     0.058 A 
ATOM     18 CL   UNL d   1       7.342  -4.244   4.666  0.00  0.00    -0.082 Cl
ATOM     19  C   UNL d   1       7.495  -1.506   4.706  0.00  0.00     0.055 A 
ATOM     20  C   UNL d   1       7.073  -0.247   4.288  0.00  0.00     0.028 A 
ATOM     21 CL   UNL d   1       8.797  -1.583   5.844  0.00  0.00    -0.083 Cl
ATOM     22  C   UNL d   1       6.050  -0.128   3.340  0.00  0.00     0.031 A 
ENDBRANCH  11  15
ENDBRANCH   2   9
BRANCH   1  23
ATOM     23  C   UNL d   1       1.504  -2.794  -0.254  0.00  0.00     0.296 C 
ATOM     24  O   UNL d   1       2.651  -3.208  -0.116  0.00  0.00    -0.259 OA
BRANCH  23  25
ATOM     25  O   UNL d   1       0.461  -3.581  -0.642  0.00  0.00    -0.318 OA
BRANCH  25  26
ATOM     26  C   UNL d   1       0.824  -4.740  -1.408  0.00  0.00     0.174 C 
ATOM     27  C   UNL d   1       0.907  -5.982  -0.545  0.00  0.00     0.034 C 
ENDBRANCH  25  26
ENDBRANCH  23  25
ENDBRANCH   1  23
BRANCH   6  28
ATOM     28  C   UNL d   1      -1.933  -1.823  -1.589  0.00  0.00     0.267 C 
ATOM     29  O   UNL d   1      -1.117  -2.222  -2.412  0.00  0.00    -0.265 OA
BRANCH  28  30
ATOM     30  O   UNL d   1      -3.290  -1.865  -1.772  0.00  0.00    -0.321 OA
BRANCH  30  31
ATOM     31  C   UNL d   1      -3.748  -2.318  -3.053  0.00  0.00     0.174 C 
ATOM     32  C   UNL d   1      -3.502  -1.274  -4.131  0.00  0.00     0.034 C 
ENDBRANCH  30  31
ENDBRANCH  28  30
ENDBRANCH   6  28
TORSDOF 8
