REMARK  6 active torsions:
REMARK  status: ('A' for Active; 'I' for Inactive)
REMARK       I    between atoms: N_4  and  C_1 
REMARK       I    between atoms: N_5  and  C_1 
REMARK    1  A    between atoms: C_10  and  N_4 
REMARK    2  A    between atoms: C_15  and  N_5 
REMARK    3  A    between atoms: O_12  and  C_6 
REMARK    4  A    between atoms: C_7  and  C_8 
REMARK    5  A    between atoms: C_17  and  O_12 
REMARK    6  A    between atoms: O_23  and  C_18 
ROOT
ATOM      1  N   UNL d   1      -3.293   1.632  -1.472  0.00  0.00    -0.344 N 
ATOM      2  HN  UNL d   1      -3.775   2.026  -2.280  1.00  0.00     0.167 HD
ATOM      3  C   UNL d   1      -3.973   1.152  -0.413  0.00  0.00     0.148 A 
ATOM      4  C   UNL d   1      -1.223   1.008  -0.362  0.00  0.00     0.051 A 
ATOM      5  C   UNL d   1      -1.944   1.567  -1.417  0.00  0.00     0.119 A 
ATOM      6  C   UNL d   1      -3.358   0.535   0.667  0.00  0.00     0.059 A 
ATOM      7  C   UNL d   1      -1.960   0.458   0.688  0.00  0.00     0.035 A 
ENDROOT
BRANCH   4   8
ATOM      8  N   UNL d   1       0.192   0.947  -0.328  0.00  0.00    -0.307 N 
ATOM      9  C   UNL d   1       1.008   1.754  -1.106  0.00  0.00     0.325 C 
ATOM     10  N   UNL d   1       2.326   1.334  -1.085  0.00  0.00    -0.309 N 
ATOM     11  O   UNL d   1       0.587   2.711  -1.739  0.00  0.00    -0.247 OA
ATOM     12  H   UNL d   1       2.492   0.396  -0.755  0.00  0.00     0.170 HD
ATOM     13  H   UNL d   1       0.622   0.486   0.458  0.00  0.00     0.170 HD
BRANCH  10  14
ATOM     14  C   UNL d   1       3.392   1.964  -1.774  0.00  0.00     0.039 A 
ATOM     15  C   UNL d   1       3.299   3.257  -2.305  0.00  0.00     0.066 A 
ATOM     16  C   UNL d   1       4.356   3.830  -3.015  0.00  0.00     0.070 A 
ATOM     17  C   UNL d   1       5.534   3.104  -3.180  0.00  0.00     0.037 A 
ATOM     18  C   UNL d   1       5.655   1.826  -2.632  0.00  0.00     0.005 A 
ATOM     19  C   UNL d   1       4.589   1.259  -1.927  0.00  0.00     0.030 A 
BRANCH  16  20
ATOM     20  O   UNL d   1       4.348   5.077  -3.581  0.00  0.00    -0.356 OA
ATOM     21  C   UNL d   1       3.143   5.829  -3.445  0.00  0.00     0.210 C 
ENDBRANCH  16  20
ENDBRANCH  10  14
ENDBRANCH   4   8
BRANCH   3  22
ATOM     22  O   UNL d   1      -5.357   1.260  -0.397  0.00  0.00    -0.294 OA
BRANCH  22  23
ATOM     23  C   UNL d   1      -5.907   2.356  -1.030  0.00  0.00     0.077 A 
ATOM     24  C   UNL d   1      -7.104   2.171  -1.717  0.00  0.00     0.038 A 
ATOM     25  C   UNL d   1      -7.731   3.258  -2.343  0.00  0.00     0.011 A 
ATOM     26  C   UNL d   1      -7.187   4.558  -2.287  0.00  0.00    -0.050 A 
ATOM     27  C   UNL d   1      -5.981   4.716  -1.587  0.00  0.00     0.011 A 
ATOM     28  C   UNL d   1      -5.361   3.637  -0.950  0.00  0.00     0.038 A 
BRANCH  26  29
ATOM     29  C   UNL d   1      -7.912   5.747  -2.942  0.00  0.00    -0.024 C 
ATOM     30  C   UNL d   1      -7.183   7.098  -2.750  0.00  0.00     0.019 C 
ATOM     31  C   UNL d   1      -8.054   5.517  -4.461  0.00  0.00     0.019 C 
ATOM     32  C   UNL d   1      -9.316   5.897  -2.318  0.00  0.00     0.019 C 
ENDBRANCH  26  29
ENDBRANCH  22  23
ENDBRANCH   3  22
TORSDOF 6
