REMARK  5 active torsions:
REMARK  status: ('A' for Active; 'I' for Inactive)
REMARK    1  A    between atoms: C_18  and  N_3 
REMARK    2  A    between atoms: O_10  and  C_4 
REMARK    3  A    between atoms: N_5  and  C_8 
REMARK    4  A    between atoms: C_13  and  O_10 
REMARK    5  A    between atoms: C_21  and  C_18 
ROOT
ATOM      1  C   UNL d   1       3.200   1.352  -1.391  0.00  0.00     0.138 C 
ATOM      2  C   UNL d   1       4.580   1.351  -1.959  0.00  0.00     0.286 C 
ATOM      3  N   UNL d   1       5.187   2.602  -2.060  0.00  0.00    -0.252 N 
ATOM      4  C   UNL d   1       2.667   2.458  -0.869  0.00  0.00     0.120 C 
ATOM      5  N   UNL d   1       4.722   3.726  -1.415  0.00  0.00    -0.304 N 
ATOM      6  HN  UNL d   1       5.258   4.594  -1.400  1.00  0.00     0.186 HD
ATOM      7  C   UNL d   1       3.573   3.630  -0.830  0.00  0.00     0.146 C 
ATOM      8  O   UNL d   1       5.108   0.304  -2.330  0.00  0.00    -0.265 OA
ATOM      9 CL   UNL d   1       2.313  -0.130  -1.473  0.00  0.00    -0.075 Cl
ENDROOT
BRANCH   4  10
ATOM     10  O   UNL d   1       1.383   2.479  -0.313  0.00  0.00    -0.304 OA
BRANCH  10  11
ATOM     11  C   UNL d   1       0.716   3.673  -0.204  0.00  0.00     0.120 A 
ATOM     12  C   UNL d   1      -0.036   4.020   0.927  0.00  0.00     0.146 A 
ATOM     13  N   UNL d   1      -0.712   5.205   0.984  0.00  0.00    -0.350 N 
ATOM     14  C   UNL d   1      -0.682   6.031  -0.083  0.00  0.00     0.090 A 
ATOM     15  HN  UNL d   1      -1.233   5.464   1.823  1.00  0.00     0.166 HD
ATOM     16  C   UNL d   1      -0.022   5.732  -1.255  0.00  0.00     0.020 A 
ATOM     17  C   UNL d   1       0.667   4.529  -1.319  0.00  0.00     0.042 A 
BRANCH  12  18
ATOM     18  N   UNL d   1      -0.214   3.142   2.061  0.00  0.00    -0.304 N 
ATOM     19  C   UNL d   1       0.722   2.304   2.682  0.00  0.00     0.014 A 
ATOM     20  C   UNL d   1       0.088   1.598   3.687  0.00  0.00     0.027 A 
ATOM     21  C   UNL d   1       2.184   2.260   2.415  0.00  0.00     0.068 C 
ATOM     22  C   UNL d   1      -1.227   2.067   3.780  0.00  0.00     0.027 A 
ATOM     23  C   UNL d   1      -1.403   3.028   2.804  0.00  0.00     0.014 A 
ATOM     24  C   UNL d   1      -2.676   3.768   2.552  0.00  0.00     0.068 C 
ENDBRANCH  12  18
ENDBRANCH  10  11
ENDBRANCH   4  10
BRANCH   3  25
ATOM     25  C   UNL d   1       6.451   2.739  -2.784  0.00  0.00     0.191 C 
BRANCH  25  26
ATOM     26  C   UNL d   1       6.238   2.742  -4.283  0.00  0.00    -0.038 A 
ATOM     27  C   UNL d   1       5.996   3.936  -4.977  0.00  0.00     0.009 A 
ATOM     28  C   UNL d   1       5.739   3.915  -6.351  0.00  0.00     0.001 A 
ATOM     29  C   UNL d   1       5.711   2.705  -7.042  0.00  0.00     0.000 A 
ATOM     30  C   UNL d   1       5.951   1.513  -6.365  0.00  0.00     0.001 A 
ATOM     31  C   UNL d   1       6.220   1.533  -4.996  0.00  0.00     0.009 A 
ENDBRANCH  25  26
ENDBRANCH   3  25
TORSDOF 5
