REMARK  1 active torsions:
REMARK  status: ('A' for Active; 'I' for Inactive)
REMARK       I    between atoms: N_2  and  C_1 
REMARK    1  A    between atoms: C_3  and  C_1 
ROOT
ATOM      1  C   UNL d   1       0.867   0.162   0.072  0.00  0.00     0.253 C 
ATOM      2  N   UNL d   1       0.239  -0.135   1.282  0.00  0.00    -0.348 N 
ATOM      3  O   UNL d   1       1.876   0.861   0.003  0.00  0.00    -0.267 OA
ATOM      4  C   UNL d   1       0.680   0.562   2.489  0.00  0.00     0.126 C 
ATOM      5  C   UNL d   1      -0.866  -1.064   1.510  0.00  0.00     0.126 C 
ATOM      6  C   UNL d   1      -2.080  -0.294   2.031  0.00  0.00     0.020 C 
ATOM      7  C   UNL d   1      -0.477   1.380   3.061  0.00  0.00     0.020 C 
ATOM      8  C   UNL d   1      -1.723   0.516   3.281  0.00  0.00     0.003 C 
ENDROOT
BRANCH   1   9
ATOM      9  C   UNL d   1       0.333  -0.363  -1.214  0.00  0.00     0.032 A 
ATOM     10  C   UNL d   1      -1.029  -0.309  -1.540  0.00  0.00     0.020 A 
ATOM     11  C   UNL d   1      -1.478  -0.796  -2.769  0.00  0.00     0.043 A 
ATOM     12  C   UNL d   1      -0.558  -1.282  -3.692  0.00  0.00     0.116 A 
ATOM     13  C   UNL d   1       0.803  -1.284  -3.412  0.00  0.00     0.043 A 
ATOM     14  F   UNL d   1      -0.991  -1.736  -4.875  0.00  0.00    -0.206 F 
ATOM     15  C   UNL d   1       1.251  -0.823  -2.171  0.00  0.00     0.020 A 
ENDBRANCH   1   9
TORSDOF 1
