REMARK  5 active torsions:
REMARK  status: ('A' for Active; 'I' for Inactive)
REMARK    1  A    between atoms: C_2  and  C_1 
REMARK    2  A    between atoms: C_3  and  C_1 
REMARK    3  A    between atoms: O_7  and  C_2 
REMARK    4  A    between atoms: C_5  and  C_3 
REMARK    5  A    between atoms: N_6  and  C_3 
ROOT
ATOM      1  C   UNL d   1       2.550  -0.096  -0.026  0.00  0.00     0.260 C 
ENDROOT
BRANCH   1   2
ATOM      2  C   UNL d   1       1.025  -0.203  -0.161  0.00  0.00     0.150 C 
BRANCH   2   3
ATOM      3  C   UNL d   1       0.416   1.132  -0.511  0.00  0.00     0.141 C 
ATOM      4  O   UNL d   1       0.929   1.964  -1.245  0.00  0.00    -0.650 OA
BRANCH   3   5
ATOM      5  O   UNL d   1      -0.818   1.310   0.018  0.00  0.00    -0.776 OA
ATOM      6  H   UNL d   1      -1.133   0.568   0.566  0.00  0.00     0.167 HD
ENDBRANCH   3   5
ENDBRANCH   2   3
ENDBRANCH   1   2
BRANCH   1   7
ATOM      7  C   UNL d   1       2.989   0.792   1.129  0.00  0.00    -0.025 A 
ATOM      8  C   UNL d   1       2.570   0.559   2.449  0.00  0.00     0.009 A 
ATOM      9  C   UNL d   1       2.983   1.397   3.487  0.00  0.00     0.001 A 
ATOM     10  C   UNL d   1       3.824   2.474   3.221  0.00  0.00     0.000 A 
ATOM     11  C   UNL d   1       4.255   2.715   1.919  0.00  0.00     0.001 A 
ATOM     12  C   UNL d   1       3.841   1.879   0.880  0.00  0.00     0.009 A 
ENDBRANCH   1   7
BRANCH   1  13
ATOM     13  N   UNL d   1       3.125  -1.443   0.132  0.00  0.00     0.087 N 
ATOM     14  H   UNL d   1       2.851  -1.831   1.032  0.00  0.00     0.313 HD
ATOM     15  H   UNL d   1       4.141  -1.346   0.181  0.00  0.00     0.313 HD
ENDBRANCH   1  13
TORSDOF 5
