REMARK  5 active torsions:
REMARK  status: ('A' for Active; 'I' for Inactive)
REMARK       I    between atoms: C_8  and  N_1 
REMARK    1  A    between atoms: N_2  and  C_10 
REMARK    2  A    between atoms: C_5  and  S_21 
REMARK    3  A    between atoms: C_18  and  C_8 
REMARK    4  A    between atoms: C_23  and  C_18 
REMARK    5  A    between atoms: S_21  and  C_23 
ROOT
ATOM      1  N   UNL d   1       1.532   1.122  -0.026  0.00  0.00    -0.317 N 
ATOM      2  C   UNL d   1       0.198   0.667  -0.083  0.00  0.00     0.043 A 
ATOM      3  C   UNL d   1       1.931   2.450  -0.009  0.00  0.00     0.225 C 
ATOM      4  C   UNL d   1       0.166  -0.731  -0.045  0.00  0.00    -0.027 A 
ATOM      5  C   UNL d   1      -2.222  -0.700  -0.134  0.00  0.00     0.103 A 
ATOM      6  C   UNL d   1       2.402  -0.052   0.177  0.00  0.00     0.137 C 
ATOM      7  C   UNL d   1      -1.031  -1.435  -0.071  0.00  0.00     0.045 A 
ATOM      8  C   UNL d   1      -0.979   1.396  -0.163  0.00  0.00     0.033 A 
ATOM      9  C   UNL d   1       1.545  -1.305  -0.033  0.00  0.00     0.061 C 
ATOM     10  C   UNL d   1      -2.200   0.708  -0.186  0.00  0.00     0.038 A 
ATOM     11  O   UNL d   1       1.157   3.405  -0.088  0.00  0.00    -0.273 OA
ENDROOT
BRANCH   3  12
ATOM     12  C   UNL d   1       3.428   2.717   0.029  0.00  0.00     0.114 C 
BRANCH  12  13
ATOM     13  C   UNL d   1       3.819   3.761   1.068  0.00  0.00     0.092 C 
BRANCH  13  14
ATOM     14  S   UNL d   1       3.700   3.131   2.778  0.00  0.00    -0.086 SA
BRANCH  14  15
ATOM     15  C   UNL d   1       4.367   4.499   3.637  0.00  0.00     0.188 A 
ATOM     16  N   UNL d   1       4.841   5.569   3.026  0.00  0.00    -0.329 N 
ATOM     17  C   UNL d   1       5.265   6.375   4.048  0.00  0.00     0.068 A 
ATOM     18  HN  UNL d   1       4.882   5.753   2.023  1.00  0.00     0.168 HD
ATOM     19  C   UNL d   1       5.856   7.643   4.027  0.00  0.00     0.032 A 
ATOM     20  C   UNL d   1       5.038   5.752   5.264  0.00  0.00     0.105 A 
ATOM     21  C   UNL d   1       6.193   8.232   5.254  0.00  0.00     0.002 A 
ATOM     22  C   UNL d   1       5.950   7.572   6.465  0.00  0.00     0.003 A 
ATOM     23  C   UNL d   1       5.359   6.300   6.499  0.00  0.00     0.040 A 
ATOM     24  O   UNL d   1       4.460   4.541   5.006  0.00  0.00    -0.285 OA
ENDBRANCH  14  15
ENDBRANCH  13  14
ENDBRANCH  12  13
ENDBRANCH   3  12
BRANCH   5  25
ATOM     25  N   UNL d   1      -3.508  -1.409  -0.151  0.00  0.00    -0.116 N 
ATOM     26  O   UNL d   1      -3.483  -2.647  -0.108  0.00  0.00    -0.532 OA
ATOM     27  O   UNL d   1      -4.541  -0.729  -0.206  0.00  0.00    -0.532 OA
ENDBRANCH   5  25
TORSDOF 5
