REMARK  4 active torsions:
REMARK  status: ('A' for Active; 'I' for Inactive)
REMARK    1  A    between atoms: N_11  and  C_1 
REMARK    2  A    between atoms: C_2  and  C_3 
REMARK    3  A    between atoms: C_14  and  C_9 
REMARK       I    between atoms: C_13  and  N_11 
REMARK    4  A    between atoms: C_16  and  C_13 
ROOT
ATOM      1  C   UNL d   1       0.043  -1.176  -0.009  0.00  0.00     0.126 A 
ATOM      2  C   UNL d   1       1.322   0.644  -0.073  0.00  0.00     0.064 A 
ATOM      3  N   UNL d   1       0.070   1.101  -0.093  0.00  0.00    -0.296 N 
ATOM      4  HN  UNL d   1      -0.241   2.072  -0.121  1.00  0.00     0.187 HD
ATOM      5  C   UNL d   1       1.361  -0.760  -0.052  0.00  0.00     0.082 A 
ATOM      6  N   UNL d   1      -0.689  -0.008  -0.067  0.00  0.00    -0.281 N 
ATOM      7  C   UNL d   1      -2.120   0.177  -0.057  0.00  0.00     0.179 C 
ENDROOT
BRANCH   1   8
ATOM      8  N   UNL d   1      -0.414  -2.500   0.057  0.00  0.00    -0.308 N 
ATOM      9  C   UNL d   1       0.472  -3.569   0.469  0.00  0.00     0.257 C 
ATOM     10  O   UNL d   1       1.598  -3.325   0.863  0.00  0.00    -0.267 OA
ATOM     11  H   UNL d   1      -1.394  -2.688  -0.102  0.00  0.00     0.170 HD
BRANCH   9  12
ATOM     12  C   UNL d   1      -0.008  -4.973   0.474  0.00  0.00     0.032 A 
ATOM     13  C   UNL d   1      -1.019  -5.449  -0.363  0.00  0.00     0.017 A 
ATOM     14  C   UNL d   1      -1.331  -6.815  -0.356  0.00  0.00     0.001 A 
ATOM     15  C   UNL d   1      -0.642  -7.699   0.479  0.00  0.00     0.000 A 
ATOM     16  C   UNL d   1       0.360  -7.227   1.320  0.00  0.00     0.001 A 
ATOM     17  C   UNL d   1       0.677  -5.870   1.316  0.00  0.00     0.017 A 
ENDBRANCH   9  12
ENDBRANCH   1   8
BRANCH   2  18
ATOM     18  C   UNL d   1       2.490   1.508  -0.110  0.00  0.00     0.024 A 
ATOM     19  C   UNL d   1       3.756   1.227   0.468  0.00  0.00     0.049 A 
ATOM     20  C   UNL d   1       4.566   2.311   0.186  0.00  0.00     0.061 A 
ATOM     21  O   UNL d   1       3.858   3.235  -0.532  0.00  0.00    -0.318 OA
ATOM     22  C   UNL d   1       2.599   2.744  -0.708  0.00  0.00     0.062 A 
ATOM     23  C   UNL d   1       1.677   3.587  -1.496  0.00  0.00     0.077 C 
BRANCH  20  24
ATOM     24  C   UNL d   1       6.004   2.659   0.481  0.00  0.00    -0.002 C 
ATOM     25  C   UNL d   1       6.685   1.543   1.295  0.00  0.00     0.021 C 
ATOM     26  C   UNL d   1       6.771   2.839  -0.842  0.00  0.00     0.021 C 
ATOM     27  C   UNL d   1       6.077   3.966   1.290  0.00  0.00     0.021 C 
ENDBRANCH  20  24
ENDBRANCH   2  18
TORSDOF 4
