REMARK  4 active torsions:
REMARK  status: ('A' for Active; 'I' for Inactive)
REMARK    1  A    between atoms: C_5  and  C_1 
REMARK    2  A    between atoms: C_3  and  C_2 
REMARK    3  A    between atoms: S_17  and  C_4 
REMARK    4  A    between atoms: C_6  and  C_5 
ROOT
ATOM      1  C   UNL d   1       1.087  -0.003   0.376  0.00  0.00     0.096 C 
ATOM      2  C   UNL d   1       0.510   0.820  -0.527  0.00  0.00     0.040 C 
ATOM      3  C   UNL d   1       0.273  -1.008   0.972  0.00  0.00     0.103 C 
ATOM      4  N   UNL d   1      -0.416  -1.796   1.471  0.00  0.00    -0.191 NA
ENDROOT
BRANCH   1   5
ATOM      5  C   UNL d   1       2.552   0.064   0.733  0.00  0.00     0.209 C 
ATOM      6  O   UNL d   1       3.337   0.578  -0.065  0.00  0.00    -0.285 OA
BRANCH   5   7
ATOM      7  C   UNL d   1       3.022  -0.514   1.996  0.00  0.00     0.056 A 
ATOM      8  S   UNL d   1       4.647  -1.084   2.062  0.00  0.00    -0.098 SA
ATOM      9  C   UNL d   1       4.492  -1.576   3.688  0.00  0.00     0.050 A 
ATOM     10  C   UNL d   1       3.242  -1.300   4.191  0.00  0.00     0.009 A 
ATOM     11  C   UNL d   1       2.398  -0.677   3.221  0.00  0.00     0.023 A 
ENDBRANCH   5   7
ENDBRANCH   1   5
BRANCH   2  12
ATOM     12  C   UNL d   1       1.111   1.908  -1.238  0.00  0.00    -0.010 A 
ATOM     13  C   UNL d   1       1.679   1.807  -2.499  0.00  0.00     0.051 A 
ATOM     14  S   UNL d   1       2.255   3.332  -3.040  0.00  0.00    -0.094 SA
ATOM     15  C   UNL d   1       1.747   4.115  -1.611  0.00  0.00     0.052 A 
ATOM     16  C   UNL d   1       1.139   3.245  -0.734  0.00  0.00     0.020 A 
BRANCH  13  17
ATOM     17  S   UNL d   1       1.769   0.360  -3.508  0.00  0.00    -0.126 SA
ATOM     18  C   UNL d   1       3.534   0.305  -3.904  0.00  0.00     0.096 C 
ENDBRANCH  13  17
ENDBRANCH   2  12
TORSDOF 4
