REMARK  4 active torsions:
REMARK  status: ('A' for Active; 'I' for Inactive)
REMARK    1  A    between atoms: N_6  and  C_1 
REMARK    2  A    between atoms: C_7  and  C_12 
REMARK    3  A    between atoms: C_10  and  C_7 
REMARK    4  A    between atoms: C_12  and  N_8 
ROOT
ATOM      1  N   UNL d   1      -0.102   2.709   0.804  0.00  0.00     0.105 N 
ATOM      2  N   UNL d   1      -2.300   2.215   2.845  0.00  0.00     0.099 N 
ATOM      3  C   UNL d   1       0.150   2.111   2.118  0.00  0.00     0.304 C 
ATOM      4  C   UNL d   1      -1.246   3.616   0.897  0.00  0.00     0.304 C 
ATOM      5  C   UNL d   1      -1.065   1.416   2.763  0.00  0.00     0.303 C 
ATOM      6  C   UNL d   1      -2.480   3.143   1.711  0.00  0.00     0.303 C 
ENDROOT
BRANCH   1   7
ATOM      7  C   UNL d   1      -0.071   1.804  -0.364  0.00  0.00     0.290 C 
ATOM      8  C   UNL d   1       1.300   1.119  -0.473  0.00  0.00    -0.009 A 
ATOM      9  C   UNL d   1       1.160  -0.280  -0.344  0.00  0.00    -0.017 A 
ATOM     10  C   UNL d   1       2.549   1.706  -0.621  0.00  0.00     0.010 A 
ATOM     11  C   UNL d   1       2.271  -1.106  -0.370  0.00  0.00     0.013 A 
ATOM     12  C   UNL d   1      -0.245  -0.599  -0.221  0.00  0.00    -0.017 C 
ATOM     13  C   UNL d   1       3.532  -0.521  -0.518  0.00  0.00     0.001 A 
ATOM     14  C   UNL d   1       3.670   0.872  -0.639  0.00  0.00     0.001 A 
ATOM     15  C   UNL d   1      -0.999   0.590  -0.345  0.00  0.00    -0.009 C 
ATOM     16  C   UNL d   1      -0.872  -1.817  -0.007  0.00  0.00     0.013 C 
ATOM     17  C   UNL d   1      -2.382   0.536  -0.422  0.00  0.00     0.010 C 
ATOM     18  C   UNL d   1      -3.016  -0.685  -0.190  0.00  0.00     0.001 C 
ATOM     19  C   UNL d   1      -2.267  -1.847   0.044  0.00  0.00     0.001 C 
ENDBRANCH   1   7
BRANCH   2  20
ATOM     20  C   UNL d   1      -2.434   2.837   4.167  0.00  0.00     0.356 C 
BRANCH  20  21
ATOM     21  C   UNL d   1      -3.782   3.517   4.368  0.00  0.00     0.187 C 
ATOM     22  O   UNL d   1      -3.838   4.744   4.523  0.00  0.00    -0.290 OA
BRANCH  21  23
ATOM     23  C   UNL d   1      -5.056   2.730   4.426  0.00  0.00     0.014 A 
ATOM     24  C   UNL d   1      -5.136   1.366   4.114  0.00  0.00     0.055 A 
ATOM     25  C   UNL d   1      -6.380   0.762   4.180  0.00  0.00     0.105 A 
ATOM     26  O   UNL d   1      -6.650  -0.540   3.886  0.00  0.00    -0.323 OA
ATOM     27  C   UNL d   1      -7.511   1.451   4.555  0.00  0.00     0.105 A 
ATOM     28  C   UNL d   1      -8.085  -0.567   4.049  0.00  0.00     0.352 A 
ATOM     29  O   UNL d   1      -8.625   0.672   4.550  0.00  0.00    -0.323 OA
ATOM     30  C   UNL d   1      -7.469   2.785   4.883  0.00  0.00     0.040 A 
ATOM     31  C   UNL d   1      -6.230   3.427   4.809  0.00  0.00     0.018 A 
ENDBRANCH  21  23
ENDBRANCH  20  21
ENDBRANCH   2  20
TORSDOF 4
