REMARK  0 active torsions:
REMARK  status: ('A' for Active; 'I' for Inactive)
ROOT
ATOM      1  S   UNL d   1       0.780   1.777   0.964  0.00  0.00     0.181 S 
ATOM      2  C   UNL d   1      -0.462   0.588   0.577  0.00  0.00     0.086 A 
ATOM      3  N   UNL d   1       1.230  -1.212   0.615  0.00  0.00    -0.321 N 
ATOM      4  C   UNL d   1       2.163  -0.922  -0.383  0.00  0.00     0.225 C 
ATOM      5  C   UNL d   1      -0.110  -0.753   0.405  0.00  0.00     0.058 A 
ATOM      6  C   UNL d   1       1.884   1.674  -0.430  0.00  0.00     0.118 C 
ATOM      7  C   UNL d   1       2.792   0.459  -0.360  0.00  0.00     0.123 C 
ATOM      8  O   UNL d   1       0.161   3.093   0.919  0.00  0.00    -0.222 OA
ATOM      9  O   UNL d   1       1.464   1.343   2.167  0.00  0.00    -0.222 OA
ATOM     10  O   UNL d   1       2.627  -1.790  -1.126  0.00  0.00    -0.273 OA
ATOM     11  C   UNL d   1      -1.783   1.025   0.398  0.00  0.00     0.026 A 
ATOM     12  C   UNL d   1       1.365  -2.551   1.185  0.00  0.00     0.159 C 
ATOM     13  C   UNL d   1      -1.121  -1.653   0.026  0.00  0.00     0.031 A 
ATOM     14  C   UNL d   1       1.160   1.794  -1.770  0.00  0.00     0.027 C 
ATOM     15  C   UNL d   1      -2.766   0.119   0.013  0.00  0.00     0.002 A 
ATOM     16  C   UNL d   1      -2.434  -1.218  -0.181  0.00  0.00     0.002 A 
ENDROOT
TORSDOF 0
