REMARK  9 active torsions:
REMARK  status: ('A' for Active; 'I' for Inactive)
REMARK    1  A    between atoms: C_4  and  N_1 
REMARK    2  A    between atoms: N_5  and  C_2 
REMARK    3  A    between atoms: C_3  and  N_5 
REMARK    4  A    between atoms: C_22  and  N_6 
REMARK    5  A    between atoms: O_21  and  C_15 
REMARK    6  A    between atoms: N_16  and  C_25 
REMARK    7  A    between atoms: C_27  and  C_22 
REMARK    8  A    between atoms: C_25  and  C_28 
REMARK    9  A    between atoms: C_28  and  C_27 
ROOT
ATOM      1  C   UNL d   1       2.279  -1.089  -2.538  0.00  0.00     0.032 C 
ENDROOT
BRANCH   1   2
ATOM      2  C   UNL d   1       1.528   0.079  -1.884  0.00  0.00     0.272 C 
BRANCH   2   3
ATOM      3  N   UNL d   1       1.411  -0.062  -0.424  0.00  0.00     0.091 N 
ATOM      4  C   UNL d   1       0.794   1.149   0.170  0.00  0.00     0.292 C 
ATOM      5  C   UNL d   1      -0.731   1.311  -0.056  0.00  0.00     0.153 C 
ATOM      6  N   UNL d   1      -1.462   0.089   0.339  0.00  0.00    -0.375 N 
ATOM      7  C   UNL d   1      -0.912  -1.139  -0.258  0.00  0.00     0.153 C 
ATOM      8  C   UNL d   1       0.609  -1.231   0.021  0.00  0.00     0.292 C 
BRANCH   6   9
ATOM      9  C   UNL d   1      -2.642   0.157   1.076  0.00  0.00     0.064 A 
ATOM     10  C   UNL d   1      -3.167  -0.882   1.891  0.00  0.00     0.094 A 
ATOM     11  C   UNL d   1      -4.284  -0.653   2.725  0.00  0.00     0.039 A 
ATOM     12  C   UNL d   1      -4.942   0.572   2.733  0.00  0.00     0.003 A 
ATOM     13  C   UNL d   1      -4.503   1.575   1.892  0.00  0.00     0.002 A 
ATOM     14  C   UNL d   1      -3.385   1.361   1.079  0.00  0.00     0.032 A 
BRANCH  10  15
ATOM     15  O   UNL d   1      -2.520  -2.098   1.946  0.00  0.00    -0.354 OA
ATOM     16  C   UNL d   1      -3.364  -3.229   2.169  0.00  0.00     0.210 C 
ENDBRANCH  10  15
ENDBRANCH   6   9
ENDBRANCH   2   3
ENDBRANCH   1   2
BRANCH   1  17
ATOM     17  C   UNL d   1       2.558  -0.894  -4.038  0.00  0.00     0.021 C 
BRANCH  17  18
ATOM     18  C   UNL d   1       3.358   0.353  -4.423  0.00  0.00     0.122 C 
BRANCH  18  19
ATOM     19  N   UNL d   1       4.619   0.452  -3.702  0.00  0.00    -0.367 N 
ATOM     20  C   UNL d   1       5.518   1.466  -3.806  0.00  0.00     0.172 C 
ATOM     21  S   UNL d   1       5.578   2.561  -5.073  0.00  0.00    -0.041 SA
ATOM     22  H   UNL d   1       4.650  -0.076  -2.850  0.00  0.00     0.161 HD
BRANCH  20  23
ATOM     23  N   UNL d   1       6.384   1.687  -2.769  0.00  0.00    -0.333 N 
ATOM     24  H   UNL d   1       6.831   2.595  -2.879  0.00  0.00     0.168 HD
BRANCH  23  25
ATOM     25  C   UNL d   1       6.528   1.094  -1.499  0.00  0.00     0.037 A 
ATOM     26  C   UNL d   1       6.308  -0.256  -1.221  0.00  0.00     0.053 A 
ATOM     27  C   UNL d   1       6.365  -0.722   0.097  0.00  0.00     0.037 A 
ATOM     28 CL   UNL d   1       6.022  -2.376   0.428  0.00  0.00    -0.084 Cl
ATOM     29  C   UNL d   1       6.693   0.136   1.143  0.00  0.00     0.048 A 
ATOM     30  C   UNL d   1       6.997   1.452   0.857  0.00  0.00     0.037 A 
ATOM     31  C   UNL d   1       6.930   1.938  -0.456  0.00  0.00     0.053 A 
ATOM     32 CL   UNL d   1       7.436   2.532   2.127  0.00  0.00    -0.084 Cl
ENDBRANCH  23  25
ENDBRANCH  20  23
ENDBRANCH  18  19
ENDBRANCH  17  18
ENDBRANCH   1  17
TORSDOF 9
