REMARK  4 active torsions:
REMARK  status: ('A' for Active; 'I' for Inactive)
REMARK       I    between atoms: N_2  and  C_1 
REMARK    1  A    between atoms: C_3  and  C_1 
REMARK    2  A    between atoms: C_4  and  C_8 
REMARK    3  A    between atoms: O_18  and  C_9 
REMARK    4  A    between atoms: N_15  and  C_14 
ROOT
ATOM      1  C   UNL d   1       0.994  -0.129   0.083  0.00  0.00     0.253 C 
ATOM      2  N   UNL d   1       0.032  -0.912  -0.594  0.00  0.00    -0.348 N 
ATOM      3  C   UNL d   1       0.353  -2.201  -1.216  0.00  0.00     0.127 C 
ATOM      4  C   UNL d   1      -1.134  -0.195  -1.093  0.00  0.00     0.127 C 
ATOM      5  O   UNL d   1       0.751   0.965   0.591  0.00  0.00    -0.267 OA
ATOM      6  C   UNL d   1      -1.915  -2.373  -2.313  0.00  0.00     0.024 C 
ATOM      7  C   UNL d   1      -2.297  -1.066  -1.584  0.00  0.00     0.029 C 
ATOM      8  C   UNL d   1      -0.852  -3.087  -1.471  0.00  0.00     0.029 C 
ENDROOT
BRANCH   1   9
ATOM      9  C   UNL d   1       2.387  -0.634   0.160  0.00  0.00     0.032 C 
ATOM     10  C   UNL d   1       3.061  -0.988  -1.014  0.00  0.00     0.019 C 
ATOM     11  C   UNL d   1       4.244  -1.719  -0.942  0.00  0.00     0.024 C 
ATOM     12  C   UNL d   1       4.843  -1.979   0.290  0.00  0.00     0.005 C 
ATOM     13  C   UNL d   1       4.223  -1.511   1.456  0.00  0.00     0.024 C 
ATOM     14  C   UNL d   1       3.000  -0.828   1.398  0.00  0.00     0.019 C 
BRANCH  12  15
ATOM     15  N   UNL d   1       5.896  -2.896   0.367  0.00  0.00    -0.303 NA
ATOM     16  H   UNL d   1       6.493  -2.784   1.178  0.00  0.00     0.124 HD
ATOM     17  H   UNL d   1       6.417  -3.014  -0.495  0.00  0.00     0.124 HD
ENDBRANCH  12  15
ENDBRANCH   1   9
BRANCH   6  18
ATOM     18  C   UNL d   1      -1.560  -2.281  -3.805  0.00  0.00    -0.021 A 
ATOM     19  C   UNL d   1      -1.644  -3.425  -4.640  0.00  0.00     0.074 A 
ATOM     20  C   UNL d   1      -1.314  -3.336  -6.001  0.00  0.00     0.037 A 
ATOM     21  C   UNL d   1      -0.949  -2.117  -6.566  0.00  0.00     0.003 A 
ATOM     22  C   UNL d   1      -0.896  -0.983  -5.771  0.00  0.00     0.001 A 
ATOM     23  C   UNL d   1      -1.192  -1.069  -4.407  0.00  0.00     0.010 A 
BRANCH  19  24
ATOM     24  O   UNL d   1      -2.049  -4.602  -4.056  0.00  0.00    -0.355 OA
ATOM     25  C   UNL d   1      -2.633  -5.559  -4.935  0.00  0.00     0.210 C 
ENDBRANCH  19  24
ENDBRANCH   6  18
TORSDOF 4
