REMARK  2 active torsions:
REMARK  status: ('A' for Active; 'I' for Inactive)
REMARK    1  A    between atoms: N_6  and  C_1 
REMARK       I    between atoms: C_8  and  N_6 
REMARK    2  A    between atoms: C_10  and  C_8 
ROOT
ATOM      1  C   UNL d   1      -3.106   1.033  -0.123  0.00  0.00     0.152 A 
ATOM      2  C   UNL d   1      -1.037   0.334  -0.035  0.00  0.00     0.058 A 
ATOM      3  N   UNL d   1      -1.863   1.441  -0.050  0.00  0.00    -0.335 N 
ATOM      4  HN  UNL d   1      -1.557   2.413  -0.010  1.00  0.00     0.168 HD
ATOM      5  C   UNL d   1      -1.684  -0.884  -0.039  0.00  0.00     0.014 A 
ATOM      6  S   UNL d   1      -3.357  -0.660  -0.226  0.00  0.00    -0.056 SA
ATOM      7  C   UNL d   1       0.416   0.365   0.023  0.00  0.00    -0.002 A 
ATOM      8  C   UNL d   1      -1.023  -2.204   0.134  0.00  0.00     0.053 C 
ATOM      9  C   UNL d   1       1.135  -0.848  -0.117  0.00  0.00    -0.045 A 
ATOM     10  C   UNL d   1       0.411  -2.150  -0.414  0.00  0.00     0.044 C 
ATOM     11  C   UNL d   1       1.107   1.567   0.198  0.00  0.00     0.014 A 
ATOM     12  C   UNL d   1       2.535  -0.826  -0.080  0.00  0.00     0.008 A 
ATOM     13  C   UNL d   1       2.503   1.572   0.240  0.00  0.00     0.001 A 
ATOM     14  C   UNL d   1       3.214   0.379   0.104  0.00  0.00     0.001 A 
ENDROOT
BRANCH   1  15
ATOM     15  N   UNL d   1      -4.271   1.735  -0.087  0.00  0.00    -0.301 N 
ATOM     16  C   UNL d   1      -4.362   3.032   0.361  0.00  0.00     0.281 C 
ATOM     17  O   UNL d   1      -3.429   3.765   0.658  0.00  0.00    -0.265 OA
ATOM     18  H   UNL d   1      -5.128   1.213  -0.201  0.00  0.00     0.171 HD
BRANCH  16  19
ATOM     19  C   UNL d   1      -5.750   3.435   0.521  0.00  0.00     0.142 A 
ATOM     20  O   UNL d   1      -6.745   2.631   0.018  0.00  0.00    -0.317 OA
ATOM     21  C   UNL d   1      -7.929   3.221   0.320  0.00  0.00     0.143 A 
ATOM     22  C   UNL d   1      -7.724   4.381   1.028  0.00  0.00     0.027 A 
ATOM     23  C   UNL d   1      -6.320   4.526   1.151  0.00  0.00     0.045 A 
ENDBRANCH  16  19
ENDBRANCH   1  15
TORSDOF 2
