REMARK  6 active torsions:
REMARK  status: ('A' for Active; 'I' for Inactive)
REMARK    1  A    between atoms: C_9  and  C_2 
REMARK       I    between atoms: C_4  and  N_8 
REMARK       I    between atoms: N_7  and  C_4 
REMARK    2  A    between atoms: C_11  and  N_7 
REMARK    3  A    between atoms: N_8  and  C_9 
REMARK    4  A    between atoms: O_12  and  C_13 
REMARK    5  A    between atoms: C_15  and  O_12 
REMARK    6  A    between atoms: C_20  and  C_15 
ROOT
ATOM      1  C   UNL d   1      -0.695  -5.215   0.210  0.00  0.00     0.036 A 
ATOM      2  C   UNL d   1       2.119  -5.249   0.347  0.00  0.00     0.069 A 
ATOM      3  C   UNL d   1      -0.017  -4.581   1.256  0.00  0.00     0.032 A 
ATOM      4  C   UNL d   1       0.047  -5.971  -0.700  0.00  0.00     0.032 A 
ATOM      5  C   UNL d   1       1.449  -5.984  -0.633  0.00  0.00     0.039 A 
ATOM      6  C   UNL d   1       1.378  -4.593   1.324  0.00  0.00     0.039 A 
ENDROOT
BRANCH   1   7
ATOM      7  N   UNL d   1      -2.094  -5.100   0.038  0.00  0.00    -0.309 N 
ATOM      8  C   UNL d   1      -2.867  -4.084   0.571  0.00  0.00     0.321 C 
ATOM      9  N   UNL d   1      -4.203  -4.205   0.262  0.00  0.00    -0.337 N 
ATOM     10  O   UNL d   1      -2.447  -3.148   1.242  0.00  0.00    -0.247 OA
ATOM     11  H   UNL d   1      -4.496  -4.831  -0.469  0.00  0.00     0.164 HD
ATOM     12  H   UNL d   1      -2.513  -5.655  -0.695  0.00  0.00     0.170 HD
BRANCH   9  13
ATOM     13  C   UNL d   1      -5.126  -3.162   0.653  0.00  0.00     0.181 C 
BRANCH  13  14
ATOM     14  C   UNL d   1      -6.270  -3.705   1.445  0.00  0.00     0.029 A 
ATOM     15  N   UNL d   1      -7.282  -2.889   1.926  0.00  0.00    -0.357 N 
ATOM     16  C   UNL d   1      -8.149  -3.626   2.708  0.00  0.00     0.007 A 
ATOM     17  C   UNL d   1      -7.404  -1.462   1.699  0.00  0.00     0.156 C 
ATOM     18  C   UNL d   1      -7.704  -4.933   2.693  0.00  0.00     0.027 A 
ATOM     19  C   UNL d   1      -9.318  -3.056   3.436  0.00  0.00     0.068 C 
ATOM     20  C   UNL d   1      -6.534  -4.984   1.905  0.00  0.00     0.029 A 
ENDBRANCH  13  14
ENDBRANCH   9  13
ENDBRANCH   1   7
BRANCH   2  21
ATOM     21  O   UNL d   1       3.488  -5.252   0.289  0.00  0.00    -0.347 OA
BRANCH  21  22
ATOM     22  C   UNL d   1       4.101  -4.030   0.730  0.00  0.00     0.214 C 
BRANCH  22  23
ATOM     23  C   UNL d   1       5.601  -4.059   0.528  0.00  0.00    -0.034 A 
ATOM     24  C   UNL d   1       6.301  -2.862   0.306  0.00  0.00     0.009 A 
ATOM     25  C   UNL d   1       7.695  -2.859   0.210  0.00  0.00     0.001 A 
ATOM     26  C   UNL d   1       8.405  -4.049   0.343  0.00  0.00     0.000 A 
ATOM     27  C   UNL d   1       7.723  -5.243   0.570  0.00  0.00     0.001 A 
ATOM     28  C   UNL d   1       6.331  -5.248   0.667  0.00  0.00     0.009 A 
ENDBRANCH  22  23
ENDBRANCH  21  22
ENDBRANCH   2  21
TORSDOF 6
