REMARK  4 active torsions:
REMARK  status: ('A' for Active; 'I' for Inactive)
REMARK    1  A    between atoms: C_6  and  S_1 
REMARK    2  A    between atoms: N_12  and  S_1 
REMARK    3  A    between atoms: C_2  and  C_3 
REMARK       I    between atoms: C_3  and  N_5 
REMARK    4  A    between atoms: N_5  and  C_15 
ROOT
ATOM      1  C   UNL d   1       0.431   1.645  -0.123  0.00  0.00     0.074 A 
ATOM      2  C   UNL d   1      -0.935   1.822   0.106  0.00  0.00     0.027 A 
ATOM      3  C   UNL d   1       1.271   2.748  -0.266  0.00  0.00     0.027 A 
ATOM      4  C   UNL d   1      -0.619   4.235   0.101  0.00  0.00     0.035 A 
ATOM      5  C   UNL d   1      -1.456   3.115   0.209  0.00  0.00     0.031 A 
ATOM      6  C   UNL d   1       0.743   4.039  -0.153  0.00  0.00     0.031 A 
ENDROOT
BRANCH   4   7
ATOM      7  N   UNL d   1      -1.218   5.504   0.255  0.00  0.00    -0.323 N 
ATOM      8  C   UNL d   1      -0.581   6.731   0.295  0.00  0.00     0.259 C 
ATOM      9  O   UNL d   1       0.633   6.909   0.249  0.00  0.00    -0.267 OA
ATOM     10  H   UNL d   1      -2.224   5.501   0.385  0.00  0.00     0.169 HD
BRANCH   8  11
ATOM     11  C   UNL d   1      -1.450   7.943   0.389  0.00  0.00     0.071 A 
ATOM     12  C   UNL d   1      -2.835   7.885   0.578  0.00  0.00     0.135 A 
ATOM     13  C   UNL d   1      -3.610   9.042   0.604  0.00  0.00     0.085 A 
ATOM     14  F   UNL d   1      -3.460   6.707   0.733  0.00  0.00    -0.205 F 
ATOM     15  C   UNL d   1      -2.993  10.275   0.443  0.00  0.00     0.119 A 
ATOM     16  C   UNL d   1      -1.617  10.370   0.274  0.00  0.00     0.043 A 
ATOM     17  F   UNL d   1      -3.735  11.389   0.446  0.00  0.00    -0.206 F 
ATOM     18  C   UNL d   1      -0.846   9.205   0.251  0.00  0.00     0.023 A 
ENDBRANCH   8  11
ENDBRANCH   4   7
BRANCH   1  19
ATOM     19  S   UNL d   1       1.096   0.009  -0.169  0.00  0.00     0.239 S 
ATOM     20  O   UNL d   1       0.640  -0.706   1.001  0.00  0.00    -0.206 OA
ATOM     21  O   UNL d   1       2.486   0.061  -0.558  0.00  0.00    -0.206 OA
BRANCH  19  22
ATOM     22  N   UNL d   1       0.294  -0.679  -1.475  0.00  0.00    -0.225 NA
ATOM     23  H   UNL d   1      -0.270  -1.466  -1.151  0.00  0.00     0.136 HD
ATOM     24  H   UNL d   1       0.975  -0.934  -2.192  0.00  0.00     0.136 HD
ENDBRANCH  19  22
ENDBRANCH   1  19
TORSDOF 4
