REMARK  5 active torsions:
REMARK  status: ('A' for Active; 'I' for Inactive)
REMARK    1  A    between atoms: N_6  and  C_1 
REMARK    2  A    between atoms: C_11  and  N_2 
REMARK    3  A    between atoms: C_8  and  N_6 
REMARK    4  A    between atoms: C_10  and  C_7 
REMARK    5  A    between atoms: O_13  and  C_10 
ROOT
ATOM      1  C   UNL d   1      -0.466  -1.074   0.100  0.00  0.00     0.130 C 
ATOM      2  N   UNL d   1       0.866  -0.688   0.275  0.00  0.00    -0.240 N 
ATOM      3  N   UNL d   1       0.962   0.658   0.493  0.00  0.00    -0.297 N 
ATOM      4  HN  UNL d   1       1.792   1.187   0.761  1.00  0.00     0.187 HD
ATOM      5  C   UNL d   1      -1.198   0.093   0.092  0.00  0.00     0.076 C 
ATOM      6  C   UNL d   1      -0.270   1.130   0.278  0.00  0.00     0.026 C 
ATOM      7  C   UNL d   1      -0.530   2.588   0.255  0.00  0.00     0.070 C 
ENDROOT
BRANCH   1   8
ATOM      8  N   UNL d   1      -0.896  -2.365   0.025  0.00  0.00    -0.340 N 
ATOM      9  H   UNL d   1      -0.377  -3.119   0.493  0.00  0.00     0.167 HD
BRANCH   8  10
ATOM     10  C   UNL d   1      -1.948  -2.846  -0.797  0.00  0.00     0.050 A 
ATOM     11  C   UNL d   1      -2.640  -4.036  -0.486  0.00  0.00     0.064 A 
ATOM     12  C   UNL d   1      -3.697  -4.483  -1.300  0.00  0.00     0.020 A 
ATOM     13  C   UNL d   1      -4.103  -3.730  -2.400  0.00  0.00     0.001 A 
ATOM     14  C   UNL d   1      -3.447  -2.545  -2.708  0.00  0.00     0.002 A 
ATOM     15  C   UNL d   1      -2.380  -2.113  -1.914  0.00  0.00     0.030 A 
BRANCH  11  16
ATOM     16  C   UNL d   1      -2.217  -4.851   0.679  0.00  0.00     0.178 C 
ATOM     17  O   UNL d   1      -1.050  -4.959   1.019  0.00  0.00    -0.646 OA
BRANCH  16  18
ATOM     18  O   UNL d   1      -3.239  -5.438   1.341  0.00  0.00    -0.773 OA
ATOM     19  H   UNL d   1      -4.128  -5.128   1.083  0.00  0.00     0.167 HD
ENDBRANCH  16  18
ENDBRANCH  11  16
ENDBRANCH   8  10
ENDBRANCH   1   8
BRANCH   2  20
ATOM     20  C   UNL d   1       2.059  -1.455   0.140  0.00  0.00     0.058 A 
ATOM     21  C   UNL d   1       2.094  -2.607  -0.657  0.00  0.00     0.031 A 
ATOM     22  C   UNL d   1       3.289  -3.312  -0.816  0.00  0.00     0.002 A 
ATOM     23  C   UNL d   1       4.448  -2.882  -0.171  0.00  0.00     0.000 A 
ATOM     24  C   UNL d   1       4.422  -1.735   0.619  0.00  0.00     0.002 A 
ATOM     25  C   UNL d   1       3.235  -1.010   0.761  0.00  0.00     0.031 A 
ENDBRANCH   2  20
TORSDOF 5
