REMARK  2 active torsions:
REMARK  status: ('A' for Active; 'I' for Inactive)
REMARK    1  A    between atoms: C_4  and  C_1 
REMARK       I    between atoms: N_7  and  C_4 
REMARK    2  A    between atoms: C_11  and  N_7 
ROOT
ATOM      1  C   UNL d   1       3.492   2.849   0.116  0.00  0.00     0.117 A 
ATOM      2  N   UNL d   1       4.691   3.488   0.178  0.00  0.00    -0.349 N 
ATOM      3  HN  UNL d   1       5.578   2.984   0.201  1.00  0.00     0.166 HD
ATOM      4  N   UNL d   1       2.207   4.875   0.151  0.00  0.00    -0.362 N 
ATOM      5  HN  UNL d   1       1.313   5.366   0.153  1.00  0.00     0.165 HD
ATOM      6  C   UNL d   1       4.623   4.842   0.208  0.00  0.00     0.059 A 
ATOM      7  C   UNL d   1       2.283   3.527   0.118  0.00  0.00     0.123 A 
ATOM      8  C   UNL d   1       3.377   5.532   0.181  0.00  0.00     0.059 A 
ATOM      9  C   UNL d   1       5.788   5.599   0.257  0.00  0.00     0.032 A 
ATOM     10  C   UNL d   1       3.353   6.918   0.175  0.00  0.00     0.032 A 
ATOM     11  C   UNL d   1       5.752   6.999   0.256  0.00  0.00     0.002 A 
ATOM     12  C   UNL d   1       4.531   7.659   0.206  0.00  0.00     0.002 A 
ENDROOT
BRANCH   1  13
ATOM     13  C   UNL d   1       3.462   1.369  -0.000  0.00  0.00     0.274 C 
ATOM     14  N   UNL d   1       4.690   0.727   0.013  0.00  0.00    -0.322 N 
ATOM     15  H   UNL d   1       5.495   1.312   0.219  0.00  0.00     0.169 HD
ATOM     16  O   UNL d   1       2.360   0.829  -0.076  0.00  0.00    -0.266 OA
BRANCH  14  17
ATOM     17  C   UNL d   1       4.876  -0.673  -0.067  0.00  0.00     0.035 A 
ATOM     18  C   UNL d   1       3.871  -1.544  -0.498  0.00  0.00     0.037 A 
ATOM     19  C   UNL d   1       4.028  -2.939  -0.458  0.00  0.00    -0.054 A 
ATOM     20  C   UNL d   1       2.877  -3.810  -0.882  0.00  0.00     0.049 C 
ATOM     21  C   UNL d   1       5.238  -3.478   0.008  0.00  0.00    -0.056 A 
ATOM     22  C   UNL d   1       6.275  -2.604   0.371  0.00  0.00     0.009 A 
ATOM     23  C   UNL d   1       5.420  -4.964   0.153  0.00  0.00     0.049 C 
ATOM     24  C   UNL d   1       6.100  -1.214   0.324  0.00  0.00     0.030 A 
ENDBRANCH  14  17
ENDBRANCH   1  13
TORSDOF 2
