REMARK  2 active torsions:
REMARK  status: ('A' for Active; 'I' for Inactive)
REMARK    1  A    between atoms: C_10  and  C_3 
REMARK    2  A    between atoms: C_9  and  C_12 
ROOT
ATOM      1  C   UNL d   1       0.344   0.815   0.956  0.00  0.00     0.183 A 
ATOM      2  C   UNL d   1       0.567   1.845   1.933  0.00  0.00     0.079 A 
ATOM      3  C   UNL d   1      -0.194  -1.030   0.003  0.00  0.00     0.175 A 
ATOM      4  O   UNL d   1      -0.160  -0.438   1.238  0.00  0.00    -0.272 OA
ATOM      5  N   UNL d   1       0.598   0.947  -0.337  0.00  0.00    -0.277 N 
ATOM      6  HN  UNL d   1       0.969   1.777  -0.797  1.00  0.00     0.189 HD
ATOM      7  N   UNL d   1       0.268  -0.244  -0.945  0.00  0.00    -0.277 N 
ATOM      8  HN  UNL d   1       0.363  -0.472  -1.935  1.00  0.00     0.189 HD
ATOM      9  C   UNL d   1       0.501   1.759   3.314  0.00  0.00     0.056 A 
ATOM     10  S   UNL d   1       0.976   3.441   1.440  0.00  0.00    -0.096 SA
ATOM     11  C   UNL d   1       0.790   3.003   3.954  0.00  0.00     0.032 A 
ATOM     12  C   UNL d   1       1.065   4.003   3.049  0.00  0.00     0.052 A 
ATOM     13 CL   UNL d   1       0.136   0.364   4.244  0.00  0.00    -0.083 Cl
ENDROOT
BRANCH   3  14
ATOM     14  C   UNL d   1      -0.678  -2.402  -0.062  0.00  0.00     0.032 A 
ATOM     15  C   UNL d   1      -1.502  -2.880  -1.102  0.00  0.00     0.062 A 
ATOM     16  C   UNL d   1      -1.847  -4.251  -1.124  0.00  0.00     0.017 A 
ATOM     17  C   UNL d   1      -1.411  -5.128  -0.134  0.00  0.00     0.001 A 
ATOM     18  C   UNL d   1      -0.625  -4.651   0.906  0.00  0.00     0.001 A 
ATOM     19  C   UNL d   1      -0.263  -3.303   0.941  0.00  0.00     0.017 A 
BRANCH  15  20
ATOM     20  C   UNL d   1      -2.072  -2.025  -2.214  0.00  0.00     0.418 C 
ATOM     21  F   UNL d   1      -1.984  -0.683  -2.047  0.00  0.00    -0.166 F 
ATOM     22  F   UNL d   1      -1.505  -2.308  -3.419  0.00  0.00    -0.166 F 
ATOM     23  F   UNL d   1      -3.409  -2.263  -2.381  0.00  0.00    -0.166 F 
ENDBRANCH  15  20
ENDBRANCH   3  14
TORSDOF 2
