REMARK  1 active torsions:
REMARK  status: ('A' for Active; 'I' for Inactive)
REMARK    1  A    between atoms: C_5  and  C_3 
ROOT
ATOM      1  C   UNL d   1      -1.175  -0.757   0.059  0.00  0.00     0.045 A 
ATOM      2  C   UNL d   1      -1.794   0.623   0.090  0.00  0.00     0.257 A 
ATOM      3  C   UNL d   1      -1.857  -1.917   0.049  0.00  0.00     0.032 C 
ATOM      4  N   UNL d   1      -0.722   1.497   0.082  0.00  0.00    -0.322 N 
ATOM      5  C   UNL d   1       0.282  -0.567   0.037  0.00  0.00     0.006 A 
ATOM      6  C   UNL d   1       0.490   0.818   0.055  0.00  0.00     0.046 A 
ATOM      7  O   UNL d   1      -2.969   0.936   0.123  0.00  0.00    -0.267 OA
ATOM      8  C   UNL d   1       1.369  -1.423  -0.011  0.00  0.00     0.015 A 
ATOM      9  C   UNL d   1       1.744   1.395   0.043  0.00  0.00     0.030 A 
ATOM     10  C   UNL d   1       2.656  -0.859  -0.026  0.00  0.00     0.001 A 
ATOM     11  C   UNL d   1       2.841   0.536   0.005  0.00  0.00     0.002 A 
ATOM     12  H   UNL d   1      -0.840   2.497   0.098  0.00  0.00     0.169 HD
ENDROOT
BRANCH   3  13
ATOM     13  C   UNL d   1      -3.327  -1.989   0.016  0.00  0.00     0.002 A 
ATOM     14  C   UNL d   1      -4.105  -2.015   1.189  0.00  0.00     0.090 A 
ATOM     15  C   UNL d   1      -5.506  -1.976   1.118  0.00  0.00     0.003 A 
ATOM     16  O   UNL d   1      -3.453  -2.089   2.395  0.00  0.00    -0.325 OA
ATOM     17  C   UNL d   1      -6.319  -1.979   2.376  0.00  0.00     0.212 C 
ATOM     18  C   UNL d   1      -6.132  -1.876  -0.129  0.00  0.00     0.054 A 
ATOM     19  O   UNL d   1      -5.550  -2.475   3.464  0.00  0.00    -0.362 OA
ATOM     20  C   UNL d   1      -4.299  -1.800   3.507  0.00  0.00     0.345 C 
ATOM     21  C   UNL d   1      -5.361  -1.865  -1.284  0.00  0.00     0.117 A 
ATOM     22  C   UNL d   1      -3.973  -1.933  -1.226  0.00  0.00     0.056 A 
ATOM     23  F   UNL d   1      -5.968  -1.771  -2.475  0.00  0.00    -0.206 F 
ENDBRANCH   3  13
TORSDOF 1
