REMARK  4 active torsions:
REMARK  status: ('A' for Active; 'I' for Inactive)
REMARK    1  A    between atoms: N_2  and  C_1 
REMARK    2  A    between atoms: N_3  and  C_1 
REMARK    3  A    between atoms: C_4  and  N_2 
REMARK    4  A    between atoms: C_5  and  N_3 
ROOT
ATOM      1  C   UNL d   1       1.093   0.102   0.074  0.00  0.00     0.176 C 
ATOM      2  S   UNL d   1       2.720  -0.094   0.404  0.00  0.00    -0.041 SA
ENDROOT
BRANCH   1   3
ATOM      3  N   UNL d   1       0.547   0.904  -0.900  0.00  0.00    -0.331 N 
ATOM      4  H   UNL d   1      -0.220   1.484  -0.569  0.00  0.00     0.168 HD
BRANCH   3   5
ATOM      5  C   UNL d   1       1.067   1.259  -2.159  0.00  0.00     0.073 A 
ATOM      6  C   UNL d   1       0.674   2.478  -2.722  0.00  0.00     0.143 A 
ATOM      7  F   UNL d   1      -0.106   3.315  -2.019  0.00  0.00    -0.204 F 
ATOM      8  C   UNL d   1       1.089   2.853  -3.997  0.00  0.00     0.044 A 
ATOM      9  C   UNL d   1       1.878   1.982  -4.739  0.00  0.00     0.003 A 
ATOM     10  C   UNL d   1       2.257   0.751  -4.202  0.00  0.00     0.002 A 
ATOM     11  C   UNL d   1       1.860   0.392  -2.911  0.00  0.00     0.033 A 
ENDBRANCH   3   5
ENDBRANCH   1   3
BRANCH   1  12
ATOM     12  N   UNL d   1       0.175  -0.448   0.935  0.00  0.00    -0.331 N 
ATOM     13  H   UNL d   1       0.518  -0.677   1.864  0.00  0.00     0.168 HD
BRANCH  12  14
ATOM     14  C   UNL d   1      -1.113  -0.938   0.621  0.00  0.00     0.073 A 
ATOM     15  C   UNL d   1      -1.997  -1.206   1.671  0.00  0.00     0.143 A 
ATOM     16  F   UNL d   1      -1.630  -0.939   2.933  0.00  0.00    -0.204 F 
ATOM     17  C   UNL d   1      -3.265  -1.728   1.431  0.00  0.00     0.044 A 
ATOM     18  C   UNL d   1      -3.653  -2.028   0.127  0.00  0.00     0.003 A 
ATOM     19  C   UNL d   1      -2.770  -1.800  -0.929  0.00  0.00     0.002 A 
ATOM     20  C   UNL d   1      -1.508  -1.251  -0.684  0.00  0.00     0.033 A 
ENDBRANCH  12  14
ENDBRANCH   1  12
TORSDOF 4
