REMARK  4 active torsions:
REMARK  status: ('A' for Active; 'I' for Inactive)
REMARK    1  A    between atoms: N_9  and  C_1 
REMARK    2  A    between atoms: C_2  and  C_5 
REMARK    3  A    between atoms: N_7  and  N_9 
REMARK    4  A    between atoms: C_17  and  C_12 
ROOT
ATOM      1  C   UNL d   1      -0.281   1.111  -0.044  0.00  0.00     0.143 A 
ATOM      2  N   UNL d   1      -1.256   0.957  -0.990  0.00  0.00    -0.349 N 
ATOM      3  HN  UNL d   1      -1.511   1.737  -1.595  1.00  0.00     0.167 HD
ATOM      4  C   UNL d   1      -1.601  -1.343  -0.343  0.00  0.00     0.065 A 
ATOM      5  C   UNL d   1       0.073   0.015   0.769  0.00  0.00     0.080 A 
ATOM      6  C   UNL d   1      -0.587  -1.211   0.604  0.00  0.00     0.045 A 
ATOM      7  C   UNL d   1      -1.882  -0.235  -1.120  0.00  0.00     0.106 A 
ATOM      8 CL   UNL d   1       1.202   0.094   2.076  0.00  0.00    -0.080 Cl
ENDROOT
BRANCH   1   9
ATOM      9  N   UNL d   1       0.256   2.421   0.184  0.00  0.00    -0.280 N 
ATOM     10  C   UNL d   1       1.699   2.513  -0.069  0.00  0.00     0.179 C 
BRANCH   9  11
ATOM     11  N   UNL d   1      -0.415   3.540  -0.283  0.00  0.00    -0.308 N 
ATOM     12  C   UNL d   1      -1.674   3.627   0.027  0.00  0.00     0.118 C 
ATOM     13  HN  UNL d   1       0.053   4.255  -0.838  1.00  0.00     0.186 HD
BRANCH  12  14
ATOM     14  C   UNL d   1      -2.485   4.816  -0.296  0.00  0.00    -0.019 A 
ATOM     15  C   UNL d   1      -1.898   5.993  -0.768  0.00  0.00     0.013 A 
ATOM     16  C   UNL d   1      -2.686   7.128  -0.962  0.00  0.00     0.001 A 
ATOM     17  C   UNL d   1      -4.055   7.087  -0.695  0.00  0.00     0.000 A 
ATOM     18  C   UNL d   1      -4.643   5.905  -0.244  0.00  0.00     0.001 A 
ATOM     19  C   UNL d   1      -3.859   4.768  -0.041  0.00  0.00     0.013 A 
ENDBRANCH  12  14
ENDBRANCH   9  11
ENDBRANCH   1   9
BRANCH   4  20
ATOM     20  C   UNL d   1      -2.404  -2.595  -0.504  0.00  0.00     0.418 C 
ATOM     21  F   UNL d   1      -2.034  -3.589   0.350  0.00  0.00    -0.166 F 
ATOM     22  F   UNL d   1      -3.732  -2.392  -0.285  0.00  0.00    -0.166 F 
ATOM     23  F   UNL d   1      -2.307  -3.122  -1.754  0.00  0.00    -0.166 F 
ENDBRANCH   4  20
TORSDOF 4
