REMARK  3 active torsions:
REMARK  status: ('A' for Active; 'I' for Inactive)
REMARK    1  A    between atoms: C_10  and  N_1 
REMARK    2  A    between atoms: C_7  and  C_2 
REMARK    3  A    between atoms: N_9  and  C_8 
ROOT
ATOM      1  N   UNL d   1       0.089  -0.789   1.025  0.00  0.00    -0.225 N 
ATOM      2  C   UNL d   1       1.117  -0.749   0.080  0.00  0.00     0.139 A 
ATOM      3  N   UNL d   1      -0.617   0.238  -0.732  0.00  0.00    -0.007 NA
ATOM      4  N   UNL d   1      -0.991  -0.175   0.466  0.00  0.00     0.001 NA
ATOM      5  N   UNL d   1       0.675  -0.106  -0.988  0.00  0.00    -0.270 N 
ATOM      6  HN  UNL d   1       1.201   0.095  -1.838  1.00  0.00     0.185 HD
ENDROOT
BRANCH   2   7
ATOM      7  C   UNL d   1       2.385  -1.328   0.282  0.00  0.00     0.068 C 
ATOM      8  C   UNL d   1       2.640  -2.576  -0.142  0.00  0.00     0.089 C 
BRANCH   8   9
ATOM      9  N   UNL d   1       3.805  -3.305  -0.024  0.00  0.00    -0.390 N 
ATOM     10  C   UNL d   1       5.053  -2.851   0.585  0.00  0.00     0.122 C 
ATOM     11  C   UNL d   1       6.122  -3.462  -0.307  0.00  0.00     0.021 C 
ATOM     12  C   UNL d   1       5.535  -4.815  -0.668  0.00  0.00     0.021 C 
ATOM     13  C   UNL d   1       4.028  -4.568  -0.742  0.00  0.00     0.122 C 
ENDBRANCH   8   9
ENDBRANCH   2   7
BRANCH   1  14
ATOM     14  C   UNL d   1      -0.004  -1.329   2.345  0.00  0.00     0.056 A 
ATOM     15  C   UNL d   1       1.100  -1.850   3.034  0.00  0.00     0.031 A 
ATOM     16  C   UNL d   1       0.946  -2.399   4.311  0.00  0.00     0.002 A 
ATOM     17  C   UNL d   1      -0.305  -2.430   4.918  0.00  0.00     0.000 A 
ATOM     18  C   UNL d   1      -1.407  -1.899   4.255  0.00  0.00     0.002 A 
ATOM     19  C   UNL d   1      -1.259  -1.346   2.980  0.00  0.00     0.031 A 
ENDBRANCH   1  14
TORSDOF 3
