REMARK  5 active torsions:
REMARK  status: ('A' for Active; 'I' for Inactive)
REMARK    1  A    between atoms: C_6  and  C_2 
REMARK       I    between atoms: C_9  and  N_3 
REMARK    2  A    between atoms: C_14  and  C_9 
REMARK    3  A    between atoms: C_12  and  C_19 
REMARK    4  A    between atoms: O_20  and  C_12 
REMARK    5  A    between atoms: C_19  and  C_14 
ROOT
ATOM      1  C   UNL d   1       1.092  -0.799  -0.074  0.00  0.00     0.049 A 
ATOM      2  C   UNL d   1       2.519  -1.298  -0.034  0.00  0.00     0.245 C 
ATOM      3  N   UNL d   1       3.430  -0.122  -0.243  0.00  0.00    -0.333 N 
ATOM      4  C   UNL d   1       0.666   0.512  -0.113  0.00  0.00    -0.019 A 
ATOM      5  N   UNL d   1      -0.020  -1.601  -0.018  0.00  0.00    -0.356 N 
ATOM      6  C   UNL d   1      -0.753   0.513  -0.058  0.00  0.00    -0.001 A 
ATOM      7  C   UNL d   1      -1.159  -0.823  -0.009  0.00  0.00     0.043 A 
ATOM      8  C   UNL d   1       4.708  -0.392  -0.719  0.00  0.00     0.221 C 
ATOM      9  C   UNL d   1       3.004   1.175   0.338  0.00  0.00     0.131 C 
ATOM     10  C   UNL d   1       1.636   1.634  -0.197  0.00  0.00     0.061 C 
ATOM     11  O   UNL d   1       5.073  -1.542  -0.968  0.00  0.00    -0.273 OA
ATOM     12  C   UNL d   1      -1.739   1.518  -0.045  0.00  0.00     0.014 A 
ATOM     13  C   UNL d   1      -2.506  -1.202   0.039  0.00  0.00     0.030 A 
ATOM     14  C   UNL d   1      -3.090   1.156   0.002  0.00  0.00     0.001 A 
ATOM     15  C   UNL d   1      -3.466  -0.185   0.039  0.00  0.00     0.002 A 
ATOM     16  H   UNL d   1      -0.026  -2.610   0.051  0.00  0.00     0.166 HD
ENDROOT
BRANCH   2  17
ATOM     17  C   UNL d   1       2.820  -2.127   1.247  0.00  0.00     0.413 C 
ATOM     18  F   UNL d   1       1.733  -2.221   2.058  0.00  0.00    -0.168 F 
ATOM     19  F   UNL d   1       3.165  -3.399   0.933  0.00  0.00    -0.168 F 
ATOM     20  F   UNL d   1       3.814  -1.599   1.996  0.00  0.00    -0.168 F 
ENDBRANCH   2  17
BRANCH   8  21
ATOM     21  C   UNL d   1       5.646   0.784  -0.930  0.00  0.00     0.113 C 
BRANCH  21  22
ATOM     22  C   UNL d   1       6.653   0.546  -2.054  0.00  0.00     0.119 C 
BRANCH  22  23
ATOM     23  C   UNL d   1       7.547   1.756  -2.217  0.00  0.00     0.139 C 
ATOM     24  O   UNL d   1       7.476   2.768  -1.551  0.00  0.00    -0.650 OA
BRANCH  23  25
ATOM     25  O   UNL d   1       8.457   1.608  -3.209  0.00  0.00    -0.776 OA
ATOM     26  H   UNL d   1       8.416   0.750  -3.673  0.00  0.00     0.167 HD
ENDBRANCH  23  25
ENDBRANCH  22  23
ENDBRANCH  21  22
ENDBRANCH   8  21
TORSDOF 5
