REMARK  3 active torsions:
REMARK  status: ('A' for Active; 'I' for Inactive)
REMARK    1  A    between atoms: C_3  and  N_1 
REMARK    2  A    between atoms: S_8  and  C_2 
REMARK    3  A    between atoms: C_11  and  S_8 
ROOT
ATOM      1  C   UNL d   1       2.857  -1.442   1.197  0.00  0.00     0.102 A 
ATOM      2  C   UNL d   1       2.161  -1.432  -0.022  0.00  0.00     0.073 A 
ATOM      3  N   UNL d   1       3.939  -2.252   1.385  0.00  0.00    -0.358 N 
ATOM      4  HN  UNL d   1       4.442  -2.246   2.271  1.00  0.00     0.166 HD
ATOM      5  C   UNL d   1       2.606  -2.282  -1.050  0.00  0.00     0.034 A 
ATOM      6  C   UNL d   1       4.330  -3.059   0.382  0.00  0.00     0.089 A 
ATOM      7  C   UNL d   1       3.704  -3.106  -0.845  0.00  0.00     0.019 A 
ENDROOT
BRANCH   1   8
ATOM      8  S   UNL d   1       2.472  -0.400   2.587  0.00  0.00    -0.070 SA
BRANCH   8   9
ATOM      9  C   UNL d   1       2.431  -1.422   4.035  0.00  0.00     0.007 A 
ATOM     10  C   UNL d   1       2.845  -0.838   5.242  0.00  0.00     0.019 A 
ATOM     11  C   UNL d   1       2.627  -1.483   6.461  0.00  0.00     0.008 A 
ATOM     12  C   UNL d   1       1.985  -2.724   6.495  0.00  0.00    -0.062 A 
ATOM     13  C   UNL d   1       1.628  -3.336   5.287  0.00  0.00     0.008 A 
ATOM     14  C   UNL d   1       1.654  -3.353   7.814  0.00  0.00     0.048 C 
ATOM     15  C   UNL d   1       1.848  -2.688   4.065  0.00  0.00     0.019 A 
ENDBRANCH   8   9
ENDBRANCH   1   8
BRANCH   2  16
ATOM     16  N   UNL d   1       1.012  -0.625  -0.291  0.00  0.00    -0.317 N 
ATOM     17  C   UNL d   1      -0.184  -1.080  -0.866  0.00  0.00     0.013 A 
ATOM     18  C   UNL d   1      -1.035  -0.003  -1.018  0.00  0.00     0.027 A 
ATOM     19  C   UNL d   1      -0.525  -2.497  -1.193  0.00  0.00     0.068 C 
ATOM     20  C   UNL d   1      -0.370   1.138  -0.555  0.00  0.00     0.027 A 
ATOM     21  C   UNL d   1       0.903   0.763  -0.165  0.00  0.00     0.013 A 
ATOM     22  C   UNL d   1       1.986   1.706   0.239  0.00  0.00     0.068 C 
ENDBRANCH   2  16
TORSDOF 3
