REMARK  2 active torsions:
REMARK  status: ('A' for Active; 'I' for Inactive)
REMARK    1  A    between atoms: C_10  and  C_3 
REMARK    2  A    between atoms: C_9  and  C_5 
ROOT
ATOM      1  N   UNL d   1      -0.432   1.623  -0.791  0.00  0.00    -0.358 N 
ATOM      2  HN  UNL d   1      -0.252   2.200  -1.612  1.00  0.00     0.166 HD
ATOM      3  C   UNL d   1      -1.571   1.730  -0.171  0.00  0.00     0.021 C 
ATOM      4  S   UNL d   1      -1.196  -1.474  -0.479  0.00  0.00    -0.118 SA
ATOM      5  C   UNL d   1      -2.340  -0.549   0.640  0.00  0.00     0.091 C 
ATOM      6  C   UNL d   1      -1.944   0.879   1.030  0.00  0.00     0.078 C 
ATOM      7  C   UNL d   1       0.558   0.723  -0.345  0.00  0.00     0.049 A 
ATOM      8  C   UNL d   1       0.361  -0.660  -0.171  0.00  0.00     0.028 A 
ATOM      9  C   UNL d   1       1.834   1.256  -0.125  0.00  0.00     0.031 A 
ATOM     10  C   UNL d   1       1.440  -1.474   0.208  0.00  0.00     0.021 A 
ATOM     11  C   UNL d   1       2.703  -0.924   0.430  0.00  0.00     0.002 A 
ATOM     12  C   UNL d   1       2.900   0.443   0.266  0.00  0.00     0.002 A 
ENDROOT
BRANCH   5  13
ATOM     13  C   UNL d   1      -3.783  -0.641   0.149  0.00  0.00    -0.044 A 
ATOM     14  C   UNL d   1      -4.133  -0.481  -1.202  0.00  0.00     0.009 A 
ATOM     15  C   UNL d   1      -5.450  -0.671  -1.629  0.00  0.00     0.007 A 
ATOM     16  C   UNL d   1      -6.453  -1.006  -0.715  0.00  0.00    -0.062 A 
ATOM     17  C   UNL d   1      -6.128  -1.095   0.641  0.00  0.00     0.007 A 
ATOM     18  C   UNL d   1      -7.848  -1.273  -1.196  0.00  0.00     0.048 C 
ATOM     19  C   UNL d   1      -4.809  -0.912   1.069  0.00  0.00     0.009 A 
ENDBRANCH   5  13
BRANCH   3  20
ATOM     20  C   UNL d   1      -2.550   2.744  -0.668  0.00  0.00    -0.014 A 
ATOM     21  C   UNL d   1      -2.595   3.018  -2.041  0.00  0.00     0.013 A 
ATOM     22  C   UNL d   1      -3.473   3.982  -2.541  0.00  0.00     0.001 A 
ATOM     23  C   UNL d   1      -4.305   4.684  -1.668  0.00  0.00     0.000 A 
ATOM     24  C   UNL d   1      -4.260   4.422  -0.300  0.00  0.00     0.001 A 
ATOM     25  C   UNL d   1      -3.383   3.457   0.202  0.00  0.00     0.013 A 
ENDBRANCH   3  20
TORSDOF 2
