REMARK  7 active torsions:
REMARK  status: ('A' for Active; 'I' for Inactive)
REMARK    1  A    between atoms: C_12  and  N_3 
REMARK    2  A    between atoms: C_9  and  N_6 
REMARK    3  A    between atoms: C_20  and  C_8 
REMARK    4  A    between atoms: C_23  and  C_20 
REMARK    5  A    between atoms: C_26  and  C_23 
REMARK    6  A    between atoms: C_24  and  C_25 
REMARK    7  A    between atoms: C_25  and  C_26 
ROOT
ATOM      1  C   UNL d   1      -0.002  -0.801  -0.619  0.00  0.00     0.260 C 
ATOM      2  C   UNL d   1       0.074   0.694  -0.675  0.00  0.00     0.145 C 
ATOM      3  N   UNL d   1      -1.636   0.057   0.805  0.00  0.00    -0.250 N 
ATOM      4  C   UNL d   1      -1.295  -1.074   0.094  0.00  0.00     0.263 C 
ATOM      5  C   UNL d   1      -0.963   1.151   0.306  0.00  0.00     0.240 C 
ATOM      6  N   UNL d   1       1.741  -0.156   0.681  0.00  0.00    -0.252 N 
ATOM      7  O   UNL d   1       1.042  -1.284   0.229  0.00  0.00    -0.261 OA
ATOM      8  C   UNL d   1       1.449   1.019  -0.133  0.00  0.00     0.131 C 
ATOM      9  O   UNL d   1      -1.119   2.343   0.538  0.00  0.00    -0.272 OA
ATOM     10  O   UNL d   1      -1.896  -2.137  -0.008  0.00  0.00    -0.270 OA
ENDROOT
BRANCH   6  11
ATOM     11  C   UNL d   1       2.367  -0.151   1.925  0.00  0.00     0.059 A 
ATOM     12  C   UNL d   1       2.382  -1.323   2.703  0.00  0.00     0.057 A 
ATOM     13  C   UNL d   1       3.047  -1.385   3.933  0.00  0.00     0.058 A 
ATOM     14 CL   UNL d   1       3.019  -2.887   4.789  0.00  0.00    -0.082 Cl
ATOM     15  C   UNL d   1       3.711  -0.260   4.419  0.00  0.00     0.055 A 
ATOM     16  C   UNL d   1       3.691   0.920   3.676  0.00  0.00     0.028 A 
ATOM     17 CL   UNL d   1       4.582  -0.262   5.910  0.00  0.00    -0.083 Cl
ATOM     18  C   UNL d   1       3.027   0.970   2.444  0.00  0.00     0.033 A 
ENDBRANCH   6  11
BRANCH   8  19
ATOM     19  C   UNL d   1       2.526   1.133  -1.221  0.00  0.00     0.029 C 
BRANCH  19  20
ATOM     20  C   UNL d   1       2.248   2.275  -2.193  0.00  0.00     0.002 C 
BRANCH  20  21
ATOM     21  C   UNL d   1       3.315   2.361  -3.280  0.00  0.00     0.000 C 
BRANCH  21  22
ATOM     22  C   UNL d   1       2.948   3.460  -4.274  0.00  0.00    -0.000 C 
BRANCH  22  23
ATOM     23  C   UNL d   1       3.983   3.584  -5.385  0.00  0.00    -0.005 C 
ATOM     24  C   UNL d   1       3.602   4.689  -6.356  0.00  0.00     0.005 C 
ENDBRANCH  22  23
ENDBRANCH  21  22
ENDBRANCH  20  21
ENDBRANCH  19  20
ENDBRANCH   8  19
BRANCH   3  25
ATOM     25  C   UNL d   1      -2.541   0.082   1.905  0.00  0.00     0.045 A 
ATOM     26  C   UNL d   1      -2.942   1.283   2.510  0.00  0.00     0.030 A 
ATOM     27  C   UNL d   1      -3.739   1.290   3.660  0.00  0.00     0.002 A 
ATOM     28  C   UNL d   1      -4.154   0.094   4.230  0.00  0.00     0.000 A 
ATOM     29  C   UNL d   1      -3.779  -1.109   3.647  0.00  0.00     0.002 A 
ATOM     30  C   UNL d   1      -2.984  -1.113   2.496  0.00  0.00     0.030 A 
ENDBRANCH   3  25
TORSDOF 7
