REMARK  8 active torsions:
REMARK  status: ('A' for Active; 'I' for Inactive)
REMARK    1  A    between atoms: C_4  and  C_1 
REMARK    2  A    between atoms: C_2  and  C_9 
REMARK    3  A    between atoms: O_24  and  C_4 
REMARK    4  A    between atoms: C_12  and  C_6 
REMARK    5  A    between atoms: N_22  and  C_6 
REMARK    6  A    between atoms: C_23  and  C_7 
REMARK    7  A    between atoms: N_10  and  O_21 
REMARK    8  A    between atoms: O_21  and  C_23 
ROOT
ATOM      1  C   UNL d   1       0.811  -5.577  -0.102  0.00  0.00     0.108 C 
ATOM      2  N   UNL d   1      -0.156  -4.725   0.102  0.00  0.00    -0.255 N 
ATOM      3  HN  UNL d   1      -0.030  -3.729   0.283  1.00  0.00     0.195 HD
ENDROOT
BRANCH   1   4
ATOM      4  C   UNL d   1       2.227  -5.097  -0.060  0.00  0.00     0.004 A 
ATOM      5  C   UNL d   1       2.579  -4.010   0.744  0.00  0.00     0.015 A 
ATOM      6  C   UNL d   1       3.912  -3.587   0.808  0.00  0.00     0.017 A 
ATOM      7  C   UNL d   1       4.907  -4.240   0.062  0.00  0.00     0.048 A 
ATOM      8  C   UNL d   1       4.541  -5.323  -0.753  0.00  0.00     0.017 A 
ATOM      9  C   UNL d   1       3.211  -5.751  -0.812  0.00  0.00     0.015 A 
BRANCH   7  10
ATOM     10  C   UNL d   1       6.350  -3.798   0.126  0.00  0.00     0.417 C 
ATOM     11  F   UNL d   1       6.564  -2.748   0.968  0.00  0.00    -0.166 F 
ATOM     12  F   UNL d   1       7.178  -4.791   0.554  0.00  0.00    -0.166 F 
ATOM     13  F   UNL d   1       6.832  -3.408  -1.087  0.00  0.00    -0.166 F 
ENDBRANCH   7  10
ENDBRANCH   1   4
BRANCH   1  14
ATOM     14  N   UNL d   1       0.581  -6.915  -0.335  0.00  0.00    -0.286 NA
ATOM     15  H   UNL d   1      -0.379  -7.150  -0.093  0.00  0.00     0.125 HD
ATOM     16  H   UNL d   1       1.247  -7.548   0.092  0.00  0.00     0.125 HD
ENDBRANCH   1  14
BRANCH   2  17
ATOM     17  O   UNL d   1      -1.402  -5.386   0.035  0.00  0.00    -0.273 OA
BRANCH  17  18
ATOM     18  C   UNL d   1      -2.463  -4.437   0.166  0.00  0.00     0.266 C 
BRANCH  18  19
ATOM     19  C   UNL d   1      -3.726  -5.205  -0.001  0.00  0.00     0.080 A 
ATOM     20  O   UNL d   1      -4.597  -5.219   1.053  0.00  0.00    -0.307 OA
ATOM     21  C   UNL d   1      -5.667  -6.005   0.697  0.00  0.00     0.150 A 
ATOM     22  C   UNL d   1      -5.470  -6.477  -0.588  0.00  0.00     0.046 A 
ATOM     23  C   UNL d   1      -4.235  -5.960  -1.038  0.00  0.00     0.038 A 
BRANCH  21  24
ATOM     24  C   UNL d   1      -6.760  -6.229   1.620  0.00  0.00     0.316 C 
ATOM     25  O   UNL d   1      -7.744  -6.924   1.391  0.00  0.00    -0.257 OA
BRANCH  24  26
ATOM     26  O   UNL d   1      -6.542  -5.560   2.788  0.00  0.00    -0.321 OA
ATOM     27  C   UNL d   1      -7.572  -5.729   3.762  0.00  0.00     0.213 C 
ENDBRANCH  24  26
ENDBRANCH  21  24
ENDBRANCH  18  19
ENDBRANCH  17  18
ENDBRANCH   2  17
TORSDOF 8
