REMARK  3 active torsions:
REMARK  status: ('A' for Active; 'I' for Inactive)
REMARK    1  A    between atoms: N_6  and  C_1 
REMARK       I    between atoms: C_5  and  N_6 
REMARK       I    between atoms: N_9  and  C_5 
REMARK    2  A    between atoms: C_13  and  N_9 
REMARK    3  A    between atoms: C_14  and  C_13 
ROOT
ATOM      1  C   UNL d   1      -1.431  -3.653  -1.196  0.00  0.00     0.320 C 
ATOM      2  N   UNL d   1      -1.092  -4.824  -1.773  0.00  0.00    -0.308 N 
ATOM      3  N   UNL d   1      -1.504  -3.548   0.151  0.00  0.00    -0.342 N 
ATOM      4  O   UNL d   1      -1.718  -2.718  -1.931  0.00  0.00    -0.247 OA
ATOM      5  H   UNL d   1      -1.362  -4.785  -2.750  0.00  0.00     0.170 HD
ATOM      6  H   UNL d   1      -1.000  -4.229   0.698  0.00  0.00     0.164 HD
ENDROOT
BRANCH   2   7
ATOM      7  C   UNL d   1      -0.735  -6.099  -1.325  0.00  0.00     0.054 C 
ATOM      8  C   UNL d   1      -0.068  -6.561  -0.126  0.00  0.00     0.008 C 
ATOM      9  C   UNL d   1      -0.173  -7.956  -0.003  0.00  0.00     0.017 C 
ATOM     10  C   UNL d   1       0.649  -5.894   0.902  0.00  0.00     0.015 C 
ATOM     11  C   UNL d   1       0.203  -8.638   1.170  0.00  0.00     0.020 C 
ATOM     12  S   UNL d   1      -0.758  -8.680  -1.445  0.00  0.00    -0.099 SA
ATOM     13  C   UNL d   1       0.770  -7.919   2.219  0.00  0.00     0.001 C 
ATOM     14  C   UNL d   1       1.036  -6.567   2.068  0.00  0.00     0.001 C 
ATOM     15  C   UNL d   1      -0.991  -7.163  -2.176  0.00  0.00     0.081 C 
ENDBRANCH   2   7
BRANCH   3  16
ATOM     16  C   UNL d   1      -1.792  -2.277   0.815  0.00  0.00     0.129 C 
BRANCH  16  17
ATOM     17  C   UNL d   1      -3.234  -1.761   0.669  0.00  0.00     0.007 C 
ATOM     18  C   UNL d   1      -4.307  -2.724   1.192  0.00  0.00     0.036 C 
ATOM     19  C   UNL d   1      -5.705  -2.099   1.060  0.00  0.00     0.272 C 
ATOM     20  N   UNL d   1      -5.793  -0.812   1.769  0.00  0.00     0.084 N 
ATOM     21  C   UNL d   1      -4.796   0.139   1.262  0.00  0.00     0.272 C 
ATOM     22  C   UNL d   1      -7.138  -0.243   1.648  0.00  0.00     0.309 C 
ATOM     23  C   UNL d   1      -3.382  -0.421   1.409  0.00  0.00     0.036 C 
ENDBRANCH  16  17
ENDBRANCH   3  16
TORSDOF 3
