REMARK  4 active torsions:
REMARK  status: ('A' for Active; 'I' for Inactive)
REMARK    1  A    between atoms: C_3  and  C_1 
REMARK    2  A    between atoms: O_12  and  C_3 
REMARK    3  A    between atoms: C_4  and  C_5 
REMARK    4  A    between atoms: O_13  and  C_4 
ROOT
ATOM      1  C   UNL d   1       0.160  -1.213   0.018  0.00  0.00     0.076 A 
ATOM      2  C   UNL d   1       0.830   0.009   0.018  0.00  0.00     0.134 A 
ATOM      3  C   UNL d   1      -1.266   1.213   0.014  0.00  0.00     0.040 A 
ATOM      4  C   UNL d   1      -1.244  -1.211   0.008  0.00  0.00     0.022 A 
ATOM      5  C   UNL d   1       0.133   1.216   0.014  0.00  0.00     0.061 A 
ATOM      6  C   UNL d   1      -1.957  -0.005  -0.002  0.00  0.00     0.019 A 
ATOM      7  F   UNL d   1       2.171   0.047   0.015  0.00  0.00    -0.205 F 
ENDROOT
BRANCH   1   8
ATOM      8  C   UNL d   1       0.864  -2.520   0.019  0.00  0.00     0.179 C 
ATOM      9  O   UNL d   1       0.250  -3.576   0.027  0.00  0.00    -0.646 OA
BRANCH   8  10
ATOM     10  O   UNL d   1       2.211  -2.472   0.011  0.00  0.00    -0.773 OA
ATOM     11  H   UNL d   1       2.612  -1.579  -0.002  0.00  0.00     0.167 HD
ENDBRANCH   8  10
ENDBRANCH   1   8
BRANCH   3  12
ATOM     12  C   UNL d   1      -1.960   2.525  -0.028  0.00  0.00     0.176 C 
ATOM     13  O   UNL d   1      -1.451   3.512  -0.532  0.00  0.00    -0.646 OA
BRANCH  12  14
ATOM     14  O   UNL d   1      -3.168   2.539   0.566  0.00  0.00    -0.773 OA
ATOM     15  H   UNL d   1      -3.403   1.750   1.087  0.00  0.00     0.167 HD
ENDBRANCH  12  14
ENDBRANCH   3  12
TORSDOF 4
