REMARK  3 active torsions:
REMARK  status: ('A' for Active; 'I' for Inactive)
REMARK    1  A    between atoms: C_9  and  N_1 
REMARK    2  A    between atoms: N_7  and  N_2 
REMARK    3  A    between atoms: C_11  and  C_10 
ROOT
ATOM      1  N   UNL d   1      -0.696  -1.121   0.235  0.00  0.00    -0.305 N 
ATOM      2  N   UNL d   1       0.782   1.120   0.163  0.00  0.00    -0.251 N 
ATOM      3  C   UNL d   1      -1.400   0.088   0.144  0.00  0.00     0.244 C 
ATOM      4  C   UNL d   1       1.496  -0.069  -0.069  0.00  0.00     0.257 C 
ATOM      5  C   UNL d   1      -0.560   1.231  -0.398  0.00  0.00     0.255 C 
ATOM      6  C   UNL d   1       0.583  -1.237  -0.468  0.00  0.00     0.237 C 
ATOM      7  O   UNL d   1       2.723  -0.177  -0.066  0.00  0.00    -0.270 OA
ATOM      8  O   UNL d   1      -2.607   0.217   0.342  0.00  0.00    -0.271 OA
ENDROOT
BRANCH   2   9
ATOM      9  N   UNL d   1       1.367   2.321   0.495  0.00  0.00    -0.306 N 
ATOM     10  C   UNL d   1       2.387   2.329   1.291  0.00  0.00     0.120 C 
ATOM     11  HN  UNL d   1       1.001   3.195   0.117  1.00  0.00     0.186 HD
BRANCH  10  12
ATOM     12  C   UNL d   1       3.003   3.616   1.706  0.00  0.00     0.002 A 
ATOM     13  C   UNL d   1       4.094   3.672   2.584  0.00  0.00     0.045 A 
ATOM     14 CL   UNL d   1       4.840   2.265   3.251  0.00  0.00    -0.083 Cl
ATOM     15  C   UNL d   1       4.614   4.915   2.966  0.00  0.00     0.024 A 
ATOM     16  C   UNL d   1       4.055   6.098   2.481  0.00  0.00     0.002 A 
ATOM     17  C   UNL d   1       2.970   6.047   1.610  0.00  0.00     0.001 A 
ATOM     18  C   UNL d   1       2.446   4.812   1.224  0.00  0.00     0.014 A 
ENDBRANCH  10  12
ENDBRANCH   2   9
BRANCH   1  19
ATOM     19  C   UNL d   1      -1.346  -2.285   0.729  0.00  0.00     0.076 A 
ATOM     20  C   UNL d   1      -1.310  -3.510   0.052  0.00  0.00     0.143 A 
ATOM     21  F   UNL d   1      -0.698  -3.613  -1.137  0.00  0.00    -0.204 F 
ATOM     22  C   UNL d   1      -1.966  -4.631   0.558  0.00  0.00     0.044 A 
ATOM     23  C   UNL d   1      -2.636  -4.551   1.779  0.00  0.00     0.003 A 
ATOM     24  C   UNL d   1      -2.662  -3.346   2.477  0.00  0.00     0.002 A 
ATOM     25  C   UNL d   1      -2.036  -2.215   1.947  0.00  0.00     0.033 A 
ENDBRANCH   1  19
TORSDOF 3
