REMARK  6 active torsions:
REMARK  status: ('A' for Active; 'I' for Inactive)
REMARK       I    between atoms: C_11  and  N_1 
REMARK    1  A    between atoms: C_7  and  C_2 
REMARK    2  A    between atoms: C_10  and  C_5 
REMARK    3  A    between atoms: N_8  and  C_9 
REMARK    4  A    between atoms: O_22  and  C_12 
REMARK    5  A    between atoms: O_26  and  C_13 
REMARK    6  A    between atoms: O_25  and  C_14 
ROOT
ATOM      1  N   UNL d   1       0.788   0.923   0.018  0.00  0.00    -0.225 N 
ATOM      2  C   UNL d   1       0.142  -1.062   0.042  0.00  0.00     0.172 A 
ATOM      3  N   UNL d   1       1.230  -0.361   0.050  0.00  0.00    -0.272 N 
ATOM      4  HN  UNL d   1       2.193  -0.695   0.074  1.00  0.00     0.189 HD
ATOM      5  C   UNL d   1      -0.658   0.979   0.021  0.00  0.00     0.290 A 
ATOM      6  O   UNL d   1      -1.040  -0.397   0.034  0.00  0.00    -0.302 OA
ATOM      7  C   UNL d   1       1.604   2.025   0.122  0.00  0.00     0.236 C 
ATOM      8  O   UNL d   1       1.162   3.169   0.224  0.00  0.00    -0.272 OA
ATOM      9  C   UNL d   1       3.090   1.769   0.115  0.00  0.00     0.119 C 
ENDROOT
BRANCH   5  10
ATOM     10  C   UNL d   1      -1.273   1.673  -1.173  0.00  0.00    -0.002 A 
ATOM     11  C   UNL d   1      -0.682   1.629  -2.443  0.00  0.00     0.051 A 
ATOM     12  C   UNL d   1      -1.233   2.309  -3.539  0.00  0.00     0.104 A 
ATOM     13  C   UNL d   1      -2.405   3.072  -3.355  0.00  0.00     0.135 A 
ATOM     14  C   UNL d   1      -3.020   3.105  -2.083  0.00  0.00     0.104 A 
ATOM     15  C   UNL d   1      -2.467   2.385  -1.018  0.00  0.00     0.051 A 
BRANCH  12  16
ATOM     16  O   UNL d   1      -0.692   2.237  -4.797  0.00  0.00    -0.353 OA
ATOM     17  C   UNL d   1       0.500   1.478  -4.970  0.00  0.00     0.210 C 
ENDBRANCH  12  16
BRANCH  13  18
ATOM     18  O   UNL d   1      -3.065   3.768  -4.345  0.00  0.00    -0.351 OA
ATOM     19  C   UNL d   1      -2.263   4.397  -5.337  0.00  0.00     0.210 C 
ENDBRANCH  13  18
BRANCH  14  20
ATOM     20  O   UNL d   1      -4.169   3.853  -1.954  0.00  0.00    -0.353 OA
ATOM     21  C   UNL d   1      -4.474   4.306  -0.638  0.00  0.00     0.210 C 
ENDBRANCH  14  20
ENDBRANCH   5  10
BRANCH   2  22
ATOM     22  C   UNL d   1       0.056  -2.524   0.070  0.00  0.00     0.050 A 
ATOM     23  C   UNL d   1       1.053  -3.339  -0.473  0.00  0.00     0.117 A 
ATOM     24  C   UNL d   1       1.006  -4.733  -0.353  0.00  0.00     0.037 A 
ATOM     25  C   UNL d   1      -0.057  -5.322   0.331  0.00  0.00     0.009 A 
ATOM     26  C   UNL d   1      -1.070  -4.528   0.888  0.00  0.00    -0.061 A 
ATOM     27  C   UNL d   1      -1.012  -3.131   0.748  0.00  0.00     0.025 A 
ATOM     28  C   UNL d   1      -2.186  -5.179   1.653  0.00  0.00     0.048 C 
BRANCH  23  29
ATOM     29  N   UNL d   1       2.159  -2.773  -1.226  0.00  0.00    -0.115 N 
ATOM     30  O   UNL d   1       1.871  -2.151  -2.258  0.00  0.00    -0.532 OA
ATOM     31  O   UNL d   1       3.299  -3.015  -0.814  0.00  0.00    -0.532 OA
ENDBRANCH  23  29
ENDBRANCH   2  22
TORSDOF 6
