REMARK  5 active torsions:
REMARK  status: ('A' for Active; 'I' for Inactive)
REMARK    1  A    between atoms: C_8  and  C_3 
REMARK    2  A    between atoms: N_9  and  C_4 
REMARK    3  A    between atoms: C_13  and  N_9 
REMARK    4  A    between atoms: N_10  and  C_16 
REMARK    5  A    between atoms: C_16  and  C_13 
ROOT
ATOM      1  N   UNL d   1      -1.206   1.325   0.096  0.00  0.00    -0.355 N 
ATOM      2  HN  UNL d   1      -1.223   2.343   0.153  1.00  0.00     0.166 HD
ATOM      3  C   UNL d   1      -2.358   0.621   0.033  0.00  0.00     0.045 A 
ATOM      4  C   UNL d   1      -1.161  -1.484  -0.061  0.00  0.00     0.042 A 
ATOM      5  C   UNL d   1      -2.359  -0.766  -0.057  0.00  0.00     0.060 A 
ATOM      6  C   UNL d   1      -0.039   0.662   0.084  0.00  0.00     0.045 A 
ATOM      7  C   UNL d   1       0.048  -0.749   0.020  0.00  0.00     0.017 A 
ATOM      8  C   UNL d   1       1.331  -1.348  -0.007  0.00  0.00     0.016 A 
ATOM      9  C   UNL d   1       1.133   1.405   0.107  0.00  0.00     0.030 A 
ATOM     10  C   UNL d   1       2.494  -0.578   0.021  0.00  0.00     0.001 A 
ATOM     11  C   UNL d   1       2.395   0.805   0.073  0.00  0.00     0.002 A 
ENDROOT
BRANCH   4  12
ATOM     12  N   UNL d   1      -1.140  -2.875  -0.241  0.00  0.00    -0.387 N 
ATOM     13  H   UNL d   1      -0.579  -3.372   0.451  0.00  0.00     0.159 HD
BRANCH  12  14
ATOM     14  C   UNL d   1      -2.351  -3.601  -0.614  0.00  0.00     0.149 C 
BRANCH  14  15
ATOM     15  C   UNL d   1      -2.014  -5.059  -0.974  0.00  0.00     0.286 C 
BRANCH  15  16
ATOM     16  N   UNL d   1      -1.557  -5.834   0.186  0.00  0.00     0.079 N 
ATOM     17  H   UNL d   1      -1.379  -6.793  -0.114  0.00  0.00     0.312 HD
ATOM     18  H   UNL d   1      -2.310  -5.891   0.871  0.00  0.00     0.312 HD
ENDBRANCH  15  16
ENDBRANCH  14  15
ENDBRANCH  12  14
ENDBRANCH   4  12
BRANCH   3  19
ATOM     19  C   UNL d   1      -3.612   1.403  -0.001  0.00  0.00    -0.009 A 
ATOM     20  C   UNL d   1      -3.664   2.652  -0.643  0.00  0.00     0.013 A 
ATOM     21  C   UNL d   1      -4.860   3.368  -0.746  0.00  0.00     0.001 A 
ATOM     22  C   UNL d   1      -6.031   2.854  -0.202  0.00  0.00     0.000 A 
ATOM     23  C   UNL d   1      -6.005   1.631   0.463  0.00  0.00     0.001 A 
ATOM     24  C   UNL d   1      -4.807   0.919   0.568  0.00  0.00     0.013 A 
ENDBRANCH   3  19
TORSDOF 5
