REMARK  7 active torsions:
REMARK  status: ('A' for Active; 'I' for Inactive)
REMARK    1  A    between atoms: C_6  and  C_1 
REMARK    2  A    between atoms: N_9  and  C_3 
REMARK       I    between atoms: C_10  and  N_9 
REMARK    3  A    between atoms: C_19  and  C_10 
REMARK    4  A    between atoms: C_11  and  C_20 
REMARK    5  A    between atoms: O_18  and  C_11 
REMARK    6  A    between atoms: O_17  and  C_19 
REMARK    7  A    between atoms: C_20  and  O_17 
ROOT
ATOM      1  C   UNL d   1      -0.141   1.143   0.183  0.00  0.00     0.177 A 
ATOM      2  S   UNL d   1       1.163   0.035   0.366  0.00  0.00    -0.029 SA
ATOM      3  C   UNL d   1       0.080  -1.214  -0.039  0.00  0.00     0.168 A 
ATOM      4  N   UNL d   1      -1.282   0.558  -0.139  0.00  0.00    -0.288 N 
ATOM      5  HN  UNL d   1      -2.158   1.060  -0.280  1.00  0.00     0.187 HD
ATOM      6  N   UNL d   1      -1.150  -0.811  -0.261  0.00  0.00    -0.279 N 
ATOM      7  HN  UNL d   1      -1.920  -1.438  -0.498  1.00  0.00     0.189 HD
ENDROOT
BRANCH   3   8
ATOM      8  N   UNL d   1       0.446  -2.533  -0.116  0.00  0.00    -0.304 N 
ATOM      9  C   UNL d   1       1.713  -3.046   0.028  0.00  0.00     0.247 C 
ATOM     10  O   UNL d   1       2.744  -2.422   0.256  0.00  0.00    -0.271 OA
ATOM     11  H   UNL d   1      -0.302  -3.161  -0.380  0.00  0.00     0.171 HD
BRANCH   9  12
ATOM     12  C   UNL d   1       1.734  -4.574  -0.065  0.00  0.00     0.271 C 
BRANCH  12  13
ATOM     13  O   UNL d   1       0.884  -5.063  -1.109  0.00  0.00    -0.372 OA
BRANCH  13  14
ATOM     14  C   UNL d   1       1.121  -6.456  -1.346  0.00  0.00     0.277 C 
BRANCH  14  15
ATOM     15  C   UNL d   1       0.383  -7.312  -0.331  0.00  0.00     0.164 C 
ATOM     16  O   UNL d   1       0.867  -8.267   0.258  0.00  0.00    -0.648 OA
BRANCH  15  17
ATOM     17  O   UNL d   1      -0.890  -6.889  -0.136  0.00  0.00    -0.775 OA
ATOM     18  H   UNL d   1      -1.087  -6.108  -0.693  0.00  0.00     0.167 HD
ENDBRANCH  15  17
ENDBRANCH  14  15
ENDBRANCH  13  14
ENDBRANCH  12  13
ENDBRANCH   9  12
ENDBRANCH   3   8
BRANCH   1  19
ATOM     19  C   UNL d   1       0.066   2.609   0.367  0.00  0.00     0.440 C 
ATOM     20  F   UNL d   1       1.305   2.927   0.835  0.00  0.00    -0.164 F 
ATOM     21  F   UNL d   1      -0.085   3.293  -0.799  0.00  0.00    -0.164 F 
ATOM     22  F   UNL d   1      -0.819   3.145   1.250  0.00  0.00    -0.164 F 
ENDBRANCH   1  19
TORSDOF 7
