REMARK  10 active torsions:
REMARK  status: ('A' for Active; 'I' for Inactive)
REMARK    1  A    between atoms: N_4  and  C_1 
REMARK    2  A    between atoms: N_5  and  C_1 
REMARK    3  A    between atoms: C_2  and  N_3 
REMARK    4  A    between atoms: N_6  and  C_2 
REMARK    5  A    between atoms: C_13  and  N_5 
REMARK    6  A    between atoms: C_14  and  N_6 
REMARK    7  A    between atoms: C_31  and  C_34 
REMARK    8  A    between atoms: C_35  and  C_32 
REMARK    9  A    between atoms: C_33  and  C_35 
REMARK   10  A    between atoms: C_34  and  C_33 
ROOT
ATOM      1  C   UNL d   1      -2.694   2.781   4.010  0.00  0.00     0.001 C 
ENDROOT
BRANCH   1   2
ATOM      2  C   UNL d   1      -1.276   3.124   3.554  0.00  0.00     0.005 C 
BRANCH   2   3
ATOM      3  C   UNL d   1      -0.118   2.291   4.141  0.00  0.00    -0.012 C 
ATOM      4  C   UNL d   1      -0.315   0.764   4.098  0.00  0.00     0.024 C 
ATOM      5  C   UNL d   1      -0.216   0.202   2.686  0.00  0.00     0.125 C 
ATOM      6  N   UNL d   1       1.010   0.626   2.011  0.00  0.00    -0.358 N 
ATOM      7  C   UNL d   1       1.276   2.065   1.998  0.00  0.00     0.125 C 
ATOM      8  C   UNL d   1       1.201   2.644   3.418  0.00  0.00     0.024 C 
BRANCH   6   9
ATOM      9  C   UNL d   1       1.930  -0.260   1.482  0.00  0.00     0.174 C 
ATOM     10  S   UNL d   1       2.557  -1.569   2.314  0.00  0.00    -0.041 SA
BRANCH   9  11
ATOM     11  N   UNL d   1       2.433   0.041   0.239  0.00  0.00    -0.333 N 
ATOM     12  H   UNL d   1       3.341  -0.362   0.038  0.00  0.00     0.168 HD
BRANCH  11  13
ATOM     13  C   UNL d   1       1.675   0.414  -0.897  0.00  0.00     0.034 A 
ATOM     14  C   UNL d   1       2.359   0.833  -2.042  0.00  0.00     0.031 A 
ATOM     15  C   UNL d   1       1.654   1.161  -3.206  0.00  0.00     0.026 A 
ATOM     16  C   UNL d   1       0.266   1.046  -3.234  0.00  0.00     0.034 A 
ATOM     17  C   UNL d   1      -0.424   0.605  -2.111  0.00  0.00     0.026 A 
ATOM     18 CL   UNL d   1      -0.601   1.429  -4.670  0.00  0.00    -0.084 Cl
ATOM     19  C   UNL d   1       0.282   0.293  -0.946  0.00  0.00     0.031 A 
ENDBRANCH  11  13
ENDBRANCH   9  11
ENDBRANCH   6   9
ENDBRANCH   2   3
ENDBRANCH   1   2
BRANCH   1  20
ATOM     20  C   UNL d   1      -2.981   2.934   5.513  0.00  0.00     0.005 C 
BRANCH  20  21
ATOM     21  C   UNL d   1      -4.362   2.334   5.875  0.00  0.00    -0.012 C 
ATOM     22  C   UNL d   1      -5.538   3.039   5.167  0.00  0.00     0.024 C 
ATOM     23  C   UNL d   1      -5.965   4.326   5.862  0.00  0.00     0.125 C 
ATOM     24  N   UNL d   1      -6.336   4.003   7.232  0.00  0.00    -0.358 N 
ATOM     25  C   UNL d   1      -5.222   3.490   8.026  0.00  0.00     0.125 C 
ATOM     26  C   UNL d   1      -4.603   2.245   7.398  0.00  0.00     0.024 C 
BRANCH  24  27
ATOM     27  C   UNL d   1      -7.313   4.720   7.908  0.00  0.00     0.174 C 
ATOM     28  S   UNL d   1      -7.392   6.388   7.981  0.00  0.00    -0.041 SA
BRANCH  27  29
ATOM     29  N   UNL d   1      -8.182   3.969   8.665  0.00  0.00    -0.333 N 
ATOM     30  H   UNL d   1      -8.618   4.470   9.431  0.00  0.00     0.168 HD
BRANCH  29  31
ATOM     31  C   UNL d   1      -8.855   2.789   8.262  0.00  0.00     0.034 A 
ATOM     32  C   UNL d   1      -9.597   2.097   9.225  0.00  0.00     0.031 A 
ATOM     33  C   UNL d   1     -10.368   0.983   8.865  0.00  0.00     0.026 A 
ATOM     34  C   UNL d   1     -10.417   0.574   7.535  0.00  0.00     0.034 A 
ATOM     35  C   UNL d   1      -9.691   1.259   6.566  0.00  0.00     0.026 A 
ATOM     36 CL   UNL d   1     -11.400  -0.762   7.082  0.00  0.00    -0.084 Cl
ATOM     37  C   UNL d   1      -8.911   2.361   6.934  0.00  0.00     0.031 A 
ENDBRANCH  29  31
ENDBRANCH  27  29
ENDBRANCH  24  27
ENDBRANCH  20  21
ENDBRANCH   1  20
TORSDOF 10
