REMARK  6 active torsions:
REMARK  status: ('A' for Active; 'I' for Inactive)
REMARK    1  A    between atoms: N_5  and  S_1 
REMARK    2  A    between atoms: C_12  and  S_1 
REMARK    3  A    between atoms: C_2  and  N_5 
REMARK    4  A    between atoms: S_13  and  C_6 
REMARK    5  A    between atoms: C_14  and  S_13 
REMARK    6  A    between atoms: C_16  and  C_14 
ROOT
ATOM      1  C   UNL d   1       1.048  -0.125  -2.646  0.00  0.00     0.188 C 
ATOM      2  N   UNL d   1       2.273   0.408  -2.937  0.00  0.00    -0.310 N 
ATOM      3  HN  UNL d   1       3.092   0.493  -2.335  1.00  0.00     0.170 HD
ATOM      4  C   UNL d   1       2.129   0.781  -4.183  0.00  0.00     0.161 C 
ATOM      5  N   UNL d   1       0.190  -0.171  -3.667  0.00  0.00    -0.273 N 
ATOM      6  HN  UNL d   1      -0.729  -0.611  -3.723  1.00  0.00     0.189 HD
ATOM      7  N   UNL d   1       0.864   0.521  -4.603  0.00  0.00    -0.277 N 
ATOM      8  H   UNL d   1       0.433   0.733  -5.495  0.00  0.00     0.189 HD
ENDROOT
BRANCH   1   9
ATOM      9  N   UNL d   1       0.771  -0.759  -1.460  0.00  0.00    -0.150 NA
ATOM     10  H   UNL d   1       0.120  -1.531  -1.577  0.00  0.00     0.149 HD
BRANCH   9  11
ATOM     11  S   UNL d   1       0.161   0.198  -0.217  0.00  0.00     0.248 S 
ATOM     12  O   UNL d   1      -0.730  -0.660   0.536  0.00  0.00    -0.205 OA
ATOM     13  O   UNL d   1      -0.302   1.473  -0.727  0.00  0.00    -0.205 OA
BRANCH  11  14
ATOM     14  C   UNL d   1       1.596   0.491   0.783  0.00  0.00     0.074 A 
ATOM     15  C   UNL d   1       2.365   1.635   0.549  0.00  0.00     0.025 A 
ATOM     16  C   UNL d   1       3.458   1.908   1.370  0.00  0.00     0.002 A 
ATOM     17  C   UNL d   1       3.772   1.046   2.422  0.00  0.00     0.000 A 
ATOM     18  C   UNL d   1       2.994  -0.088   2.660  0.00  0.00     0.002 A 
ATOM     19  C   UNL d   1       1.897  -0.368   1.843  0.00  0.00     0.025 A 
ENDBRANCH  11  14
ENDBRANCH   9  11
ENDBRANCH   1   9
BRANCH   4  20
ATOM     20  S   UNL d   1       3.284   1.473  -5.246  0.00  0.00    -0.088 SA
BRANCH  20  21
ATOM     21  C   UNL d   1       4.818   0.674  -4.666  0.00  0.00     0.121 C 
BRANCH  21  22
ATOM     22  C   UNL d   1       5.987   1.144  -5.503  0.00  0.00    -0.048 A 
ATOM     23  C   UNL d   1       6.707   2.289  -5.129  0.00  0.00     0.009 A 
ATOM     24  C   UNL d   1       7.713   2.797  -5.953  0.00  0.00     0.024 A 
ATOM     25  C   UNL d   1       8.009   2.160  -7.156  0.00  0.00     0.034 A 
ATOM     26  C   UNL d   1       7.323   1.007  -7.531  0.00  0.00     0.024 A 
ATOM     27 CL   UNL d   1       9.217   2.813  -8.194  0.00  0.00    -0.084 Cl
ATOM     28  C   UNL d   1       6.315   0.499  -6.707  0.00  0.00     0.009 A 
ENDBRANCH  21  22
ENDBRANCH  20  21
ENDBRANCH   4  20
TORSDOF 6
