REMARK  5 active torsions:
REMARK  status: ('A' for Active; 'I' for Inactive)
REMARK    1  A    between atoms: N_2  and  C_1 
REMARK    2  A    between atoms: N_7  and  C_4 
REMARK    3  A    between atoms: S_9  and  C_5 
REMARK    4  A    between atoms: C_22  and  S_9 
REMARK    5  A    between atoms: C_21  and  C_22 
ROOT
ATOM      1  C   UNL d   1       1.594   1.383   0.021  0.00  0.00     0.121 A 
ATOM      2  C   UNL d   1       0.184   1.287  -0.029  0.00  0.00     0.063 A 
ATOM      3  C   UNL d   1       0.283  -1.128   0.010  0.00  0.00     0.061 A 
ATOM      4  C   UNL d   1       2.374   0.215   0.114  0.00  0.00     0.036 A 
ATOM      5  C   UNL d   1       1.692  -1.027   0.108  0.00  0.00     0.053 A 
ATOM      6  C   UNL d   1      -0.470   0.049  -0.033  0.00  0.00     0.063 A 
ATOM      7 CL   UNL d   1      -2.197   0.124   0.048  0.00  0.00    -0.082 Cl
ENDROOT
BRANCH   4   8
ATOM      8  S   UNL d   1       4.168   0.054   0.065  0.00  0.00    -0.123 SA
BRANCH   8   9
ATOM      9  C   UNL d   1       4.661   0.675   1.713  0.00  0.00     0.118 C 
BRANCH   9  10
ATOM     10  C   UNL d   1       6.158   0.569   1.930  0.00  0.00    -0.047 A 
ATOM     11  C   UNL d   1       6.702  -0.476   2.696  0.00  0.00     0.033 A 
ATOM     12  C   UNL d   1       8.079  -0.552   2.934  0.00  0.00     0.056 A 
ATOM     13 CL   UNL d   1       8.654  -1.856   3.914  0.00  0.00    -0.083 Cl
ATOM     14  C   UNL d   1       8.937   0.412   2.396  0.00  0.00     0.055 A 
ATOM     15  C   UNL d   1       8.410   1.445   1.615  0.00  0.00     0.026 A 
ATOM     16 CL   UNL d   1      10.643   0.394   2.667  0.00  0.00    -0.083 Cl
ATOM     17  C   UNL d   1       7.032   1.520   1.381  0.00  0.00     0.010 A 
ENDBRANCH   9  10
ENDBRANCH   8   9
ENDBRANCH   4   8
BRANCH   1  18
ATOM     18  N   UNL d   1       2.153   2.748  -0.058  0.00  0.00    -0.114 N 
ATOM     19  O   UNL d   1       1.347   3.690  -0.084  0.00  0.00    -0.532 OA
ATOM     20  O   UNL d   1       3.378   2.903  -0.085  0.00  0.00    -0.532 OA
ENDBRANCH   1  18
BRANCH   3  21
ATOM     21  N   UNL d   1      -0.296  -2.431  -0.085  0.00  0.00    -0.331 N 
ATOM     22  C   UNL d   1       0.218  -3.586   0.479  0.00  0.00     0.096 A 
ATOM     23  C   UNL d   1      -0.598  -4.651   0.163  0.00  0.00     0.019 A 
ATOM     24  C   UNL d   1      -1.632  -4.155  -0.654  0.00  0.00     0.019 A 
ATOM     25  C   UNL d   1      -1.414  -2.803  -0.807  0.00  0.00     0.096 A 
ENDBRANCH   3  21
TORSDOF 5
