REMARK  3 active torsions:
REMARK  status: ('A' for Active; 'I' for Inactive)
REMARK    1  A    between atoms: C_3  and  C_1 
REMARK       I    between atoms: N_13  and  C_3 
REMARK    2  A    between atoms: N_8  and  C_15 
REMARK    3  A    between atoms: C_22  and  N_13 
ROOT
ATOM      1  C   UNL d   1      -0.511  -4.767  -0.905  0.00  0.00     0.258 C 
ATOM      2  N   UNL d   1      -0.139  -3.749  -0.044  0.00  0.00    -0.323 N 
ATOM      3  O   UNL d   1       0.260  -5.476  -1.547  0.00  0.00    -0.267 OA
ATOM      4  H   UNL d   1      -0.873  -3.318   0.516  0.00  0.00     0.169 HD
ENDROOT
BRANCH   2   5
ATOM      5  C   UNL d   1       1.170  -3.239   0.124  0.00  0.00     0.035 A 
ATOM      6  C   UNL d   1       2.233  -3.588  -0.713  0.00  0.00     0.032 A 
ATOM      7  C   UNL d   1       3.501  -3.020  -0.551  0.00  0.00     0.034 A 
ATOM      8  C   UNL d   1       3.732  -2.086   0.461  0.00  0.00     0.056 A 
ATOM      9  C   UNL d   1       2.678  -1.745   1.322  0.00  0.00     0.034 A 
ATOM     10  C   UNL d   1       1.405  -2.313   1.145  0.00  0.00     0.032 A 
BRANCH   8  11
ATOM     11  N   UNL d   1       5.006  -1.469   0.601  0.00  0.00    -0.268 N 
ATOM     12  N   UNL d   1       5.243  -0.550   1.575  0.00  0.00    -0.305 N 
ATOM     13  C   UNL d   1       6.505  -0.162   1.373  0.00  0.00     0.109 A 
ATOM     14  HN  UNL d   1       4.601  -0.229   2.299  1.00  0.00     0.186 HD
ATOM     15  C   UNL d   1       7.104  -0.813   0.286  0.00  0.00     0.038 A 
ATOM     16  C   UNL d   1       6.127  -1.655  -0.188  0.00  0.00     0.118 A 
ENDBRANCH   8  11
ENDBRANCH   2   5
BRANCH   1  17
ATOM     17  C   UNL d   1      -1.955  -5.046  -1.074  0.00  0.00     0.061 A 
ATOM     18  C   UNL d   1      -3.004  -4.324  -0.450  0.00  0.00     0.082 A 
ATOM     19  N   UNL d   1      -2.897  -3.299   0.418  0.00  0.00    -0.310 N 
ATOM     20  C   UNL d   1      -4.449  -4.686  -0.741  0.00  0.00     0.068 A 
ATOM     21  S   UNL d   1      -4.447  -2.836   0.806  0.00  0.00     0.068 SA
ATOM     22  HN  UNL d   1      -2.033  -2.886   0.769  1.00  0.00     0.176 HD
ATOM     23  N   UNL d   1      -5.331  -3.916  -0.088  0.00  0.00    -0.310 N 
ATOM     24  HN  UNL d   1      -6.347  -3.981  -0.133  1.00  0.00     0.176 HD
ATOM     25  C   UNL d   1      -4.782  -5.740  -1.626  0.00  0.00     0.032 A 
ATOM     26  C   UNL d   1      -3.707  -6.422  -2.212  0.00  0.00     0.003 A 
ATOM     27  C   UNL d   1      -2.360  -6.088  -1.948  0.00  0.00     0.019 A 
ENDBRANCH   1  17
TORSDOF 3
