REMARK  4 active torsions:
REMARK  status: ('A' for Active; 'I' for Inactive)
REMARK    1  A    between atoms: C_2  and  C_1 
REMARK       I    between atoms: N_9  and  C_1 
REMARK    2  A    between atoms: C_3  and  N_10 
REMARK    3  A    between atoms: O_11  and  C_6 
REMARK    4  A    between atoms: C_19  and  O_11 
ROOT
ATOM      1  C   UNL d   1       1.266   0.092  -0.310  0.00  0.00     0.258 C 
ATOM      2  N   UNL d   1       0.716  -0.478  -1.504  0.00  0.00    -0.345 N 
ATOM      3  N   UNL d   1      -0.919  -1.863  -3.593  0.00  0.00    -0.397 N 
ATOM      4  O   UNL d   1       0.809   1.126   0.159  0.00  0.00    -0.267 OA
ATOM      5  C   UNL d   1       1.135  -1.760  -2.071  0.00  0.00     0.145 C 
ATOM      6  C   UNL d   1      -0.592   0.047  -1.938  0.00  0.00     0.145 C 
ATOM      7  C   UNL d   1      -1.059  -0.431  -3.328  0.00  0.00     0.137 C 
ATOM      8  C   UNL d   1       0.415  -2.337  -3.299  0.00  0.00     0.137 C 
ENDROOT
BRANCH   1   9
ATOM      9  C   UNL d   1       2.389  -0.595   0.431  0.00  0.00     0.083 C 
ATOM     10  C   UNL d   1       2.484  -0.589   1.829  0.00  0.00     0.163 C 
ATOM     11  N   UNL d   1       3.364  -1.382   2.516  0.00  0.00    -0.346 N 
ATOM     12  C   UNL d   1       4.226  -2.142   1.823  0.00  0.00     0.090 C 
ATOM     13  HN  UNL d   1       3.364  -1.396   3.536  1.00  0.00     0.167 HD
ATOM     14  C   UNL d   1       4.294  -2.119   0.451  0.00  0.00     0.018 C 
ATOM     15  C   UNL d   1       3.405  -1.296  -0.235  0.00  0.00     0.023 C 
BRANCH  10  16
ATOM     16  O   UNL d   1       1.666   0.236   2.594  0.00  0.00    -0.293 OA
BRANCH  16  17
ATOM     17  C   UNL d   1       2.103   0.563   3.867  0.00  0.00     0.077 A 
ATOM     18  C   UNL d   1       3.397   1.026   4.145  0.00  0.00     0.037 A 
ATOM     19  C   UNL d   1       3.771   1.326   5.461  0.00  0.00     0.003 A 
ATOM     20  C   UNL d   1       2.844   1.201   6.496  0.00  0.00     0.000 A 
ATOM     21  C   UNL d   1       1.543   0.781   6.211  0.00  0.00     0.003 A 
ATOM     22  C   UNL d   1       1.173   0.468   4.903  0.00  0.00     0.037 A 
ENDBRANCH  16  17
ENDBRANCH  10  16
ENDBRANCH   1   9
BRANCH   3  23
ATOM     23  C   UNL d   1      -1.998  -2.776  -3.229  0.00  0.00     0.147 A 
ATOM     24  C   UNL d   1      -3.223  -2.560  -4.116  0.00  0.00    -0.020 A 
ATOM     25  C   UNL d   1      -4.357  -2.295  -3.322  0.00  0.00    -0.017 A 
ATOM     26  C   UNL d   1      -3.298  -2.601  -5.501  0.00  0.00     0.010 A 
ATOM     27  C   UNL d   1      -5.577  -2.030  -3.917  0.00  0.00     0.013 A 
ATOM     28  C   UNL d   1      -3.979  -2.374  -1.926  0.00  0.00    -0.017 A 
ATOM     29  C   UNL d   1      -5.657  -2.041  -5.314  0.00  0.00     0.001 A 
ATOM     30  C   UNL d   1      -4.530  -2.335  -6.099  0.00  0.00     0.001 A 
ATOM     31  C   UNL d   1      -2.595  -2.659  -1.835  0.00  0.00    -0.020 A 
ATOM     32  C   UNL d   1      -4.753  -2.254  -0.785  0.00  0.00     0.013 A 
ATOM     33  C   UNL d   1      -1.992  -2.856  -0.600  0.00  0.00     0.010 A 
ATOM     34  C   UNL d   1      -2.769  -2.716   0.550  0.00  0.00     0.001 A 
ATOM     35  C   UNL d   1      -4.138  -2.419   0.459  0.00  0.00     0.001 A 
ENDBRANCH   3  23
TORSDOF 4
