REMARK  4 active torsions:
REMARK  status: ('A' for Active; 'I' for Inactive)
REMARK    1  A    between atoms: C_9  and  N_1 
REMARK    2  A    between atoms: C_11  and  C_2 
REMARK    3  A    between atoms: C_8  and  C_7 
REMARK    4  A    between atoms: C_16  and  C_9 
ROOT
ATOM      1  N   UNL d   1       0.098  -1.458   0.054  0.00  0.00    -0.293 N 
ATOM      2  C   UNL d   1       1.360  -0.966  -0.133  0.00  0.00     0.121 A 
ATOM      3  N   UNL d   1       1.445   0.334  -0.140  0.00  0.00    -0.337 N 
ATOM      4  HN  UNL d   1       2.287   0.900  -0.244  1.00  0.00     0.167 HD
ATOM      5  C   UNL d   1       0.150   0.780   0.023  0.00  0.00     0.104 A 
ATOM      6  C   UNL d   1      -0.755  -0.394   0.178  0.00  0.00     0.276 A 
ATOM      7  C   UNL d   1      -0.204   2.073   0.029  0.00  0.00     0.054 C 
ATOM      8  O   UNL d   1      -1.950  -0.413   0.404  0.00  0.00    -0.265 OA
ENDROOT
BRANCH   1   9
ATOM      9  C   UNL d   1      -0.405  -2.814   0.217  0.00  0.00     0.172 C 
BRANCH   9  10
ATOM     10  C   UNL d   1       0.184  -3.557   1.395  0.00  0.00    -0.040 A 
ATOM     11  C   UNL d   1       0.413  -2.919   2.624  0.00  0.00     0.010 A 
ATOM     12  C   UNL d   1       0.961  -3.626   3.696  0.00  0.00     0.024 A 
ATOM     13  C   UNL d   1       1.261  -4.976   3.554  0.00  0.00     0.034 A 
ATOM     14  C   UNL d   1       1.008  -5.633   2.353  0.00  0.00     0.024 A 
ATOM     15 CL   UNL d   1       1.943  -5.846   4.873  0.00  0.00    -0.084 Cl
ATOM     16  C   UNL d   1       0.465  -4.927   1.278  0.00  0.00     0.010 A 
ENDBRANCH   9  10
ENDBRANCH   1   9
BRANCH   2  17
ATOM     17  C   UNL d   1       2.566  -1.819  -0.261  0.00  0.00     0.008 A 
ATOM     18  C   UNL d   1       2.578  -3.022  -0.972  0.00  0.00     0.015 A 
ATOM     19  C   UNL d   1       3.738  -3.801  -1.022  0.00  0.00     0.001 A 
ATOM     20  C   UNL d   1       4.905  -3.360  -0.402  0.00  0.00     0.000 A 
ATOM     21  C   UNL d   1       4.918  -2.135   0.262  0.00  0.00     0.001 A 
ATOM     22  C   UNL d   1       3.753  -1.367   0.332  0.00  0.00     0.015 A 
ENDBRANCH   2  17
BRANCH   7  23
ATOM     23  C   UNL d   1      -1.553   2.494   0.149  0.00  0.00     0.007 A 
ATOM     24  S   UNL d   1      -2.501   2.739  -1.266  0.00  0.00    -0.102 SA
ATOM     25  C   UNL d   1      -3.901   3.090  -0.351  0.00  0.00     0.050 A 
ATOM     26  C   UNL d   1      -3.649   3.084   1.002  0.00  0.00     0.008 A 
ATOM     27  C   UNL d   1      -2.291   2.758   1.289  0.00  0.00     0.019 A 
ENDBRANCH   7  23
TORSDOF 4
