REMARK  2 active torsions:
REMARK  status: ('A' for Active; 'I' for Inactive)
REMARK    1  A    between atoms: N_8  and  C_7 
REMARK    2  A    between atoms: C_11  and  N_8 
ROOT
ATOM      1  C   UNL d   1      -1.228   0.073  -0.136  0.00  0.00     0.130 C 
ATOM      2  C   UNL d   1      -0.519   1.330   0.110  0.00  0.00     0.303 C 
ATOM      3  C   UNL d   1      -0.614  -1.210   0.223  0.00  0.00     0.303 C 
ATOM      4  O   UNL d   1       0.814   1.207   0.264  0.00  0.00    -0.279 OA
ATOM      5  O   UNL d   1       0.727  -1.172   0.352  0.00  0.00    -0.279 OA
ATOM      6  C   UNL d   1       1.422  -0.023  -0.136  0.00  0.00     0.175 C 
ATOM      7  C   UNL d   1      -2.408   0.057  -0.779  0.00  0.00     0.112 C 
ATOM      8  O   UNL d   1      -1.079   2.420   0.162  0.00  0.00    -0.259 OA
ATOM      9  O   UNL d   1      -1.252  -2.242   0.386  0.00  0.00    -0.259 OA
ATOM     10  C   UNL d   1       1.567  -0.085  -1.663  0.00  0.00     0.080 C 
ATOM     11  C   UNL d   1       2.812  -0.047   0.498  0.00  0.00     0.080 C 
ENDROOT
BRANCH   7  12
ATOM     12  N   UNL d   1      -3.123   1.120  -1.279  0.00  0.00    -0.365 N 
ATOM     13  H   UNL d   1      -2.765   2.047  -1.033  0.00  0.00     0.165 HD
BRANCH  12  14
ATOM     14  C   UNL d   1      -4.348   1.115  -1.968  0.00  0.00     0.031 A 
ATOM     15  C   UNL d   1      -5.098  -0.044  -2.206  0.00  0.00     0.029 A 
ATOM     16  C   UNL d   1      -6.300   0.005  -2.920  0.00  0.00     0.002 A 
ATOM     17  C   UNL d   1      -6.764   1.216  -3.424  0.00  0.00     0.000 A 
ATOM     18  C   UNL d   1      -6.022   2.375  -3.223  0.00  0.00     0.002 A 
ATOM     19  C   UNL d   1      -4.822   2.321  -2.506  0.00  0.00     0.029 A 
ENDBRANCH  12  14
ENDBRANCH   7  12
TORSDOF 2
