REMARK  3 active torsions:
REMARK  status: ('A' for Active; 'I' for Inactive)
REMARK    1  A    between atoms: N_2  and  S_1 
REMARK    2  A    between atoms: C_4  and  S_1 
REMARK       I    between atoms: C_3  and  N_2 
REMARK       I    between atoms: N_7  and  C_3 
REMARK    3  A    between atoms: C_13  and  N_7 
ROOT
ATOM      1  N   UNL d   1       0.501   1.411   0.656  0.00  0.00    -0.232 N 
ATOM      2  C   UNL d   1      -0.674   1.874   1.216  0.00  0.00     0.334 C 
ATOM      3  N   UNL d   1      -1.861   1.251   0.912  0.00  0.00    -0.307 N 
ATOM      4  O   UNL d   1      -0.568   2.868   1.913  0.00  0.00    -0.246 OA
ATOM      5  H   UNL d   1       1.314   1.948   0.947  0.00  0.00     0.183 HD
ATOM      6  H   UNL d   1      -1.816   0.344   0.463  0.00  0.00     0.170 HD
ENDROOT
BRANCH   1   7
ATOM      7  S   UNL d   1       0.916   0.065  -0.175  0.00  0.00     0.266 S 
ATOM      8  O   UNL d   1       0.283  -1.057   0.490  0.00  0.00    -0.200 OA
ATOM      9  O   UNL d   1       2.344   0.133  -0.369  0.00  0.00    -0.200 OA
BRANCH   7  10
ATOM     10  C   UNL d   1       0.182   0.211  -1.781  0.00  0.00     0.080 A 
ATOM     11  C   UNL d   1       0.263   1.399  -2.509  0.00  0.00     0.026 A 
ATOM     12  C   UNL d   1      -0.168   1.410  -3.841  0.00  0.00     0.008 A 
ATOM     13  C   UNL d   1      -0.670   0.244  -4.442  0.00  0.00    -0.062 A 
ATOM     14  C   UNL d   1      -0.796  -0.921  -3.678  0.00  0.00     0.008 A 
ATOM     15  C   UNL d   1      -1.013   0.230  -5.904  0.00  0.00     0.048 C 
ATOM     16  C   UNL d   1      -0.378  -0.937  -2.349  0.00  0.00     0.026 A 
ENDBRANCH   7  10
ENDBRANCH   1   7
BRANCH   3  17
ATOM     17  C   UNL d   1      -3.149   1.814   1.119  0.00  0.00     0.051 A 
ATOM     18  C   UNL d   1      -3.379   3.086   1.655  0.00  0.00     0.117 A 
ATOM     19  N   UNL d   1      -4.595   3.682   1.736  0.00  0.00    -0.373 N 
ATOM     20  C   UNL d   1      -5.646   2.978   1.278  0.00  0.00     0.088 A 
ATOM     21  HN  UNL d   1      -4.706   4.618   2.125  1.00  0.00     0.164 HD
ATOM     22  C   UNL d   1      -5.541   1.695   0.772  0.00  0.00     0.019 A 
ATOM     23  C   UNL d   1      -4.274   1.103   0.701  0.00  0.00     0.032 A 
ENDBRANCH   3  17
TORSDOF 3
