REMARK  4 active torsions:
REMARK  status: ('A' for Active; 'I' for Inactive)
REMARK    1  A    between atoms: C_8  and  C_1 
REMARK    2  A    between atoms: C_4  and  C_2 
REMARK    3  A    between atoms: C_10  and  C_4 
REMARK    4  A    between atoms: C_11  and  C_6 
ROOT
ATOM      1  C   UNL d   1       0.374   1.219  -0.050  0.00  0.00    -0.010 A 
ATOM      2  C   UNL d   1       1.072  -0.032  -0.005  0.00  0.00     0.032 A 
ATOM      3  C   UNL d   1       0.335  -1.252   0.039  0.00  0.00    -0.046 A 
ATOM      4  C   UNL d   1      -1.056   1.147  -0.038  0.00  0.00     0.025 A 
ATOM      5  C   UNL d   1      -1.804  -0.040   0.008  0.00  0.00    -0.025 A 
ATOM      6  C   UNL d   1      -1.074  -1.225   0.060  0.00  0.00     0.020 A 
ATOM      7  C   UNL d   1       0.922  -2.641  -0.052  0.00  0.00     0.049 C 
ENDROOT
BRANCH   2   8
ATOM      8  C   UNL d   1       2.537  -0.148  -0.253  0.00  0.00     0.193 C 
ATOM      9  O   UNL d   1       2.924   0.145  -1.390  0.00  0.00    -0.287 OA
BRANCH   8  10
ATOM     10  C   UNL d   1       3.527  -0.816   0.651  0.00  0.00     0.015 A 
ATOM     11  C   UNL d   1       3.232  -1.315   1.925  0.00  0.00     0.015 A 
ATOM     12  C   UNL d   1       4.170  -2.111   2.600  0.00  0.00     0.001 A 
ATOM     13  C   UNL d   1       5.416  -2.391   2.028  0.00  0.00     0.000 A 
ATOM     14  C   UNL d   1       5.737  -1.863   0.784  0.00  0.00     0.001 A 
ATOM     15  C   UNL d   1       4.799  -1.082   0.105  0.00  0.00     0.015 A 
ENDBRANCH   8  10
ENDBRANCH   2   8
BRANCH   1  16
ATOM     16  C   UNL d   1       0.943   2.615  -0.178  0.00  0.00    -0.025 A 
ATOM     17  C   UNL d   1       2.011   2.953  -1.017  0.00  0.00     0.013 A 
ATOM     18  C   UNL d   1       2.408   4.281  -1.246  0.00  0.00     0.007 A 
ATOM     19  C   UNL d   1       1.699   5.346  -0.697  0.00  0.00    -0.062 A 
ATOM     20  C   UNL d   1       0.647   5.055   0.166  0.00  0.00     0.007 A 
ATOM     21  C   UNL d   1       2.068   6.753  -1.060  0.00  0.00     0.048 C 
ATOM     22  C   UNL d   1       0.299   3.718   0.438  0.00  0.00     0.013 A 
ENDBRANCH   1  16
BRANCH   5  23
ATOM     23  C   UNL d   1      -3.288  -0.047  -0.060  0.00  0.00    -0.026 A 
ATOM     24  C   UNL d   1      -3.999   0.910  -0.809  0.00  0.00     0.012 A 
ATOM     25  C   UNL d   1      -5.396   0.887  -0.895  0.00  0.00     0.001 A 
ATOM     26  C   UNL d   1      -6.119  -0.106  -0.243  0.00  0.00     0.000 A 
ATOM     27  C   UNL d   1      -5.446  -1.069   0.500  0.00  0.00     0.001 A 
ATOM     28  C   UNL d   1      -4.051  -1.034   0.595  0.00  0.00     0.012 A 
ENDBRANCH   5  23
TORSDOF 4
