REMARK  8 active torsions:
REMARK  status: ('A' for Active; 'I' for Inactive)
REMARK    1  A    between atoms: S_9  and  C_3 
REMARK    2  A    between atoms: S_10  and  C_4 
REMARK    3  A    between atoms: C_13  and  S_9 
REMARK    4  A    between atoms: C_14  and  S_10 
REMARK    5  A    between atoms: C_11  and  C_13 
REMARK    6  A    between atoms: C_18  and  C_11 
REMARK    7  A    between atoms: C_12  and  C_14 
REMARK    8  A    between atoms: C_17  and  C_12 
ROOT
ATOM      1  N   UNL d   1      -2.310   0.771  -0.004  0.00  0.00    -0.331 N 
ATOM      2  HN  UNL d   1      -3.168   1.311  -0.112  1.00  0.00     0.168 HD
ATOM      3  C   UNL d   1      -1.105   1.364   0.010  0.00  0.00     0.084 A 
ATOM      4  C   UNL d   1      -2.332  -0.557   0.129  0.00  0.00     0.146 A 
ATOM      5  N   UNL d   1      -1.252  -1.345   0.178  0.00  0.00    -0.336 N 
ATOM      6  HN  UNL d   1      -1.336  -2.359   0.252  1.00  0.00     0.168 HD
ATOM      7  C   UNL d   1       0.100   0.643   0.057  0.00  0.00     0.024 A 
ATOM      8  C   UNL d   1      -0.054  -0.747   0.125  0.00  0.00     0.047 A 
ATOM      9  C   UNL d   1       1.411   1.202   0.020  0.00  0.00     0.016 A 
ATOM     10  C   UNL d   1       1.093  -1.538   0.124  0.00  0.00     0.030 A 
ATOM     11  C   UNL d   1       2.539   0.386   0.024  0.00  0.00     0.001 A 
ATOM     12  C   UNL d   1       2.380  -0.989   0.069  0.00  0.00     0.002 A 
ENDROOT
BRANCH   3  13
ATOM     13  S   UNL d   1      -1.126   3.150  -0.161  0.00  0.00    -0.103 SA
BRANCH  13  14
ATOM     14  C   UNL d   1      -2.796   3.523   0.467  0.00  0.00     0.164 C 
BRANCH  14  15
ATOM     15  C   UNL d   1      -2.908   3.361   1.975  0.00  0.00     0.169 C 
ATOM     16  O   UNL d   1      -1.938   3.442   2.731  0.00  0.00    -0.291 OA
BRANCH  15  17
ATOM     17  C   UNL d   1      -4.276   3.252   2.580  0.00  0.00     0.010 A 
ATOM     18  C   UNL d   1      -5.412   2.894   1.844  0.00  0.00     0.015 A 
ATOM     19  C   UNL d   1      -6.657   2.783   2.474  0.00  0.00     0.001 A 
ATOM     20  C   UNL d   1      -6.779   3.040   3.837  0.00  0.00     0.000 A 
ATOM     21  C   UNL d   1      -5.660   3.418   4.575  0.00  0.00     0.001 A 
ATOM     22  C   UNL d   1      -4.413   3.516   3.952  0.00  0.00     0.015 A 
ENDBRANCH  15  17
ENDBRANCH  14  15
ENDBRANCH  13  14
ENDBRANCH   3  13
BRANCH   4  23
ATOM     23  S   UNL d   1      -3.938  -1.322   0.087  0.00  0.00    -0.086 SA
BRANCH  23  24
ATOM     24  C   UNL d   1      -4.058  -1.919   1.804  0.00  0.00     0.166 C 
BRANCH  24  25
ATOM     25  C   UNL d   1      -4.107  -0.781   2.808  0.00  0.00     0.169 C 
ATOM     26  O   UNL d   1      -3.311   0.157   2.755  0.00  0.00    -0.291 OA
BRANCH  25  27
ATOM     27  C   UNL d   1      -5.077  -0.800   3.954  0.00  0.00     0.010 A 
ATOM     28  C   UNL d   1      -6.182  -1.653   4.045  0.00  0.00     0.015 A 
ATOM     29  C   UNL d   1      -7.068  -1.547   5.129  0.00  0.00     0.001 A 
ATOM     30  C   UNL d   1      -6.861  -0.592   6.121  0.00  0.00     0.000 A 
ATOM     31  C   UNL d   1      -5.753   0.245   6.052  0.00  0.00     0.001 A 
ATOM     32  C   UNL d   1      -4.865   0.132   4.982  0.00  0.00     0.015 A 
ENDBRANCH  25  27
ENDBRANCH  24  25
ENDBRANCH  23  24
ENDBRANCH   4  23
TORSDOF 8
