REMARK  6 active torsions:
REMARK  status: ('A' for Active; 'I' for Inactive)
REMARK    1  A    between atoms: C_6  and  C_3 
REMARK    2  A    between atoms: C_14  and  C_4 
REMARK    3  A    between atoms: C_8  and  C_6 
REMARK    4  A    between atoms: O_16  and  C_9 
REMARK    5  A    between atoms: O_17  and  C_10 
REMARK    6  A    between atoms: O_18  and  C_13 
ROOT
ATOM      1  N   UNL d   1      -0.649   0.018   0.850  0.00  0.00    -0.331 N 
ATOM      2  HN  UNL d   1      -1.602  -0.294   1.039  1.00  0.00     0.168 HD
ATOM      3  C   UNL d   1       0.425  -0.723   0.438  0.00  0.00     0.111 A 
ATOM      4  C   UNL d   1      -0.157   1.209   0.940  0.00  0.00     0.162 A 
ATOM      5  O   UNL d   1       1.163   1.366   0.676  0.00  0.00    -0.256 OA
ATOM      6  C   UNL d   1       1.639   0.129   0.354  0.00  0.00     0.316 A 
ATOM      7  O   UNL d   1       2.770  -0.170   0.030  0.00  0.00    -0.257 OA
ENDROOT
BRANCH   3   8
ATOM      8  C   UNL d   1       0.405  -1.998   0.036  0.00  0.00     0.053 C 
BRANCH   8   9
ATOM      9  C   UNL d   1      -0.842  -2.771  -0.013  0.00  0.00     0.033 A 
ATOM     10  C   UNL d   1      -1.753  -2.643  -1.090  0.00  0.00     0.084 A 
ATOM     11  C   UNL d   1      -2.951  -3.383  -1.086  0.00  0.00     0.074 A 
ATOM     12  C   UNL d   1      -3.263  -4.256  -0.052  0.00  0.00     0.073 A 
ATOM     13  C   UNL d   1      -2.352  -4.418   0.983  0.00  0.00     0.074 A 
ATOM     14  C   UNL d   1      -1.158  -3.680   1.026  0.00  0.00     0.084 A 
BRANCH  10  15
ATOM     15  O   UNL d   1      -1.683  -1.892  -2.236  0.00  0.00    -0.355 OA
ATOM     16  C   UNL d   1      -0.545  -1.127  -2.583  0.00  0.00     0.210 C 
ENDBRANCH  10  15
BRANCH  12  17
ATOM     17  O   UNL d   1      -4.388  -5.031   0.018  0.00  0.00    -0.356 OA
ATOM     18  C   UNL d   1      -5.529  -4.530  -0.671  0.00  0.00     0.210 C 
ENDBRANCH  12  17
BRANCH  14  19
ATOM     19  O   UNL d   1      -0.367  -4.049   2.088  0.00  0.00    -0.355 OA
ATOM     20  C   UNL d   1       0.320  -3.031   2.802  0.00  0.00     0.210 C 
ENDBRANCH  14  19
ENDBRANCH   8   9
ENDBRANCH   3   8
BRANCH   4  21
ATOM     21  C   UNL d   1      -0.901   2.429   1.284  0.00  0.00     0.015 A 
ATOM     22  C   UNL d   1      -2.251   2.312   1.633  0.00  0.00     0.016 A 
ATOM     23  C   UNL d   1      -2.995   3.455   1.941  0.00  0.00     0.001 A 
ATOM     24  C   UNL d   1      -2.391   4.709   1.895  0.00  0.00     0.000 A 
ATOM     25  C   UNL d   1      -1.045   4.828   1.543  0.00  0.00     0.001 A 
ATOM     26  C   UNL d   1      -0.297   3.689   1.237  0.00  0.00     0.016 A 
ENDBRANCH   4  21
TORSDOF 6
