REMARK  4 active torsions:
REMARK  status: ('A' for Active; 'I' for Inactive)
REMARK    1  A    between atoms: N_2  and  S_1 
REMARK    2  A    between atoms: C_4  and  S_1 
REMARK    3  A    between atoms: C_3  and  N_2 
REMARK    4  A    between atoms: N_5  and  C_6 
ROOT
ATOM      1  N   UNL d   1       0.535   1.431  -0.432  0.00  0.00    -0.179 NA
ATOM      2  H   UNL d   1      -0.085   1.611  -1.219  0.00  0.00     0.146 HD
ENDROOT
BRANCH   1   3
ATOM      3  S   UNL d   1       0.029   0.089   0.470  0.00  0.00     0.246 S 
ATOM      4  O   UNL d   1       0.562   0.133   1.815  0.00  0.00    -0.206 OA
ATOM      5  O   UNL d   1       0.203  -1.069  -0.381  0.00  0.00    -0.206 OA
BRANCH   3   6
ATOM      6  C   UNL d   1      -1.726   0.371   0.566  0.00  0.00     0.076 A 
ATOM      7  C   UNL d   1      -2.264   1.022   1.677  0.00  0.00     0.049 A 
ATOM      8  C   UNL d   1      -3.638   1.251   1.734  0.00  0.00     0.041 A 
ATOM      9 CL   UNL d   1      -4.257   2.088   3.113  0.00  0.00    -0.084 Cl
ATOM     10  C   UNL d   1      -4.485   0.825   0.696  0.00  0.00    -0.040 A 
ATOM     11  C   UNL d   1      -3.926   0.137  -0.395  0.00  0.00     0.010 A 
ATOM     12  C   UNL d   1      -5.967   1.081   0.726  0.00  0.00     0.050 C 
ATOM     13  C   UNL d   1      -2.553  -0.089  -0.463  0.00  0.00     0.025 A 
ENDBRANCH   3   6
ENDBRANCH   1   3
BRANCH   1  14
ATOM     14  C   UNL d   1       0.930   2.624   0.265  0.00  0.00     0.049 A 
ATOM     15  C   UNL d   1       2.265   2.838   0.709  0.00  0.00     0.052 A 
ATOM     16  C   UNL d   1       2.496   4.075   1.357  0.00  0.00     0.031 A 
ATOM     17  C   UNL d   1       1.492   5.024   1.572  0.00  0.00     0.002 A 
ATOM     18  C   UNL d   1       0.202   4.779   1.132  0.00  0.00     0.002 A 
ATOM     19  C   UNL d   1      -0.078   3.582   0.482  0.00  0.00     0.027 A 
BRANCH  15  20
ATOM     20  N   UNL d   1       3.374   2.013   0.449  0.00  0.00    -0.379 N 
ATOM     21  C   UNL d   1       4.331   1.776   1.550  0.00  0.00     0.123 C 
ATOM     22  C   UNL d   1       5.725   1.527   0.966  0.00  0.00     0.020 C 
ATOM     23  C   UNL d   1       5.709   0.361  -0.016  0.00  0.00     0.003 C 
ATOM     24  C   UNL d   1       4.661   0.595  -1.094  0.00  0.00     0.020 C 
ATOM     25  C   UNL d   1       3.288   0.892  -0.497  0.00  0.00     0.123 C 
ENDBRANCH  15  20
ENDBRANCH   1  14
TORSDOF 4
