REMARK  3 active torsions:
REMARK  status: ('A' for Active; 'I' for Inactive)
REMARK    1  A    between atoms: C_5  and  C_1 
REMARK    2  A    between atoms: N_12  and  C_1 
REMARK    3  A    between atoms: C_2  and  C_7 
ROOT
ATOM      1  C   UNL d   1       0.176   0.870  -0.898  0.00  0.00     0.001 A 
ATOM      2  C   UNL d   1      -1.240   2.553  -2.686  0.00  0.00    -0.035 A 
ATOM      3  C   UNL d   1       0.526   0.925  -2.254  0.00  0.00     0.015 A 
ATOM      4  C   UNL d   1      -0.888   1.656  -0.442  0.00  0.00     0.015 A 
ATOM      5  C   UNL d   1      -0.174   1.758  -3.135  0.00  0.00     0.010 A 
ATOM      6  C   UNL d   1      -1.590   2.481  -1.326  0.00  0.00     0.010 A 
ENDROOT
BRANCH   1   7
ATOM      7  C   UNL d   1       0.926   0.005   0.059  0.00  0.00     0.104 C 
ATOM      8  S   UNL d   1       2.551  -0.378  -0.043  0.00  0.00    -0.060 SA
BRANCH   7   9
ATOM      9  N   UNL d   1       0.212  -0.515   1.109  0.00  0.00    -0.390 N 
ATOM     10  H   UNL d   1      -0.792  -0.429   1.203  0.00  0.00     0.157 HD
ATOM     11  H   UNL d   1       0.689  -1.133   1.756  0.00  0.00     0.157 HD
ENDBRANCH   7   9
ENDBRANCH   1   7
BRANCH   2  12
ATOM     12  C   UNL d   1      -1.969   3.466  -3.653  0.00  0.00     0.141 C 
ATOM     13  S   UNL d   1      -1.839   5.221  -3.169  0.00  0.00    -0.148 SA
ATOM     14  C   UNL d   1      -3.547   5.670  -3.560  0.00  0.00     0.085 C 
ATOM     15  C   UNL d   1      -4.430   4.512  -3.147  0.00  0.00     0.085 C 
ATOM     16  S   UNL d   1      -3.723   2.999  -3.849  0.00  0.00    -0.148 SA
ENDBRANCH   2  12
TORSDOF 3
