REMARK  8 active torsions:
REMARK  status: ('A' for Active; 'I' for Inactive)
REMARK    1  A    between atoms: C_2  and  C_1 
REMARK       I    between atoms: N_3  and  C_1 
REMARK       I    between atoms: C_4  and  N_3 
REMARK       I    between atoms: N_8  and  C_4 
REMARK    2  A    between atoms: C_5  and  C_19 
REMARK    3  A    between atoms: C_6  and  C_20 
REMARK    4  A    between atoms: C_7  and  N_8 
REMARK    5  A    between atoms: O_15  and  C_9 
REMARK    6  A    between atoms: C_19  and  O_15 
REMARK    7  A    between atoms: C_20  and  O_29 
REMARK    8  A    between atoms: O_29  and  C_28 
ROOT
ATOM      1  C   UNL d   1       0.293  -0.503   1.051  0.00  0.00     0.068 A 
ATOM      2  C   UNL d   1       0.780   0.094   2.238  0.00  0.00     0.085 A 
ATOM      3  C   UNL d   1      -1.039  -0.942   1.017  0.00  0.00     0.056 A 
ATOM      4  C   UNL d   1      -0.063   0.214   3.352  0.00  0.00     0.040 A 
ATOM      5  C   UNL d   1      -1.877  -0.781   2.121  0.00  0.00     0.070 A 
ATOM      6  C   UNL d   1      -1.388  -0.216   3.292  0.00  0.00     0.039 A 
ENDROOT
BRANCH   1   7
ATOM      7  C   UNL d   1       1.100  -0.521  -0.213  0.00  0.00     0.262 C 
ATOM      8  N   UNL d   1       0.744  -1.321  -1.295  0.00  0.00    -0.275 N 
ATOM      9  C   UNL d   1       0.524  -2.694  -1.274  0.00  0.00     0.327 C 
ATOM     10  H   UNL d   1       1.338  -1.053  -2.066  0.00  0.00     0.173 HD
ATOM     11  N   UNL d   1       0.507  -3.216  -2.567  0.00  0.00    -0.309 N 
ATOM     12  O   UNL d   1       0.298  -3.326  -0.249  0.00  0.00    -0.247 OA
ATOM     13  H   UNL d   1       0.647  -2.557  -3.322  0.00  0.00     0.170 HD
ATOM     14  O   UNL d   1       2.040   0.258  -0.379  0.00  0.00    -0.267 OA
BRANCH  11  15
ATOM     15  C   UNL d   1       0.338  -4.567  -2.960  0.00  0.00     0.039 A 
ATOM     16  C   UNL d   1       0.065  -5.610  -2.070  0.00  0.00     0.053 A 
ATOM     17  C   UNL d   1      -0.048  -6.925  -2.535  0.00  0.00     0.037 A 
ATOM     18 CL   UNL d   1      -0.378  -8.197  -1.422  0.00  0.00    -0.084 Cl
ATOM     19  C   UNL d   1       0.108  -7.222  -3.885  0.00  0.00     0.048 A 
ATOM     20  C   UNL d   1       0.363  -6.189  -4.775  0.00  0.00     0.037 A 
ATOM     21  C   UNL d   1       0.469  -4.868  -4.325  0.00  0.00     0.053 A 
ATOM     22 CL   UNL d   1       0.563  -6.538  -6.449  0.00  0.00    -0.084 Cl
ENDBRANCH  11  15
ENDBRANCH   1   7
BRANCH   2  23
ATOM     23  O   UNL d   1       2.105   0.434   2.330  0.00  0.00    -0.341 OA
BRANCH  23  24
ATOM     24  C   UNL d   1       2.389   1.742   2.861  0.00  0.00     0.293 C 
BRANCH  24  25
ATOM     25  C   UNL d   1       2.654   1.781   4.366  0.00  0.00     0.408 C 
ATOM     26  F   UNL d   1       2.767   0.552   4.913  0.00  0.00    -0.169 F 
ATOM     27  F   UNL d   1       3.792   2.458   4.649  0.00  0.00    -0.169 F 
ATOM     28  F   UNL d   1       1.646   2.419   5.012  0.00  0.00    -0.169 F 
ENDBRANCH  24  25
ENDBRANCH  23  24
ENDBRANCH   2  23
BRANCH   5  29
ATOM     29  O   UNL d   1      -3.184  -1.191   2.126  0.00  0.00    -0.342 OA
BRANCH  29  30
ATOM     30  C   UNL d   1      -3.896  -0.765   0.952  0.00  0.00     0.293 C 
BRANCH  30  31
ATOM     31  C   UNL d   1      -5.385  -1.037   1.059  0.00  0.00     0.408 C 
ATOM     32  F   UNL d   1      -5.868  -0.820   2.301  0.00  0.00    -0.169 F 
ATOM     33  F   UNL d   1      -6.063  -0.219   0.216  0.00  0.00    -0.169 F 
ATOM     34  F   UNL d   1      -5.681  -2.307   0.707  0.00  0.00    -0.169 F 
ENDBRANCH  30  31
ENDBRANCH  29  30
ENDBRANCH   5  29
TORSDOF 8
