REMARK  6 active torsions:
REMARK  status: ('A' for Active; 'I' for Inactive)
REMARK    1  A    between atoms: C_14  and  C_2 
REMARK    2  A    between atoms: S_10  and  C_5 
REMARK       I    between atoms: C_8  and  N_11 
REMARK       I    between atoms: N_12  and  C_8 
REMARK    3  A    between atoms: C_9  and  C_17 
REMARK       I    between atoms: N_13  and  C_9 
REMARK    4  A    between atoms: C_17  and  S_10 
REMARK    5  A    between atoms: N_11  and  N_13 
REMARK    6  A    between atoms: C_19  and  N_12 
ROOT
ATOM      1  C   UNL d   1       2.614  -4.265  -0.340  0.00  0.00     0.245 C 
ATOM      2  N   UNL d   1       1.797  -5.122  -1.047  0.00  0.00    -0.265 N 
ATOM      3  O   UNL d   1       3.728  -4.626   0.048  0.00  0.00    -0.271 OA
ATOM      4  H   UNL d   1       0.877  -4.871  -1.408  0.00  0.00     0.190 HD
ENDROOT
BRANCH   1   5
ATOM      5  C   UNL d   1       2.130  -2.830  -0.162  0.00  0.00     0.186 C 
BRANCH   5   6
ATOM      6  S   UNL d   1       0.360  -2.712   0.242  0.00  0.00    -0.083 SA
BRANCH   6   7
ATOM      7  C   UNL d   1       0.173  -0.996   0.442  0.00  0.00     0.163 A 
ATOM      8  N   UNL d   1      -1.010  -0.390   0.786  0.00  0.00    -0.315 N 
ATOM      9  C   UNL d   1      -0.739   0.967   0.874  0.00  0.00     0.134 A 
ATOM     10  C   UNL d   1      -2.277  -1.054   0.958  0.00  0.00     0.160 C 
ATOM     11  N   UNL d   1       0.537   1.135   0.546  0.00  0.00    -0.283 N 
ATOM     12  N   UNL d   1       1.108  -0.088   0.292  0.00  0.00    -0.278 N 
ATOM     13  HN  UNL d   1       1.018   2.032   0.492  1.00  0.00     0.188 HD
ATOM     14  HN  UNL d   1       2.080  -0.259   0.034  1.00  0.00     0.189 HD
BRANCH   9  15
ATOM     15  C   UNL d   1      -1.669   2.063   1.197  0.00  0.00     0.009 A 
ATOM     16  C   UNL d   1      -2.709   1.937   2.130  0.00  0.00     0.015 A 
ATOM     17  C   UNL d   1      -3.599   2.991   2.368  0.00  0.00     0.001 A 
ATOM     18  C   UNL d   1      -3.437   4.208   1.711  0.00  0.00     0.000 A 
ATOM     19  C   UNL d   1      -2.377   4.374   0.824  0.00  0.00     0.001 A 
ATOM     20  C   UNL d   1      -1.502   3.310   0.570  0.00  0.00     0.015 A 
ENDBRANCH   9  15
ENDBRANCH   6   7
ENDBRANCH   5   6
ENDBRANCH   1   5
BRANCH   2  21
ATOM     21  N   UNL d   1       2.275  -6.414  -1.365  0.00  0.00    -0.249 N 
ATOM     22  C   UNL d   1       1.374  -7.314  -1.919  0.00  0.00     0.339 C 
ATOM     23  N   UNL d   1       1.950  -8.547  -2.154  0.00  0.00    -0.308 N 
ATOM     24  O   UNL d   1       0.221  -6.970  -2.178  0.00  0.00    -0.245 OA
ATOM     25  H   UNL d   1       2.942  -8.614  -1.977  0.00  0.00     0.170 HD
ATOM     26  H   UNL d   1       3.025  -6.747  -0.764  0.00  0.00     0.192 HD
BRANCH  23  27
ATOM     27  C   UNL d   1       1.323  -9.708  -2.667  0.00  0.00     0.036 A 
ATOM     28  C   UNL d   1      -0.033  -9.777  -2.997  0.00  0.00     0.029 A 
ATOM     29  C   UNL d   1      -0.602 -10.977  -3.440  0.00  0.00     0.002 A 
ATOM     30  C   UNL d   1       0.180 -12.121  -3.567  0.00  0.00     0.000 A 
ATOM     31  C   UNL d   1       1.540 -12.060  -3.270  0.00  0.00     0.002 A 
ATOM     32  C   UNL d   1       2.108 -10.860  -2.827  0.00  0.00     0.029 A 
ENDBRANCH  23  27
ENDBRANCH   2  21
TORSDOF 6
