REMARK  8 active torsions:
REMARK  status: ('A' for Active; 'I' for Inactive)
REMARK    1  A    between atoms: N_5  and  C_1 
REMARK    2  A    between atoms: N_6  and  C_1 
REMARK       I    between atoms: C_4  and  N_8 
REMARK    3  A    between atoms: C_16  and  C_4 
REMARK    4  A    between atoms: C_11  and  N_5 
REMARK    5  A    between atoms: N_8  and  N_6 
REMARK    6  A    between atoms: C_7  and  O_12 
REMARK    7  A    between atoms: C_17  and  C_11 
REMARK    8  A    between atoms: O_12  and  C_16 
ROOT
ATOM      1  C   UNL d   1      -1.912  -0.787   2.412  0.00  0.00     0.260 C 
ATOM      2  N   UNL d   1      -1.360  -0.253   1.269  0.00  0.00    -0.266 N 
ATOM      3  O   UNL d   1      -1.237  -1.378   3.257  0.00  0.00    -0.269 OA
ATOM      4  H   UNL d   1      -1.922   0.170   0.534  0.00  0.00     0.190 HD
ENDROOT
BRANCH   2   5
ATOM      5  N   UNL d   1      -0.050  -0.650   0.949  0.00  0.00    -0.274 N 
ATOM      6  H   UNL d   1       0.379  -1.239   1.665  0.00  0.00     0.189 HD
BRANCH   5   7
ATOM      7  C   UNL d   1       0.798   0.170   0.248  0.00  0.00     0.187 C 
ATOM      8  S   UNL d   1       0.438   1.703  -0.310  0.00  0.00    -0.040 SA
BRANCH   7   9
ATOM      9  N   UNL d   1       2.030  -0.360  -0.038  0.00  0.00    -0.358 N 
ATOM     10  H   UNL d   1       2.588   0.271  -0.602  0.00  0.00     0.162 HD
BRANCH   9  11
ATOM     11  C   UNL d   1       2.311  -1.784  -0.237  0.00  0.00     0.113 C 
ATOM     12  C   UNL d   1       3.751  -2.113   0.151  0.00  0.00     0.037 C 
BRANCH  11  13
ATOM     13  C   UNL d   1       2.004  -2.177  -1.675  0.00  0.00    -0.036 A 
ATOM     14  C   UNL d   1       2.708  -1.622  -2.756  0.00  0.00     0.009 A 
ATOM     15  C   UNL d   1       2.389  -1.972  -4.071  0.00  0.00     0.001 A 
ATOM     16  C   UNL d   1       1.364  -2.880  -4.323  0.00  0.00     0.000 A 
ATOM     17  C   UNL d   1       0.657  -3.440  -3.262  0.00  0.00     0.001 A 
ATOM     18  C   UNL d   1       0.973  -3.089  -1.945  0.00  0.00     0.009 A 
ENDBRANCH  11  13
ENDBRANCH   9  11
ENDBRANCH   7   9
ENDBRANCH   5   7
ENDBRANCH   2   5
BRANCH   1  19
ATOM     19  C   UNL d   1      -3.436  -0.748   2.471  0.00  0.00     0.280 C 
BRANCH  19  20
ATOM     20  O   UNL d   1      -3.994   0.491   2.061  0.00  0.00    -0.341 OA
BRANCH  20  21
ATOM     21  C   UNL d   1      -5.360   0.577   2.132  0.00  0.00     0.076 A 
ATOM     22  C   UNL d   1      -5.927   1.800   1.792  0.00  0.00    -0.018 A 
ATOM     23  C   UNL d   1      -7.314   1.992   1.810  0.00  0.00    -0.043 A 
ATOM     24  C   UNL d   1      -5.207   3.045   1.383  0.00  0.00     0.042 A 
ATOM     25  C   UNL d   1      -7.683   3.380   1.393  0.00  0.00     0.040 A 
ATOM     26  C   UNL d   1      -8.183   0.966   2.174  0.00  0.00    -0.055 A 
ATOM     27  C   UNL d   1      -6.332   4.059   1.138  0.00  0.00     0.009 A 
ATOM     28  C   UNL d   1      -7.619  -0.263   2.528  0.00  0.00     0.010 A 
ATOM     29  C   UNL d   1      -9.668   1.164   2.192  0.00  0.00     0.049 C 
ATOM     30  C   UNL d   1      -6.226  -0.456   2.507  0.00  0.00     0.038 A 
ENDBRANCH  20  21
ENDBRANCH  19  20
ENDBRANCH   1  19
TORSDOF 8
