REMARK  7 active torsions:
REMARK  status: ('A' for Active; 'I' for Inactive)
REMARK       I    between atoms: C_7  and  N_1 
REMARK    1  A    between atoms: N_14  and  C_2 
REMARK    2  A    between atoms: C_8  and  C_3 
REMARK    3  A    between atoms: C_12  and  C_7 
REMARK    4  A    between atoms: O_20  and  C_8 
REMARK    5  A    between atoms: C_11  and  O_13 
REMARK    6  A    between atoms: O_13  and  C_12 
REMARK    7  A    between atoms: C_25  and  O_20 
ROOT
ATOM      1  N   UNL d   1       1.692  -2.212  -1.034  0.00  0.00    -0.210 N 
ATOM      2  C   UNL d   1       2.085  -2.273  -2.382  0.00  0.00     0.121 A 
ATOM      3  C   UNL d   1       1.213  -3.146  -3.014  0.00  0.00     0.096 A 
ATOM      4  N   UNL d   1       0.649  -3.077  -0.810  0.00  0.00    -0.300 N 
ATOM      5  HN  UNL d   1       0.177  -3.259   0.076  1.00  0.00     0.186 HD
ATOM      6  C   UNL d   1       0.382  -3.626  -1.990  0.00  0.00     0.129 A 
ATOM      7  C   UNL d   1       2.145  -1.442   0.065  0.00  0.00     0.268 C 
ATOM      8  O   UNL d   1       1.409  -1.289   1.040  0.00  0.00    -0.269 OA
ENDROOT
BRANCH   2   9
ATOM      9  N   UNL d   1       3.071  -1.537  -2.971  0.00  0.00    -0.286 NA
ATOM     10  H   UNL d   1       3.159  -0.541  -2.767  0.00  0.00     0.125 HD
ATOM     11  H   UNL d   1       3.172  -1.664  -3.988  0.00  0.00     0.125 HD
ENDBRANCH   2   9
BRANCH   7  12
ATOM     12  C   UNL d   1       3.564  -0.923   0.002  0.00  0.00     0.280 C 
BRANCH  12  13
ATOM     13  O   UNL d   1       3.601   0.416   0.501  0.00  0.00    -0.341 OA
BRANCH  13  14
ATOM     14  C   UNL d   1       4.830   1.004   0.617  0.00  0.00     0.076 A 
ATOM     15  C   UNL d   1       4.876   2.222   1.288  0.00  0.00    -0.018 A 
ATOM     16  C   UNL d   1       6.082   2.905   1.483  0.00  0.00    -0.043 A 
ATOM     17  C   UNL d   1       3.722   2.972   1.874  0.00  0.00     0.042 A 
ATOM     18  C   UNL d   1       5.882   4.168   2.258  0.00  0.00     0.040 A 
ATOM     19  C   UNL d   1       7.283   2.403   0.990  0.00  0.00    -0.055 A 
ATOM     20  C   UNL d   1       4.372   4.203   2.520  0.00  0.00     0.009 A 
ATOM     21  C   UNL d   1       7.239   1.192   0.290  0.00  0.00     0.010 A 
ATOM     22  C   UNL d   1       8.579   3.124   1.206  0.00  0.00     0.049 C 
ATOM     23  C   UNL d   1       6.029   0.497   0.110  0.00  0.00     0.038 A 
ENDBRANCH  13  14
ENDBRANCH  12  13
ENDBRANCH   7  12
BRANCH   3  24
ATOM     24  C   UNL d   1       1.118  -3.371  -4.442  0.00  0.00     0.298 C 
ATOM     25  O   UNL d   1       1.899  -2.868  -5.246  0.00  0.00    -0.259 OA
BRANCH  24  26
ATOM     26  O   UNL d   1       0.002  -4.073  -4.788  0.00  0.00    -0.318 OA
BRANCH  26  27
ATOM     27  C   UNL d   1      -0.442  -3.877  -6.140  0.00  0.00     0.174 C 
ATOM     28  C   UNL d   1      -1.439  -2.731  -6.141  0.00  0.00     0.034 C 
ENDBRANCH  26  27
ENDBRANCH  24  26
ENDBRANCH   3  24
TORSDOF 7
