REMARK  3 active torsions:
REMARK  status: ('A' for Active; 'I' for Inactive)
REMARK       I    between atoms: N_2  and  C_1 
REMARK    1  A    between atoms: C_6  and  C_1 
REMARK    2  A    between atoms: C_8  and  N_2 
REMARK       I    between atoms: C_3  and  N_4 
REMARK    3  A    between atoms: N_4  and  C_9 
ROOT
ATOM      1  C   UNL d   1       0.961  -2.448   0.058  0.00  0.00     0.035 A 
ATOM      2  C   UNL d   1       2.217  -4.983   0.206  0.00  0.00     0.034 A 
ATOM      3  C   UNL d   1       1.894  -2.727   1.059  0.00  0.00     0.032 A 
ATOM      4  C   UNL d   1       0.606  -3.476  -0.816  0.00  0.00     0.032 A 
ATOM      5  C   UNL d   1       2.515  -3.983   1.134  0.00  0.00     0.032 A 
ATOM      6  C   UNL d   1       1.227  -4.732  -0.743  0.00  0.00     0.032 A 
ENDROOT
BRANCH   1   7
ATOM      7  N   UNL d   1       0.382  -1.174  -0.161  0.00  0.00    -0.323 N 
ATOM      8  C   UNL d   1       0.667  -0.013   0.534  0.00  0.00     0.256 C 
ATOM      9  O   UNL d   1       1.381   0.069   1.530  0.00  0.00    -0.267 OA
ATOM     10  H   UNL d   1      -0.282  -1.119  -0.920  0.00  0.00     0.169 HD
BRANCH   8  11
ATOM     11  C   UNL d   1       0.045   1.251   0.034  0.00  0.00     0.032 A 
ATOM     12  C   UNL d   1      -0.110   2.296   0.960  0.00  0.00     0.017 A 
ATOM     13  C   UNL d   1      -0.602   3.538   0.560  0.00  0.00     0.001 A 
ATOM     14  C   UNL d   1      -0.944   3.749  -0.773  0.00  0.00     0.000 A 
ATOM     15  C   UNL d   1      -0.799   2.717  -1.702  0.00  0.00     0.001 A 
ATOM     16  C   UNL d   1      -0.304   1.468  -1.304  0.00  0.00     0.017 A 
ENDBRANCH   8  11
ENDBRANCH   1   7
BRANCH   2  17
ATOM     17  N   UNL d   1       2.972  -6.175   0.261  0.00  0.00    -0.328 N 
ATOM     18  C   UNL d   1       2.932  -7.226  -0.637  0.00  0.00     0.218 C 
ATOM     19  O   UNL d   1       2.166  -7.348  -1.590  0.00  0.00    -0.274 OA
ATOM     20  C   UNL d   1       3.978  -8.281  -0.380  0.00  0.00     0.117 C 
ATOM     21  H   UNL d   1       3.674  -6.217   0.991  0.00  0.00     0.169 HD
ENDBRANCH   2  17
TORSDOF 3
