REMARK  3 active torsions:
REMARK  status: ('A' for Active; 'I' for Inactive)
REMARK    1  A    between atoms: C_2  and  C_1 
REMARK       I    between atoms: N_8  and  C_2 
REMARK    2  A    between atoms: C_3  and  C_9 
REMARK    3  A    between atoms: C_12  and  N_8 
ROOT
ATOM      1  C   UNL d   1      -1.459   2.813  -1.163  0.00  0.00     0.012 A 
ATOM      2  C   UNL d   1      -0.581   1.963   0.952  0.00  0.00     0.035 A 
ATOM      3  C   UNL d   1      -0.972   1.756  -0.373  0.00  0.00     0.044 A 
ATOM      4  C   UNL d   1      -1.568   4.089  -0.596  0.00  0.00     0.015 A 
ATOM      5  C   UNL d   1      -1.203   4.302   0.734  0.00  0.00     0.003 A 
ATOM      6  C   UNL d   1      -0.715   3.244   1.503  0.00  0.00     0.029 A 
ENDROOT
BRANCH   2   7
ATOM      7  N   UNL d   1      -0.042   0.956   1.782  0.00  0.00    -0.323 N 
ATOM      8  C   UNL d   1       0.309  -0.347   1.429  0.00  0.00     0.277 C 
ATOM      9  O   UNL d   1       0.193  -0.801   0.289  0.00  0.00    -0.268 OA
ATOM     10  H   UNL d   1       0.156   1.234   2.740  0.00  0.00     0.169 HD
BRANCH   8  11
ATOM     11  C   UNL d   1       0.911  -1.212   2.571  0.00  0.00     0.269 C 
ATOM     12 CL   UNL d   1       0.864  -0.363   4.148  0.00  0.00    -0.073 Cl
ATOM     13 CL   UNL d   1       2.610  -1.567   2.160  0.00  0.00    -0.073 Cl
ATOM     14 CL   UNL d   1      -0.028  -2.720   2.699  0.00  0.00    -0.073 Cl
ENDBRANCH   8  11
ENDBRANCH   2   7
BRANCH   1  15
ATOM     15  C   UNL d   1      -1.823   2.568  -2.555  0.00  0.00     0.137 A 
ATOM     16  N   UNL d   1      -1.777   1.306  -3.114  0.00  0.00    -0.329 N 
ATOM     17  C   UNL d   1      -2.140   1.533  -4.348  0.00  0.00     0.261 A 
ATOM     18  HN  UNL d   1      -1.524   0.421  -2.674  1.00  0.00     0.168 HD
ATOM     19  O   UNL d   1      -2.417   2.833  -4.610  0.00  0.00    -0.231 OA
ATOM     20  N   UNL d   1      -2.209   3.526  -3.417  0.00  0.00    -0.243 N 
ATOM     21  HN  UNL d   1      -2.323   4.524  -3.239  1.00  0.00     0.196 HD
ENDBRANCH   1  15
TORSDOF 3
