REMARK  2 active torsions:
REMARK  status: ('A' for Active; 'I' for Inactive)
REMARK    1  A    between atoms: C_4  and  N_1 
REMARK    2  A    between atoms: C_13  and  C_10 
ROOT
ATOM      1  N   UNL d   1       2.405  -0.610  -0.045  0.00  0.00    -0.252 N 
ATOM      2  C   UNL d   1       2.359   0.794  -0.062  0.00  0.00     0.186 C 
ATOM      3  C   UNL d   1       1.262  -1.417   0.117  0.00  0.00     0.267 C 
ATOM      4  C   UNL d   1      -0.045  -0.732   0.067  0.00  0.00     0.059 A 
ATOM      5  N   UNL d   1       1.123   1.371   0.049  0.00  0.00    -0.332 N 
ATOM      6  C   UNL d   1      -0.070   0.656   0.049  0.00  0.00     0.050 A 
ATOM      7  S   UNL d   1       3.628   1.883  -0.268  0.00  0.00    -0.040 SA
ATOM      8  O   UNL d   1       1.281  -2.628   0.343  0.00  0.00    -0.267 OA
ATOM      9  C   UNL d   1      -1.245  -1.449   0.038  0.00  0.00     0.019 A 
ATOM     10  C   UNL d   1      -1.281   1.346   0.003  0.00  0.00     0.030 A 
ATOM     11  C   UNL d   1      -2.461  -0.764  -0.027  0.00  0.00     0.001 A 
ATOM     12  C   UNL d   1      -2.478   0.632  -0.045  0.00  0.00     0.002 A 
ATOM     13  H   UNL d   1       1.098   2.385   0.015  0.00  0.00     0.168 HD
ENDROOT
BRANCH   1  14
ATOM     14  C   UNL d   1       3.663  -1.299  -0.147  0.00  0.00     0.067 A 
ATOM     15  C   UNL d   1       4.660  -1.036   0.813  0.00  0.00     0.047 A 
ATOM     16  C   UNL d   1       5.951  -1.553   0.674  0.00  0.00     0.011 A 
ATOM     17  C   UNL d   1       6.218  -2.422  -0.394  0.00  0.00     0.017 A 
ATOM     18  C   UNL d   1       5.221  -2.742  -1.320  0.00  0.00     0.027 A 
ATOM     19  C   UNL d   1       3.950  -2.173  -1.211  0.00  0.00     0.061 A 
ATOM     20 CL   UNL d   1       2.833  -2.474  -2.498  0.00  0.00    -0.082 Cl
BRANCH  16  21
ATOM     21  C   UNL d   1       7.080  -1.181   1.581  0.00  0.00     0.155 C 
ATOM     22  O   UNL d   1       8.182  -1.707   1.407  0.00  0.00    -0.293 OA
ATOM     23  C   UNL d   1       6.909  -0.145   2.665  0.00  0.00     0.096 C 
ENDBRANCH  16  21
ENDBRANCH   1  14
TORSDOF 2
