REMARK  7 active torsions:
REMARK  status: ('A' for Active; 'I' for Inactive)
REMARK    1  A    between atoms: C_2  and  C_1 
REMARK    2  A    between atoms: C_4  and  C_1 
REMARK    3  A    between atoms: C_3  and  C_2 
REMARK    4  A    between atoms: C_6  and  C_2 
REMARK    5  A    between atoms: O_8  and  C_3 
REMARK    6  A    between atoms: C_9  and  C_4 
REMARK    7  A    between atoms: C_12  and  O_8 
ROOT
ATOM      1  C   UNL d   1       0.258   0.722   0.980  0.00  0.00     0.188 C 
ENDROOT
BRANCH   1   2
ATOM      2  C   UNL d   1       0.969  -0.226   0.022  0.00  0.00     0.149 C 
ATOM      3  O   UNL d   1       0.668  -0.226  -1.179  0.00  0.00    -0.296 OA
BRANCH   2   4
ATOM      4  C   UNL d   1       2.071  -1.128   0.550  0.00  0.00     0.118 C 
BRANCH   4   5
ATOM      5  C   UNL d   1       1.869  -2.602   0.280  0.00  0.00    -0.051 A 
ATOM      6  C   UNL d   1       2.253  -3.164  -0.946  0.00  0.00     0.007 A 
ATOM      7  C   UNL d   1       2.153  -4.543  -1.160  0.00  0.00     0.001 A 
ATOM      8  C   UNL d   1       1.651  -5.373  -0.161  0.00  0.00     0.000 A 
ATOM      9  C   UNL d   1       1.233  -4.824   1.049  0.00  0.00     0.001 A 
ATOM     10  C   UNL d   1       1.340  -3.448   1.266  0.00  0.00     0.007 A 
ENDBRANCH   4   5
ENDBRANCH   2   4
ENDBRANCH   1   2
BRANCH   1  11
ATOM     11  C   UNL d   1      -0.549  -0.038   2.007  0.00  0.00     0.274 C 
ATOM     12  O   UNL d   1      -0.103  -0.928   2.725  0.00  0.00    -0.264 OA
BRANCH  11  13
ATOM     13  O   UNL d   1      -1.845   0.387   2.025  0.00  0.00    -0.321 OA
BRANCH  13  14
ATOM     14  C   UNL d   1      -2.735  -0.405   2.825  0.00  0.00     0.174 C 
ATOM     15  C   UNL d   1      -3.263  -1.551   1.981  0.00  0.00     0.034 C 
ENDBRANCH  13  14
ENDBRANCH  11  13
ENDBRANCH   1  11
BRANCH   1  16
ATOM     16  C   UNL d   1       1.168   1.790   1.575  0.00  0.00    -0.037 A 
ATOM     17  C   UNL d   1       1.341   3.003   0.887  0.00  0.00     0.008 A 
ATOM     18  C   UNL d   1       2.128   4.026   1.424  0.00  0.00     0.001 A 
ATOM     19  C   UNL d   1       2.764   3.849   2.649  0.00  0.00     0.000 A 
ATOM     20  C   UNL d   1       2.626   2.644   3.332  0.00  0.00     0.001 A 
ATOM     21  C   UNL d   1       1.837   1.621   2.799  0.00  0.00     0.008 A 
ENDBRANCH   1  16
TORSDOF 7
