REMARK  5 active torsions:
REMARK  status: ('A' for Active; 'I' for Inactive)
REMARK       I    between atoms: C_2  and  N_1 
REMARK    1  A    between atoms: C_3  and  N_1 
REMARK    2  A    between atoms: C_5  and  C_2 
REMARK    3  A    between atoms: C_6  and  C_3 
REMARK    4  A    between atoms: C_7  and  C_3 
REMARK    5  A    between atoms: O_8  and  C_7 
ROOT
ATOM      1  C   UNL d   1       2.484   0.103  -0.013  0.00  0.00     0.146 C 
ENDROOT
BRANCH   1   2
ATOM      2  N   UNL d   1       1.027   0.022   0.118  0.00  0.00    -0.346 N 
ATOM      3  C   UNL d   1       0.331  -1.161   0.041  0.00  0.00     0.252 C 
ATOM      4  O   UNL d   1       0.865  -2.250  -0.130  0.00  0.00    -0.268 OA
ATOM      5  H   UNL d   1       0.514   0.892   0.117  0.00  0.00     0.163 HD
BRANCH   3   6
ATOM      6  C   UNL d   1      -1.152  -1.068   0.189  0.00  0.00     0.032 A 
ATOM      7  C   UNL d   1      -1.956  -2.031  -0.437  0.00  0.00     0.017 A 
ATOM      8  C   UNL d   1      -3.344  -2.003  -0.273  0.00  0.00     0.001 A 
ATOM      9  C   UNL d   1      -3.935  -1.015   0.520  0.00  0.00     0.000 A 
ATOM     10  C   UNL d   1      -3.138  -0.057   1.147  0.00  0.00     0.001 A 
ATOM     11  C   UNL d   1      -1.748  -0.082   0.986  0.00  0.00     0.017 A 
ENDBRANCH   3   6
ENDBRANCH   1   2
BRANCH   1  12
ATOM     12  C   UNL d   1       2.860   0.935  -1.225  0.00  0.00    -0.033 A 
ATOM     13  C   UNL d   1       2.458   2.276  -1.351  0.00  0.00     0.009 A 
ATOM     14  C   UNL d   1       2.895   3.049  -2.425  0.00  0.00     0.001 A 
ATOM     15  C   UNL d   1       3.738   2.496  -3.386  0.00  0.00     0.000 A 
ATOM     16  C   UNL d   1       4.132   1.163  -3.283  0.00  0.00     0.001 A 
ATOM     17  C   UNL d   1       3.690   0.385  -2.213  0.00  0.00     0.009 A 
ENDBRANCH   1  12
BRANCH   1  18
ATOM     18  C   UNL d   1       3.111   0.671   1.298  0.00  0.00     0.141 C 
ATOM     19  C   UNL d   1       4.636   0.710   1.256  0.00  0.00     0.042 C 
BRANCH  18  20
ATOM     20  O   UNL d   1       2.736  -0.114   2.441  0.00  0.00    -0.394 OA
ATOM     21  H   UNL d   1       2.245  -0.893   2.120  0.00  0.00     0.210 HD
ENDBRANCH  18  20
ENDBRANCH   1  18
TORSDOF 5
