REMARK  7 active torsions:
REMARK  status: ('A' for Active; 'I' for Inactive)
REMARK       I    between atoms: N_2  and  C_1 
REMARK    1  A    between atoms: C_3  and  C_1 
REMARK       I    between atoms: C_4  and  N_2 
REMARK       I    between atoms: N_7  and  C_4 
REMARK    2  A    between atoms: C_5  and  S_8 
REMARK       I    between atoms: C_6  and  N_9 
REMARK    3  A    between atoms: C_17  and  C_6 
REMARK    4  A    between atoms: N_9  and  N_7 
REMARK    5  A    between atoms: S_8  and  C_19 
REMARK    6  A    between atoms: O_18  and  C_17 
REMARK    7  A    between atoms: C_20  and  O_18 
ROOT
ATOM      1  C   UNL d   1       4.741   0.659   1.257  0.00  0.00     0.260 C 
ATOM      2  N   UNL d   1       3.369   0.483   1.276  0.00  0.00    -0.264 N 
ATOM      3  O   UNL d   1       5.364   1.227   2.152  0.00  0.00    -0.269 OA
ATOM      4  H   UNL d   1       2.852   0.241   0.431  0.00  0.00     0.190 HD
ENDROOT
BRANCH   2   5
ATOM      5  N   UNL d   1       2.611   1.124   2.271  0.00  0.00    -0.249 N 
ATOM      6  C   UNL d   1       1.292   1.356   2.006  0.00  0.00     0.341 C 
ATOM      7  N   UNL d   1       0.523   1.881   3.006  0.00  0.00    -0.274 N 
ATOM      8  O   UNL d   1       0.789   1.123   0.904  0.00  0.00    -0.245 OA
ATOM      9  C   UNL d   1       0.835   2.134   4.333  0.00  0.00     0.261 C 
ATOM     10  H   UNL d   1      -0.430   2.019   2.706  0.00  0.00     0.173 HD
ATOM     11  O   UNL d   1       1.942   1.958   4.827  0.00  0.00    -0.267 OA
ATOM     12  H   UNL d   1       2.986   1.166   3.220  0.00  0.00     0.192 HD
BRANCH   9  13
ATOM     13  C   UNL d   1      -0.266   2.746   5.137  0.00  0.00     0.054 A 
ATOM     14  C   UNL d   1      -1.619   2.395   5.013  0.00  0.00     0.049 A 
ATOM     15 CL   UNL d   1      -2.170   1.079   4.036  0.00  0.00    -0.083 Cl
ATOM     16  C   UNL d   1      -2.598   3.107   5.716  0.00  0.00     0.025 A 
ATOM     17  C   UNL d   1      -2.236   4.153   6.562  0.00  0.00     0.002 A 
ATOM     18  C   UNL d   1      -0.891   4.476   6.730  0.00  0.00     0.001 A 
ATOM     19  C   UNL d   1       0.091   3.774   6.026  0.00  0.00     0.019 A 
ENDBRANCH   9  13
ENDBRANCH   2   5
BRANCH   1  20
ATOM     20  C   UNL d   1       5.420   0.045   0.035  0.00  0.00     0.280 C 
BRANCH  20  21
ATOM     21  O   UNL d   1       5.802  -1.285   0.371  0.00  0.00    -0.342 OA
BRANCH  21  22
ATOM     22  C   UNL d   1       6.570  -1.941  -0.550  0.00  0.00     0.069 A 
ATOM     23  C   UNL d   1       7.455  -2.885  -0.026  0.00  0.00     0.038 A 
ATOM     24  C   UNL d   1       8.264  -3.649  -0.873  0.00  0.00     0.021 A 
ATOM     25  C   UNL d   1       8.191  -3.482  -2.258  0.00  0.00     0.009 A 
ATOM     26  C   UNL d   1       7.278  -2.560  -2.781  0.00  0.00     0.021 A 
ATOM     27  C   UNL d   1       6.475  -1.787  -1.932  0.00  0.00     0.038 A 
BRANCH  25  28
ATOM     28  S   UNL d   1       9.176  -4.523  -3.313  0.00  0.00    -0.016 SA
BRANCH  28  29
ATOM     29  C   UNL d   1      10.214  -3.314  -4.149  0.00  0.00     0.448 C 
ATOM     30  F   UNL d   1       9.910  -2.029  -3.854  0.00  0.00    -0.160 F 
ATOM     31  F   UNL d   1      11.519  -3.499  -3.834  0.00  0.00    -0.160 F 
ATOM     32  F   UNL d   1      10.109  -3.447  -5.495  0.00  0.00    -0.160 F 
ENDBRANCH  28  29
ENDBRANCH  25  28
ENDBRANCH  21  22
ENDBRANCH  20  21
ENDBRANCH   1  20
TORSDOF 7
