REMARK  6 active torsions:
REMARK  status: ('A' for Active; 'I' for Inactive)
REMARK    1  A    between atoms: N_2  and  S_1 
REMARK    2  A    between atoms: C_4  and  S_1 
REMARK    3  A    between atoms: C_3  and  N_2 
REMARK    4  A    between atoms: O_11  and  C_10 
REMARK    5  A    between atoms: C_19  and  O_11 
REMARK    6  A    between atoms: C_15  and  C_19 
ROOT
ATOM      1  C   UNL d   1       0.875   1.053  -2.501  0.00  0.00     0.128 A 
ATOM      2  N   UNL d   1      -0.192   1.688  -3.024  0.00  0.00    -0.354 N 
ATOM      3  HN  UNL d   1      -1.141   1.332  -2.911  1.00  0.00     0.166 HD
ATOM      4  C   UNL d   1       2.203   1.470  -2.620  0.00  0.00     0.108 A 
ATOM      5  C   UNL d   1       0.068   2.820  -3.705  0.00  0.00     0.089 A 
ATOM      6  C   UNL d   1       2.432   2.651  -3.321  0.00  0.00     0.041 A 
ATOM      7  C   UNL d   1       1.344   3.341  -3.869  0.00  0.00     0.020 A 
ENDROOT
BRANCH   1   8
ATOM      8  N   UNL d   1       0.489  -0.066  -1.728  0.00  0.00    -0.164 NA
ATOM      9  H   UNL d   1      -0.328  -0.510  -2.131  0.00  0.00     0.147 HD
BRANCH   8  10
ATOM     10  S   UNL d   1       0.232   0.260  -0.093  0.00  0.00     0.247 S 
ATOM     11  O   UNL d   1       1.386   0.948   0.451  0.00  0.00    -0.205 OA
ATOM     12  O   UNL d   1      -0.257  -0.964   0.506  0.00  0.00    -0.205 OA
BRANCH  10  13
ATOM     13  C   UNL d   1      -1.142   1.397  -0.075  0.00  0.00     0.076 A 
ATOM     14  C   UNL d   1      -0.979   2.674   0.468  0.00  0.00     0.048 A 
ATOM     15  C   UNL d   1      -2.083   3.518   0.549  0.00  0.00     0.035 A 
ATOM     16 CL   UNL d   1      -1.912   5.081   1.249  0.00  0.00    -0.084 Cl
ATOM     17  C   UNL d   1      -3.335   3.106   0.083  0.00  0.00     0.024 A 
ATOM     18  C   UNL d   1      -3.486   1.832  -0.469  0.00  0.00     0.003 A 
ATOM     19  C   UNL d   1      -2.393   0.970  -0.541  0.00  0.00     0.025 A 
ENDBRANCH  10  13
ENDBRANCH   8  10
ENDBRANCH   1   8
BRANCH   4  20
ATOM     20  O   UNL d   1       3.168   0.629  -2.154  0.00  0.00    -0.343 OA
BRANCH  20  21
ATOM     21  C   UNL d   1       4.410   1.194  -1.750  0.00  0.00     0.214 C 
BRANCH  21  22
ATOM     22  C   UNL d   1       5.303   0.053  -1.324  0.00  0.00    -0.028 A 
ATOM     23  C   UNL d   1       6.532  -0.182  -1.958  0.00  0.00     0.051 A 
ATOM     24  C   UNL d   1       7.341  -1.241  -1.545  0.00  0.00     0.119 A 
ATOM     25  F   UNL d   1       8.513  -1.447  -2.158  0.00  0.00    -0.206 F 
ATOM     26  C   UNL d   1       6.955  -2.080  -0.510  0.00  0.00     0.084 A 
ATOM     27  C   UNL d   1       5.735  -1.855   0.110  0.00  0.00     0.119 A 
ATOM     28  C   UNL d   1       4.909  -0.804  -0.284  0.00  0.00     0.051 A 
ATOM     29  F   UNL d   1       5.348  -2.659   1.108  0.00  0.00    -0.206 F 
ENDBRANCH  21  22
ENDBRANCH  20  21
ENDBRANCH   4  20
TORSDOF 6
