REMARK  7 active torsions:
REMARK  status: ('A' for Active; 'I' for Inactive)
REMARK    1  A    between atoms: N_2  and  C_1 
REMARK    2  A    between atoms: S_5  and  C_1 
REMARK    3  A    between atoms: C_8  and  N_2 
REMARK    4  A    between atoms: C_4  and  C_7 
REMARK    5  A    between atoms: O_10  and  C_4 
REMARK    6  A    between atoms: C_7  and  S_5 
REMARK    7  A    between atoms: C_16  and  O_10 
ROOT
ATOM      1  C   UNL d   1       1.046   0.113   0.065  0.00  0.00     0.139 C 
ATOM      2  S   UNL d   1       0.462   1.330  -0.913  0.00  0.00    -0.053 SA
ENDROOT
BRANCH   1   3
ATOM      3  N   UNL d   1       0.426  -0.591   1.065  0.00  0.00    -0.342 N 
ATOM      4  H   UNL d   1       0.940  -1.420   1.352  0.00  0.00     0.167 HD
BRANCH   3   5
ATOM      5  C   UNL d   1      -0.746  -0.332   1.802  0.00  0.00     0.033 A 
ATOM      6  C   UNL d   1      -1.307  -1.411   2.500  0.00  0.00     0.031 A 
ATOM      7  C   UNL d   1      -2.443  -1.235   3.295  0.00  0.00     0.026 A 
ATOM      8  C   UNL d   1      -3.006   0.031   3.422  0.00  0.00     0.034 A 
ATOM      9  C   UNL d   1      -2.446   1.115   2.753  0.00  0.00     0.026 A 
ATOM     10 CL   UNL d   1      -4.384   0.262   4.425  0.00  0.00    -0.084 Cl
ATOM     11  C   UNL d   1      -1.321   0.932   1.941  0.00  0.00     0.031 A 
ENDBRANCH   3   5
ENDBRANCH   1   3
BRANCH   1  12
ATOM     12  S   UNL d   1       2.661  -0.547  -0.182  0.00  0.00    -0.091 SA
BRANCH  12  13
ATOM     13  C   UNL d   1       3.554   0.478   1.030  0.00  0.00     0.192 C 
BRANCH  13  14
ATOM     14  C   UNL d   1       3.349  -0.001   2.453  0.00  0.00     0.268 C 
ATOM     15  O   UNL d   1       2.665  -0.956   2.806  0.00  0.00    -0.264 OA
BRANCH  14  16
ATOM     16  O   UNL d   1       4.040   0.820   3.297  0.00  0.00    -0.321 OA
BRANCH  16  17
ATOM     17  C   UNL d   1       3.855   0.591   4.702  0.00  0.00     0.174 C 
ATOM     18  C   UNL d   1       2.774   1.527   5.210  0.00  0.00     0.034 C 
ENDBRANCH  16  17
ENDBRANCH  14  16
ENDBRANCH  13  14
ENDBRANCH  12  13
ENDBRANCH   1  12
TORSDOF 7
