REMARK  3 active torsions:
REMARK  status: ('A' for Active; 'I' for Inactive)
REMARK       I    between atoms: N_2  and  C_1 
REMARK    1  A    between atoms: C_3  and  C_1 
REMARK       I    between atoms: C_5  and  N_2 
REMARK       I    between atoms: C_4  and  N_7 
REMARK    2  A    between atoms: C_6  and  C_4 
REMARK       I    between atoms: N_9  and  C_5 
REMARK    3  A    between atoms: N_7  and  N_9 
ROOT
ATOM      1  C   UNL d   1       0.949  -0.206   0.029  0.00  0.00     0.261 C 
ATOM      2  N   UNL d   1       0.425   0.798   0.822  0.00  0.00    -0.274 N 
ATOM      3  C   UNL d   1       1.062   1.808   1.488  0.00  0.00     0.341 C 
ATOM      4  N   UNL d   1       2.427   1.779   1.528  0.00  0.00    -0.248 N 
ATOM      5  O   UNL d   1       2.148  -0.394  -0.139  0.00  0.00    -0.267 OA
ATOM      6  O   UNL d   1       0.399   2.693   2.031  0.00  0.00    -0.245 OA
ATOM      7  H   UNL d   1      -0.578   0.906   0.865  0.00  0.00     0.173 HD
ATOM      8  H   UNL d   1       2.970   1.135   0.949  0.00  0.00     0.192 HD
ENDROOT
BRANCH   4   9
ATOM      9  N   UNL d   1       3.078   2.875   2.111  0.00  0.00    -0.261 N 
ATOM     10  C   UNL d   1       4.384   2.771   2.542  0.00  0.00     0.277 C 
ATOM     11  O   UNL d   1       5.065   1.769   2.306  0.00  0.00    -0.265 OA
ATOM     12  H   UNL d   1       2.477   3.622   2.458  0.00  0.00     0.190 HD
BRANCH  10  13
ATOM     13  C   UNL d   1       4.900   3.917   3.284  0.00  0.00     0.074 A 
ATOM     14  S   UNL d   1       3.983   5.349   3.515  0.00  0.00    -0.097 SA
ATOM     15  C   UNL d   1       5.255   6.117   4.360  0.00  0.00     0.050 A 
ATOM     16  C   UNL d   1       6.355   5.301   4.488  0.00  0.00     0.009 A 
ATOM     17  C   UNL d   1       6.149   4.031   3.872  0.00  0.00     0.025 A 
ENDBRANCH  10  13
ENDBRANCH   4   9
BRANCH   1  18
ATOM     18  C   UNL d   1      -0.051  -1.147  -0.555  0.00  0.00     0.054 A 
ATOM     19  C   UNL d   1      -1.301  -0.754  -1.058  0.00  0.00     0.049 A 
ATOM     20 CL   UNL d   1      -1.782   0.900  -1.214  0.00  0.00    -0.083 Cl
ATOM     21  C   UNL d   1      -2.220  -1.719  -1.488  0.00  0.00     0.025 A 
ATOM     22  C   UNL d   1      -1.895  -3.074  -1.436  0.00  0.00     0.002 A 
ATOM     23  C   UNL d   1      -0.639  -3.468  -0.977  0.00  0.00     0.001 A 
ATOM     24  C   UNL d   1       0.280  -2.511  -0.544  0.00  0.00     0.019 A 
ENDBRANCH   1  18
TORSDOF 3
