REMARK  5 active torsions:
REMARK  status: ('A' for Active; 'I' for Inactive)
REMARK    1  A    between atoms: C_6  and  C_1 
REMARK    2  A    between atoms: C_7  and  C_1 
REMARK    3  A    between atoms: N_8  and  N_2 
REMARK    4  A    between atoms: C_4  and  C_5 
REMARK    5  A    between atoms: C_15  and  N_8 
ROOT
ATOM      1  N   UNL d   1       1.016   1.908   1.320  0.00  0.00    -0.300 N 
ATOM      2  H   UNL d   1       2.001   2.121   1.126  0.00  0.00     0.187 HD
ENDROOT
BRANCH   1   3
ATOM      3  N   UNL d   1       0.353   0.919   0.678  0.00  0.00    -0.294 N 
ATOM      4  C   UNL d   1       0.923   0.377  -0.365  0.00  0.00     0.139 C 
ATOM      5  HN  UNL d   1      -0.563   0.607   0.999  1.00  0.00     0.187 HD
BRANCH   4   6
ATOM      6  C   UNL d   1       0.119  -0.702  -1.062  0.00  0.00     0.177 C 
ATOM      7  O   UNL d   1       0.723  -1.553  -1.706  0.00  0.00    -0.291 OA
ATOM      8  C   UNL d   1      -1.381  -0.642  -0.971  0.00  0.00     0.098 C 
ENDBRANCH   4   6
BRANCH   4   9
ATOM      9  C   UNL d   1       2.291   0.810  -0.877  0.00  0.00     0.177 C 
ATOM     10  O   UNL d   1       3.136   1.226  -0.087  0.00  0.00    -0.291 OA
ATOM     11  C   UNL d   1       2.545   0.754  -2.355  0.00  0.00     0.098 C 
ENDBRANCH   4   9
ENDBRANCH   1   3
BRANCH   1  12
ATOM     12  C   UNL d   1       0.308   2.787   2.150  0.00  0.00     0.048 A 
ATOM     13  C   UNL d   1       0.769   4.099   2.307  0.00  0.00     0.047 A 
ATOM     14  C   UNL d   1       0.041   5.044   3.048  0.00  0.00     0.050 A 
ATOM     15  C   UNL d   1      -1.160   4.652   3.656  0.00  0.00     0.016 A 
ATOM     16  C   UNL d   1      -1.632   3.350   3.507  0.00  0.00     0.003 A 
ATOM     17  C   UNL d   1      -0.909   2.432   2.743  0.00  0.00     0.031 A 
BRANCH  14  18
ATOM     18  C   UNL d   1       0.522   6.466   3.173  0.00  0.00     0.417 C 
ATOM     19  F   UNL d   1       1.691   6.709   2.515  0.00  0.00    -0.166 F 
ATOM     20  F   UNL d   1      -0.375   7.364   2.675  0.00  0.00    -0.166 F 
ATOM     21  F   UNL d   1       0.738   6.833   4.466  0.00  0.00    -0.166 F 
ENDBRANCH  14  18
ENDBRANCH   1  12
TORSDOF 5
