REMARK  8 active torsions:
REMARK  status: ('A' for Active; 'I' for Inactive)
REMARK    1  A    between atoms: C_10  and  N_1 
REMARK    2  A    between atoms: N_2  and  C_9 
REMARK    3  A    between atoms: N_3  and  C_7 
REMARK    4  A    between atoms: C_8  and  N_4 
REMARK    5  A    between atoms: C_25  and  C_5 
REMARK    6  A    between atoms: C_26  and  C_6 
REMARK    7  A    between atoms: O_27  and  C_25 
REMARK    8  A    between atoms: O_28  and  C_26 
ROOT
ATOM      1  N   UNL d   1      -1.481   3.301  -3.649  0.00  0.00    -0.377 N 
ATOM      2  N   UNL d   1      -2.646   4.691  -5.884  0.00  0.00    -0.377 N 
ATOM      3  C   UNL d   1      -2.125   2.537  -4.736  0.00  0.00     0.143 C 
ATOM      4  C   UNL d   1      -2.047   3.337  -6.058  0.00  0.00     0.143 C 
ATOM      5  C   UNL d   1      -1.959   5.427  -4.792  0.00  0.00     0.143 C 
ATOM      6  C   UNL d   1      -2.097   4.635  -3.464  0.00  0.00     0.143 C 
ENDROOT
BRANCH   1   7
ATOM      7  C   UNL d   1      -0.873   2.634  -2.597  0.00  0.00     0.038 A 
ATOM      8  C   UNL d   1      -1.325   1.357  -2.204  0.00  0.00     0.032 A 
ATOM      9  C   UNL d   1      -0.658   0.589  -1.246  0.00  0.00     0.038 A 
ATOM     10  C   UNL d   1       0.488   1.104  -0.644  0.00  0.00     0.103 A 
ATOM     11  C   UNL d   1       0.945   2.380  -0.981  0.00  0.00     0.047 A 
ATOM     12  C   UNL d   1       0.285   3.152  -1.963  0.00  0.00    -0.006 A 
BRANCH  10  13
ATOM     13  N   UNL d   1       1.228   0.296   0.332  0.00  0.00    -0.116 N 
ATOM     14  O   UNL d   1       2.238   0.802   0.852  0.00  0.00    -0.532 OA
ATOM     15  O   UNL d   1       0.805  -0.837   0.582  0.00  0.00    -0.532 OA
ENDBRANCH  10  13
BRANCH  12  16
ATOM     16  C   UNL d   1       0.851   4.509  -2.318  0.00  0.00     0.205 C 
BRANCH  16  17
ATOM     17  O   UNL d   1       2.261   4.578  -2.123  0.00  0.00    -0.396 OA
ATOM     18  H   UNL d   1       2.406   4.846  -1.201  0.00  0.00     0.209 HD
ENDBRANCH  16  17
ENDBRANCH  12  16
ENDBRANCH   1   7
BRANCH   2  19
ATOM     19  C   UNL d   1      -3.338   5.319  -6.912  0.00  0.00     0.038 A 
ATOM     20  C   UNL d   1      -4.207   6.433  -6.739  0.00  0.00    -0.006 A 
ATOM     21  C   UNL d   1      -4.917   6.955  -7.856  0.00  0.00     0.047 A 
ATOM     22  C   UNL d   1      -4.810   6.382  -9.121  0.00  0.00     0.103 A 
ATOM     23  C   UNL d   1      -3.984   5.287  -9.314  0.00  0.00     0.038 A 
ATOM     24  C   UNL d   1      -3.259   4.788  -8.226  0.00  0.00     0.032 A 
BRANCH  20  25
ATOM     25  C   UNL d   1      -4.479   7.176  -5.439  0.00  0.00     0.205 C 
BRANCH  25  26
ATOM     26  O   UNL d   1      -4.849   6.329  -4.362  0.00  0.00    -0.396 OA
ATOM     27  H   UNL d   1      -5.411   5.629  -4.738  0.00  0.00     0.209 HD
ENDBRANCH  25  26
ENDBRANCH  20  25
BRANCH  22  28
ATOM     28  N   UNL d   1      -5.572   6.935 -10.245  0.00  0.00    -0.116 N 
ATOM     29  O   UNL d   1      -6.289   7.924 -10.024  0.00  0.00    -0.532 OA
ATOM     30  O   UNL d   1      -5.458   6.384 -11.349  0.00  0.00    -0.532 OA
ENDBRANCH  22  28
ENDBRANCH   2  19
TORSDOF 8
