REMARK  4 active torsions:
REMARK  status: ('A' for Active; 'I' for Inactive)
REMARK    1  A    between atoms: N_5  and  C_3 
REMARK    2  A    between atoms: C_13  and  C_4 
REMARK       I    between atoms: C_6  and  N_5 
REMARK       I    between atoms: N_11  and  C_6 
REMARK    3  A    between atoms: C_7  and  C_12 
REMARK    4  A    between atoms: C_10  and  N_11 
ROOT
ATOM      1  N   UNL d   1       0.960  -0.555   0.462  0.00  0.00    -0.336 N 
ATOM      2  HN  UNL d   1       1.796  -1.133   0.541  1.00  0.00     0.168 HD
ATOM      3  C   UNL d   1       0.950   0.824   0.335  0.00  0.00     0.116 A 
ATOM      4  C   UNL d   1      -0.291  -1.006   0.466  0.00  0.00     0.086 A 
ATOM      5  S   UNL d   1      -1.508   0.226   0.338  0.00  0.00    -0.080 SA
ATOM      6  C   UNL d   1      -0.297   1.405   0.244  0.00  0.00     0.100 A 
ENDROOT
BRANCH   3   7
ATOM      7  N   UNL d   1       2.064   1.622   0.270  0.00  0.00    -0.294 N 
ATOM      8  C   UNL d   1       3.391   1.382   0.339  0.00  0.00     0.326 C 
ATOM      9  N   UNL d   1       3.821   0.108   0.555  0.00  0.00    -0.309 N 
ATOM     10  O   UNL d   1       4.110   2.374   0.205  0.00  0.00    -0.247 OA
ATOM     11  H   UNL d   1       3.082  -0.577   0.690  0.00  0.00     0.170 HD
ATOM     12  H   UNL d   1       1.897   2.610   0.128  0.00  0.00     0.172 HD
BRANCH   9  13
ATOM     13  C   UNL d   1       5.174  -0.314   0.632  0.00  0.00     0.039 A 
ATOM     14  C   UNL d   1       6.267   0.542   0.424  0.00  0.00     0.053 A 
ATOM     15  C   UNL d   1       7.577   0.066   0.494  0.00  0.00     0.037 A 
ATOM     16 CL   UNL d   1       8.896   1.143   0.226  0.00  0.00    -0.084 Cl
ATOM     17  C   UNL d   1       7.831  -1.268   0.774  0.00  0.00     0.048 A 
ATOM     18  C   UNL d   1       6.752  -2.123   0.988  0.00  0.00     0.037 A 
ATOM     19  C   UNL d   1       5.432  -1.657   0.918  0.00  0.00     0.053 A 
ATOM     20 CL   UNL d   1       7.051  -3.781   1.344  0.00  0.00    -0.084 Cl
ENDBRANCH   9  13
ENDBRANCH   3   7
BRANCH   4  21
ATOM     21  C   UNL d   1      -0.737  -2.417   0.429  0.00  0.00    -0.002 A 
ATOM     22  C   UNL d   1      -2.004  -2.811   0.905  0.00  0.00     0.015 A 
ATOM     23  C   UNL d   1      -2.504  -4.096   0.671  0.00  0.00     0.017 A 
ATOM     24  C   UNL d   1      -1.742  -5.034  -0.032  0.00  0.00     0.048 A 
ATOM     25  C   UNL d   1      -0.441  -4.680  -0.425  0.00  0.00     0.017 A 
ATOM     26  C   UNL d   1       0.056  -3.388  -0.194  0.00  0.00     0.015 A 
BRANCH  24  27
ATOM     27  C   UNL d   1      -2.314  -6.384  -0.394  0.00  0.00     0.417 C 
ATOM     28  F   UNL d   1      -3.622  -6.533  -0.039  0.00  0.00    -0.166 F 
ATOM     29  F   UNL d   1      -2.268  -6.621  -1.735  0.00  0.00    -0.166 F 
ATOM     30  F   UNL d   1      -1.647  -7.414   0.193  0.00  0.00    -0.166 F 
ENDBRANCH  24  27
ENDBRANCH   4  21
TORSDOF 4
