REMARK  9 active torsions:
REMARK  status: ('A' for Active; 'I' for Inactive)
REMARK    1  A    between atoms: O_13  and  C_1 
REMARK    2  A    between atoms: O_16  and  C_2 
REMARK    3  A    between atoms: O_15  and  C_3 
REMARK    4  A    between atoms: N_10  and  N_4 
REMARK       I    between atoms: C_6  and  N_10 
REMARK    5  A    between atoms: C_14  and  C_6 
REMARK    6  A    between atoms: C_12  and  C_9 
REMARK    7  A    between atoms: C_19  and  C_14 
REMARK    8  A    between atoms: O_24  and  C_17 
REMARK    9  A    between atoms: C_18  and  C_19 
ROOT
ATOM      1  N   UNL d   1      -3.669  -0.732  -0.230  0.00  0.00    -0.308 N 
ATOM      2  HN  UNL d   1      -3.305  -1.683  -0.167  1.00  0.00     0.186 HD
ATOM      3  C   UNL d   1      -2.890   0.295  -0.148  0.00  0.00     0.118 C 
ENDROOT
BRANCH   1   4
ATOM      4  N   UNL d   1      -4.996  -0.488  -0.403  0.00  0.00    -0.270 N 
ATOM      5  C   UNL d   1      -5.874  -1.565  -0.414  0.00  0.00     0.236 C 
ATOM      6  O   UNL d   1      -5.539  -2.743  -0.317  0.00  0.00    -0.272 OA
ATOM      7  H   UNL d   1      -5.327   0.463  -0.486  0.00  0.00     0.190 HD
BRANCH   5   8
ATOM      8  C   UNL d   1      -7.319  -1.149  -0.596  0.00  0.00     0.109 C 
BRANCH   8   9
ATOM      9  C   UNL d   1      -8.247  -2.238  -0.055  0.00  0.00     0.048 C 
BRANCH   9  10
ATOM     10  C   UNL d   1      -9.713  -1.908  -0.197  0.00  0.00    -0.058 A 
ATOM     11  C   UNL d   1     -10.298  -1.787  -1.465  0.00  0.00     0.010 A 
ATOM     12  C   UNL d   1     -11.663  -1.528  -1.593  0.00  0.00     0.037 A 
ATOM     13  C   UNL d   1     -12.450  -1.399  -0.456  0.00  0.00     0.065 A 
ATOM     14  C   UNL d   1     -11.892  -1.520   0.812  0.00  0.00     0.037 A 
ATOM     15  C   UNL d   1     -10.524  -1.774   0.940  0.00  0.00     0.010 A 
BRANCH  13  16
ATOM     16  O   UNL d   1     -13.781  -1.158  -0.627  0.00  0.00    -0.361 OA
ATOM     17  H   UNL d   1     -14.204  -1.133   0.247  0.00  0.00     0.217 HD
ENDBRANCH  13  16
ENDBRANCH   9  10
ENDBRANCH   8   9
ENDBRANCH   5   8
ENDBRANCH   1   4
BRANCH   3  18
ATOM     18  C   UNL d   1      -1.434   0.132   0.040  0.00  0.00    -0.014 A 
ATOM     19  C   UNL d   1      -0.855  -1.138   0.054  0.00  0.00     0.052 A 
ATOM     20  C   UNL d   1       0.523  -1.288   0.241  0.00  0.00     0.105 A 
ATOM     21  C   UNL d   1       1.335  -0.151   0.402  0.00  0.00     0.135 A 
ATOM     22  C   UNL d   1       0.753   1.136   0.303  0.00  0.00     0.105 A 
ATOM     23  C   UNL d   1      -0.634   1.270   0.167  0.00  0.00     0.052 A 
BRANCH  20  24
ATOM     24  O   UNL d   1       0.934  -2.593   0.155  0.00  0.00    -0.353 OA
ATOM     25  C   UNL d   1       1.993  -2.991   1.012  0.00  0.00     0.210 C 
ENDBRANCH  20  24
BRANCH  21  26
ATOM     26  O   UNL d   1       2.696  -0.316   0.472  0.00  0.00    -0.351 OA
ATOM     27  C   UNL d   1       3.316   0.296   1.603  0.00  0.00     0.210 C 
ENDBRANCH  21  26
BRANCH  22  28
ATOM     28  O   UNL d   1       1.606   2.212   0.313  0.00  0.00    -0.353 OA
ATOM     29  C   UNL d   1       1.115   3.431  -0.235  0.00  0.00     0.210 C 
ENDBRANCH  22  28
ENDBRANCH   3  18
TORSDOF 9
