REMARK  5 active torsions:
REMARK  status: ('A' for Active; 'I' for Inactive)
REMARK    1  A    between atoms: C_12  and  C_3 
REMARK    2  A    between atoms: N_5  and  C_7 
REMARK       I    between atoms: C_8  and  N_5 
REMARK    3  A    between atoms: C_14  and  C_9 
REMARK    4  A    between atoms: C_10  and  O_11 
REMARK    5  A    between atoms: O_11  and  C_14 
ROOT
ATOM      1  C   UNL d   1      -1.028  -1.745   1.257  0.00  0.00     0.210 C 
ENDROOT
BRANCH   1   2
ATOM      2  O   UNL d   1      -0.655  -3.120   1.085  0.00  0.00    -0.346 OA
BRANCH   2   3
ATOM      3  C   UNL d   1       0.318  -3.607   1.920  0.00  0.00     0.095 A 
ATOM      4  C   UNL d   1       0.214  -4.948   2.327  0.00  0.00     0.068 A 
ATOM      5  C   UNL d   1       1.216  -5.503   3.136  0.00  0.00     0.032 A 
ATOM      6  C   UNL d   1       2.311  -4.740   3.538  0.00  0.00     0.002 A 
ATOM      7  C   UNL d   1       2.404  -3.411   3.153  0.00  0.00     0.003 A 
ATOM      8  C   UNL d   1       1.414  -2.842   2.357  0.00  0.00     0.039 A 
BRANCH   4   9
ATOM      9  N   UNL d   1      -0.883  -5.724   1.897  0.00  0.00    -0.325 N 
ATOM     10  C   UNL d   1      -1.449  -6.737   2.652  0.00  0.00     0.218 C 
ATOM     11  O   UNL d   1      -1.191  -6.975   3.829  0.00  0.00    -0.274 OA
ATOM     12  C   UNL d   1      -2.434  -7.594   1.904  0.00  0.00     0.117 C 
ATOM     13  H   UNL d   1      -1.420  -5.339   1.125  0.00  0.00     0.169 HD
ENDBRANCH   4   9
ENDBRANCH   2   3
ENDBRANCH   1   2
BRANCH   1  14
ATOM     14  C   UNL d   1      -0.755  -0.897   0.008  0.00  0.00     0.182 C 
ATOM     15  O   UNL d   1      -1.679  -1.269  -1.030  0.00  0.00    -0.272 OA
ATOM     16  N   UNL d   1      -0.970  -1.880  -2.088  0.00  0.00    -0.270 N 
ATOM     17  C   UNL d   1       0.294  -1.727  -1.853  0.00  0.00     0.045 C 
ATOM     18  HN  UNL d   1      -1.380  -2.356  -2.891  1.00  0.00     0.194 HD
ATOM     19  C   UNL d   1       0.623  -1.004  -0.605  0.00  0.00     0.096 C 
BRANCH  17  20
ATOM     20  C   UNL d   1       1.358  -2.227  -2.750  0.00  0.00    -0.012 A 
ATOM     21  C   UNL d   1       2.627  -1.639  -2.765  0.00  0.00     0.013 A 
ATOM     22  C   UNL d   1       3.613  -2.132  -3.623  0.00  0.00     0.001 A 
ATOM     23  C   UNL d   1       3.336  -3.217  -4.456  0.00  0.00     0.000 A 
ATOM     24  C   UNL d   1       2.072  -3.805  -4.440  0.00  0.00     0.001 A 
ATOM     25  C   UNL d   1       1.080  -3.305  -3.595  0.00  0.00     0.013 A 
ENDBRANCH  17  20
ENDBRANCH   1  14
TORSDOF 5
