REMARK  3 active torsions:
REMARK  status: ('A' for Active; 'I' for Inactive)
REMARK       I    between atoms: N_4  and  C_1 
REMARK       I    between atoms: N_5  and  C_1 
REMARK    1  A    between atoms: C_9  and  N_4 
REMARK    2  A    between atoms: C_8  and  N_5 
REMARK    3  A    between atoms: C_10  and  C_8 
ROOT
ATOM      1  N   UNL d   1      -3.747  -5.860   4.188  0.00  0.00    -0.191 NA
ATOM      2  C   UNL d   1      -3.314  -5.104   3.424  0.00  0.00     0.099 C 
ATOM      3  C   UNL d   1      -2.785  -4.164   2.477  0.00  0.00     0.044 A 
ATOM      4  C   UNL d   1      -1.752  -2.312   0.617  0.00  0.00    -0.040 A 
ATOM      5  C   UNL d   1      -1.596  -3.483   2.748  0.00  0.00     0.023 A 
ATOM      6  C   UNL d   1      -3.461  -3.919   1.278  0.00  0.00     0.023 A 
ATOM      7  C   UNL d   1      -1.089  -2.558   1.829  0.00  0.00     0.010 A 
ATOM      8  C   UNL d   1      -2.950  -2.998   0.358  0.00  0.00     0.010 A 
ENDROOT
BRANCH   4   9
ATOM      9  C   UNL d   1      -1.255  -1.290  -0.381  0.00  0.00     0.162 C 
BRANCH   9  10
ATOM     10  N   UNL d   1       0.186  -1.165  -0.375  0.00  0.00    -0.339 N 
ATOM     11  C   UNL d   1       1.005  -0.107  -0.137  0.00  0.00     0.320 C 
ATOM     12  N   UNL d   1       0.411   1.058   0.261  0.00  0.00    -0.309 N 
ATOM     13  O   UNL d   1       2.209  -0.296  -0.288  0.00  0.00    -0.247 OA
ATOM     14  H   UNL d   1      -0.540   0.996   0.582  0.00  0.00     0.170 HD
ATOM     15  H   UNL d   1       0.714  -1.981  -0.659  0.00  0.00     0.164 HD
BRANCH  12  16
ATOM     16  C   UNL d   1       1.054   2.295   0.496  0.00  0.00     0.036 A 
ATOM     17  C   UNL d   1       2.371   2.567   0.117  0.00  0.00     0.029 A 
ATOM     18  C   UNL d   1       2.957   3.803   0.409  0.00  0.00     0.002 A 
ATOM     19  C   UNL d   1       2.228   4.783   1.076  0.00  0.00     0.000 A 
ATOM     20  C   UNL d   1       0.906   4.535   1.435  0.00  0.00     0.002 A 
ATOM     21  C   UNL d   1       0.319   3.299   1.141  0.00  0.00     0.029 A 
ENDBRANCH  12  16
ENDBRANCH   9  10
ENDBRANCH   4   9
TORSDOF 3
