REMARK  2 active torsions:
REMARK  status: ('A' for Active; 'I' for Inactive)
REMARK    1  A    between atoms: C_13  and  N_7 
REMARK    2  A    between atoms: C_14  and  C_13 
ROOT
ATOM      1  C   UNL d   1       1.216  -0.916  -0.041  0.00  0.00     0.140 A 
ATOM      2  C   UNL d   1       0.783   0.517  -0.038  0.00  0.00     0.105 A 
ATOM      3  N   UNL d   1       2.458  -1.232  -0.027  0.00  0.00    -0.316 N 
ATOM      4  HN  UNL d   1       2.751  -2.209  -0.025  1.00  0.00     0.170 HD
ATOM      5  N   UNL d   1       1.604   1.507  -0.027  0.00  0.00    -0.292 N 
ATOM      6  HN  UNL d   1       1.296   2.479  -0.025  1.00  0.00     0.187 HD
ATOM      7  N   UNL d   1       0.074  -1.694  -0.046  0.00  0.00    -0.327 N 
ATOM      8  C   UNL d   1       3.389  -0.208  -0.015  0.00  0.00     0.194 A 
ATOM      9  C   UNL d   1      -0.673   0.504  -0.039  0.00  0.00     0.023 A 
ATOM     10  N   UNL d   1       2.950   1.143  -0.018  0.00  0.00    -0.271 N 
ATOM     11  C   UNL d   1      -1.043  -0.859  -0.044  0.00  0.00     0.049 A 
ATOM     12  S   UNL d   1       5.027  -0.652   0.006  0.00  0.00    -0.039 SA
ATOM     13  C   UNL d   1      -1.578   1.546  -0.019  0.00  0.00     0.016 A 
ATOM     14  C   UNL d   1       3.845   2.304  -0.006  0.00  0.00     0.180 C 
ATOM     15  C   UNL d   1      -2.386  -1.184  -0.037  0.00  0.00     0.030 A 
ATOM     16  C   UNL d   1      -2.930   1.205  -0.007  0.00  0.00     0.001 A 
ATOM     17  C   UNL d   1      -3.330  -0.146  -0.017  0.00  0.00     0.002 A 
ENDROOT
BRANCH   7  18
ATOM     18  C   UNL d   1       0.042  -3.135   0.021  0.00  0.00     0.157 C 
BRANCH  18  19
ATOM     19  C   UNL d   1       0.000  -3.704  -1.368  0.00  0.00    -0.017 C 
ATOM     20  C   UNL d   1      -0.977  -4.483  -1.853  0.00  0.00     0.008 C 
ENDBRANCH  18  19
ENDBRANCH   7  18
TORSDOF 2
