REMARK  3 active torsions:
REMARK  status: ('A' for Active; 'I' for Inactive)
REMARK    1  A    between atoms: C_6  and  C_1 
REMARK    2  A    between atoms: O_12  and  C_1 
REMARK    3  A    between atoms: C_13  and  C_6 
ROOT
ATOM      1  C   UNL d   1      -1.260  -1.477  -0.098  0.00  0.00     0.173 A 
ATOM      2  C   UNL d   1      -2.329  -0.332  -0.017  0.00  0.00     0.262 A 
ATOM      3  C   UNL d   1       0.018  -0.700   0.121  0.00  0.00     0.014 A 
ATOM      4  N   UNL d   1      -1.644   0.866   0.161  0.00  0.00    -0.324 N 
ATOM      5  C   UNL d   1      -0.273   0.662   0.210  0.00  0.00     0.044 A 
ATOM      6  C   UNL d   1       1.331  -1.145   0.143  0.00  0.00     0.032 A 
ATOM      7  O   UNL d   1      -3.545  -0.439  -0.090  0.00  0.00    -0.269 OA
ATOM      8  C   UNL d   1       0.709   1.625   0.297  0.00  0.00     0.031 A 
ATOM      9  C   UNL d   1       2.340  -0.183   0.223  0.00  0.00     0.011 A 
ATOM     10  C   UNL d   1       2.038   1.190   0.293  0.00  0.00     0.021 A 
ATOM     11 BR   UNL d   1       4.150  -0.732   0.200  0.00  0.00    -0.051 Br
ATOM     12  H   UNL d   1      -2.109   1.759   0.204  0.00  0.00     0.169 HD
ENDROOT
BRANCH   1  13
ATOM     13  C   UNL d   1      -1.351  -2.190  -1.460  0.00  0.00     0.110 C 
BRANCH  13  14
ATOM     14  C   UNL d   1      -1.052  -1.284  -2.632  0.00  0.00     0.012 A 
ATOM     15  N   UNL d   1       0.252  -1.158  -2.981  0.00  0.00    -0.369 N 
ATOM     16  C   UNL d   1       0.565  -0.232  -3.912  0.00  0.00     0.088 A 
ATOM     17  HN  UNL d   1       0.971  -1.742  -2.555  1.00  0.00     0.165 HD
ATOM     18  C   UNL d   1      -0.368   0.580  -4.529  0.00  0.00     0.017 A 
ATOM     19  C   UNL d   1      -1.705   0.419  -4.186  0.00  0.00     0.003 A 
ATOM     20  C   UNL d   1      -2.057  -0.528  -3.228  0.00  0.00     0.025 A 
ENDBRANCH  13  14
ENDBRANCH   1  13
BRANCH   1  21
ATOM     21  O   UNL d   1      -1.427  -2.426   0.951  0.00  0.00    -0.375 OA
ATOM     22  H   UNL d   1      -1.216  -1.974   1.786  0.00  0.00     0.211 HD
ENDBRANCH   1  21
TORSDOF 3
