REMARK  2 active torsions:
REMARK  status: ('A' for Active; 'I' for Inactive)
REMARK    1  A    between atoms: C_8  and  N_2 
REMARK    2  A    between atoms: O_9  and  C_6 
ROOT
ATOM      1  C   UNL d   1      -0.179  -0.789   0.259  0.00  0.00     0.029 A 
ATOM      2  N   UNL d   1      -1.258  -1.587  -0.183  0.00  0.00    -0.282 N 
ATOM      3  C   UNL d   1      -2.522  -1.033  -0.453  0.00  0.00     0.255 A 
ATOM      4  C   UNL d   1      -0.360   0.536   0.484  0.00  0.00    -0.002 A 
ATOM      5  C   UNL d   1      -2.684   0.416  -0.200  0.00  0.00     0.112 A 
ATOM      6  C   UNL d   1      -1.659   1.134   0.254  0.00  0.00     0.079 A 
ATOM      7  O   UNL d   1      -3.521  -1.639  -0.850  0.00  0.00    -0.268 OA
ATOM      8  C   UNL d   1       1.222  -1.391   0.357  0.00  0.00     0.058 C 
ATOM      9  C   UNL d   1       0.782   1.447   0.878  0.00  0.00     0.043 C 
ATOM     10  C   UNL d   1       2.200  -0.848  -0.695  0.00  0.00     0.006 C 
ATOM     11  C   UNL d   1       1.744   1.645  -0.293  0.00  0.00     0.005 C 
ATOM     12  C   UNL d   1       2.781   0.528  -0.376  0.00  0.00     0.001 C 
ENDROOT
BRANCH   2  13
ATOM     13  C   UNL d   1      -1.156  -3.004  -0.363  0.00  0.00     0.042 A 
ATOM     14  C   UNL d   1      -1.437  -3.578  -1.611  0.00  0.00     0.030 A 
ATOM     15  C   UNL d   1      -1.351  -4.960  -1.786  0.00  0.00     0.002 A 
ATOM     16  C   UNL d   1      -1.000  -5.778  -0.714  0.00  0.00     0.000 A 
ATOM     17  C   UNL d   1      -0.726  -5.217   0.533  0.00  0.00     0.002 A 
ATOM     18  C   UNL d   1      -0.805  -3.836   0.710  0.00  0.00     0.030 A 
ENDBRANCH   2  13
BRANCH   6  19
ATOM     19  O   UNL d   1      -1.761   2.487   0.491  0.00  0.00    -0.360 OA
ATOM     20  H   UNL d   1      -2.662   2.780   0.274  0.00  0.00     0.217 HD
ENDBRANCH   6  19
TORSDOF 2
