REMARK  6 active torsions:
REMARK  status: ('A' for Active; 'I' for Inactive)
REMARK    1  A    between atoms: C_2  and  C_1 
REMARK       I    between atoms: N_3  and  C_1 
REMARK    2  A    between atoms: C_6  and  N_3 
REMARK    3  A    between atoms: C_22  and  N_3 
REMARK    4  A    between atoms: O_10  and  C_4 
REMARK    5  A    between atoms: C_5  and  C_11 
REMARK    6  A    between atoms: C_11  and  O_10 
ROOT
ATOM      1  C   UNL d   1       0.153  -0.871  -1.093  0.00  0.00     0.083 A 
ATOM      2  C   UNL d   1       0.481  -0.463  -2.384  0.00  0.00     0.158 A 
ATOM      3  N   UNL d   1      -0.224  -0.824  -3.483  0.00  0.00    -0.346 N 
ATOM      4  HN  UNL d   1       0.028  -0.482  -4.411  1.00  0.00     0.167 HD
ATOM      5  C   UNL d   1      -0.903  -1.776  -0.950  0.00  0.00     0.023 A 
ATOM      6  C   UNL d   1      -1.273  -1.654  -3.301  0.00  0.00     0.090 A 
ATOM      7  C   UNL d   1      -1.642  -2.155  -2.068  0.00  0.00     0.018 A 
ENDROOT
BRANCH   1   8
ATOM      8  C   UNL d   1       0.994  -0.483   0.060  0.00  0.00     0.262 C 
ATOM      9  N   UNL d   1       0.418   0.140   1.194  0.00  0.00    -0.314 N 
ATOM     10  O   UNL d   1       2.193  -0.737  -0.067  0.00  0.00    -0.267 OA
BRANCH   9  11
ATOM     11  C   UNL d   1       1.252   0.465   2.327  0.00  0.00     0.037 A 
ATOM     12  C   UNL d   1       1.034   1.628   3.086  0.00  0.00     0.031 A 
ATOM     13  C   UNL d   1       1.832   1.931   4.197  0.00  0.00     0.026 A 
ATOM     14  C   UNL d   1       2.849   1.062   4.575  0.00  0.00     0.034 A 
ATOM     15  C   UNL d   1       3.079  -0.099   3.848  0.00  0.00     0.026 A 
ATOM     16 CL   UNL d   1       3.824   1.429   5.944  0.00  0.00    -0.084 Cl
ATOM     17  C   UNL d   1       2.289  -0.390   2.730  0.00  0.00     0.031 A 
ENDBRANCH   9  11
BRANCH   9  18
ATOM     18  C   UNL d   1      -1.016   0.480   1.309  0.00  0.00     0.128 C 
ATOM     19  C   UNL d   1      -1.728  -0.415   2.325  0.00  0.00     0.027 C 
ENDBRANCH   9  18
ENDBRANCH   1   8
BRANCH   2  20
ATOM     20  O   UNL d   1       1.525   0.406  -2.591  0.00  0.00    -0.326 OA
BRANCH  20  21
ATOM     21  C   UNL d   1       2.237   0.121  -3.808  0.00  0.00     0.294 C 
BRANCH  21  22
ATOM     22  C   UNL d   1       1.663   0.779  -5.059  0.00  0.00     0.408 C 
ATOM     23  F   UNL d   1       0.827   1.804  -4.782  0.00  0.00    -0.169 F 
ATOM     24  F   UNL d   1       2.673   1.294  -5.811  0.00  0.00    -0.169 F 
ATOM     25  F   UNL d   1       1.009  -0.098  -5.856  0.00  0.00    -0.169 F 
ENDBRANCH  21  22
ENDBRANCH  20  21
ENDBRANCH   2  20
TORSDOF 6
