REMARK  2 active torsions:
REMARK  status: ('A' for Active; 'I' for Inactive)
REMARK    1  A    between atoms: N_4  and  C_2 
REMARK    2  A    between atoms: C_9  and  C_6 
ROOT
ATOM      1  N   UNL d   1      -2.411   0.608  -0.209  0.00  0.00    -0.335 N 
ATOM      2  C   UNL d   1      -1.298   1.403  -0.127  0.00  0.00     0.255 C 
ATOM      3  C   UNL d   1      -0.002   0.698  -0.016  0.00  0.00     0.054 A 
ATOM      4  C   UNL d   1      -2.385  -0.716   0.335  0.00  0.00     0.203 C 
ATOM      5  N   UNL d   1      -1.226  -1.406  -0.207  0.00  0.00    -0.266 NA
ATOM      6  C   UNL d   1      -0.020  -0.705  -0.050  0.00  0.00     0.026 A 
ATOM      7  C   UNL d   1       1.194   1.413   0.074  0.00  0.00     0.042 A 
ATOM      8  O   UNL d   1      -1.375   2.623  -0.164  0.00  0.00    -0.268 OA
ATOM      9  C   UNL d   1       1.200  -1.385  -0.084  0.00  0.00     0.026 A 
ATOM     10  C   UNL d   1       2.396   0.713   0.084  0.00  0.00     0.035 A 
ATOM     11  C   UNL d   1       2.405  -0.680  -0.004  0.00  0.00     0.026 A 
ATOM     12 CL   UNL d   1       3.885   1.568   0.172  0.00  0.00    -0.084 Cl
ATOM     13  H   UNL d   1      -3.279   1.123  -0.185  0.00  0.00     0.164 HD
ATOM     14  H   UNL d   1      -1.166  -2.365   0.123  0.00  0.00     0.130 HD
ENDROOT
BRANCH   4  15
ATOM     15  C   UNL d   1      -3.680  -1.404  -0.002  0.00  0.00     0.022 A 
ATOM     16  S   UNL d   1      -4.718  -1.952   1.254  0.00  0.00    -0.067 SA
ATOM     17  C   UNL d   1      -5.816  -2.622   0.144  0.00  0.00     0.144 A 
ATOM     18  C   UNL d   1      -5.433  -2.430  -1.166  0.00  0.00     0.045 A 
ATOM     19  C   UNL d   1      -4.194  -1.724  -1.248  0.00  0.00     0.021 A 
BRANCH  17  20
ATOM     20  N   UNL d   1      -6.995  -3.309   0.604  0.00  0.00    -0.108 N 
ATOM     21  O   UNL d   1      -7.731  -3.783  -0.273  0.00  0.00    -0.531 OA
ATOM     22  O   UNL d   1      -7.191  -3.387   1.824  0.00  0.00    -0.531 OA
ENDBRANCH  17  20
ENDBRANCH   4  15
TORSDOF 2
