REMARK  5 active torsions:
REMARK  status: ('A' for Active; 'I' for Inactive)
REMARK    1  A    between atoms: C_12  and  N_7 
REMARK    2  A    between atoms: N_14  and  C_10 
REMARK    3  A    between atoms: C_11  and  C_20 
REMARK    4  A    between atoms: C_25  and  C_12 
REMARK    5  A    between atoms: N_16  and  N_14 
ROOT
ATOM      1  C   UNL d   1      -0.219  -0.816   0.011  0.00  0.00     0.160 A 
ATOM      2  C   UNL d   1      -0.514   0.511   0.018  0.00  0.00     0.165 A 
ATOM      3  N   UNL d   1      -1.321  -1.581  -0.053  0.00  0.00    -0.172 N 
ATOM      4  HN  UNL d   1      -1.361  -2.600  -0.070  1.00  0.00     0.186 HD
ATOM      5  N   UNL d   1       1.066  -1.293   0.021  0.00  0.00    -0.287 N 
ATOM      6  N   UNL d   1       1.805   0.974   0.021  0.00  0.00    -0.269 N 
ATOM      7  N   UNL d   1      -1.897   0.566   0.029  0.00  0.00    -0.168 N 
ATOM      8  C   UNL d   1       2.128  -0.395   0.029  0.00  0.00     0.332 A 
ATOM      9  C   UNL d   1       0.506   1.508  -0.012  0.00  0.00     0.282 A 
ATOM     10  C   UNL d   1      -2.341  -0.747  -0.090  0.00  0.00     0.701 A 
ATOM     11  O   UNL d   1       3.297  -0.791   0.031  0.00  0.00    -0.246 OA
ATOM     12  O   UNL d   1       0.278   2.711  -0.087  0.00  0.00    -0.265 OA
ATOM     13  C   UNL d   1       1.340  -2.717   0.003  0.00  0.00     0.163 C 
ATOM     14  C   UNL d   1       2.897   1.928   0.007  0.00  0.00     0.164 C 
ENDROOT
BRANCH  10  15
ATOM     15  N   UNL d   1      -3.633  -1.123  -0.284  0.00  0.00    -0.132 N 
ATOM     16  H   UNL d   1      -4.413  -0.535  -0.012  0.00  0.00     0.205 HD
BRANCH  15  17
ATOM     17  N   UNL d   1      -3.861  -2.340  -0.862  0.00  0.00    -0.297 N 
ATOM     18  C   UNL d   1      -5.050  -2.841  -0.842  0.00  0.00     0.122 C 
ATOM     19  HN  UNL d   1      -3.096  -2.848  -1.306  1.00  0.00     0.186 HD
BRANCH  18  20
ATOM     20  C   UNL d   1      -5.335  -4.148  -1.495  0.00  0.00     0.024 A 
ATOM     21  C   UNL d   1      -4.389  -5.193  -1.555  0.00  0.00     0.047 A 
ATOM     22 CL   UNL d   1      -2.860  -5.163  -0.748  0.00  0.00    -0.083 Cl
ATOM     23  C   UNL d   1      -4.688  -6.378  -2.245  0.00  0.00     0.025 A 
ATOM     24  C   UNL d   1      -5.921  -6.548  -2.870  0.00  0.00     0.003 A 
ATOM     25  C   UNL d   1      -6.869  -5.534  -2.794  0.00  0.00     0.025 A 
ATOM     26  C   UNL d   1      -6.582  -4.342  -2.111  0.00  0.00     0.047 A 
ATOM     27 CL   UNL d   1      -7.826  -3.136  -2.106  0.00  0.00    -0.083 Cl
ENDBRANCH  18  20
ENDBRANCH  15  17
ENDBRANCH  10  15
BRANCH   7  28
ATOM     28  C   UNL d   1      -2.702   1.779  -0.009  0.00  0.00     0.186 C 
BRANCH  28  29
ATOM     29  C   UNL d   1      -3.043   2.282   1.376  0.00  0.00    -0.039 A 
ATOM     30  C   UNL d   1      -2.166   3.129   2.072  0.00  0.00     0.009 A 
ATOM     31  C   UNL d   1      -2.455   3.554   3.371  0.00  0.00     0.001 A 
ATOM     32  C   UNL d   1      -3.635   3.150   3.988  0.00  0.00     0.000 A 
ATOM     33  C   UNL d   1      -4.532   2.337   3.300  0.00  0.00     0.001 A 
ATOM     34  C   UNL d   1      -4.240   1.907   2.002  0.00  0.00     0.009 A 
ENDBRANCH  28  29
ENDBRANCH   7  28
TORSDOF 5
