REMARK  4 active torsions:
REMARK  status: ('A' for Active; 'I' for Inactive)
REMARK    1  A    between atoms: N_2  and  C_1 
REMARK    2  A    between atoms: N_4  and  C_3 
REMARK    3  A    between atoms: O_12  and  C_5 
REMARK    4  A    between atoms: O_13  and  C_7 
ROOT
ATOM      1  C   UNL d   1       1.553  -0.226  -0.004  0.00  0.00     0.165 A 
ATOM      2  C   UNL d   1       0.689  -1.359  -0.040  0.00  0.00     0.100 A 
ATOM      3  C   UNL d   1       1.092   1.101  -0.035  0.00  0.00     0.103 A 
ATOM      4  C   UNL d   1      -0.705  -1.075  -0.126  0.00  0.00     0.097 A 
ATOM      5  C   UNL d   1      -0.279   1.325  -0.080  0.00  0.00     0.042 A 
ATOM      6  C   UNL d   1      -1.168   0.253  -0.134  0.00  0.00     0.042 A 
ENDROOT
BRANCH   2   7
ATOM      7  N   UNL d   1       1.189  -2.655   0.101  0.00  0.00    -0.372 N 
ATOM      8  C   UNL d   1       0.440  -3.710   0.810  0.00  0.00     0.149 C 
ATOM      9  C   UNL d   1       1.446  -4.687   1.452  0.00  0.00     0.187 C 
ATOM     10  O   UNL d   1       2.379  -5.219   0.492  0.00  0.00    -0.388 OA
ATOM     11  C   UNL d   1       3.088  -4.153  -0.169  0.00  0.00     0.187 C 
ATOM     12  C   UNL d   1       2.104  -3.228  -0.907  0.00  0.00     0.149 C 
ENDBRANCH   2   7
BRANCH   1  13
ATOM     13  N   UNL d   1       2.961  -0.434   0.241  0.00  0.00    -0.110 N 
ATOM     14  O   UNL d   1       3.331  -0.550   1.419  0.00  0.00    -0.532 OA
ATOM     15  O   UNL d   1       3.712  -0.454  -0.745  0.00  0.00    -0.532 OA
ENDBRANCH   1  13
BRANCH   4  16
ATOM     16  O   UNL d   1      -1.563  -2.150  -0.195  0.00  0.00    -0.354 OA
ATOM     17  C   UNL d   1      -2.945  -1.898  -0.413  0.00  0.00     0.210 C 
ENDBRANCH   4  16
BRANCH   3  18
ATOM     18  O   UNL d   1       1.844   2.232   0.135  0.00  0.00    -0.353 OA
ATOM     19  C   UNL d   1       2.884   2.428  -0.822  0.00  0.00     0.210 C 
ENDBRANCH   3  18
TORSDOF 4
