REMARK  5 active torsions:
REMARK  status: ('A' for Active; 'I' for Inactive)
REMARK    1  A    between atoms: C_3  and  N_13 
REMARK    2  A    between atoms: N_9  and  C_3 
REMARK    3  A    between atoms: C_10  and  C_4 
REMARK    4  A    between atoms: N_13  and  N_6 
REMARK    5  A    between atoms: C_14  and  N_9 
ROOT
ATOM      1  N   UNL d   1      -0.392   4.908   0.240  0.00  0.00    -0.276 N 
ATOM      2  H   UNL d   1      -1.359   5.204   0.406  0.00  0.00     0.189 HD
ENDROOT
BRANCH   1   3
ATOM      3  C   UNL d   1       0.563   5.872   0.073  0.00  0.00     0.191 C 
ATOM      4  S   UNL d   1       0.124   7.480  -0.044  0.00  0.00    -0.039 SA
BRANCH   3   5
ATOM      5  N   UNL d   1       1.872   5.510  -0.079  0.00  0.00    -0.332 N 
ATOM      6  H   UNL d   1       2.441   6.177  -0.585  0.00  0.00     0.168 HD
BRANCH   5   7
ATOM      7  C   UNL d   1       2.571   4.499   0.614  0.00  0.00     0.034 A 
ATOM      8  C   UNL d   1       3.833   4.129   0.138  0.00  0.00     0.031 A 
ATOM      9  C   UNL d   1       4.593   3.172   0.821  0.00  0.00     0.026 A 
ATOM     10  C   UNL d   1       4.104   2.610   1.998  0.00  0.00     0.034 A 
ATOM     11  C   UNL d   1       2.859   2.986   2.492  0.00  0.00     0.026 A 
ATOM     12 CL   UNL d   1       5.049   1.454   2.853  0.00  0.00    -0.084 Cl
ATOM     13  C   UNL d   1       2.092   3.925   1.797  0.00  0.00     0.031 A 
ENDBRANCH   5   7
ENDBRANCH   3   5
ENDBRANCH   1   3
BRANCH   1  14
ATOM     14  N   UNL d   1      -0.217   3.649  -0.277  0.00  0.00    -0.307 N 
ATOM     15  C   UNL d   1      -1.228   2.830  -0.260  0.00  0.00     0.138 C 
ATOM     16  HN  UNL d   1       0.682   3.362  -0.664  1.00  0.00     0.186 HD
BRANCH  15  17
ATOM     17  C   UNL d   1      -2.557   3.068   0.298  0.00  0.00     0.066 A 
ATOM     18  N   UNL d   1      -2.924   4.230   0.869  0.00  0.00    -0.300 N 
ATOM     19  N   UNL d   1      -4.181   4.012   1.293  0.00  0.00    -0.311 N 
ATOM     20  HN  UNL d   1      -2.373   5.084   0.959  1.00  0.00     0.187 HD
ATOM     21  C   UNL d   1      -4.650   2.771   0.983  0.00  0.00     0.109 A 
ATOM     22  H   UNL d   1      -4.660   4.756   1.790  0.00  0.00     0.186 HD
ATOM     23  C   UNL d   1      -3.625   2.132   0.331  0.00  0.00     0.051 A 
ENDBRANCH  15  17
ENDBRANCH   1  14
TORSDOF 5
