REMARK  4 active torsions:
REMARK  status: ('A' for Active; 'I' for Inactive)
REMARK    1  A    between atoms: C_3  and  C_1 
REMARK    2  A    between atoms: C_2  and  C_3 
REMARK    3  A    between atoms: C_5  and  C_4 
REMARK    4  A    between atoms: O_12  and  C_5 
ROOT
ATOM      1  C   UNL d   1       0.662   1.237  -0.044  0.00  0.00     0.020 A 
ATOM      2  C   UNL d   1       1.434   0.056  -0.018  0.00  0.00    -0.048 A 
ATOM      3  C   UNL d   1      -0.746   1.133  -0.052  0.00  0.00     0.022 A 
ATOM      4  C   UNL d   1       0.770  -1.188  -0.005  0.00  0.00     0.008 A 
ATOM      5  C   UNL d   1      -1.391  -0.111  -0.040  0.00  0.00    -0.061 A 
ATOM      6  C   UNL d   1      -0.621  -1.272  -0.017  0.00  0.00     0.007 A 
ATOM      7  C   UNL d   1       2.937  -0.003  -0.006  0.00  0.00     0.049 C 
ATOM      8  C   UNL d   1      -2.888  -0.210  -0.030  0.00  0.00     0.048 C 
ENDROOT
BRANCH   1   9
ATOM      9  C   UNL d   1       1.269   2.607   0.024  0.00  0.00     0.182 C 
ATOM     10  O   UNL d   1       2.281   2.833   0.679  0.00  0.00    -0.288 OA
BRANCH   9  11
ATOM     11  C   UNL d   1       0.574   3.714  -0.692  0.00  0.00     0.062 C 
ATOM     12  C   UNL d   1       0.879   4.990  -0.406  0.00  0.00     0.085 C 
BRANCH  12  13
ATOM     13  C   UNL d   1       0.138   6.064  -1.089  0.00  0.00     0.165 C 
ATOM     14  O   UNL d   1      -0.730   5.872  -1.922  0.00  0.00    -0.647 OA
BRANCH  13  15
ATOM     15  O   UNL d   1       0.507   7.292  -0.676  0.00  0.00    -0.773 OA
ATOM     16  H   UNL d   1       1.205   7.320   0.004  0.00  0.00     0.167 HD
ENDBRANCH  13  15
ENDBRANCH  12  13
ENDBRANCH   9  11
ENDBRANCH   1   9
TORSDOF 4
