REMARK  4 active torsions:
REMARK  status: ('A' for Active; 'I' for Inactive)
REMARK    1  A    between atoms: N_2  and  S_1 
REMARK    2  A    between atoms: C_3  and  S_1 
REMARK    3  A    between atoms: N_5  and  N_2 
REMARK    4  A    between atoms: C_18  and  C_17 
ROOT
ATOM      1  N   UNL d   1       0.781  -1.402  -0.471  0.00  0.00    -0.223 N 
ATOM      2  H   UNL d   1       0.084  -1.769   0.180  0.00  0.00     0.200 HD
ENDROOT
BRANCH   1   3
ATOM      3  S   UNL d   1       1.167   0.200  -0.117  0.00  0.00     0.276 S 
ATOM      4  O   UNL d   1       2.596   0.395  -0.274  0.00  0.00    -0.199 OA
ATOM      5  O   UNL d   1       0.509   0.500   1.137  0.00  0.00    -0.199 OA
BRANCH   3   6
ATOM      6  C   UNL d   1       0.335   1.093  -1.398  0.00  0.00     0.081 A 
ATOM      7  C   UNL d   1      -0.921   1.656  -1.154  0.00  0.00     0.026 A 
ATOM      8  C   UNL d   1      -1.536   2.412  -2.152  0.00  0.00     0.008 A 
ATOM      9  C   UNL d   1      -0.899   2.614  -3.385  0.00  0.00    -0.062 A 
ATOM     10  C   UNL d   1       0.359   2.041  -3.614  0.00  0.00     0.008 A 
ATOM     11  C   UNL d   1      -1.565   3.445  -4.441  0.00  0.00     0.048 C 
ATOM     12  C   UNL d   1       0.980   1.284  -2.621  0.00  0.00     0.026 A 
ENDBRANCH   3   6
ENDBRANCH   1   3
BRANCH   1  13
ATOM     13  N   UNL d   1       0.957  -1.996  -1.788  0.00  0.00    -0.302 N 
ATOM     14  C   UNL d   1       0.507  -3.209  -1.785  0.00  0.00     0.119 C 
ATOM     15  HN  UNL d   1       1.373  -1.527  -2.592  1.00  0.00     0.186 HD
BRANCH  14  16
ATOM     16  C   UNL d   1       0.385  -4.109  -2.935  0.00  0.00    -0.017 A 
ATOM     17  C   UNL d   1      -0.485  -5.178  -2.696  0.00  0.00     0.052 A 
ATOM     18  C   UNL d   1      -0.702  -6.066  -3.712  0.00  0.00     0.105 A 
ATOM     19  O   UNL d   1      -1.532  -7.131  -3.639  0.00  0.00    -0.323 OA
ATOM     20  C   UNL d   1      -0.074  -5.946  -4.929  0.00  0.00     0.105 A 
ATOM     21  C   UNL d   1      -1.193  -7.796  -4.869  0.00  0.00     0.352 C 
ATOM     22  O   UNL d   1      -0.414  -6.967  -5.763  0.00  0.00    -0.323 OA
ATOM     23  C   UNL d   1       0.788  -4.898  -5.199  0.00  0.00     0.040 A 
ATOM     24  C   UNL d   1       1.018  -3.950  -4.178  0.00  0.00     0.016 A 
ENDBRANCH  14  16
ENDBRANCH   1  13
TORSDOF 4
