REMARK  9 active torsions:
REMARK  status: ('A' for Active; 'I' for Inactive)
REMARK    1  A    between atoms: C_6  and  C_1 
REMARK    2  A    between atoms: N_7  and  C_2 
REMARK    3  A    between atoms: C_8  and  C_4 
REMARK    4  A    between atoms: O_16  and  C_6 
REMARK       I    between atoms: C_9  and  N_7 
REMARK    5  A    between atoms: C_23  and  C_9 
REMARK    6  A    between atoms: C_10  and  C_24 
REMARK    7  A    between atoms: O_19  and  C_10 
REMARK    8  A    between atoms: O_18  and  C_23 
REMARK    9  A    between atoms: C_24  and  O_18 
ROOT
ATOM      1  C   UNL d   1       0.081   1.348   0.006  0.00  0.00     0.107 A 
ATOM      2  C   UNL d   1       1.382   0.894  -0.138  0.00  0.00     0.059 A 
ATOM      3  S   UNL d   1      -1.025   0.037   0.086  0.00  0.00    -0.081 SA
ATOM      4  C   UNL d   1       0.205  -1.148  -0.024  0.00  0.00     0.018 A 
ATOM      5  C   UNL d   1       1.440  -0.538  -0.155  0.00  0.00     0.051 A 
ENDROOT
BRANCH   2   6
ATOM      6  N   UNL d   1       2.489   1.740  -0.246  0.00  0.00    -0.324 N 
ATOM      7  C   UNL d   1       3.587   1.433  -1.034  0.00  0.00     0.245 C 
ATOM      8  O   UNL d   1       3.674   0.456  -1.776  0.00  0.00    -0.271 OA
ATOM      9  H   UNL d   1       2.322   2.716  -0.012  0.00  0.00     0.169 HD
BRANCH   7  10
ATOM     10  C   UNL d   1       4.705   2.490  -0.972  0.00  0.00     0.271 C 
BRANCH  10  11
ATOM     11  O   UNL d   1       5.271   2.918  -2.211  0.00  0.00    -0.372 OA
BRANCH  11  12
ATOM     12  C   UNL d   1       4.311   3.497  -3.091  0.00  0.00     0.277 C 
BRANCH  12  13
ATOM     13  C   UNL d   1       3.833   4.850  -2.585  0.00  0.00     0.164 C 
ATOM     14  O   UNL d   1       2.664   5.140  -2.382  0.00  0.00    -0.648 OA
BRANCH  13  15
ATOM     15  O   UNL d   1       4.861   5.688  -2.307  0.00  0.00    -0.775 OA
ATOM     16  H   UNL d   1       5.726   5.253  -2.464  0.00  0.00     0.167 HD
ENDBRANCH  13  15
ENDBRANCH  12  13
ENDBRANCH  11  12
ENDBRANCH  10  11
ENDBRANCH   7  10
ENDBRANCH   2   6
BRANCH   1  17
ATOM     17  C   UNL d   1      -0.486   2.690   0.014  0.00  0.00     0.302 C 
ATOM     18  O   UNL d   1      -1.673   2.970   0.056  0.00  0.00    -0.259 OA
BRANCH  17  19
ATOM     19  O   UNL d   1       0.514   3.624  -0.068  0.00  0.00    -0.322 OA
ATOM     20  C   UNL d   1       0.054   4.972  -0.232  0.00  0.00     0.213 C 
ENDBRANCH  17  19
ENDBRANCH   1  17
BRANCH   4  21
ATOM     21  C   UNL d   1      -0.125  -2.587   0.002  0.00  0.00    -0.019 A 
ATOM     22  C   UNL d   1       0.699  -3.514  -0.658  0.00  0.00     0.014 A 
ATOM     23  C   UNL d   1       0.410  -4.884  -0.633  0.00  0.00     0.024 A 
ATOM     24  C   UNL d   1      -0.711  -5.344   0.051  0.00  0.00     0.034 A 
ATOM     25  C   UNL d   1      -1.544  -4.447   0.710  0.00  0.00     0.024 A 
ATOM     26 CL   UNL d   1      -1.065  -7.026   0.087  0.00  0.00    -0.084 Cl
ATOM     27  C   UNL d   1      -1.250  -3.079   0.688  0.00  0.00     0.014 A 
ENDBRANCH   4  21
TORSDOF 9
