REMARK  7 active torsions:
REMARK  status: ('A' for Active; 'I' for Inactive)
REMARK    1  A    between atoms: C_5  and  C_1 
REMARK    2  A    between atoms: C_2  and  C_4 
REMARK    3  A    between atoms: C_3  and  C_8 
REMARK       I    between atoms: N_9  and  C_3 
REMARK    4  A    between atoms: C_7  and  C_6 
REMARK       I    between atoms: N_13  and  C_7 
REMARK    5  A    between atoms: C_8  and  O_14 
REMARK    6  A    between atoms: C_23  and  N_9 
REMARK    7  A    between atoms: O_14  and  N_13 
ROOT
ATOM      1  C   UNL d   1       0.016  -2.037  -4.792  0.00  0.00     0.275 C 
ATOM      2  N   UNL d   1      -1.264  -2.138  -5.275  0.00  0.00    -0.230 N 
ATOM      3  O   UNL d   1       0.674  -1.001  -4.799  0.00  0.00    -0.265 OA
ATOM      4  H   UNL d   1      -1.934  -2.802  -4.889  0.00  0.00     0.197 HD
ENDROOT
BRANCH   1   5
ATOM      5  C   UNL d   1       0.621  -3.289  -4.255  0.00  0.00     0.035 A 
ATOM      6  C   UNL d   1       0.066  -4.559  -4.468  0.00  0.00     0.033 A 
ATOM      7  C   UNL d   1       0.712  -5.714  -3.988  0.00  0.00     0.049 A 
ATOM      8  C   UNL d   1       1.923  -5.578  -3.287  0.00  0.00     0.032 A 
ATOM      9  C   UNL d   1       2.490  -4.314  -3.062  0.00  0.00     0.049 A 
ATOM     10  C   UNL d   1       1.833  -3.179  -3.560  0.00  0.00     0.033 A 
BRANCH   7  11
ATOM     11  C   UNL d   1       0.103  -7.075  -4.240  0.00  0.00     0.417 C 
ATOM     12  F   UNL d   1       0.834  -8.102  -3.727  0.00  0.00    -0.166 F 
ATOM     13  F   UNL d   1      -0.036  -7.339  -5.568  0.00  0.00    -0.166 F 
ATOM     14  F   UNL d   1      -1.141  -7.190  -3.700  0.00  0.00    -0.166 F 
ENDBRANCH   7  11
BRANCH   9  15
ATOM     15  C   UNL d   1       3.788  -4.151  -2.306  0.00  0.00     0.417 C 
ATOM     16  F   UNL d   1       4.270  -5.322  -1.806  0.00  0.00    -0.166 F 
ATOM     17  F   UNL d   1       4.781  -3.637  -3.082  0.00  0.00    -0.166 F 
ATOM     18  F   UNL d   1       3.665  -3.312  -1.242  0.00  0.00    -0.166 F 
ENDBRANCH   9  15
ENDBRANCH   1   5
BRANCH   2  19
ATOM     19  O   UNL d   1      -1.854  -0.920  -5.700  0.00  0.00    -0.263 OA
BRANCH  19  20
ATOM     20  C   UNL d   1      -2.352  -1.102  -7.036  0.00  0.00     0.240 C 
ATOM     21  C   UNL d   1      -2.924   0.235  -7.475  0.00  0.00     0.052 C 
BRANCH  20  22
ATOM     22  C   UNL d   1      -3.417  -2.225  -7.058  0.00  0.00     0.253 C 
ATOM     23  N   UNL d   1      -3.825  -2.654  -8.314  0.00  0.00    -0.325 N 
ATOM     24  H   UNL d   1      -3.312  -2.313  -9.119  0.00  0.00     0.169 HD
ATOM     25  O   UNL d   1      -3.772  -2.757  -5.997  0.00  0.00    -0.270 OA
BRANCH  23  26
ATOM     26  C   UNL d   1      -4.685  -3.765  -8.528  0.00  0.00     0.034 A 
ATOM     27  C   UNL d   1      -5.527  -4.269  -7.528  0.00  0.00     0.031 A 
ATOM     28  C   UNL d   1      -6.264  -5.438  -7.720  0.00  0.00     0.026 A 
ATOM     29  C   UNL d   1      -6.189  -6.104  -8.935  0.00  0.00     0.034 A 
ATOM     30  C   UNL d   1      -5.413  -5.582  -9.969  0.00  0.00     0.026 A 
ATOM     31 CL   UNL d   1      -7.050  -7.576  -9.151  0.00  0.00    -0.084 Cl
ATOM     32  C   UNL d   1      -4.669  -4.408  -9.771  0.00  0.00     0.031 A 
ENDBRANCH  23  26
ENDBRANCH  20  22
ENDBRANCH  19  20
ENDBRANCH   2  19
TORSDOF 7
