REMARK  2 active torsions:
REMARK  status: ('A' for Active; 'I' for Inactive)
REMARK    1  A    between atoms: N_3  and  C_1 
REMARK    2  A    between atoms: C_2  and  N_3 
ROOT
ATOM      1  C   UNL d   1       1.079  -0.418  -2.538  0.00  0.00     0.057 A 
ATOM      2  C   UNL d   1       0.651   0.247  -3.692  0.00  0.00     0.055 A 
ATOM      3  C   UNL d   1       2.235  -1.219  -2.609  0.00  0.00     0.060 A 
ATOM      4  C   UNL d   1       2.911  -1.394  -3.821  0.00  0.00     0.028 A 
ATOM      5  C   UNL d   1       1.339   0.080  -4.896  0.00  0.00     0.036 A 
ATOM      6 CL   UNL d   1       2.841  -2.043  -1.214  0.00  0.00    -0.082 Cl
ATOM      7  C   UNL d   1       2.458  -0.744  -4.969  0.00  0.00     0.026 A 
ATOM      8 CL   UNL d   1       0.808   0.919  -6.303  0.00  0.00    -0.084 Cl
ENDROOT
BRANCH   1   9
ATOM      9  N   UNL d   1       0.436  -0.259  -1.288  0.00  0.00    -0.332 N 
ATOM     10  H   UNL d   1       1.000  -0.492  -0.476  0.00  0.00     0.168 HD
BRANCH   9  11
ATOM     11  C   UNL d   1      -0.811   0.176  -0.984  0.00  0.00     0.170 C 
ATOM     12  S   UNL d   1      -1.198   0.653   0.559  0.00  0.00    -0.041 SA
ATOM     13  N   UNL d   1      -1.759   0.154  -1.943  0.00  0.00    -0.376 N 
ATOM     14  H   UNL d   1      -1.685  -0.557  -2.660  0.00  0.00     0.158 HD
ATOM     15  H   UNL d   1      -2.706   0.350  -1.637  0.00  0.00     0.158 HD
ENDBRANCH   9  11
ENDBRANCH   1   9
TORSDOF 2
