REMARK  3 active torsions:
REMARK  status: ('A' for Active; 'I' for Inactive)
REMARK    1  A    between atoms: C_10  and  N_1 
REMARK    2  A    between atoms: C_7  and  C_2 
REMARK    3  A    between atoms: N_9  and  C_8 
ROOT
ATOM      1  N   UNL d   1       0.072  -0.819   0.989  0.00  0.00    -0.225 N 
ATOM      2  C   UNL d   1       1.066  -0.755   0.012  0.00  0.00     0.139 C 
ATOM      3  N   UNL d   1      -0.772   0.026  -0.794  0.00  0.00    -0.007 NA
ATOM      4  N   UNL d   1      -1.088  -0.404   0.415  0.00  0.00     0.001 NA
ATOM      5  N   UNL d   1       0.549  -0.189  -1.063  0.00  0.00    -0.270 N 
ATOM      6  HN  UNL d   1       1.041   0.042  -1.927  1.00  0.00     0.185 HD
ENDROOT
BRANCH   2   7
ATOM      7  C   UNL d   1       2.364  -1.278   0.199  0.00  0.00     0.068 C 
ATOM      8  C   UNL d   1       2.642  -2.558  -0.097  0.00  0.00     0.089 C 
BRANCH   8   9
ATOM      9  N   UNL d   1       3.837  -3.249   0.056  0.00  0.00    -0.390 N 
ATOM     10  C   UNL d   1       5.049  -2.689   0.670  0.00  0.00     0.122 C 
ATOM     11  C   UNL d   1       5.502  -3.596   1.811  0.00  0.00     0.020 C 
ATOM     12  C   UNL d   1       5.741  -5.019   1.315  0.00  0.00     0.003 C 
ATOM     13  C   UNL d   1       4.508  -5.556   0.592  0.00  0.00     0.020 C 
ATOM     14  C   UNL d   1       4.035  -4.600  -0.503  0.00  0.00     0.122 C 
ENDBRANCH   8   9
ENDBRANCH   2   7
BRANCH   1  15
ATOM     15  C   UNL d   1       0.099  -1.162   2.371  0.00  0.00     0.056 A 
ATOM     16  C   UNL d   1       1.278  -1.105   3.127  0.00  0.00     0.034 A 
ATOM     17  C   UNL d   1       1.245  -1.377   4.500  0.00  0.00     0.044 A 
ATOM     18  C   UNL d   1       0.045  -1.720   5.109  0.00  0.00     0.116 A 
ATOM     19  C   UNL d   1      -1.131  -1.796   4.375  0.00  0.00     0.044 A 
ATOM     20  F   UNL d   1       0.021  -1.968   6.425  0.00  0.00    -0.206 F 
ATOM     21  C   UNL d   1      -1.109  -1.505   3.008  0.00  0.00     0.034 A 
ENDBRANCH   1  15
TORSDOF 3
