REMARK  2 active torsions:
REMARK  status: ('A' for Active; 'I' for Inactive)
REMARK    1  A    between atoms: C_7  and  C_2 
REMARK       I    between atoms: C_6  and  N_3 
REMARK       I    between atoms: N_10  and  C_6 
REMARK    2  A    between atoms: C_17  and  N_10 
ROOT
ATOM      1  C   UNL d   1       1.049  -0.799   0.214  0.00  0.00     0.049 A 
ATOM      2  C   UNL d   1       2.462  -1.317   0.297  0.00  0.00     0.246 C 
ATOM      3  N   UNL d   1       3.387  -0.219  -0.114  0.00  0.00    -0.315 N 
ATOM      4  C   UNL d   1       0.648   0.510   0.039  0.00  0.00    -0.019 A 
ATOM      5  N   UNL d   1      -0.077  -1.578   0.262  0.00  0.00    -0.356 N 
ATOM      6  C   UNL d   1       4.678  -0.408  -0.602  0.00  0.00     0.323 C 
ATOM      7  C   UNL d   1      -0.772   0.536   0.033  0.00  0.00    -0.001 A 
ATOM      8  C   UNL d   1      -1.201  -0.788   0.151  0.00  0.00     0.043 A 
ATOM      9  N   UNL d   1       5.101  -1.715  -0.718  0.00  0.00    -0.309 N 
ATOM     10  C   UNL d   1       3.028   1.149   0.328  0.00  0.00     0.133 C 
ATOM     11  C   UNL d   1       1.636   1.606  -0.144  0.00  0.00     0.061 C 
ATOM     12  O   UNL d   1       5.371   0.566  -0.903  0.00  0.00    -0.247 OA
ATOM     13  C   UNL d   1      -1.743   1.551  -0.080  0.00  0.00     0.014 A 
ATOM     14  C   UNL d   1      -2.553  -1.149   0.141  0.00  0.00     0.030 A 
ATOM     15  C   UNL d   1      -3.100   1.208  -0.076  0.00  0.00     0.001 A 
ATOM     16  C   UNL d   1      -3.497  -0.124   0.025  0.00  0.00     0.002 A 
ATOM     17  H   UNL d   1      -0.108  -2.584   0.365  0.00  0.00     0.166 HD
ATOM     18  H   UNL d   1       4.521  -2.451  -0.358  0.00  0.00     0.170 HD
ENDROOT
BRANCH   2  19
ATOM     19  C   UNL d   1       2.826  -1.962   1.665  0.00  0.00     0.413 C 
ATOM     20  F   UNL d   1       1.776  -2.062   2.510  0.00  0.00    -0.168 F 
ATOM     21  F   UNL d   1       3.278  -3.228   1.449  0.00  0.00    -0.168 F 
ATOM     22  F   UNL d   1       3.810  -1.302   2.313  0.00  0.00    -0.168 F 
ENDBRANCH   2  19
BRANCH   9  23
ATOM     23  C   UNL d   1       6.316  -2.175  -1.285  0.00  0.00     0.036 A 
ATOM     24  C   UNL d   1       7.292  -1.345  -1.839  0.00  0.00     0.029 A 
ATOM     25  C   UNL d   1       8.415  -1.887  -2.473  0.00  0.00     0.002 A 
ATOM     26  C   UNL d   1       8.579  -3.267  -2.549  0.00  0.00     0.000 A 
ATOM     27  C   UNL d   1       7.640  -4.105  -1.957  0.00  0.00     0.002 A 
ATOM     28  C   UNL d   1       6.518  -3.562  -1.323  0.00  0.00     0.029 A 
ENDBRANCH   9  23
TORSDOF 2
