REMARK  7 active torsions:
REMARK  status: ('A' for Active; 'I' for Inactive)
REMARK    1  A    between atoms: C_9  and  C_3 
REMARK    2  A    between atoms: C_13  and  C_4 
REMARK    3  A    between atoms: C_7  and  S_12 
REMARK    4  A    between atoms: C_23  and  C_8 
REMARK    5  A    between atoms: O_21  and  C_9 
REMARK    6  A    between atoms: S_12  and  C_16 
REMARK    7  A    between atoms: C_16  and  C_13 
ROOT
ATOM      1  C   UNL d   1      -0.125  -0.677  -0.106  0.00  0.00    -0.042 A 
ATOM      2  C   UNL d   1       0.716   0.442  -0.011  0.00  0.00    -0.043 A 
ATOM      3  C   UNL d   1       1.867  -2.165  -0.086  0.00  0.00     0.017 A 
ATOM      4  C   UNL d   1       0.472  -1.965  -0.111  0.00  0.00     0.024 A 
ATOM      5  C   UNL d   1       2.115   0.230  -0.029  0.00  0.00     0.016 A 
ATOM      6  C   UNL d   1       2.714  -1.043  -0.095  0.00  0.00    -0.044 A 
ATOM      7  C   UNL d   1      -1.655  -0.555  -0.148  0.00  0.00    -0.020 C 
ATOM      8  C   UNL d   1       0.186   1.881   0.063  0.00  0.00    -0.020 C 
ATOM      9  C   UNL d   1      -1.328   1.942   0.367  0.00  0.00     0.015 C 
ATOM     10  C   UNL d   1      -2.140   0.898  -0.374  0.00  0.00     0.015 C 
ATOM     11  C   UNL d   1       0.491   2.578  -1.283  0.00  0.00     0.020 C 
ATOM     12  C   UNL d   1       0.870   2.689   1.196  0.00  0.00     0.020 C 
ATOM     13  C   UNL d   1      -2.232  -1.103   1.176  0.00  0.00     0.020 C 
ATOM     14  C   UNL d   1      -2.243  -1.378  -1.319  0.00  0.00     0.020 C 
ENDROOT
BRANCH   3  15
ATOM     15  C   UNL d   1       2.411  -3.569   0.012  0.00  0.00     0.169 C 
ATOM     16  O   UNL d   1       3.408  -3.774   0.703  0.00  0.00    -0.291 OA
BRANCH  15  17
ATOM     17  C   UNL d   1       1.665  -4.670  -0.732  0.00  0.00     0.164 C 
BRANCH  17  18
ATOM     18  S   UNL d   1       2.487  -6.309  -0.603  0.00  0.00    -0.103 SA
BRANCH  18  19
ATOM     19  C   UNL d   1       1.208  -7.384  -1.266  0.00  0.00     0.087 A 
ATOM     20  C   UNL d   1       1.343  -8.768  -1.430  0.00  0.00     0.071 A 
ATOM     21  C   UNL d   1       0.218  -9.468  -1.914  0.00  0.00     0.022 A 
ATOM     22  C   UNL d   1      -0.965  -8.803  -2.219  0.00  0.00     0.018 A 
ATOM     23  C   UNL d   1      -0.994  -7.439  -2.041  0.00  0.00     0.089 A 
ATOM     24  N   UNL d   1       0.056  -6.729  -1.580  0.00  0.00    -0.360 N 
ATOM     25  HN  UNL d   1      -0.012  -5.717  -1.467  1.00  0.00     0.166 HD
BRANCH  20  26
ATOM     26  C   UNL d   1       2.544  -9.617  -1.159  0.00  0.00     0.179 C 
ATOM     27  O   UNL d   1       2.517 -10.823  -1.324  0.00  0.00    -0.646 OA
BRANCH  26  28
ATOM     28  O   UNL d   1       3.667  -8.997  -0.749  0.00  0.00    -0.773 OA
ATOM     29  H   UNL d   1       3.607  -8.031  -0.609  0.00  0.00     0.167 HD
ENDBRANCH  26  28
ENDBRANCH  20  26
ENDBRANCH  18  19
ENDBRANCH  17  18
ENDBRANCH  15  17
ENDBRANCH   3  15
BRANCH   6  30
ATOM     30  C   UNL d   1       4.227  -1.167  -0.117  0.00  0.00     0.035 C 
ATOM     31  C   UNL d   1       4.990  -0.014  -0.771  0.00  0.00     0.010 C 
ENDBRANCH   6  30
TORSDOF 7
