REMARK  4 active torsions:
REMARK  status: ('A' for Active; 'I' for Inactive)
REMARK    1  A    between atoms: C_4  and  N_1 
REMARK    2  A    between atoms: C_6  and  C_2 
REMARK    3  A    between atoms: C_3  and  C_10 
REMARK    4  A    between atoms: O_12  and  N_8 
ROOT
ATOM      1  C   UNL d   1       0.765   2.008   0.025  0.00  0.00     0.103 A 
ATOM      2  C   UNL d   1       0.559  -0.180  -1.009  0.00  0.00    -0.033 A 
ATOM      3  C   UNL d   1       1.341   0.793  -0.374  0.00  0.00     0.047 A 
ATOM      4  C   UNL d   1      -0.576   2.294  -0.260  0.00  0.00     0.036 A 
ATOM      5  C   UNL d   1      -1.341   1.352  -0.944  0.00  0.00     0.003 A 
ATOM      6  C   UNL d   1      -0.778   0.125  -1.311  0.00  0.00     0.011 A 
ENDROOT
BRANCH   2   7
ATOM      7  C   UNL d   1       1.086  -1.497  -1.414  0.00  0.00     0.020 C 
ATOM      8  C   UNL d   1       1.941  -2.286  -0.733  0.00  0.00    -0.037 C 
ATOM      9  C   UNL d   1       2.581  -1.994   0.595  0.00  0.00     0.050 C 
BRANCH   8  10
ATOM     10  C   UNL d   1       2.318  -3.630  -1.305  0.00  0.00     0.034 C 
ATOM     11  N   UNL d   1       3.535  -4.064  -1.117  0.00  0.00    -0.273 N 
ATOM     12  HN  UNL d   1       4.259  -3.540  -0.625  1.00  0.00     0.193 HD
ATOM     13  C   UNL d   1       1.266  -4.451  -2.030  0.00  0.00     0.070 C 
BRANCH  11  14
ATOM     14  O   UNL d   1       3.726  -5.334  -1.673  0.00  0.00    -0.290 OA
ATOM     15  H   UNL d   1       4.647  -5.533  -1.421  0.00  0.00     0.244 HD
ENDBRANCH  11  14
ENDBRANCH   8  10
ENDBRANCH   2   7
BRANCH   1  16
ATOM     16  N   UNL d   1       1.572   2.978   0.776  0.00  0.00    -0.116 N 
ATOM     17  O   UNL d   1       2.731   2.660   1.071  0.00  0.00    -0.532 OA
ATOM     18  O   UNL d   1       1.038   4.054   1.084  0.00  0.00    -0.532 OA
ENDBRANCH   1  16
TORSDOF 4
