REMARK  1 active torsions:
REMARK  status: ('A' for Active; 'I' for Inactive)
REMARK    1  A    between atoms: C_2  and  N_1 
ROOT
ATOM      1  C   UNL d   1       0.006   2.320  -0.045  0.00  0.00     0.049 A 
ATOM      2  C   UNL d   1      -0.650   3.073   0.942  0.00  0.00     0.075 A 
ATOM      3  C   UNL d   1      -0.622   4.468   0.910  0.00  0.00     0.157 A 
ATOM      4  C   UNL d   1       0.036   5.139  -0.108  0.00  0.00     0.154 A 
ATOM      5  C   UNL d   1       0.675   3.023  -1.065  0.00  0.00     0.033 A 
ATOM      6  C   UNL d   1       0.683   4.423  -1.103  0.00  0.00     0.048 A 
ATOM      7  F   UNL d   1      -1.233   5.157   1.883  0.00  0.00    -0.203 F 
ATOM      8  F   UNL d   1       0.053   6.478  -0.139  0.00  0.00    -0.203 F 
ENDROOT
BRANCH   1   9
ATOM      9  N   UNL d   1      -0.005   0.896  -0.017  0.00  0.00    -0.245 N 
ATOM     10  C   UNL d   1       0.870   0.083  -0.687  0.00  0.00     0.255 A 
ATOM     11  C   UNL d   1       0.499  -1.306  -0.389  0.00  0.00     0.080 A 
ATOM     12  O   UNL d   1       1.834   0.342  -1.385  0.00  0.00    -0.268 OA
ATOM     13  C   UNL d   1      -0.550  -1.282   0.427  0.00  0.00     0.080 A 
ATOM     14  C   UNL d   1      -0.890   0.121   0.682  0.00  0.00     0.255 A 
ATOM     15  O   UNL d   1      -1.846   0.425   1.377  0.00  0.00    -0.268 OA
ENDBRANCH   1   9
TORSDOF 1
