REMARK  5 active torsions:
REMARK  status: ('A' for Active; 'I' for Inactive)
REMARK    1  A    between atoms: C_5  and  C_1 
REMARK    2  A    between atoms: C_4  and  N_8 
REMARK       I    between atoms: N_8  and  C_5 
REMARK    3  A    between atoms: S_16  and  C_7 
REMARK    4  A    between atoms: C_17  and  S_16 
REMARK    5  A    between atoms: N_37  and  C_35 
ROOT
ATOM      1  N   UNL d   2       2.643   0.627  -1.924  0.00  0.00    -0.368 N 
ATOM      2  C   UNL d   2       3.405  -0.252  -2.785  0.00  0.00     0.151 C 
ATOM      3  C   UNL d   2       3.204   0.965  -0.635  0.00  0.00     0.151 C 
ENDROOT
BRANCH   1   4
ATOM      4  C   UNL d   2       1.310   0.881  -2.176  0.00  0.00     0.350 C 
ATOM      5  O   UNL d   2       0.545   1.484  -1.434  0.00  0.00    -0.284 OA
ENDBRANCH   1   4
TORSDOF 5
