REMARK  2 active torsions:
REMARK  status: ('A' for Active; 'I' for Inactive)
REMARK    1  A    between atoms: C_2  and  C_1 
REMARK    2  A    between atoms: N_7  and  C_5 
ROOT
ATOM      1  C   UNL d   1       0.584   1.294   0.423  0.00  0.00     0.063 A 
ATOM      2  N   UNL d   1       0.860   3.689   0.292  0.00  0.00    -0.352 N 
ATOM      3  HN  UNL d   1       1.390   4.482  -0.071  1.00  0.00     0.166 HD
ATOM      4  C   UNL d   1      -0.208   3.902   1.091  0.00  0.00     0.102 A 
ATOM      5  C   UNL d   1       1.231   2.425  -0.028  0.00  0.00     0.106 A 
ATOM      6  C   UNL d   1      -0.516   1.495   1.247  0.00  0.00     0.021 A 
ATOM      7  C   UNL d   1      -0.911   2.799   1.575  0.00  0.00     0.049 A 
ENDROOT
BRANCH   1   8
ATOM      8  C   UNL d   1       1.054  -0.071   0.034  0.00  0.00     0.418 C 
ATOM      9  F   UNL d   1       2.136  -0.063  -0.795  0.00  0.00    -0.166 F 
ATOM     10  F   UNL d   1       0.096  -0.789  -0.615  0.00  0.00    -0.166 F 
ATOM     11  F   UNL d   1       1.418  -0.823   1.110  0.00  0.00    -0.166 F 
ENDBRANCH   1   8
BRANCH   4  12
ATOM     12  N   UNL d   1      -0.568   5.206   1.363  0.00  0.00    -0.376 N 
ATOM     13  C   UNL d   1       0.239   6.293   0.816  0.00  0.00     0.150 C 
ATOM     14  C   UNL d   1      -1.587   5.609   2.317  0.00  0.00     0.150 C 
ENDBRANCH   4  12
TORSDOF 2
