REMARK  2 active torsions:
REMARK  status: ('A' for Active; 'I' for Inactive)
REMARK       I    between atoms: N_2  and  C_1 
REMARK    1  A    between atoms: C_3  and  C_1 
REMARK    2  A    between atoms: C_11  and  N_2 
ROOT
ATOM      1  C   UNL d   1       1.019  -0.100   0.114  0.00  0.00     0.256 C 
ATOM      2  N   UNL d   1       0.359  -1.093  -0.591  0.00  0.00    -0.323 N 
ATOM      3  O   UNL d   1       2.231  -0.036   0.310  0.00  0.00    -0.267 OA
ATOM      4  H   UNL d   1      -0.602  -0.925  -0.858  0.00  0.00     0.169 HD
ENDROOT
BRANCH   2   5
ATOM      5  C   UNL d   1       0.987  -2.223  -1.170  0.00  0.00     0.037 A 
ATOM      6  C   UNL d   1       2.276  -2.637  -0.821  0.00  0.00     0.069 A 
ATOM      7  C   UNL d   1       2.889  -3.695  -1.488  0.00  0.00     0.104 A 
ATOM      8  O   UNL d   1       4.169  -3.998  -1.100  0.00  0.00    -0.346 OA
ATOM      9  C   UNL d   1       2.206  -4.384  -2.489  0.00  0.00     0.102 A 
ATOM     10  C   UNL d   1       4.836  -4.788  -2.086  0.00  0.00     0.202 C 
ATOM     11  C   UNL d   1       3.940  -5.922  -2.557  0.00  0.00     0.202 C 
ATOM     12  O   UNL d   1       2.756  -5.422  -3.193  0.00  0.00    -0.346 OA
ATOM     13  C   UNL d   1       0.904  -4.010  -2.817  0.00  0.00     0.042 A 
ATOM     14  C   UNL d   1       0.290  -2.942  -2.150  0.00  0.00     0.032 A 
ENDBRANCH   2   5
BRANCH   1  15
ATOM     15  C   UNL d   1       0.199   1.025   0.633  0.00  0.00     0.035 A 
ATOM     16  C   UNL d   1      -1.130   0.866   1.043  0.00  0.00     0.056 A 
ATOM     17  C   UNL d   1      -1.747   1.961   1.616  0.00  0.00     0.106 A 
ATOM     18  O   UNL d   1      -3.014   1.985   2.114  0.00  0.00    -0.323 OA
ATOM     19  C   UNL d   1      -1.105   3.170   1.774  0.00  0.00     0.105 A 
ATOM     20  C   UNL d   1      -3.064   3.318   2.668  0.00  0.00     0.352 A 
ATOM     21  O   UNL d   1      -1.885   4.098   2.388  0.00  0.00    -0.323 OA
ATOM     22  C   UNL d   1       0.193   3.364   1.363  0.00  0.00     0.041 A 
ATOM     23  C   UNL d   1       0.850   2.274   0.792  0.00  0.00     0.020 A 
ENDBRANCH   1  15
TORSDOF 2
