REMARK  4 active torsions:
REMARK  status: ('A' for Active; 'I' for Inactive)
REMARK    1  A    between atoms: N_5  and  C_9 
REMARK    2  A    between atoms: C_8  and  C_7 
REMARK    3  A    between atoms: S_12  and  C_10 
REMARK    4  A    between atoms: C_19  and  S_12 
ROOT
ATOM      1  C   UNL d   1      -3.805   0.342  -0.044  0.00  0.00    -0.015 A 
ATOM      2  C   UNL d   1      -6.069  -0.185  -0.759  0.00  0.00     0.103 A 
ATOM      3  C   UNL d   1      -3.991  -0.431   1.118  0.00  0.00     0.016 A 
ATOM      4  C   UNL d   1      -4.852   0.467  -0.977  0.00  0.00     0.048 A 
ATOM      5  C   UNL d   1      -6.249  -0.988   0.369  0.00  0.00     0.037 A 
ATOM      6  C   UNL d   1      -5.209  -1.114   1.296  0.00  0.00     0.022 A 
ENDROOT
BRANCH   1   7
ATOM      7  C   UNL d   1      -2.555   1.046  -0.367  0.00  0.00     0.037 C 
ATOM      8  C   UNL d   1      -2.354   2.359  -0.205  0.00  0.00     0.076 A 
ATOM      9  C   UNL d   1      -1.137   3.037  -0.725  0.00  0.00     0.264 A 
ATOM     10  S   UNL d   1      -3.423   3.519   0.495  0.00  0.00    -0.055 SA
ATOM     11  N   UNL d   1      -1.248   4.385  -0.527  0.00  0.00    -0.307 N 
ATOM     12  O   UNL d   1      -0.206   2.490  -1.290  0.00  0.00    -0.267 OA
ATOM     13  C   UNL d   1      -2.374   4.855   0.076  0.00  0.00     0.146 A 
ATOM     14  H   UNL d   1      -0.529   5.006  -0.867  0.00  0.00     0.170 HD
ATOM     15  S   UNL d   1      -2.675   6.460   0.342  0.00  0.00    -0.052 SA
ENDBRANCH   1   7
BRANCH   3  16
ATOM     16  S   UNL d   1      -2.718  -0.560   2.378  0.00  0.00    -0.090 SA
BRANCH  16  17
ATOM     17  C   UNL d   1      -3.596  -0.122   3.875  0.00  0.00     0.005 A 
ATOM     18  C   UNL d   1      -3.352  -0.853   5.042  0.00  0.00     0.019 A 
ATOM     19  C   UNL d   1      -4.056  -0.570   6.217  0.00  0.00     0.008 A 
ATOM     20  C   UNL d   1      -5.018   0.447   6.242  0.00  0.00    -0.062 A 
ATOM     21  C   UNL d   1      -5.231   1.205   5.086  0.00  0.00     0.008 A 
ATOM     22  C   UNL d   1      -5.798   0.716   7.494  0.00  0.00     0.048 C 
ATOM     23  C   UNL d   1      -4.518   0.929   3.916  0.00  0.00     0.019 A 
ENDBRANCH  16  17
ENDBRANCH   3  16
BRANCH   2  24
ATOM     24  N   UNL d   1      -7.160  -0.018  -1.728  0.00  0.00    -0.116 N 
ATOM     25  O   UNL d   1      -6.964   0.733  -2.693  0.00  0.00    -0.532 OA
ATOM     26  O   UNL d   1      -8.213  -0.637  -1.519  0.00  0.00    -0.532 OA
ENDBRANCH   2  24
TORSDOF 4
