REMARK  5 active torsions:
REMARK  status: ('A' for Active; 'I' for Inactive)
REMARK    1  A    between atoms: C_2  and  S_1 
REMARK    2  A    between atoms: N_3  and  S_1 
REMARK    3  A    between atoms: C_11  and  N_3 
REMARK    4  A    between atoms: N_7  and  C_4 
REMARK    5  A    between atoms: C_15  and  C_11 
ROOT
ATOM      1  C   UNL d   1       0.537   0.473   1.808  0.00  0.00     0.095 A 
ATOM      2  C   UNL d   1      -0.418   1.094   4.337  0.00  0.00     0.103 A 
ATOM      3  N   UNL d   1       0.176   2.055   3.592  0.00  0.00    -0.351 N 
ATOM      4  HN  UNL d   1       0.267   3.006   3.949  1.00  0.00     0.166 HD
ATOM      5  C   UNL d   1       0.649   1.731   2.359  0.00  0.00     0.115 A 
ATOM      6  C   UNL d   1      -0.090  -0.515   2.551  0.00  0.00     0.030 A 
ATOM      7  C   UNL d   1      -0.575  -0.194   3.821  0.00  0.00     0.050 A 
ENDROOT
BRANCH   1   8
ATOM      8  S   UNL d   1       1.401   0.077   0.320  0.00  0.00     0.262 S 
ATOM      9  O   UNL d   1       1.681  -1.343   0.378  0.00  0.00    -0.200 OA
ATOM     10  O   UNL d   1       2.478   1.035   0.193  0.00  0.00    -0.200 OA
BRANCH   8  11
ATOM     11  N   UNL d   1       0.248   0.341  -0.881  0.00  0.00    -0.307 N 
ATOM     12  C   UNL d   1       0.015  -0.736  -1.851  0.00  0.00     0.163 C 
BRANCH  11  13
ATOM     13  C   UNL d   1      -0.060   1.708  -1.336  0.00  0.00     0.173 C 
BRANCH  13  14
ATOM     14  C   UNL d   1       0.967   2.380  -2.220  0.00  0.00    -0.040 A 
ATOM     15  C   UNL d   1       1.063   2.089  -3.588  0.00  0.00     0.009 A 
ATOM     16  C   UNL d   1       2.003   2.741  -4.393  0.00  0.00     0.001 A 
ATOM     17  C   UNL d   1       2.861   3.690  -3.839  0.00  0.00     0.000 A 
ATOM     18  C   UNL d   1       2.781   3.987  -2.482  0.00  0.00     0.001 A 
ATOM     19  C   UNL d   1       1.841   3.339  -1.680  0.00  0.00     0.009 A 
ENDBRANCH  13  14
ENDBRANCH  11  13
ENDBRANCH   8  11
ENDBRANCH   1   8
BRANCH   2  20
ATOM     20  N   UNL d   1      -0.740   1.366   5.647  0.00  0.00    -0.363 N 
ATOM     21  C   UNL d   1      -0.198   2.560   6.305  0.00  0.00     0.150 C 
ATOM     22  C   UNL d   1       0.094   2.202   7.776  0.00  0.00     0.187 C 
ATOM     23  O   UNL d   1      -1.070   1.682   8.447  0.00  0.00    -0.388 OA
ATOM     24  C   UNL d   1      -1.566   0.513   7.769  0.00  0.00     0.187 C 
ATOM     25  C   UNL d   1      -1.931   0.827   6.310  0.00  0.00     0.150 C 
ENDBRANCH   2  20
TORSDOF 5
