REMARK  4 active torsions:
REMARK  status: ('A' for Active; 'I' for Inactive)
REMARK    1  A    between atoms: C_3  and  C_1 
REMARK       I    between atoms: C_2  and  N_4 
REMARK       I    between atoms: N_8  and  C_2 
REMARK    2  A    between atoms: N_4  and  C_11 
REMARK    3  A    between atoms: C_5  and  C_15 
REMARK    4  A    between atoms: C_15  and  N_8 
ROOT
ATOM      1  C   UNL d   1       1.007   1.526   0.840  0.00  0.00     0.050 A 
ATOM      2  C   UNL d   1       0.738   0.936   2.090  0.00  0.00     0.045 A 
ATOM      3  C   UNL d   1       0.213   1.694   3.137  0.00  0.00     0.037 A 
ATOM      4  C   UNL d   1       0.772   2.899   0.663  0.00  0.00     0.016 A 
ATOM      5  C   UNL d   1       0.292   3.670   1.717  0.00  0.00     0.003 A 
ATOM      6  C   UNL d   1       0.019   3.069   2.947  0.00  0.00     0.029 A 
ENDROOT
BRANCH   3   7
ATOM      7  N   UNL d   1      -0.106   1.185   4.404  0.00  0.00    -0.309 N 
ATOM      8  C   UNL d   1      -0.258  -0.068   4.913  0.00  0.00     0.320 C 
ATOM      9  N   UNL d   1      -0.357  -1.120   4.052  0.00  0.00    -0.342 N 
ATOM     10  O   UNL d   1      -0.375  -0.188   6.132  0.00  0.00    -0.247 OA
ATOM     11  H   UNL d   1      -0.794  -0.882   3.176  0.00  0.00     0.164 HD
ATOM     12  H   UNL d   1      -0.253   1.869   5.136  0.00  0.00     0.170 HD
BRANCH   9  13
ATOM     13  C   UNL d   1      -0.747  -2.397   4.613  0.00  0.00     0.129 C 
BRANCH  13  14
ATOM     14  C   UNL d   1      -0.805  -3.529   3.636  0.00  0.00     0.003 A 
ATOM     15  C   UNL d   1       0.464  -4.100   3.051  0.00  0.00     0.007 A 
ATOM     16  C   UNL d   1      -0.535  -3.428   2.153  0.00  0.00     0.007 A 
ENDBRANCH  13  14
ENDBRANCH   9  13
ENDBRANCH   3   7
BRANCH   1  17
ATOM     17  C   UNL d   1       1.516   0.699  -0.313  0.00  0.00     0.417 C 
ATOM     18  F   UNL d   1       1.869  -0.569   0.039  0.00  0.00    -0.166 F 
ATOM     19  F   UNL d   1       2.612   1.242  -0.910  0.00  0.00    -0.166 F 
ATOM     20  F   UNL d   1       0.582   0.564  -1.296  0.00  0.00    -0.166 F 
ENDBRANCH   1  17
TORSDOF 4
