REMARK  1 active torsions:
REMARK  status: ('A' for Active; 'I' for Inactive)
REMARK    1  A    between atoms: C_2  and  N_1 
ROOT
ATOM      1  C   UNL d   1      -0.009   2.337  -0.001  0.00  0.00     0.084 A 
ATOM      2  C   UNL d   1      -0.663   3.094   0.990  0.00  0.00     0.146 A 
ATOM      3  C   UNL d   1      -0.688   4.489   0.958  0.00  0.00     0.086 A 
ATOM      4  C   UNL d   1       0.660   3.051  -1.012  0.00  0.00     0.036 A 
ATOM      5  C   UNL d   1      -0.037   5.156  -0.064  0.00  0.00     0.119 A 
ATOM      6  F   UNL d   1      -1.209   2.510   2.064  0.00  0.00    -0.204 F 
ATOM      7  C   UNL d   1       0.644   4.451  -1.045  0.00  0.00     0.045 A 
ATOM      8  F   UNL d   1      -0.049   6.494  -0.097  0.00  0.00    -0.206 F 
ENDROOT
BRANCH   1   9
ATOM      9  N   UNL d   1       0.000   0.912   0.017  0.00  0.00    -0.242 N 
ATOM     10  C   UNL d   1       0.901   0.117  -0.639  0.00  0.00     0.255 A 
ATOM     11  C   UNL d   1       0.550  -1.279  -0.362  0.00  0.00     0.080 A 
ATOM     12  O   UNL d   1       1.867   0.399  -1.327  0.00  0.00    -0.268 OA
ATOM     13  C   UNL d   1      -0.535  -1.280   0.406  0.00  0.00     0.080 A 
ATOM     14  C   UNL d   1      -0.942   0.116   0.613  0.00  0.00     0.255 A 
ATOM     15  O   UNL d   1      -2.009   0.378   1.138  0.00  0.00    -0.268 OA
ENDBRANCH   1   9
TORSDOF 1
