REMARK  4 active torsions:
REMARK  status: ('A' for Active; 'I' for Inactive)
REMARK    1  A    between atoms: C_13  and  C_5 
REMARK    2  A    between atoms: N_12  and  C_7 
REMARK    3  A    between atoms: O_21  and  C_13 
REMARK    4  A    between atoms: C_24  and  O_21 
ROOT
ATOM      1  C   UNL d   1       1.525  -0.878  -0.023  0.00  0.00     0.162 A 
ATOM      2  N   UNL d   1       0.868   0.331  -0.092  0.00  0.00    -0.221 N 
ATOM      3  N   UNL d   1       0.862  -2.068   0.036  0.00  0.00    -0.325 N 
ATOM      4  HN  UNL d   1       1.373  -2.951   0.072  1.00  0.00     0.169 HD
ATOM      5  C   UNL d   1       2.859  -0.507  -0.022  0.00  0.00     0.167 A 
ATOM      6  N   UNL d   1       1.721   1.368  -0.164  0.00  0.00    -0.013 NA
ATOM      7  C   UNL d   1      -0.450  -2.049   0.044  0.00  0.00     0.117 A 
ATOM      8  N   UNL d   1       2.947   0.870  -0.121  0.00  0.00    -0.275 N 
ATOM      9  HN  UNL d   1       3.811   1.411  -0.154  1.00  0.00     0.184 HD
ATOM     10  C   UNL d   1      -1.233  -0.753   0.059  0.00  0.00     0.036 A 
ATOM     11  C   UNL d   1      -0.521   0.445  -0.044  0.00  0.00     0.070 A 
ATOM     12  C   UNL d   1      -2.621  -0.701   0.195  0.00  0.00     0.017 A 
ATOM     13  C   UNL d   1      -1.167   1.684  -0.061  0.00  0.00     0.032 A 
ATOM     14  C   UNL d   1      -3.281   0.532   0.175  0.00  0.00     0.001 A 
ATOM     15  C   UNL d   1      -2.556   1.718   0.038  0.00  0.00     0.002 A 
ENDROOT
BRANCH   7  16
ATOM     16  N   UNL d   1      -1.115  -3.259   0.021  0.00  0.00    -0.363 N 
ATOM     17  C   UNL d   1      -1.931  -3.664  -1.130  0.00  0.00     0.154 C 
ATOM     18  C   UNL d   1      -1.961  -5.199  -1.276  0.00  0.00     0.291 C 
ATOM     19  N   UNL d   1      -2.397  -5.870  -0.031  0.00  0.00     0.087 N 
ATOM     20  C   UNL d   1      -1.478  -5.483   1.064  0.00  0.00     0.291 C 
ATOM     21  C   UNL d   1      -2.400  -7.321  -0.209  0.00  0.00     0.310 C 
ATOM     22  C   UNL d   1      -1.423  -3.954   1.275  0.00  0.00     0.154 C 
ENDBRANCH   7  16
BRANCH   5  23
ATOM     23  C   UNL d   1       4.028  -1.354   0.116  0.00  0.00     0.315 C 
ATOM     24  O   UNL d   1       3.998  -2.569   0.282  0.00  0.00    -0.257 OA
BRANCH  23  25
ATOM     25  O   UNL d   1       5.182  -0.617   0.123  0.00  0.00    -0.317 OA
BRANCH  25  26
ATOM     26  C   UNL d   1       6.350  -1.286   0.613  0.00  0.00     0.175 C 
ATOM     27  C   UNL d   1       6.402  -1.118   2.121  0.00  0.00     0.034 C 
ENDBRANCH  25  26
ENDBRANCH  23  25
ENDBRANCH   5  23
TORSDOF 4
