REMARK  4 active torsions:
REMARK  status: ('A' for Active; 'I' for Inactive)
REMARK    1  A    between atoms: C_2  and  C_1 
REMARK    2  A    between atoms: C_3  and  C_1 
REMARK    3  A    between atoms: S_9  and  C_4 
REMARK    4  A    between atoms: C_7  and  S_9 
ROOT
ATOM      1  C   UNL d   1       0.303   0.621  -1.312  0.00  0.00     0.063 C 
ATOM      2  C   UNL d   1       0.924   1.160  -2.372  0.00  0.00     0.056 C 
ENDROOT
BRANCH   1   3
ATOM      3  C   UNL d   1       1.080   0.092  -0.162  0.00  0.00     0.182 C 
ATOM      4  O   UNL d   1       2.255   0.385   0.022  0.00  0.00    -0.288 OA
BRANCH   3   5
ATOM      5  C   UNL d   1       0.357  -0.769   0.816  0.00  0.00     0.015 A 
ATOM      6  C   UNL d   1       0.762  -0.737   2.156  0.00  0.00     0.034 A 
ATOM      7  C   UNL d   1       0.106  -1.533   3.095  0.00  0.00     0.011 A 
ATOM      8 BR   UNL d   1       0.633  -1.474   4.910  0.00  0.00    -0.051 Br
ATOM      9  C   UNL d   1      -0.940  -2.372   2.710  0.00  0.00     0.019 A 
ATOM     10  C   UNL d   1      -1.330  -2.421   1.372  0.00  0.00     0.002 A 
ATOM     11  C   UNL d   1      -0.682  -1.624   0.424  0.00  0.00     0.015 A 
ENDBRANCH   3   5
ENDBRANCH   1   3
BRANCH   2  12
ATOM     12  S   UNL d   1      -0.017   1.816  -3.673  0.00  0.00    -0.084 SA
BRANCH  12  13
ATOM     13  C   UNL d   1       1.221   2.274  -4.878  0.00  0.00     0.073 A 
ATOM     14  N   UNL d   1       2.395   1.604  -4.914  0.00  0.00    -0.360 N 
ATOM     15  C   UNL d   1       3.263   1.933  -5.898  0.00  0.00     0.089 A 
ATOM     16  HN  UNL d   1       2.616   0.882  -4.228  1.00  0.00     0.166 HD
ATOM     17  C   UNL d   1       3.015   2.896  -6.862  0.00  0.00     0.017 A 
ATOM     18  C   UNL d   1       1.807   3.578  -6.808  0.00  0.00     0.004 A 
ATOM     19  C   UNL d   1       0.896   3.265  -5.803  0.00  0.00     0.037 A 
ENDBRANCH  12  13
ENDBRANCH   2  12
TORSDOF 4
