REMARK  0 active torsions:
REMARK  status: ('A' for Active; 'I' for Inactive)
ROOT
ATOM      1  N   UNL d   1       2.820   0.012   0.003  0.00  0.00    -0.284 N 
ATOM      2  C   UNL d   1       2.172   1.244   0.002  0.00  0.00     0.261 A 
ATOM      3  C   UNL d   1       2.181  -1.228  -0.002  0.00  0.00     0.261 A 
ATOM      4  C   UNL d   1       0.692   1.223  -0.000  0.00  0.00     0.044 A 
ATOM      5  C   UNL d   1       0.699  -1.220  -0.001  0.00  0.00     0.044 A 
ATOM      6  C   UNL d   1       0.013   0.000  -0.001  0.00  0.00     0.005 A 
ATOM      7  O   UNL d   1       2.780  -2.301  -0.006  0.00  0.00    -0.267 OA
ATOM      8  O   UNL d   1       2.751   2.328   0.002  0.00  0.00    -0.267 OA
ATOM      9  C   UNL d   1      -1.403  -0.002  -0.001  0.00  0.00    -0.024 A 
ATOM     10  C   UNL d   1       4.272  -0.000   0.007  0.00  0.00     0.163 C 
ATOM     11  C   UNL d   1      -0.002  -2.433  -0.001  0.00  0.00     0.018 A 
ATOM     12  C   UNL d   1      -0.013   2.434  -0.001  0.00  0.00     0.018 A 
ATOM     13  C   UNL d   1      -1.404   2.431  -0.001  0.00  0.00     0.002 A 
ATOM     14  C   UNL d   1      -1.395  -2.433  -0.000  0.00  0.00     0.002 A 
ATOM     15  C   UNL d   1      -2.091  -1.224  -0.001  0.00  0.00     0.012 A 
ATOM     16  C   UNL d   1      -2.095   1.219  -0.001  0.00  0.00     0.012 A 
ENDROOT
TORSDOF 0
