REMARK  5 active torsions:
REMARK  status: ('A' for Active; 'I' for Inactive)
REMARK    1  A    between atoms: N_14  and  C_3 
REMARK    2  A    between atoms: N_12  and  C_15 
REMARK    3  A    between atoms: C_19  and  N_14 
REMARK    4  A    between atoms: C_15  and  C_16 
REMARK    5  A    between atoms: C_16  and  C_19 
ROOT
ATOM      1  C   UNL d   1       0.185   0.952   0.168  0.00  0.00     0.036 A 
ATOM      2  C   UNL d   1      -0.034  -0.414   0.089  0.00  0.00     0.088 A 
ATOM      3  C   UNL d   1       1.531   1.369   0.206  0.00  0.00     0.094 A 
ATOM      4  N   UNL d   1       0.902  -1.373   0.021  0.00  0.00    -0.346 N 
ATOM      5  HN  UNL d   1       0.694  -2.368  -0.054  1.00  0.00     0.167 HD
ATOM      6  N   UNL d   1       2.497   0.423   0.155  0.00  0.00    -0.342 N 
ATOM      7  HN  UNL d   1       3.482   0.686   0.186  1.00  0.00     0.167 HD
ATOM      8  S   UNL d   1      -1.694  -0.814   0.080  0.00  0.00    -0.083 SA
ATOM      9  C   UNL d   1       2.139  -0.867   0.062  0.00  0.00     0.182 A 
ATOM     10  C   UNL d   1      -2.155   0.831   0.181  0.00  0.00     0.053 A 
ATOM     11  C   UNL d   1      -1.062   1.667   0.214  0.00  0.00     0.025 A 
ENDROOT
BRANCH   3  12
ATOM     12  N   UNL d   1       1.867   2.724   0.307  0.00  0.00    -0.278 NA
ATOM     13  H   UNL d   1       1.184   3.304  -0.168  0.00  0.00     0.129 HD
BRANCH  12  14
ATOM     14  C   UNL d   1       3.256   3.062   0.017  0.00  0.00     0.095 C 
BRANCH  14  15
ATOM     15  C   UNL d   1       3.420   4.586   0.048  0.00  0.00     0.045 C 
BRANCH  15  16
ATOM     16  C   UNL d   1       4.850   5.037  -0.278  0.00  0.00     0.273 C 
BRANCH  16  17
ATOM     17  N   UNL d   1       5.359   4.438  -1.512  0.00  0.00     0.092 N 
ATOM     18  C   UNL d   1       4.676   4.914  -2.730  0.00  0.00     0.298 C 
ATOM     19  C   UNL d   1       5.199   4.138  -3.949  0.00  0.00     0.198 C 
ATOM     20  O   UNL d   1       6.612   4.319  -4.108  0.00  0.00    -0.388 OA
ATOM     21  C   UNL d   1       7.302   3.888  -2.925  0.00  0.00     0.198 C 
ATOM     22  C   UNL d   1       6.810   4.644  -1.680  0.00  0.00     0.298 C 
ENDBRANCH  16  17
ENDBRANCH  15  16
ENDBRANCH  14  15
ENDBRANCH  12  14
ENDBRANCH   3  12
TORSDOF 5
