REMARK  3 active torsions:
REMARK  status: ('A' for Active; 'I' for Inactive)
REMARK    1  A    between atoms: C_2  and  C_1 
REMARK       I    between atoms: N_4  and  C_1 
REMARK    2  A    between atoms: C_3  and  N_5 
REMARK    3  A    between atoms: N_5  and  N_4 
ROOT
ATOM      1  C   UNL d   1       0.894  -0.159  -0.042  0.00  0.00     0.293 C 
ATOM      2  N   UNL d   1       0.281  -1.130   0.728  0.00  0.00    -0.262 N 
ATOM      3  O   UNL d   1       0.244   0.573  -0.789  0.00  0.00    -0.264 OA
ATOM      4  H   UNL d   1       0.811  -1.772   1.310  0.00  0.00     0.190 HD
ENDROOT
BRANCH   2   5
ATOM      5  N   UNL d   1      -1.103  -1.313   0.600  0.00  0.00    -0.274 N 
ATOM      6  H   UNL d   1      -1.573  -0.557   0.108  0.00  0.00     0.189 HD
BRANCH   5   7
ATOM      7  C   UNL d   1      -1.797  -2.162   1.416  0.00  0.00     0.186 C 
ATOM      8  S   UNL d   1      -1.108  -3.157   2.571  0.00  0.00    -0.040 SA
ATOM      9  N   UNL d   1      -3.145  -2.222   1.238  0.00  0.00    -0.370 N 
ATOM     10  C   UNL d   1      -3.974  -1.603   0.224  0.00  0.00     0.148 C 
ATOM     11  H   UNL d   1      -3.605  -2.887   1.851  0.00  0.00     0.161 HD
ENDBRANCH   5   7
ENDBRANCH   2   5
BRANCH   1  12
ATOM     12  C   UNL d   1       2.329  -0.087   0.102  0.00  0.00     0.144 A 
ATOM     13  O   UNL d   1       2.959  -0.871   1.032  0.00  0.00    -0.317 OA
ATOM     14  C   UNL d   1       4.285  -0.583   0.965  0.00  0.00     0.143 A 
ATOM     15  C   UNL d   1       4.525   0.364  -0.002  0.00  0.00     0.027 A 
ATOM     16  C   UNL d   1       3.265   0.685  -0.559  0.00  0.00     0.045 A 
ENDBRANCH   1  12
TORSDOF 3
