REMARK  2 active torsions:
REMARK  status: ('A' for Active; 'I' for Inactive)
REMARK    1  A    between atoms: C_12  and  C_9 
REMARK    2  A    between atoms: O_19  and  C_18 
ROOT
ATOM      1  C   UNL d   1       0.220   0.539   0.038  0.00  0.00     0.172 A 
ATOM      2  N   UNL d   1       0.442  -0.796   0.045  0.00  0.00    -0.242 N 
ATOM      3  S   UNL d   1      -1.458   0.849  -0.012  0.00  0.00    -0.032 SA
ATOM      4  C   UNL d   1      -1.669  -0.926  -0.045  0.00  0.00     0.110 A 
ATOM      5  N   UNL d   1      -0.591  -1.663   0.003  0.00  0.00    -0.284 N 
ATOM      6  HN  UNL d   1      -0.541  -2.682   0.009  1.00  0.00     0.188 HD
ATOM      7  N   UNL d   1       1.306   1.257   0.029  0.00  0.00    -0.333 N 
ATOM      8  HN  UNL d   1       1.395   2.273   0.023  1.00  0.00     0.168 HD
ATOM      9  C   UNL d   1       2.317   0.299   0.031  0.00  0.00     0.062 A 
ATOM     10  C   UNL d   1       1.787  -0.985   0.054  0.00  0.00     0.149 A 
ATOM     11  C   UNL d   1      -3.017  -1.440  -0.145  0.00  0.00     0.040 A 
ATOM     12  S   UNL d   1      -3.268  -3.143  -0.125  0.00  0.00    -0.099 SA
ATOM     13  C   UNL d   1      -4.225  -0.774  -0.277  0.00  0.00     0.022 A 
ATOM     14  C   UNL d   1      -4.957  -2.977  -0.306  0.00  0.00     0.050 A 
ATOM     15  C   UNL d   1      -5.339  -1.659  -0.375  0.00  0.00     0.008 A 
ENDROOT
BRANCH   9  16
ATOM     16  C   UNL d   1       3.733   0.646  -0.010  0.00  0.00    -0.005 A 
ATOM     17  C   UNL d   1       4.106   1.999  -0.085  0.00  0.00     0.050 A 
ATOM     18  C   UNL d   1       5.453   2.369  -0.131  0.00  0.00     0.069 A 
ATOM     19  C   UNL d   1       6.435   1.379  -0.107  0.00  0.00     0.037 A 
ATOM     20  C   UNL d   1       6.082   0.033  -0.035  0.00  0.00     0.004 A 
ATOM     21  C   UNL d   1       4.736  -0.332   0.014  0.00  0.00     0.014 A 
BRANCH  18  22
ATOM     22  O   UNL d   1       5.934   3.648  -0.197  0.00  0.00    -0.356 OA
ATOM     23  C   UNL d   1       4.973   4.696  -0.220  0.00  0.00     0.210 C 
ENDBRANCH  18  22
ENDBRANCH   9  16
TORSDOF 2
