REMARK  3 active torsions:
REMARK  status: ('A' for Active; 'I' for Inactive)
REMARK    1  A    between atoms: N_2  and  S_1 
REMARK    2  A    between atoms: C_8  and  S_1 
REMARK    3  A    between atoms: C_7  and  C_4 
ROOT
ATOM      1  N   UNL d   1       0.398  -1.526   0.005  0.00  0.00    -0.287 N 
ATOM      2  C   UNL d   1       0.850  -3.964  -0.282  0.00  0.00     0.049 A 
ATOM      3  C   UNL d   1       1.363  -2.562  -0.607  0.00  0.00     0.253 C 
ATOM      4  C   UNL d   1      -0.276  -4.295   0.445  0.00  0.00    -0.019 A 
ATOM      5  N   UNL d   1       1.465  -5.147  -0.625  0.00  0.00    -0.356 N 
ATOM      6  C   UNL d   1      -0.262  -5.691   0.689  0.00  0.00    -0.001 A 
ATOM      7  C   UNL d   1       0.841  -6.205   0.007  0.00  0.00     0.043 A 
ATOM      8  C   UNL d   1      -0.371  -1.989   1.223  0.00  0.00     0.141 C 
ATOM      9  C   UNL d   1      -1.194  -3.246   0.936  0.00  0.00     0.062 C 
ATOM     10  C   UNL d   1      -1.056  -6.567   1.455  0.00  0.00     0.014 A 
ATOM     11  C   UNL d   1       1.182  -7.563   0.045  0.00  0.00     0.030 A 
ATOM     12  C   UNL d   1      -0.713  -7.922   1.524  0.00  0.00     0.001 A 
ATOM     13  C   UNL d   1       0.387  -8.411   0.823  0.00  0.00     0.002 A 
ATOM     14  H   UNL d   1       2.321  -5.245  -1.156  0.00  0.00     0.166 HD
ENDROOT
BRANCH   1  15
ATOM     15  S   UNL d   1       0.817   0.117   0.163  0.00  0.00     0.261 S 
ATOM     16  O   UNL d   1       1.836   0.239   1.175  0.00  0.00    -0.200 OA
ATOM     17  O   UNL d   1      -0.426   0.845   0.310  0.00  0.00    -0.200 OA
BRANCH  15  18
ATOM     18  C   UNL d   1       1.471   0.625  -1.402  0.00  0.00     0.081 A 
ATOM     19  C   UNL d   1       2.755   1.174  -1.479  0.00  0.00     0.050 A 
ATOM     20  C   UNL d   1       3.185   1.755  -2.676  0.00  0.00     0.057 A 
ATOM     21 CL   UNL d   1       4.762   2.459  -2.707  0.00  0.00    -0.083 Cl
ATOM     22  C   UNL d   1       2.332   1.782  -3.789  0.00  0.00     0.055 A 
ATOM     23  C   UNL d   1       1.052   1.225  -3.702  0.00  0.00     0.027 A 
ATOM     24 CL   UNL d   1       2.786   2.514  -5.287  0.00  0.00    -0.083 Cl
ATOM     25  C   UNL d   1       0.616   0.650  -2.507  0.00  0.00     0.027 A 
ENDBRANCH  15  18
ENDBRANCH   1  15
BRANCH   3  26
ATOM     26  C   UNL d   1       2.911  -2.431  -0.414  0.00  0.00     0.413 C 
ATOM     27  F   UNL d   1       3.326  -1.394   0.321  0.00  0.00    -0.168 F 
ATOM     28  F   UNL d   1       3.470  -3.541   0.128  0.00  0.00    -0.168 F 
ATOM     29  F   UNL d   1       3.492  -2.288  -1.640  0.00  0.00    -0.168 F 
ENDBRANCH   3  26
TORSDOF 3
