REMARK  3 active torsions:
REMARK  status: ('A' for Active; 'I' for Inactive)
REMARK    1  A    between atoms: C_10  and  N_1 
REMARK    2  A    between atoms: C_7  and  C_2 
REMARK    3  A    between atoms: N_9  and  C_8 
ROOT
ATOM      1  N   UNL d   1       0.179  -0.720   1.133  0.00  0.00    -0.225 N 
ATOM      2  C   UNL d   1       1.124  -0.731   0.099  0.00  0.00     0.139 A 
ATOM      3  N   UNL d   1      -0.678   0.212  -0.611  0.00  0.00    -0.007 NA
ATOM      4  N   UNL d   1      -0.948  -0.140   0.633  0.00  0.00     0.001 NA
ATOM      5  N   UNL d   1       0.591  -0.142  -0.955  0.00  0.00    -0.270 N 
ATOM      6  HN  UNL d   1       1.043   0.017  -1.856  1.00  0.00     0.185 HD
ENDROOT
BRANCH   2   7
ATOM      7  C   UNL d   1       2.401  -1.322   0.208  0.00  0.00     0.068 C 
ATOM      8  C   UNL d   1       2.577  -2.604  -0.147  0.00  0.00     0.089 C 
BRANCH   8   9
ATOM      9  N   UNL d   1       3.722  -3.395  -0.096  0.00  0.00    -0.390 N 
ATOM     10  C   UNL d   1       3.693  -4.757  -0.654  0.00  0.00     0.122 C 
ATOM     11  C   UNL d   1       3.438  -5.769   0.460  0.00  0.00     0.020 C 
ATOM     12  C   UNL d   1       4.682  -6.108   1.277  0.00  0.00     0.002 C 
ATOM     13  C   UNL d   1       5.382  -4.909   1.917  0.00  0.00     0.002 C 
ATOM     14  C   UNL d   1       5.989  -3.950   0.893  0.00  0.00     0.020 C 
ATOM     15  C   UNL d   1       5.019  -2.886   0.377  0.00  0.00     0.122 C 
ENDBRANCH   8   9
ENDBRANCH   2   7
BRANCH   1  16
ATOM     16  C   UNL d   1       0.199  -1.185   2.483  0.00  0.00     0.056 A 
ATOM     17  C   UNL d   1       1.355  -1.674   3.104  0.00  0.00     0.031 A 
ATOM     18  C   UNL d   1       1.310  -2.145   4.421  0.00  0.00     0.002 A 
ATOM     19  C   UNL d   1       0.116  -2.131   5.135  0.00  0.00     0.000 A 
ATOM     20  C   UNL d   1      -1.037  -1.630   4.540  0.00  0.00     0.002 A 
ATOM     21  C   UNL d   1      -0.998  -1.155   3.226  0.00  0.00     0.031 A 
ENDBRANCH   1  16
TORSDOF 3
