REMARK  7 active torsions:
REMARK  status: ('A' for Active; 'I' for Inactive)
REMARK    1  A    between atoms: S_2  and  C_1 
REMARK    2  A    between atoms: C_15  and  S_2 
REMARK    3  A    between atoms: C_14  and  C_3 
REMARK    4  A    between atoms: C_5  and  N_13 
REMARK    5  A    between atoms: C_12  and  C_7 
REMARK    6  A    between atoms: C_18  and  C_8 
REMARK       I    between atoms: N_13  and  C_12 
REMARK    7  A    between atoms: O_26  and  C_14 
ROOT
ATOM      1  C   UNL d   1       0.504  -2.474   0.521  0.00  0.00     0.263 C 
ATOM      2  N   UNL d   1      -0.520  -3.229  -0.029  0.00  0.00    -0.321 N 
ATOM      3  O   UNL d   1       1.495  -2.982   1.041  0.00  0.00    -0.267 OA
ATOM      4  H   UNL d   1      -1.135  -2.766  -0.692  0.00  0.00     0.169 HD
ENDROOT
BRANCH   1   5
ATOM      5  C   UNL d   1       0.361  -1.016   0.374  0.00  0.00     0.080 A 
ATOM      6  C   UNL d   1       1.361  -0.042   0.467  0.00  0.00    -0.017 A 
ATOM      7  C   UNL d   1       0.795   1.292   0.399  0.00  0.00     0.078 A 
ATOM      8  C   UNL d   1       2.810  -0.394   0.637  0.00  0.00     0.051 C 
ATOM      9  C   UNL d   1      -0.573   1.262   0.212  0.00  0.00     0.075 A 
ATOM     10  S   UNL d   1      -1.185  -0.320   0.114  0.00  0.00    -0.094 SA
BRANCH   7  11
ATOM     11  S   UNL d   1       1.637   2.819   0.532  0.00  0.00     0.207 S 
ATOM     12  O   UNL d   1       0.615   3.772   0.910  0.00  0.00    -0.217 OA
ATOM     13  O   UNL d   1       2.795   2.575   1.366  0.00  0.00    -0.217 OA
BRANCH  11  14
ATOM     14  C   UNL d   1       2.174   3.209  -1.117  0.00  0.00     0.064 A 
ATOM     15  C   UNL d   1       1.385   4.044  -1.917  0.00  0.00     0.025 A 
ATOM     16  C   UNL d   1       1.820   4.387  -3.200  0.00  0.00     0.025 A 
ATOM     17  C   UNL d   1       3.040   3.901  -3.671  0.00  0.00     0.034 A 
ATOM     18  C   UNL d   1       3.838   3.088  -2.866  0.00  0.00     0.025 A 
ATOM     19 CL   UNL d   1       3.571   4.320  -5.253  0.00  0.00    -0.084 Cl
ATOM     20  C   UNL d   1       3.410   2.745  -1.578  0.00  0.00     0.025 A 
ENDBRANCH  11  14
ENDBRANCH   7  11
ENDBRANCH   1   5
BRANCH   2  21
ATOM     21  C   UNL d   1      -0.639  -4.615   0.081  0.00  0.00     0.059 A 
ATOM     22  C   UNL d   1      -1.292  -5.394  -0.862  0.00  0.00     0.107 A 
ATOM     23  S   UNL d   1      -1.279  -7.049  -0.417  0.00  0.00    -0.081 SA
ATOM     24  C   UNL d   1      -0.476  -6.755   1.067  0.00  0.00     0.018 A 
ATOM     25  C   UNL d   1      -0.144  -5.413   1.165  0.00  0.00     0.051 A 
BRANCH  22  26
ATOM     26  C   UNL d   1      -1.892  -5.050  -2.140  0.00  0.00     0.302 C 
ATOM     27  O   UNL d   1      -2.332  -5.835  -2.972  0.00  0.00    -0.259 OA
BRANCH  26  28
ATOM     28  O   UNL d   1      -1.881  -3.691  -2.319  0.00  0.00    -0.322 OA
ATOM     29  C   UNL d   1      -2.365  -3.272  -3.597  0.00  0.00     0.213 C 
ENDBRANCH  26  28
ENDBRANCH  22  26
BRANCH  24  30
ATOM     30  C   UNL d   1      -0.214  -7.859   2.013  0.00  0.00    -0.019 A 
ATOM     31  C   UNL d   1      -1.079  -8.966   2.118  0.00  0.00     0.014 A 
ATOM     32  C   UNL d   1      -0.827 -10.002   3.019  0.00  0.00     0.024 A 
ATOM     33  C   UNL d   1       0.292  -9.945   3.841  0.00  0.00     0.034 A 
ATOM     34  C   UNL d   1       1.162  -8.862   3.763  0.00  0.00     0.024 A 
ATOM     35 CL   UNL d   1       0.603 -11.222   4.955  0.00  0.00    -0.084 Cl
ATOM     36  C   UNL d   1       0.908  -7.824   2.855  0.00  0.00     0.014 A 
ENDBRANCH  24  30
ENDBRANCH   2  21
TORSDOF 7
