REMARK  5 active torsions:
REMARK  status: ('A' for Active; 'I' for Inactive)
REMARK    1  A    between atoms: C_13  and  N_2 
REMARK    2  A    between atoms: C_11  and  C_3 
REMARK    3  A    between atoms: C_12  and  C_6 
REMARK    4  A    between atoms: O_19  and  C_11 
REMARK    5  A    between atoms: C_28  and  O_19 
ROOT
ATOM      1  C   UNL d   1      -2.553   0.058   0.880  0.00  0.00     0.196 C 
ATOM      2  N   UNL d   1      -3.273   1.297   1.306  0.00  0.00    -0.265 N 
ATOM      3  C   UNL d   1      -4.836  -0.176   1.058  0.00  0.00     0.113 C 
ATOM      4  N   UNL d   1      -4.642   1.107   1.153  0.00  0.00    -0.294 N 
ATOM      5  HN  UNL d   1      -5.357   1.834   1.122  1.00  0.00     0.187 HD
ATOM      6  C   UNL d   1      -3.619  -0.996   1.266  0.00  0.00     0.122 C 
ATOM      7  C   UNL d   1      -1.274  -0.273   1.641  0.00  0.00     0.199 C 
ATOM      8  C   UNL d   1      -2.039   0.255  -0.552  0.00  0.00     0.199 C 
ATOM      9  C   UNL d   1      -0.565   0.366  -0.488  0.00  0.00     0.027 C 
ATOM     10  C   UNL d   1      -0.135  -0.109   0.743  0.00  0.00     0.027 C 
ATOM     11  O   UNL d   1      -2.675   0.353  -1.585  0.00  0.00    -0.289 OA
ATOM     12  O   UNL d   1      -1.150  -0.654   2.793  0.00  0.00    -0.289 OA
ATOM     13  C   UNL d   1       0.333   0.955  -1.358  0.00  0.00     0.016 C 
ATOM     14  C   UNL d   1       1.209  -0.255   1.048  0.00  0.00     0.016 C 
ATOM     15  C   UNL d   1       1.696   0.935  -1.012  0.00  0.00     0.001 C 
ATOM     16  C   UNL d   1       2.134   0.271   0.150  0.00  0.00     0.001 C 
ENDROOT
BRANCH   2  17
ATOM     17  C   UNL d   1      -2.931   2.631   1.467  0.00  0.00     0.052 A 
ATOM     18  C   UNL d   1      -3.837   3.474   2.157  0.00  0.00     0.031 A 
ATOM     19  C   UNL d   1      -3.684   4.858   2.242  0.00  0.00     0.002 A 
ATOM     20  C   UNL d   1      -2.586   5.454   1.648  0.00  0.00     0.000 A 
ATOM     21  C   UNL d   1      -1.633   4.654   1.023  0.00  0.00     0.002 A 
ATOM     22  C   UNL d   1      -1.792   3.258   0.957  0.00  0.00     0.031 A 
ENDBRANCH   2  17
BRANCH   6  23
ATOM     23  C   UNL d   1      -3.598  -2.493   1.072  0.00  0.00    -0.044 A 
ATOM     24  C   UNL d   1      -4.167  -3.175  -0.006  0.00  0.00     0.010 A 
ATOM     25  C   UNL d   1      -4.348  -4.569   0.051  0.00  0.00     0.024 A 
ATOM     26  C   UNL d   1      -3.929  -5.298   1.162  0.00  0.00     0.034 A 
ATOM     27  C   UNL d   1      -3.297  -4.653   2.214  0.00  0.00     0.024 A 
ATOM     28 CL   UNL d   1      -4.222  -6.992   1.262  0.00  0.00    -0.084 Cl
ATOM     29  C   UNL d   1      -3.126  -3.269   2.160  0.00  0.00     0.010 A 
ENDBRANCH   6  23
BRANCH   3  30
ATOM     30  C   UNL d   1      -6.242  -0.727   1.036  0.00  0.00     0.308 C 
ATOM     31  O   UNL d   1      -6.620  -1.562   0.237  0.00  0.00    -0.258 OA
BRANCH  30  32
ATOM     32  O   UNL d   1      -6.952  -0.118   2.009  0.00  0.00    -0.317 OA
BRANCH  32  33
ATOM     33  C   UNL d   1      -8.338  -0.468   2.115  0.00  0.00     0.175 C 
ATOM     34  C   UNL d   1      -9.160   0.110   0.976  0.00  0.00     0.034 C 
ENDBRANCH  32  33
ENDBRANCH  30  32
ENDBRANCH   3  30
TORSDOF 5
