REMARK  2 active torsions:
REMARK  status: ('A' for Active; 'I' for Inactive)
REMARK    1  A    between atoms: N_2  and  C_1 
REMARK       I    between atoms: C_4  and  N_2 
REMARK    2  A    between atoms: C_11  and  C_4 
ROOT
ATOM      1  C   UNL d   1       0.946  -1.139  -0.127  0.00  0.00     0.043 A 
ATOM      2  C   UNL d   1      -0.449  -1.236  -0.039  0.00  0.00     0.072 A 
ATOM      3  C   UNL d   1       1.538   0.145  -0.119  0.00  0.00    -0.035 A 
ATOM      4  C   UNL d   1       0.713   1.287  -0.015  0.00  0.00     0.012 A 
ATOM      5  C   UNL d   1      -1.238  -0.095   0.050  0.00  0.00     0.118 A 
ATOM      6  C   UNL d   1      -0.671   1.167   0.061  0.00  0.00     0.043 A 
ATOM      7  F   UNL d   1      -2.569  -0.218   0.139  0.00  0.00    -0.206 F 
ATOM      8  C   UNL d   1       3.022   0.390  -0.178  0.00  0.00     0.050 C 
ENDROOT
BRANCH   1   9
ATOM      9  N   UNL d   1       1.766  -2.293  -0.210  0.00  0.00    -0.327 N 
ATOM     10  C   UNL d   1       1.350  -3.594  -0.454  0.00  0.00     0.221 C 
ATOM     11  O   UNL d   1       0.199  -3.959  -0.670  0.00  0.00    -0.273 OA
ATOM     12  H   UNL d   1       2.765  -2.149  -0.151  0.00  0.00     0.169 HD
BRANCH  10  13
ATOM     13  C   UNL d   1       2.507  -4.579  -0.444  0.00  0.00     0.098 C 
ATOM     14  C   UNL d   1       2.056  -5.984  -0.813  0.00  0.00     0.014 C 
ENDBRANCH  10  13
ENDBRANCH   1   9
TORSDOF 2
