REMARK  5 active torsions:
REMARK  status: ('A' for Active; 'I' for Inactive)
REMARK    1  A    between atoms: C_2  and  C_1 
REMARK    2  A    between atoms: C_6  and  C_5 
REMARK    3  A    between atoms: C_10  and  C_6 
REMARK    4  A    between atoms: S_12  and  C_7 
REMARK    5  A    between atoms: C_8  and  S_12 
ROOT
ATOM      1  S   UNL d   1      -1.054  -0.228   5.711  0.00  0.00    -0.084 SA
ENDROOT
BRANCH   1   2
ATOM      2  C   UNL d   1      -1.135  -1.880   6.239  0.00  0.00     0.056 C 
ATOM      3  C   UNL d   1      -1.507  -2.189   7.490  0.00  0.00     0.063 C 
BRANCH   3   4
ATOM      4  C   UNL d   1      -1.537  -3.614   7.918  0.00  0.00     0.182 C 
ATOM      5  O   UNL d   1      -0.958  -4.490   7.284  0.00  0.00    -0.288 OA
BRANCH   4   6
ATOM      6  C   UNL d   1      -2.259  -3.955   9.175  0.00  0.00     0.014 A 
ATOM      7  C   UNL d   1      -3.380  -3.242   9.611  0.00  0.00     0.016 A 
ATOM      8  C   UNL d   1      -4.052  -3.633  10.775  0.00  0.00     0.007 A 
ATOM      9  C   UNL d   1      -3.617  -4.742  11.514  0.00  0.00    -0.062 A 
ATOM     10  C   UNL d   1      -2.495  -5.452  11.074  0.00  0.00     0.007 A 
ATOM     11  C   UNL d   1      -4.363  -5.159  12.747  0.00  0.00     0.048 C 
ATOM     12  C   UNL d   1      -1.824  -5.066   9.910  0.00  0.00     0.016 A 
ENDBRANCH   4   6
ENDBRANCH   3   4
ENDBRANCH   1   2
BRANCH   1  13
ATOM     13  C   UNL d   1       0.048  -0.348   4.306  0.00  0.00     0.073 A 
ATOM     14  C   UNL d   1       0.839   0.749   3.977  0.00  0.00     0.038 A 
ATOM     15  C   UNL d   1       1.704   0.656   2.884  0.00  0.00     0.020 A 
ATOM     16  C   UNL d   1       1.758  -0.526   2.142  0.00  0.00     0.063 A 
ATOM     17  C   UNL d   1       0.922  -1.559   2.534  0.00  0.00     0.105 A 
ATOM     18  N   UNL d   1       0.073  -1.492   3.587  0.00  0.00    -0.360 N 
ATOM     19  HN  UNL d   1      -0.528  -2.279   3.830  1.00  0.00     0.166 HD
BRANCH  16  20
ATOM     20  C   UNL d   1       2.682  -0.686   0.973  0.00  0.00     0.418 C 
ATOM     21  F   UNL d   1       2.578  -1.895   0.356  0.00  0.00    -0.166 F 
ATOM     22  F   UNL d   1       3.991  -0.560   1.326  0.00  0.00    -0.166 F 
ATOM     23  F   UNL d   1       2.466   0.246   0.005  0.00  0.00    -0.166 F 
ENDBRANCH  16  20
ENDBRANCH   1  13
TORSDOF 5
