REMARK  4 active torsions:
REMARK  status: ('A' for Active; 'I' for Inactive)
REMARK    1  A    between atoms: C_5  and  S_1 
REMARK    2  A    between atoms: N_12  and  S_1 
REMARK       I    between atoms: C_2  and  N_4 
REMARK    3  A    between atoms: C_3  and  C_2 
REMARK    4  A    between atoms: N_4  and  C_21 
ROOT
ATOM      1  C   UNL d   1      -1.200  -2.147  -6.103  0.00  0.00     0.256 C 
ATOM      2  N   UNL d   1      -1.034  -0.912  -5.499  0.00  0.00    -0.323 N 
ATOM      3  O   UNL d   1      -0.913  -3.242  -5.640  0.00  0.00    -0.267 OA
ATOM      4  H   UNL d   1      -1.276  -0.093  -6.041  0.00  0.00     0.169 HD
ENDROOT
BRANCH   1   5
ATOM      5  C   UNL d   1      -1.706  -2.087  -7.505  0.00  0.00     0.034 A 
ATOM      6  C   UNL d   1      -2.628  -1.122  -7.920  0.00  0.00     0.049 A 
ATOM      7  C   UNL d   1      -2.960  -0.985  -9.259  0.00  0.00     0.060 A 
ATOM      8  N   UNL d   1      -3.797   0.004  -9.622  0.00  0.00    -0.363 N 
ATOM      9  C   UNL d   1      -2.384  -1.858 -10.218  0.00  0.00     0.059 A 
ATOM     10  C   UNL d   1      -4.033   0.133 -10.946  0.00  0.00     0.105 A 
ATOM     11  HN  UNL d   1      -4.230   0.622  -8.936  1.00  0.00     0.165 HD
ATOM     12  C   UNL d   1      -3.455  -0.700 -11.882  0.00  0.00     0.105 A 
ATOM     13  N   UNL d   1      -2.634  -1.715 -11.533  0.00  0.00    -0.363 N 
ATOM     14  HN  UNL d   1      -2.225  -2.338 -12.229  1.00  0.00     0.165 HD
ATOM     15  C   UNL d   1      -1.532  -2.865  -9.784  0.00  0.00     0.033 A 
ATOM     16  C   UNL d   1      -1.188  -2.988  -8.437  0.00  0.00     0.019 A 
ENDBRANCH   1   5
BRANCH   2  17
ATOM     17  C   UNL d   1      -0.401  -0.643  -4.268  0.00  0.00     0.035 A 
ATOM     18  C   UNL d   1       0.117  -1.625  -3.419  0.00  0.00     0.031 A 
ATOM     19  C   UNL d   1       0.806  -1.270  -2.252  0.00  0.00     0.027 A 
ATOM     20  C   UNL d   1       0.962   0.077  -1.929  0.00  0.00     0.074 A 
ATOM     21  C   UNL d   1       0.433   1.070  -2.756  0.00  0.00     0.027 A 
ATOM     22  C   UNL d   1      -0.253   0.706  -3.917  0.00  0.00     0.031 A 
BRANCH  20  23
ATOM     23  S   UNL d   1       1.889   0.563  -0.505  0.00  0.00     0.239 S 
ATOM     24  O   UNL d   1       2.412   1.893  -0.711  0.00  0.00    -0.206 OA
ATOM     25  O   UNL d   1       2.726  -0.539  -0.076  0.00  0.00    -0.206 OA
BRANCH  23  26
ATOM     26  N   UNL d   1       0.686   0.715   0.651  0.00  0.00    -0.225 NA
ATOM     27  H   UNL d   1       0.481   1.699   0.823  0.00  0.00     0.136 HD
ATOM     28  H   UNL d   1       0.952   0.196   1.488  0.00  0.00     0.136 HD
ENDBRANCH  23  26
ENDBRANCH  20  23
ENDBRANCH   2  17
TORSDOF 4
