REMARK  2 active torsions:
REMARK  status: ('A' for Active; 'I' for Inactive)
REMARK    1  A    between atoms: C_5  and  C_1 
REMARK    2  A    between atoms: C_2  and  C_6 
ROOT
ATOM      1  C   UNL d   1       0.604  -0.844  -1.123  0.00  0.00     0.048 A 
ATOM      2  C   UNL d   1      -0.080  -2.569  -3.241  0.00  0.00     0.015 A 
ATOM      3  C   UNL d   1       1.008  -2.187  -1.107  0.00  0.00     0.017 A 
ATOM      4  C   UNL d   1      -0.176  -0.382  -2.196  0.00  0.00     0.017 A 
ATOM      5  C   UNL d   1       0.667  -3.045  -2.157  0.00  0.00     0.016 A 
ATOM      6  C   UNL d   1      -0.515  -1.239  -3.248  0.00  0.00     0.016 A 
ENDROOT
BRANCH   2   7
ATOM      7  C   UNL d   1      -0.369  -3.424  -4.407  0.00  0.00     0.148 C 
ATOM      8  N   UNL d   1      -0.945  -3.045  -5.503  0.00  0.00    -0.368 N 
ATOM      9  C   UNL d   1      -0.959  -4.257  -6.328  0.00  0.00     0.148 C 
ATOM     10  HN  UNL d   1      -1.304  -2.120  -5.737  1.00  0.00     0.161 HD
ATOM     11  C   UNL d   1      -0.188  -5.296  -5.546  0.00  0.00     0.197 C 
ATOM     12  O   UNL d   1       0.047  -4.705  -4.279  0.00  0.00    -0.334 OA
ENDBRANCH   2   7
BRANCH   1  13
ATOM     13  C   UNL d   1       1.019   0.107  -0.026  0.00  0.00     0.417 C 
ATOM     14  F   UNL d   1       1.795  -0.472   0.932  0.00  0.00    -0.166 F 
ATOM     15  F   UNL d   1      -0.048   0.642   0.633  0.00  0.00    -0.166 F 
ATOM     16  F   UNL d   1       1.736   1.164  -0.498  0.00  0.00    -0.166 F 
ENDBRANCH   1  13
TORSDOF 2
