REMARK  6 active torsions:
REMARK  status: ('A' for Active; 'I' for Inactive)
REMARK    1  A    between atoms: C_12  and  C_2 
REMARK    2  A    between atoms: S_9  and  C_5 
REMARK    3  A    between atoms: C_8  and  C_19 
REMARK       I    between atoms: N_13  and  C_8 
REMARK    4  A    between atoms: C_19  and  S_9 
REMARK    5  A    between atoms: N_10  and  N_13 
REMARK    6  A    between atoms: C_22  and  C_20 
ROOT
ATOM      1  S   UNL d   1       0.423  -2.748   0.492  0.00  0.00    -0.083 SA
ENDROOT
BRANCH   1   2
ATOM      2  C   UNL d   1       0.158  -1.045   0.275  0.00  0.00     0.163 A 
ATOM      3  N   UNL d   1      -0.994  -0.399   0.653  0.00  0.00    -0.315 N 
ATOM      4  C   UNL d   1      -0.826   0.926   0.285  0.00  0.00     0.134 A 
ATOM      5  C   UNL d   1      -2.149  -1.018   1.250  0.00  0.00     0.160 C 
ATOM      6  N   UNL d   1       0.364   1.034  -0.288  0.00  0.00    -0.283 N 
ATOM      7  N   UNL d   1       0.980  -0.195  -0.282  0.00  0.00    -0.278 N 
ATOM      8  HN  UNL d   1       0.760   1.892  -0.672  1.00  0.00     0.188 HD
ATOM      9  HN  UNL d   1       1.909  -0.406  -0.646  1.00  0.00     0.189 HD
BRANCH   4  10
ATOM     10  C   UNL d   1      -1.796   2.023   0.396  0.00  0.00     0.012 A 
ATOM     11  C   UNL d   1      -2.653   2.179   1.488  0.00  0.00     0.032 A 
ATOM     12  C   UNL d   1      -3.583   3.209   1.467  0.00  0.00     0.088 A 
ATOM     13  N   UNL d   1      -3.692   4.102   0.463  0.00  0.00    -0.375 N 
ATOM     14  C   UNL d   1      -2.818   3.975  -0.556  0.00  0.00     0.088 A 
ATOM     15  HN  UNL d   1      -4.401   4.836   0.473  1.00  0.00     0.164 HD
ATOM     16  C   UNL d   1      -1.867   2.971  -0.630  0.00  0.00     0.032 A 
ENDBRANCH   4  10
ENDBRANCH   1   2
BRANCH   1  17
ATOM     17  C   UNL d   1       2.127  -2.898  -0.118  0.00  0.00     0.186 C 
BRANCH  17  18
ATOM     18  C   UNL d   1       2.672  -4.318  -0.076  0.00  0.00     0.245 C 
ATOM     19  N   UNL d   1       1.767  -5.336  -0.355  0.00  0.00    -0.270 N 
ATOM     20  H   UNL d   1       0.779  -5.134  -0.449  0.00  0.00     0.190 HD
ATOM     21  O   UNL d   1       3.877  -4.508   0.103  0.00  0.00    -0.271 OA
BRANCH  19  22
ATOM     22  N   UNL d   1       2.235  -6.603  -0.527  0.00  0.00    -0.308 N 
ATOM     23  C   UNL d   1       1.369  -7.546  -0.718  0.00  0.00     0.120 C 
ATOM     24  HN  UNL d   1       3.235  -6.802  -0.507  1.00  0.00     0.186 HD
BRANCH  23  25
ATOM     25  C   UNL d   1       1.812  -8.929  -0.976  0.00  0.00    -0.004 A 
ATOM     26  C   UNL d   1       0.879  -9.943  -1.137  0.00  0.00     0.100 A 
ATOM     27  N   UNL d   1       1.205 -11.231  -1.411  0.00  0.00    -0.374 N 
ATOM     28  C   UNL d   1       2.525 -11.512  -1.526  0.00  0.00     0.087 A 
ATOM     29  HN  UNL d   1       0.492 -11.952  -1.524  1.00  0.00     0.164 HD
ATOM     30  C   UNL d   1       3.530 -10.569  -1.375  0.00  0.00     0.018 A 
ATOM     31  C   UNL d   1       3.163  -9.255  -1.092  0.00  0.00     0.015 A 
ENDBRANCH  23  25
ENDBRANCH  19  22
ENDBRANCH  17  18
ENDBRANCH   1  17
TORSDOF 6
