REMARK  5 active torsions:
REMARK  status: ('A' for Active; 'I' for Inactive)
REMARK    1  A    between atoms: C_3  and  C_1 
REMARK    2  A    between atoms: C_6  and  C_2 
REMARK    3  A    between atoms: N_4  and  C_11 
REMARK    4  A    between atoms: O_18  and  C_6 
REMARK    5  A    between atoms: C_10  and  C_8 
ROOT
ATOM      1  C   UNL d   1       2.658   1.573   0.008  0.00  0.00     0.088 A 
ATOM      2  O   UNL d   1       3.626   1.574  -0.949  0.00  0.00    -0.310 OA
ATOM      3  C   UNL d   1       3.027   2.451   1.007  0.00  0.00     0.041 A 
ATOM      4  C   UNL d   1       4.631   2.439  -0.588  0.00  0.00     0.077 A 
ATOM      5  C   UNL d   1       4.276   3.002   0.628  0.00  0.00     0.040 A 
ENDROOT
BRANCH   1   6
ATOM      6  C   UNL d   1       1.389   0.776  -0.048  0.00  0.00     0.021 A 
ATOM      7  C   UNL d   1       1.059  -0.128  -1.050  0.00  0.00     0.093 A 
ATOM      8  S   UNL d   1      -0.520  -0.782  -0.783  0.00  0.00    -0.095 SA
ATOM      9  C   UNL d   1      -0.748   0.122   0.639  0.00  0.00     0.051 A 
ATOM     10  C   UNL d   1       0.346   0.901   0.928  0.00  0.00     0.023 A 
BRANCH   7  11
ATOM     11  C   UNL d   1       1.829  -0.601  -2.193  0.00  0.00     0.300 C 
ATOM     12  O   UNL d   1       3.050  -0.698  -2.261  0.00  0.00    -0.259 OA
BRANCH  11  13
ATOM     13  O   UNL d   1       0.994  -0.945  -3.222  0.00  0.00    -0.322 OA
ATOM     14  C   UNL d   1       1.648  -1.463  -4.380  0.00  0.00     0.213 C 
ENDBRANCH  11  13
ENDBRANCH   7  11
ENDBRANCH   1   6
BRANCH   4  15
ATOM     15  C   UNL d   1       5.788   2.677  -1.374  0.00  0.00     0.061 C 
ATOM     16  C   UNL d   1       5.980   1.978  -2.498  0.00  0.00     0.170 C 
BRANCH  16  17
ATOM     17  N   UNL d   1       7.143   2.244  -3.309  0.00  0.00    -0.127 N 
ATOM     18  O   UNL d   1       7.944   3.112  -2.939  0.00  0.00    -0.532 OA
ATOM     19  O   UNL d   1       7.248   1.571  -4.341  0.00  0.00    -0.532 OA
ENDBRANCH  16  17
ENDBRANCH   4  15
TORSDOF 5
