REMARK  4 active torsions:
REMARK  status: ('A' for Active; 'I' for Inactive)
REMARK    1  A    between atoms: O_3  and  N_1 
REMARK    2  A    between atoms: N_2  and  C_11 
REMARK    3  A    between atoms: C_6  and  O_3 
REMARK    4  A    between atoms: C_12  and  C_6 
ROOT
ATOM      1  C   UNL d   1      -5.003   1.077   0.188  0.00  0.00     0.039 A 
ATOM      2  C   UNL d   1      -2.473   2.303  -0.021  0.00  0.00     0.041 A 
ATOM      3  C   UNL d   1      -4.768   2.084  -0.761  0.00  0.00     0.031 A 
ATOM      4  C   UNL d   1      -3.976   0.727   1.067  0.00  0.00     0.031 A 
ATOM      5  C   UNL d   1      -3.506   2.679  -0.882  0.00  0.00     0.020 A 
ATOM      6  C   UNL d   1      -2.730   1.349   0.977  0.00  0.00     0.020 A 
ENDROOT
BRANCH   2   7
ATOM      7  C   UNL d   1      -1.135   2.946  -0.158  0.00  0.00     0.315 C 
ATOM      8  O   UNL d   1      -0.803   3.728  -1.028  0.00  0.00    -0.257 OA
BRANCH   7   9
ATOM      9  O   UNL d   1      -0.393   2.542   0.904  0.00  0.00    -0.182 OA
BRANCH   9  10
ATOM     10  N   UNL d   1       0.623   3.424   1.280  0.00  0.00    -0.145 N 
ATOM     11  C   UNL d   1       0.293   4.683   1.682  0.00  0.00     0.251 C 
ATOM     12  C   UNL d   1       1.527   5.255   2.307  0.00  0.00     0.115 C 
ATOM     13  O   UNL d   1      -0.794   5.237   1.655  0.00  0.00    -0.271 OA
ATOM     14  C   UNL d   1       2.206   4.010   2.859  0.00  0.00     0.115 C 
ATOM     15  C   UNL d   1       1.604   2.886   2.059  0.00  0.00     0.251 C 
ATOM     16  O   UNL d   1       1.867   1.708   2.251  0.00  0.00    -0.271 OA
ENDBRANCH   9  10
ENDBRANCH   7   9
ENDBRANCH   2   7
BRANCH   1  17
ATOM     17  N   UNL d   1      -6.253   0.379   0.232  0.00  0.00    -0.320 N 
ATOM     18  C   UNL d   1      -6.904  -0.108   1.374  0.00  0.00     0.013 A 
ATOM     19  C   UNL d   1      -8.046  -0.776   0.973  0.00  0.00     0.027 A 
ATOM     20  C   UNL d   1      -6.505   0.112   2.796  0.00  0.00     0.068 C 
ATOM     21  C   UNL d   1      -8.132  -0.688  -0.420  0.00  0.00     0.027 A 
ATOM     22  C   UNL d   1      -7.023  -0.001  -0.876  0.00  0.00     0.013 A 
ATOM     23  C   UNL d   1      -6.674   0.189  -2.315  0.00  0.00     0.068 C 
ENDBRANCH   1  17
TORSDOF 4
