REMARK  2 active torsions:
REMARK  status: ('A' for Active; 'I' for Inactive)
REMARK    1  A    between atoms: C_10  and  C_3 
REMARK       I    between atoms: C_9  and  N_8 
REMARK       I    between atoms: N_11  and  C_9 
REMARK    2  A    between atoms: C_12  and  N_11 
ROOT
ATOM      1  S   UNL d   1       1.963   6.557   1.472  0.00  0.00    -0.037 SA
ATOM      2  C   UNL d   1       2.426   5.009   0.918  0.00  0.00     0.169 A 
ATOM      3  C   UNL d   1       3.620   6.990   1.389  0.00  0.00     0.074 A 
ATOM      4  N   UNL d   1       4.412   5.999   1.032  0.00  0.00    -0.296 N 
ATOM      5  HN  UNL d   1       5.425   6.084   0.951  1.00  0.00     0.187 HD
ATOM      6  N   UNL d   1       3.715   4.829   0.780  0.00  0.00    -0.279 N 
ATOM      7  HN  UNL d   1       4.149   3.944   0.520  1.00  0.00     0.189 HD
ATOM      8  N   UNL d   1       1.397   4.153   0.672  0.00  0.00    -0.287 N 
ATOM      9  C   UNL d   1       1.471   2.890   0.165  0.00  0.00     0.326 C 
ATOM     10  N   UNL d   1       2.699   2.283   0.107  0.00  0.00    -0.308 N 
ATOM     11  O   UNL d   1       0.404   2.360  -0.156  0.00  0.00    -0.247 OA
ATOM     12  H   UNL d   1       0.457   4.505   0.777  0.00  0.00     0.172 HD
ATOM     13  H   UNL d   1       3.389   2.683   0.729  0.00  0.00     0.170 HD
ENDROOT
BRANCH  10  14
ATOM     14  C   UNL d   1       2.797   0.886  -0.154  0.00  0.00     0.047 A 
ATOM     15  C   UNL d   1       3.421   0.011   0.779  0.00  0.00     0.001 A 
ATOM     16  C   UNL d   1       3.328  -1.389   0.552  0.00  0.00    -0.024 A 
ATOM     17  C   UNL d   1       4.069   0.435   1.965  0.00  0.00     0.014 A 
ATOM     18  C   UNL d   1       3.808  -2.292   1.514  0.00  0.00     0.012 A 
ATOM     19  C   UNL d   1       2.732  -1.872  -0.622  0.00  0.00     0.012 A 
ATOM     20  C   UNL d   1       4.402  -1.841   2.690  0.00  0.00     0.001 A 
ATOM     21  C   UNL d   1       4.552  -0.477   2.905  0.00  0.00     0.001 A 
ATOM     22  C   UNL d   1       2.193  -1.001  -1.561  0.00  0.00     0.003 A 
ATOM     23  C   UNL d   1       2.207   0.371  -1.318  0.00  0.00     0.030 A 
ENDBRANCH  10  14
BRANCH   3  24
ATOM     24  C   UNL d   1       4.213   8.378   1.658  0.00  0.00     0.044 A 
ATOM     25  C   UNL d   1       3.734   9.211   2.829  0.00  0.00     0.012 A 
ATOM     26  C   UNL d   1       3.391   9.635   1.442  0.00  0.00     0.012 A 
ENDBRANCH   3  24
TORSDOF 2
