REMARK  7 active torsions:
REMARK  status: ('A' for Active; 'I' for Inactive)
REMARK    1  A    between atoms: C_9  and  C_1 
REMARK    2  A    between atoms: C_4  and  C_9 
REMARK    3  A    between atoms: N_6  and  C_4 
REMARK    4  A    between atoms: C_8  and  C_4 
REMARK       I    between atoms: C_5  and  N_6 
REMARK    5  A    between atoms: C_12  and  C_5 
REMARK    6  A    between atoms: O_15  and  C_8 
REMARK    7  A    between atoms: N_10  and  C_12 
ROOT
ATOM      1  C   UNL d   1      -1.194  -3.275   0.592  0.00  0.00     0.188 C 
ENDROOT
BRANCH   1   2
ATOM      2  C   UNL d   1      -2.129  -2.104   0.275  0.00  0.00     0.076 C 
BRANCH   2   3
ATOM      3  C   UNL d   1      -1.561  -0.717   0.078  0.00  0.00    -0.028 A 
ATOM      4  C   UNL d   1      -2.385   0.400   0.084  0.00  0.00     0.096 A 
ATOM      5  N   UNL d   1      -1.647   1.502  -0.224  0.00  0.00    -0.365 N 
ATOM      6  C   UNL d   1      -0.338   1.149  -0.433  0.00  0.00     0.042 A 
ATOM      7  H   UNL d   1      -2.010   2.441  -0.317  0.00  0.00     0.165 HD
ATOM      8  C   UNL d   1      -0.239  -0.234  -0.238  0.00  0.00    -0.002 A 
ATOM      9  C   UNL d   1       0.746   1.962  -0.794  0.00  0.00     0.030 A 
ATOM     10  C   UNL d   1       1.039  -0.813  -0.414  0.00  0.00     0.014 A 
ATOM     11  C   UNL d   1       2.136  -0.014  -0.772  0.00  0.00     0.001 A 
ATOM     12  C   UNL d   1       1.989   1.355  -0.962  0.00  0.00     0.002 A 
ENDBRANCH   2   3
ENDBRANCH   1   2
BRANCH   1  13
ATOM     13  N   UNL d   1      -0.613  -3.247   1.931  0.00  0.00    -0.345 N 
ATOM     14  C   UNL d   1      -1.363  -3.384   3.080  0.00  0.00     0.246 C 
ATOM     15  O   UNL d   1      -2.582  -3.548   3.070  0.00  0.00    -0.272 OA
ATOM     16  H   UNL d   1       0.375  -3.048   2.072  0.00  0.00     0.163 HD
BRANCH  14  17
ATOM     17  C   UNL d   1      -0.539  -3.441   4.372  0.00  0.00     0.374 C 
BRANCH  17  18
ATOM     18  N   UNL d   1       0.746  -2.711   4.226  0.00  0.00     0.097 N 
ATOM     19  C   UNL d   1       0.521  -1.254   4.266  0.00  0.00     0.273 C 
ATOM     20  C   UNL d   1       1.833  -0.508   4.026  0.00  0.00     0.030 C 
ATOM     21  C   UNL d   1       2.900  -0.918   5.036  0.00  0.00     0.003 C 
ATOM     22  C   UNL d   1       3.031  -2.436   5.106  0.00  0.00     0.030 C 
ATOM     23  C   UNL d   1       1.672  -3.107   5.301  0.00  0.00     0.273 C 
ENDBRANCH  17  18
ENDBRANCH  14  17
ENDBRANCH   1  13
BRANCH   1  24
ATOM     24  C   UNL d   1      -1.838  -4.664   0.380  0.00  0.00     0.281 C 
ATOM     25  O   UNL d   1      -1.249  -5.722   0.589  0.00  0.00    -0.263 OA
BRANCH  24  26
ATOM     26  O   UNL d   1      -3.121  -4.583  -0.069  0.00  0.00    -0.325 OA
ATOM     27  C   UNL d   1      -3.800  -5.836  -0.163  0.00  0.00     0.213 C 
ENDBRANCH  24  26
ENDBRANCH   1  24
TORSDOF 7
