REMARK  13 active torsions:
REMARK  status: ('A' for Active; 'I' for Inactive)
REMARK    1  A    between atoms: C_15  and  C_1 
REMARK    2  A    between atoms: C_2  and  C_15 
REMARK    3  A    between atoms: N_29  and  C_3 
REMARK    4  A    between atoms: N_28  and  C_4 
REMARK    5  A    between atoms: S_22  and  C_13 
REMARK    6  A    between atoms: S_23  and  C_14 
REMARK    7  A    between atoms: C_38  and  C_15 
REMARK    8  A    between atoms: N_16  and  C_19 
REMARK    9  A    between atoms: N_17  and  C_18 
REMARK   10  A    between atoms: C_35  and  S_22 
REMARK   11  A    between atoms: C_34  and  S_23 
REMARK   12  A    between atoms: C_36  and  C_34 
REMARK   13  A    between atoms: C_37  and  C_35 
ROOT
ATOM      1  C   UNL d   1       0.056  -2.536  -0.022  0.00  0.00     0.069 C 
ENDROOT
BRANCH   1   2
ATOM      2  C   UNL d   1      -0.632  -3.089  -1.278  0.00  0.00     0.057 C 
ATOM      3  C   UNL d   1      -0.248  -2.917  -2.567  0.00  0.00     0.092 C 
ATOM      4  N   UNL d   1      -0.904  -3.503  -3.624  0.00  0.00    -0.327 N 
ATOM      5  C   UNL d   1      -2.013  -4.113  -3.388  0.00  0.00     0.148 C 
ATOM      6  HN  UNL d   1      -0.523  -3.455  -4.569  1.00  0.00     0.169 HD
ATOM      7  N   UNL d   1      -2.547  -4.271  -2.161  0.00  0.00    -0.303 N 
ATOM      8  C   UNL d   1      -1.886  -3.866  -1.049  0.00  0.00     0.257 C 
ATOM      9  H   UNL d   1      -3.408  -4.791  -2.044  0.00  0.00     0.171 HD
ATOM     10  O   UNL d   1      -2.283  -4.167   0.076  0.00  0.00    -0.267 OA
BRANCH   3  11
ATOM     11  N   UNL d   1       0.846  -2.146  -2.898  0.00  0.00    -0.288 NA
ATOM     12  H   UNL d   1       1.559  -2.045  -2.187  0.00  0.00     0.125 HD
ATOM     13  H   UNL d   1       1.213  -2.427  -3.803  0.00  0.00     0.125 HD
ENDBRANCH   3  11
BRANCH   5  14
ATOM     14  S   UNL d   1      -2.969  -4.853  -4.637  0.00  0.00    -0.089 SA
BRANCH  14  15
ATOM     15  C   UNL d   1      -1.674  -5.229  -5.854  0.00  0.00     0.121 C 
BRANCH  15  16
ATOM     16  C   UNL d   1      -2.238  -5.914  -7.083  0.00  0.00    -0.048 A 
ATOM     17  C   UNL d   1      -2.640  -5.158  -8.197  0.00  0.00     0.010 A 
ATOM     18  C   UNL d   1      -3.175  -5.780  -9.331  0.00  0.00     0.036 A 
ATOM     19  C   UNL d   1      -3.315  -7.171  -9.355  0.00  0.00     0.102 A 
ATOM     20  C   UNL d   1      -2.920  -7.942  -8.251  0.00  0.00     0.036 A 
ATOM     21  C   UNL d   1      -2.386  -7.311  -7.124  0.00  0.00     0.010 A 
BRANCH  19  22
ATOM     22  N   UNL d   1      -3.886  -7.829 -10.538  0.00  0.00    -0.116 N 
ATOM     23  O   UNL d   1      -3.998  -9.066 -10.512  0.00  0.00    -0.532 OA
ATOM     24  O   UNL d   1      -4.221  -7.115 -11.492  0.00  0.00    -0.532 OA
ENDBRANCH  19  22
ENDBRANCH  15  16
ENDBRANCH  14  15
ENDBRANCH   5  14
ENDBRANCH   1   2
BRANCH   1  25
ATOM     25  C   UNL d   1       0.212  -0.990  -0.017  0.00  0.00     0.057 C 
ATOM     26  C   UNL d   1       1.195  -0.236   0.542  0.00  0.00     0.092 C 
ATOM     27  N   UNL d   1       1.247   1.132   0.463  0.00  0.00    -0.327 N 
ATOM     28  C   UNL d   1       0.348   1.742  -0.220  0.00  0.00     0.148 C 
ATOM     29  HN  UNL d   1       1.984   1.654   0.936  1.00  0.00     0.169 HD
ATOM     30  N   UNL d   1      -0.669   1.123  -0.849  0.00  0.00    -0.303 N 
ATOM     31  C   UNL d   1      -0.883  -0.207  -0.686  0.00  0.00     0.257 C 
ATOM     32  H   UNL d   1      -1.389   1.661  -1.304  0.00  0.00     0.171 HD
ATOM     33  O   UNL d   1      -1.947  -0.701  -1.046  0.00  0.00    -0.267 OA
BRANCH  26  34
ATOM     34  N   UNL d   1       2.233  -0.764   1.280  0.00  0.00    -0.288 NA
ATOM     35  H   UNL d   1       1.891  -1.365   2.025  0.00  0.00     0.125 HD
ATOM     36  H   UNL d   1       2.725   0.020   1.708  0.00  0.00     0.125 HD
ENDBRANCH  26  34
BRANCH  28  37
ATOM     37  S   UNL d   1       0.312   3.466  -0.391  0.00  0.00    -0.089 SA
BRANCH  37  38
ATOM     38  C   UNL d   1       2.084   3.840  -0.204  0.00  0.00     0.121 C 
BRANCH  38  39
ATOM     39  C   UNL d   1       2.333   5.327  -0.335  0.00  0.00    -0.048 A 
ATOM     40  C   UNL d   1       2.323   6.152   0.802  0.00  0.00     0.010 A 
ATOM     41  C   UNL d   1       2.490   7.534   0.681  0.00  0.00     0.036 A 
ATOM     42  C   UNL d   1       2.668   8.098  -0.588  0.00  0.00     0.102 A 
ATOM     43  C   UNL d   1       2.689   7.289  -1.730  0.00  0.00     0.036 A 
ATOM     44  C   UNL d   1       2.522   5.908  -1.599  0.00  0.00     0.010 A 
BRANCH  42  45
ATOM     45  N   UNL d   1       2.821   9.551  -0.724  0.00  0.00    -0.116 N 
ATOM     46  O   UNL d   1       2.792  10.235   0.309  0.00  0.00    -0.532 OA
ATOM     47  O   UNL d   1       2.970  10.011  -1.866  0.00  0.00    -0.532 OA
ENDBRANCH  42  45
ENDBRANCH  38  39
ENDBRANCH  37  38
ENDBRANCH  28  37
ENDBRANCH   1  25
BRANCH   1  48
ATOM     48  C   UNL d   1       1.354  -3.373   0.211  0.00  0.00     0.010 C 
ATOM     49  C   UNL d   1       1.155  -4.880   0.353  0.00  0.00     0.006 C 
ENDBRANCH   1  48
TORSDOF 13
