REMARK  1 active torsions:
REMARK  status: ('A' for Active; 'I' for Inactive)
REMARK    1  A    between atoms: C_8  and  C_1 
ROOT
ATOM      1  C   UNL d   1      -0.676   1.220  -0.012  0.00  0.00     0.071 A 
ATOM      2  N   UNL d   1      -1.353   0.104  -0.018  0.00  0.00    -0.296 N 
ATOM      3  HN  UNL d   1      -2.373   0.114  -0.021  1.00  0.00     0.187 HD
ATOM      4  C   UNL d   1       0.833   1.252   0.018  0.00  0.00    -0.021 A 
ATOM      5  C   UNL d   1       1.467   0.059  -0.023  0.00  0.00     0.016 A 
ATOM      6  N   UNL d   1      -0.673  -1.067  -0.022  0.00  0.00    -0.266 N 
ATOM      7  C   UNL d   1       0.687  -1.208  -0.055  0.00  0.00     0.266 A 
ATOM      8  O   UNL d   1       1.229  -2.306  -0.099  0.00  0.00    -0.266 OA
ATOM      9  C   UNL d   1       1.596   2.537   0.154  0.00  0.00     0.051 C 
ATOM     10  C   UNL d   1       2.956  -0.144  -0.024  0.00  0.00     0.055 C 
ATOM     11  H   UNL d   1      -1.231  -1.916  -0.035  0.00  0.00     0.190 HD
ENDROOT
BRANCH   1  12
ATOM     12  C   UNL d   1      -1.468   2.453  -0.043  0.00  0.00     0.033 A 
ATOM     13  S   UNL d   1      -2.976   2.504   0.794  0.00  0.00    -0.100 SA
ATOM     14  C   UNL d   1      -3.269   4.121   0.336  0.00  0.00     0.050 A 
ATOM     15  C   UNL d   1      -2.254   4.628  -0.440  0.00  0.00     0.008 A 
ATOM     16  C   UNL d   1      -1.239   3.656  -0.691  0.00  0.00     0.021 A 
ENDBRANCH   1  12
TORSDOF 1
