REMARK  4 active torsions:
REMARK  status: ('A' for Active; 'I' for Inactive)
REMARK       I    between atoms: N_2  and  C_1 
REMARK       I    between atoms: N_5  and  C_1 
REMARK    1  A    between atoms: C_3  and  N_2 
REMARK    2  A    between atoms: C_11  and  N_5 
REMARK    3  A    between atoms: O_10  and  C_12 
REMARK    4  A    between atoms: C_13  and  O_10 
ROOT
ATOM      1  C   UNL d   1      -1.153   1.003   0.479  0.00  0.00     0.036 A 
ATOM      2  C   UNL d   1      -3.949   1.023   0.674  0.00  0.00     0.076 A 
ATOM      3  C   UNL d   1      -1.839  -0.138   0.897  0.00  0.00     0.032 A 
ATOM      4  C   UNL d   1      -1.873   2.179   0.226  0.00  0.00     0.032 A 
ATOM      5  C   UNL d   1      -3.231  -0.124   1.014  0.00  0.00     0.039 A 
ATOM      6  C   UNL d   1      -3.268   2.187   0.320  0.00  0.00     0.039 A 
ENDROOT
BRANCH   1   7
ATOM      7  N   UNL d   1       0.250   1.054   0.355  0.00  0.00    -0.309 N 
ATOM      8  C   UNL d   1       1.103  -0.037   0.290  0.00  0.00     0.325 C 
ATOM      9  N   UNL d   1       2.406   0.365   0.547  0.00  0.00    -0.303 N 
ATOM     10  O   UNL d   1       0.753  -1.190   0.072  0.00  0.00    -0.247 OA
ATOM     11  H   UNL d   1       2.529   1.214   1.076  0.00  0.00     0.171 HD
ATOM     12  H   UNL d   1       0.656   1.940   0.097  0.00  0.00     0.170 HD
BRANCH   9  13
ATOM     13  C   UNL d   1       3.431  -0.546   0.637  0.00  0.00     0.077 A 
ATOM     14  S   UNL d   1       4.711  -0.053   1.638  0.00  0.00    -0.084 SA
ATOM     15  C   UNL d   1       5.483  -1.574   1.478  0.00  0.00     0.052 A 
ATOM     16  C   UNL d   1       4.817  -2.397   0.595  0.00  0.00     0.010 A 
ATOM     17  C   UNL d   1       3.623  -1.794   0.098  0.00  0.00     0.038 A 
ENDBRANCH   9  13
ENDBRANCH   1   7
BRANCH   2  18
ATOM     18  O   UNL d   1      -5.324   1.099   0.714  0.00  0.00    -0.311 OA
BRANCH  18  19
ATOM     19  C   UNL d   1      -6.057   0.013   0.280  0.00  0.00     0.076 A 
ATOM     20  C   UNL d   1      -7.270  -0.214   0.937  0.00  0.00     0.037 A 
ATOM     21  C   UNL d   1      -8.070  -1.298   0.573  0.00  0.00     0.003 A 
ATOM     22  C   UNL d   1      -7.665  -2.151  -0.453  0.00  0.00     0.000 A 
ATOM     23  C   UNL d   1      -6.475  -1.905  -1.137  0.00  0.00     0.003 A 
ATOM     24  C   UNL d   1      -5.683  -0.811  -0.787  0.00  0.00     0.037 A 
ENDBRANCH  18  19
ENDBRANCH   2  18
TORSDOF 4
