REMARK  2 active torsions:
REMARK  status: ('A' for Active; 'I' for Inactive)
REMARK       I    between atoms: N_2  and  C_1 
REMARK       I    between atoms: N_3  and  C_1 
REMARK    1  A    between atoms: C_5  and  N_3 
REMARK    2  A    between atoms: C_6  and  C_4 
ROOT
ATOM      1  C   UNL d   1       0.629  -0.329  -0.014  0.00  0.00     0.323 C 
ATOM      2  N   UNL d   1       0.302   0.203  -1.250  0.00  0.00    -0.325 N 
ATOM      3  N   UNL d   1       0.459   0.570   1.027  0.00  0.00    -0.306 N 
ATOM      4  C   UNL d   1       0.618  -0.513  -2.486  0.00  0.00     0.123 C 
ATOM      5  O   UNL d   1       1.101  -1.451   0.103  0.00  0.00    -0.247 OA
ATOM      6  C   UNL d   1      -0.742   1.192  -1.473  0.00  0.00     0.128 C 
ATOM      7  C   UNL d   1       0.173   0.477  -3.570  0.00  0.00     0.032 C 
ATOM      8  C   UNL d   1      -1.073   1.104  -2.959  0.00  0.00     0.022 C 
ATOM      9  H   UNL d   1       0.464   1.538   0.746  0.00  0.00     0.171 HD
ENDROOT
BRANCH   4  10
ATOM     10  C   UNL d   1       2.062  -0.923  -2.644  0.00  0.00    -0.020 A 
ATOM     11  C   UNL d   1       2.379  -2.253  -2.918  0.00  0.00     0.096 A 
ATOM     12  N   UNL d   1       3.637  -2.729  -3.066  0.00  0.00    -0.375 N 
ATOM     13  C   UNL d   1       4.639  -1.843  -2.900  0.00  0.00     0.087 A 
ATOM     14  HN  UNL d   1       3.817  -3.707  -3.292  1.00  0.00     0.164 HD
ATOM     15  C   UNL d   1       4.440  -0.501  -2.621  0.00  0.00     0.018 A 
ATOM     16  C   UNL d   1       3.133  -0.035  -2.497  0.00  0.00     0.012 A 
ENDBRANCH   4  10
BRANCH   3  17
ATOM     17  C   UNL d   1       0.991   0.334   2.318  0.00  0.00     0.075 A 
ATOM     18  C   UNL d   1       1.575   1.414   2.989  0.00  0.00     0.143 A 
ATOM     19  F   UNL d   1       1.554   2.634   2.431  0.00  0.00    -0.204 F 
ATOM     20  C   UNL d   1       2.249   1.229   4.193  0.00  0.00     0.044 A 
ATOM     21  C   UNL d   1       2.303  -0.041   4.763  0.00  0.00     0.003 A 
ATOM     22  C   UNL d   1       1.668  -1.114   4.136  0.00  0.00     0.002 A 
ATOM     23  C   UNL d   1       1.011  -0.925   2.913  0.00  0.00     0.033 A 
ENDBRANCH   3  17
TORSDOF 2
