REMARK  4 active torsions:
REMARK  status: ('A' for Active; 'I' for Inactive)
REMARK    1  A    between atoms: C_2  and  N_1 
REMARK    2  A    between atoms: C_7  and  C_3 
REMARK    3  A    between atoms: S_4  and  C_5 
REMARK    4  A    between atoms: C_6  and  S_4 
REMARK       I    between atoms: N_11  and  C_7 
ROOT
ATOM      1  C   UNL d   1       2.260  -0.114  -2.034  0.00  0.00     0.048 A 
ATOM      2  C   UNL d   1       2.892   0.977  -1.406  0.00  0.00     0.021 A 
ATOM      3  C   UNL d   1       2.918  -1.358  -2.096  0.00  0.00     0.018 A 
ATOM      4  C   UNL d   1       4.169   0.781  -0.847  0.00  0.00     0.020 A 
ATOM      5  C   UNL d   1       4.178  -1.534  -1.527  0.00  0.00     0.001 A 
ATOM      6  C   UNL d   1       4.806  -0.461  -0.907  0.00  0.00     0.001 A 
ENDROOT
BRANCH   2   7
ATOM      7  S   UNL d   1       2.154   2.583  -1.122  0.00  0.00    -0.087 SA
BRANCH   7   8
ATOM      8  C   UNL d   1       2.493   3.485  -2.627  0.00  0.00     0.038 A 
ATOM      9  C   UNL d   1       3.640   4.251  -2.881  0.00  0.00     0.119 A 
ATOM     10  C   UNL d   1       3.771   5.041  -4.036  0.00  0.00     0.037 A 
ATOM     11  C   UNL d   1       2.732   5.078  -4.962  0.00  0.00     0.003 A 
ATOM     12  C   UNL d   1       1.585   4.320  -4.739  0.00  0.00     0.002 A 
ATOM     13  C   UNL d   1       1.467   3.535  -3.586  0.00  0.00     0.021 A 
BRANCH   9  14
ATOM     14  N   UNL d   1       4.748   4.281  -1.947  0.00  0.00    -0.114 N 
ATOM     15  O   UNL d   1       4.532   4.719  -0.809  0.00  0.00    -0.532 OA
ATOM     16  O   UNL d   1       5.848   3.906  -2.374  0.00  0.00    -0.532 OA
ENDBRANCH   9  14
ENDBRANCH   7   8
ENDBRANCH   2   7
BRANCH   1  17
ATOM     17  C   UNL d   1       0.903  -0.094  -2.647  0.00  0.00     0.250 C 
ATOM     18  O   UNL d   1       0.642  -0.762  -3.639  0.00  0.00    -0.268 OA
ATOM     19  N   UNL d   1      -0.068   0.645  -2.036  0.00  0.00    -0.366 N 
ATOM     20  H   UNL d   1       0.102   1.188  -1.200  0.00  0.00     0.159 HD
ATOM     21  H   UNL d   1      -1.001   0.611  -2.422  0.00  0.00     0.159 HD
ENDBRANCH   1  17
TORSDOF 4
