REMARK  7 active torsions:
REMARK  status: ('A' for Active; 'I' for Inactive)
REMARK    1  A    between atoms: C_14  and  N_1 
REMARK    2  A    between atoms: C_2  and  C_13 
REMARK    3  A    between atoms: S_15  and  C_3 
REMARK    4  A    between atoms: O_21  and  C_5 
REMARK    5  A    between atoms: C_13  and  C_17 
REMARK    6  A    between atoms: C_20  and  C_14 
REMARK    7  A    between atoms: C_17  and  S_15 
ROOT
ATOM      1  N   UNL d   1      -0.118  -1.344  -0.101  0.00  0.00    -0.282 N 
ATOM      2  C   UNL d   1       1.198  -0.935  -0.135  0.00  0.00     0.165 A 
ATOM      3  C   UNL d   1      -0.831  -0.192   0.070  0.00  0.00     0.241 A 
ATOM      4  N   UNL d   1       1.251   0.368   0.080  0.00  0.00    -0.277 N 
ATOM      5  HN  UNL d   1       2.099   0.932   0.128  1.00  0.00     0.189 HD
ATOM      6  N   UNL d   1      -0.024   0.830   0.228  0.00  0.00    -0.263 N 
ATOM      7  HN  UNL d   1      -0.298   1.793   0.425  1.00  0.00     0.190 HD
ENDROOT
BRANCH   2   8
ATOM      8  S   UNL d   1       2.558  -1.938  -0.436  0.00  0.00    -0.084 SA
BRANCH   8   9
ATOM      9  C   UNL d   1       3.916  -0.732  -0.436  0.00  0.00     0.166 C 
BRANCH   9  10
ATOM     10  C   UNL d   1       5.216  -1.392  -0.917  0.00  0.00     0.176 C 
ATOM     11  O   UNL d   1       5.218  -2.355  -1.670  0.00  0.00    -0.291 OA
BRANCH  10  12
ATOM     12  C   UNL d   1       6.454  -0.808  -0.422  0.00  0.00     0.059 C 
ATOM     13  S   UNL d   1       6.694   0.874  -0.570  0.00  0.00    -0.085 SA
ATOM     14  C   UNL d   1       8.206   0.787   0.224  0.00  0.00     0.016 C 
ATOM     15  C   UNL d   1       9.134   1.818   0.410  0.00  0.00     0.021 C 
ATOM     16  C   UNL d   1       8.406  -0.480   0.775  0.00  0.00    -0.010 C 
ATOM     17  C   UNL d   1       9.920   1.745   1.556  0.00  0.00     0.025 C 
ATOM     18  C   UNL d   1      10.000   0.558   2.271  0.00  0.00     0.035 C 
ATOM     19  C   UNL d   1       9.384  -0.601   1.787  0.00  0.00     0.037 C 
ATOM     20 CL   UNL d   1      10.909   0.514   3.732  0.00  0.00    -0.084 Cl
ATOM     21  C   UNL d   1       7.617  -1.429   0.025  0.00  0.00    -0.029 C 
ATOM     22  C   UNL d   1       7.988  -2.861  -0.187  0.00  0.00     0.050 C 
ENDBRANCH  10  12
ENDBRANCH   9  10
ENDBRANCH   8   9
ENDBRANCH   2   8
BRANCH   1  23
ATOM     23  C   UNL d   1      -0.692  -2.691  -0.089  0.00  0.00     0.124 C 
ATOM     24  C   UNL d   1       0.096  -3.787   0.633  0.00  0.00     0.038 C 
BRANCH  23  25
ATOM     25  C   UNL d   1      -1.151  -3.129  -1.472  0.00  0.00    -0.035 A 
ATOM     26  C   UNL d   1      -0.259  -3.269  -2.546  0.00  0.00     0.009 A 
ATOM     27  C   UNL d   1      -0.702  -3.718  -3.792  0.00  0.00     0.001 A 
ATOM     28  C   UNL d   1      -2.042  -4.040  -3.984  0.00  0.00     0.000 A 
ATOM     29  C   UNL d   1      -2.942  -3.913  -2.929  0.00  0.00     0.001 A 
ATOM     30  C   UNL d   1      -2.501  -3.464  -1.682  0.00  0.00     0.009 A 
ENDBRANCH  23  25
ENDBRANCH   1  23
BRANCH   3  31
ATOM     31  O   UNL d   1      -2.152  -0.092   0.097  0.00  0.00    -0.331 OA
ATOM     32  H   UNL d   1      -2.510  -0.722  -0.540  0.00  0.00     0.221 HD
ENDBRANCH   3  31
TORSDOF 7
