REMARK  7 active torsions:
REMARK  status: ('A' for Active; 'I' for Inactive)
REMARK    1  A    between atoms: C_3  and  N_1 
REMARK    2  A    between atoms: C_2  and  C_7 
REMARK       I    between atoms: N_15  and  C_2 
REMARK    3  A    between atoms: O_19  and  C_5 
REMARK    4  A    between atoms: O_20  and  C_8 
REMARK    5  A    between atoms: C_21  and  N_15 
REMARK    6  A    between atoms: C_17  and  C_22 
REMARK    7  A    between atoms: C_22  and  C_21 
ROOT
ATOM      1  C   UNL d   1      -1.874  -1.311  -4.769  0.00  0.00     0.251 C 
ATOM      2  O   UNL d   1      -2.893  -0.674  -5.011  0.00  0.00    -0.268 OA
ATOM      3  N   UNL d   1      -1.370  -2.251  -5.651  0.00  0.00    -0.357 N 
ATOM      4  H   UNL d   1      -0.446  -2.631  -5.524  0.00  0.00     0.162 HD
ENDROOT
BRANCH   3   5
ATOM      5  C   UNL d   1      -2.034  -2.474  -6.925  0.00  0.00     0.127 C 
BRANCH   5   6
ATOM      6  C   UNL d   1      -1.371  -3.584  -7.735  0.00  0.00     0.058 C 
BRANCH   6   7
ATOM      7  C   UNL d   1      -2.075  -3.824  -9.047  0.00  0.00    -0.054 A 
ATOM      8  C   UNL d   1      -3.111  -4.767  -9.129  0.00  0.00     0.046 A 
ATOM      9  C   UNL d   1      -3.767  -5.035 -10.341  0.00  0.00     0.102 A 
ATOM     10  C   UNL d   1      -3.404  -4.300 -11.483  0.00  0.00     0.101 A 
ATOM     11  C   UNL d   1      -2.374  -3.352 -11.397  0.00  0.00     0.040 A 
ATOM     12  C   UNL d   1      -1.715  -3.112 -10.191  0.00  0.00     0.010 A 
BRANCH   9  13
ATOM     13  O   UNL d   1      -4.717  -6.013 -10.477  0.00  0.00    -0.353 OA
ATOM     14  C   UNL d   1      -5.054  -6.779  -9.328  0.00  0.00     0.210 C 
ENDBRANCH   9  13
BRANCH  10  15
ATOM     15  O   UNL d   1      -3.908  -4.429 -12.752  0.00  0.00    -0.353 OA
ATOM     16  C   UNL d   1      -5.276  -4.798 -12.867  0.00  0.00     0.210 C 
ENDBRANCH  10  15
ENDBRANCH   6   7
ENDBRANCH   5   6
ENDBRANCH   3   5
BRANCH   1  17
ATOM     17  C   UNL d   1      -1.136  -1.073  -3.492  0.00  0.00     0.032 A 
ATOM     18  C   UNL d   1      -1.622  -0.063  -2.642  0.00  0.00     0.019 A 
ATOM     19  C   UNL d   1      -0.999   0.212  -1.420  0.00  0.00     0.037 A 
ATOM     20  C   UNL d   1       0.124  -0.530  -1.041  0.00  0.00     0.102 A 
ATOM     21  C   UNL d   1       0.621  -1.540  -1.876  0.00  0.00     0.037 A 
ATOM     22  C   UNL d   1      -0.012  -1.812  -3.096  0.00  0.00     0.019 A 
BRANCH  20  23
ATOM     23  N   UNL d   1       0.785  -0.255   0.241  0.00  0.00    -0.116 N 
ATOM     24  O   UNL d   1       1.776  -0.938   0.533  0.00  0.00    -0.532 OA
ATOM     25  O   UNL d   1       0.313   0.642   0.951  0.00  0.00    -0.532 OA
ENDBRANCH  20  23
ENDBRANCH   1  17
TORSDOF 7
