REMARK  5 active torsions:
REMARK  status: ('A' for Active; 'I' for Inactive)
REMARK    1  A    between atoms: C_6  and  N_1 
REMARK    2  A    between atoms: C_8  and  C_6 
REMARK    3  A    between atoms: N_7  and  C_11 
REMARK       I    between atoms: N_12  and  C_8 
REMARK    4  A    between atoms: C_17  and  N_12 
REMARK    5  A    between atoms: C_18  and  C_17 
ROOT
ATOM      1  C   UNL d   1       3.712   1.449  -1.061  0.00  0.00     0.236 C 
ATOM      2  N   UNL d   1       3.136   2.536  -0.449  0.00  0.00    -0.355 N 
ATOM      3  O   UNL d   1       3.048   0.633  -1.703  0.00  0.00    -0.272 OA
ATOM      4  H   UNL d   1       3.713   3.200   0.056  0.00  0.00     0.162 HD
ENDROOT
BRANCH   2   5
ATOM      5  C   UNL d   1       1.696   2.685  -0.416  0.00  0.00     0.161 C 
BRANCH   5   6
ATOM      6  C   UNL d   1       1.230   4.118  -0.415  0.00  0.00    -0.040 A 
ATOM      7  C   UNL d   1       1.994   5.162  -0.938  0.00  0.00     0.011 A 
ATOM      8  C   UNL d   1       1.561   6.487  -0.819  0.00  0.00     0.030 A 
ATOM      9  C   UNL d   1       0.344   6.819  -0.211  0.00  0.00     0.030 A 
ATOM     10  C   UNL d   1      -0.471   5.753   0.187  0.00  0.00     0.030 A 
ATOM     11  C   UNL d   1      -0.038   4.424   0.093  0.00  0.00     0.011 A 
BRANCH   9  12
ATOM     12  N   UNL d   1      -0.021   8.126   0.020  0.00  0.00    -0.377 N 
ATOM     13  C   UNL d   1       0.959   9.187   0.294  0.00  0.00     0.149 C 
ATOM     14  C   UNL d   1       0.857  10.286  -0.771  0.00  0.00     0.187 C 
ATOM     15  O   UNL d   1      -0.488  10.783  -0.895  0.00  0.00    -0.388 OA
ATOM     16  C   UNL d   1      -1.387   9.713  -1.241  0.00  0.00     0.187 C 
ATOM     17  C   UNL d   1      -1.393   8.610  -0.168  0.00  0.00     0.149 C 
ENDBRANCH   9  12
ENDBRANCH   5   6
ENDBRANCH   2   5
BRANCH   1  18
ATOM     18  C   UNL d   1       5.234   1.417  -1.103  0.00  0.00     0.238 C 
BRANCH  18  19
ATOM     19  N   UNL d   1       5.950   1.766   0.111  0.00  0.00    -0.271 N 
ATOM     20  C   UNL d   1       6.279   3.037   0.493  0.00  0.00     0.262 A 
ATOM     21  C   UNL d   1       7.343   2.910   1.496  0.00  0.00     0.048 A 
ATOM     22  O   UNL d   1       5.834   4.084   0.068  0.00  0.00    -0.267 OA
ATOM     23  C   UNL d   1       8.093   3.865   2.156  0.00  0.00     0.018 A 
ATOM     24  C   UNL d   1       7.612   1.563   1.641  0.00  0.00     0.048 A 
ATOM     25  C   UNL d   1       9.170   3.413   2.932  0.00  0.00     0.001 A 
ATOM     26  C   UNL d   1       9.481   2.039   3.013  0.00  0.00     0.001 A 
ATOM     27  C   UNL d   1       8.686   1.091   2.369  0.00  0.00     0.018 A 
ATOM     28  C   UNL d   1       6.642   0.834   0.822  0.00  0.00     0.262 A 
ATOM     29  O   UNL d   1       6.559  -0.378   0.802  0.00  0.00    -0.267 OA
ENDBRANCH  18  19
ENDBRANCH   1  18
TORSDOF 5
