REMARK  6 active torsions:
REMARK  status: ('A' for Active; 'I' for Inactive)
REMARK       I    between atoms: N_4  and  C_1 
REMARK       I    between atoms: N_5  and  C_1 
REMARK    1  A    between atoms: C_17  and  N_4 
REMARK    2  A    between atoms: C_18  and  N_5 
REMARK    3  A    between atoms: O_12  and  C_6 
REMARK    4  A    between atoms: C_7  and  C_10 
REMARK    5  A    between atoms: C_8  and  C_9 
REMARK    6  A    between atoms: C_20  and  O_12 
ROOT
ATOM      1  N   UNL d   1       1.450  -3.259  -3.480  0.00  0.00    -0.344 N 
ATOM      2  HN  UNL d   1       1.173  -3.449  -4.443  1.00  0.00     0.167 HD
ATOM      3  C   UNL d   1       2.478  -3.908  -2.903  0.00  0.00     0.148 A 
ATOM      4  C   UNL d   1       1.143  -2.011  -1.417  0.00  0.00     0.051 A 
ATOM      5  C   UNL d   1       0.800  -2.345  -2.727  0.00  0.00     0.119 A 
ATOM      6  C   UNL d   1       2.951  -3.604  -1.634  0.00  0.00     0.059 A 
ATOM      7  C   UNL d   1       2.271  -2.635  -0.883  0.00  0.00     0.035 A 
ENDROOT
BRANCH   4   8
ATOM      8  N   UNL d   1       0.412  -1.095  -0.623  0.00  0.00    -0.307 N 
ATOM      9  C   UNL d   1      -0.890  -0.709  -0.900  0.00  0.00     0.325 C 
ATOM     10  N   UNL d   1      -1.354   0.253  -0.024  0.00  0.00    -0.309 N 
ATOM     11  O   UNL d   1      -1.551  -1.180  -1.816  0.00  0.00    -0.247 OA
ATOM     12  H   UNL d   1      -0.657   0.832   0.419  0.00  0.00     0.170 HD
ATOM     13  H   UNL d   1       0.738  -0.929   0.317  0.00  0.00     0.170 HD
BRANCH  10  14
ATOM     14  C   UNL d   1      -2.695   0.698   0.041  0.00  0.00     0.036 A 
ATOM     15  C   UNL d   1      -3.761  -0.030  -0.488  0.00  0.00     0.030 A 
ATOM     16  C   UNL d   1      -5.073   0.440  -0.391  0.00  0.00     0.010 A 
ATOM     17  C   UNL d   1      -5.374   1.647   0.257  0.00  0.00    -0.051 A 
ATOM     18  C   UNL d   1      -4.293   2.375   0.784  0.00  0.00     0.010 A 
ATOM     19  C   UNL d   1      -2.974   1.902   0.686  0.00  0.00     0.030 A 
BRANCH  17  20
ATOM     20  C   UNL d   1      -6.840   2.092   0.387  0.00  0.00    -0.024 C 
ATOM     21  C   UNL d   1      -7.018   3.417   1.157  0.00  0.00     0.019 C 
ATOM     22  C   UNL d   1      -7.462   2.283  -1.014  0.00  0.00     0.019 C 
ATOM     23  C   UNL d   1      -7.636   1.008   1.148  0.00  0.00     0.019 C 
ENDBRANCH  17  20
ENDBRANCH  10  14
ENDBRANCH   4   8
BRANCH   3  24
ATOM     24  O   UNL d   1       3.099  -4.931  -3.604  0.00  0.00    -0.294 OA
BRANCH  24  25
ATOM     25  C   UNL d   1       2.302  -5.674  -4.453  0.00  0.00     0.077 A 
ATOM     26  C   UNL d   1       2.844  -6.055  -5.676  0.00  0.00     0.038 A 
ATOM     27  C   UNL d   1       2.093  -6.841  -6.562  0.00  0.00     0.011 A 
ATOM     28  C   UNL d   1       0.790  -7.276  -6.244  0.00  0.00    -0.050 A 
ATOM     29  C   UNL d   1       0.270  -6.881  -5.002  0.00  0.00     0.011 A 
ATOM     30  C   UNL d   1       1.021  -6.107  -4.110  0.00  0.00     0.038 A 
BRANCH  28  31
ATOM     31  C   UNL d   1       0.001  -8.171  -7.218  0.00  0.00    -0.024 C 
ATOM     32  C   UNL d   1      -1.405  -8.559  -6.704  0.00  0.00     0.019 C 
ATOM     33  C   UNL d   1      -0.193  -7.453  -8.570  0.00  0.00     0.019 C 
ATOM     34  C   UNL d   1       0.779  -9.484  -7.446  0.00  0.00     0.019 C 
ENDBRANCH  28  31
ENDBRANCH  24  25
ENDBRANCH   3  24
TORSDOF 6
