REMARK  1 active torsions:
REMARK  status: ('A' for Active; 'I' for Inactive)
REMARK    1  A    between atoms: C_8  and  C_4 
ROOT
ATOM      1  C   UNL d   1       1.864   0.499   0.097  0.00  0.00    -0.002 A 
ATOM      2  C   UNL d   1       0.814   1.552   0.253  0.00  0.00     0.189 A 
ATOM      3  C   UNL d   1      -0.445   0.854   0.540  0.00  0.00     0.021 A 
ATOM      4  C   UNL d   1       3.156   0.798  -0.093  0.00  0.00     0.023 C 
ATOM      5  C   UNL d   1      -0.218  -0.524   0.544  0.00  0.00    -0.040 A 
ATOM      6  C   UNL d   1       1.209  -0.853   0.231  0.00  0.00     0.082 A 
ATOM      7  O   UNL d   1       0.964   2.755   0.173  0.00  0.00    -0.287 OA
ATOM      8  C   UNL d   1      -1.690   1.402   0.794  0.00  0.00     0.016 A 
ATOM      9  C   UNL d   1      -1.255  -1.401   0.817  0.00  0.00     0.008 A 
ATOM     10  C   UNL d   1      -2.738   0.521   1.069  0.00  0.00     0.001 A 
ATOM     11  C   UNL d   1      -2.521  -0.868   1.083  0.00  0.00     0.001 A 
ENDROOT
BRANCH   4  12
ATOM     12  C   UNL d   1       4.176  -0.243  -0.210  0.00  0.00    -0.036 A 
ATOM     13  C   UNL d   1       4.499  -0.777  -1.462  0.00  0.00     0.011 A 
ATOM     14  C   UNL d   1       5.438  -1.806  -1.565  0.00  0.00     0.001 A 
ATOM     15  C   UNL d   1       6.056  -2.305  -0.419  0.00  0.00     0.000 A 
ATOM     16  C   UNL d   1       5.739  -1.775   0.831  0.00  0.00     0.001 A 
ATOM     17  C   UNL d   1       4.801  -0.747   0.937  0.00  0.00     0.011 A 
ENDBRANCH   4  12
TORSDOF 1
