REMARK  3 active torsions:
REMARK  status: ('A' for Active; 'I' for Inactive)
REMARK    1  A    between atoms: N_6  and  C_1 
REMARK    2  A    between atoms: C_10  and  C_4 
REMARK       I    between atoms: C_7  and  N_6 
REMARK    3  A    between atoms: C_11  and  C_7 
ROOT
ATOM      1  C   UNL d   1       0.169  -1.370   0.151  0.00  0.00     0.064 A 
ATOM      2  C   UNL d   1      -0.402  -0.116   0.302  0.00  0.00     0.112 A 
ATOM      3  S   UNL d   1       0.763   1.135   0.147  0.00  0.00    -0.076 SA
ATOM      4  C   UNL d   1       2.076   0.041   0.068  0.00  0.00     0.018 A 
ATOM      5  C   UNL d   1       1.604  -1.260   0.051  0.00  0.00     0.051 A 
ATOM      6  C   UNL d   1      -1.744   0.242   0.647  0.00  0.00     0.109 C 
ATOM      7  N   UNL d   1      -2.784   0.622   0.999  0.00  0.00    -0.191 NA
ENDROOT
BRANCH   1   8
ATOM      8  N   UNL d   1      -0.436  -2.632   0.151  0.00  0.00    -0.321 N 
ATOM      9  C   UNL d   1      -1.770  -2.907  -0.101  0.00  0.00     0.256 C 
ATOM     10  O   UNL d   1      -2.616  -2.089  -0.435  0.00  0.00    -0.267 OA
ATOM     11  H   UNL d   1       0.194  -3.412   0.276  0.00  0.00     0.169 HD
BRANCH   9  12
ATOM     12  C   UNL d   1      -2.180  -4.335   0.035  0.00  0.00     0.032 A 
ATOM     13  C   UNL d   1      -3.484  -4.612   0.466  0.00  0.00     0.017 A 
ATOM     14  C   UNL d   1      -3.901  -5.933   0.651  0.00  0.00     0.007 A 
ATOM     15  C   UNL d   1      -3.026  -6.995   0.391  0.00  0.00    -0.062 A 
ATOM     16  C   UNL d   1      -1.737  -6.716  -0.079  0.00  0.00     0.007 A 
ATOM     17  C   UNL d   1      -3.466  -8.408   0.638  0.00  0.00     0.048 C 
ATOM     18  C   UNL d   1      -1.317  -5.395  -0.264  0.00  0.00     0.017 A 
ENDBRANCH   9  12
ENDBRANCH   1   8
BRANCH   4  19
ATOM     19  C   UNL d   1       3.464   0.543   0.003  0.00  0.00    -0.019 A 
ATOM     20  C   UNL d   1       4.451  -0.171  -0.700  0.00  0.00     0.016 A 
ATOM     21  C   UNL d   1       5.768   0.298  -0.762  0.00  0.00     0.043 A 
ATOM     22  C   UNL d   1       6.109   1.484  -0.124  0.00  0.00     0.116 A 
ATOM     23  C   UNL d   1       5.160   2.207   0.581  0.00  0.00     0.043 A 
ATOM     24  F   UNL d   1       7.369   1.933  -0.189  0.00  0.00    -0.206 F 
ATOM     25  C   UNL d   1       3.846   1.736   0.648  0.00  0.00     0.016 A 
ENDBRANCH   4  19
TORSDOF 3
