REMARK  4 active torsions:
REMARK  status: ('A' for Active; 'I' for Inactive)
REMARK    1  A    between atoms: C_7  and  S_1 
REMARK    2  A    between atoms: C_8  and  S_1 
REMARK    3  A    between atoms: C_5  and  C_2 
REMARK    4  A    between atoms: C_6  and  C_8 
ROOT
ATOM      1  C   UNL d   1       0.896   3.361  -2.878  0.00  0.00     0.186 A 
ATOM      2  N   UNL d   1       0.423   2.568  -1.934  0.00  0.00    -0.322 N 
ATOM      3  HN  UNL d   1      -0.073   2.823  -1.080  1.00  0.00     0.169 HD
ATOM      4  C   UNL d   1       0.763   1.316  -2.382  0.00  0.00     0.118 A 
ATOM      5  N   UNL d   1       1.387   1.307  -3.568  0.00  0.00    -0.246 N 
ATOM      6  HN  UNL d   1       1.711   0.502  -4.104  1.00  0.00     0.196 HD
ATOM      7  O   UNL d   1       1.489   2.655  -3.892  0.00  0.00    -0.217 OA
ENDROOT
BRANCH   4   8
ATOM      8  C   UNL d   1       0.296   0.071  -1.752  0.00  0.00     0.224 C 
BRANCH   8   9
ATOM      9  S   UNL d   1       0.843  -0.165  -0.089  0.00  0.00     0.182 S 
ATOM     10  O   UNL d   1       0.218  -1.373   0.421  0.00  0.00    -0.222 OA
ATOM     11  O   UNL d   1       2.295  -0.063  -0.082  0.00  0.00    -0.222 OA
BRANCH   9  12
ATOM     12  C   UNL d   1       0.204   1.178   0.912  0.00  0.00     0.066 A 
ATOM     13  C   UNL d   1       1.151   1.970   1.591  0.00  0.00     0.032 A 
ATOM     14  C   UNL d   1       0.756   3.008   2.451  0.00  0.00    -0.039 A 
ATOM     15  C   UNL d   1       1.801   3.797   3.191  0.00  0.00     0.050 C 
ATOM     16  C   UNL d   1      -0.611   3.244   2.623  0.00  0.00     0.040 A 
ATOM     17  C   UNL d   1      -1.554   2.457   1.955  0.00  0.00     0.032 A 
ATOM     18 CL   UNL d   1      -1.194   4.495   3.661  0.00  0.00    -0.084 Cl
ATOM     19  C   UNL d   1      -1.170   1.398   1.107  0.00  0.00    -0.039 A 
ATOM     20  C   UNL d   1      -2.289   0.590   0.515  0.00  0.00     0.050 C 
ENDBRANCH   9  12
ENDBRANCH   8   9
ENDBRANCH   4   8
BRANCH   1  21
ATOM     21  C   UNL d   1       0.777   4.834  -2.866  0.00  0.00     0.073 A 
ATOM     22  C   UNL d   1       1.172   5.694  -3.863  0.00  0.00     0.089 A 
ATOM     23  O   UNL d   1       0.884   6.969  -3.482  0.00  0.00    -0.242 OA
ATOM     24  C   UNL d   1       1.794   5.541  -5.192  0.00  0.00     0.080 C 
ATOM     25  N   UNL d   1       0.303   6.959  -2.227  0.00  0.00    -0.265 N 
ATOM     26  C   UNL d   1       0.243   5.672  -1.861  0.00  0.00     0.045 A 
ATOM     27  HN  UNL d   1      -0.015   7.766  -1.691  1.00  0.00     0.194 HD
ATOM     28  C   UNL d   1      -0.316   5.302  -0.541  0.00  0.00     0.071 C 
ENDBRANCH   1  21
TORSDOF 4
