REMARK  5 active torsions:
REMARK  status: ('A' for Active; 'I' for Inactive)
REMARK    1  A    between atoms: C_8  and  N_1 
REMARK    2  A    between atoms: C_7  and  C_2 
REMARK    3  A    between atoms: N_13  and  C_10 
REMARK    4  A    between atoms: C_16  and  N_13 
REMARK    5  A    between atoms: C_24  and  C_23 
ROOT
ATOM      1  N   UNL d   1      -0.091  -1.335  -0.107  0.00  0.00    -0.225 N 
ATOM      2  C   UNL d   1       1.120  -0.683   0.114  0.00  0.00     0.139 C 
ATOM      3  N   UNL d   1      -0.433   0.773  -0.224  0.00  0.00    -0.007 NA
ATOM      4  N   UNL d   1      -1.011  -0.398  -0.439  0.00  0.00     0.001 NA
ATOM      5  N   UNL d   1       0.879   0.616   0.128  0.00  0.00    -0.270 N 
ATOM      6  HN  UNL d   1       1.542   1.356   0.357  1.00  0.00     0.185 HD
ENDROOT
BRANCH   2   7
ATOM      7  C   UNL d   1       2.361  -1.369   0.142  0.00  0.00     0.068 C 
ATOM      8  C   UNL d   1       3.416  -0.829   0.765  0.00  0.00     0.092 C 
BRANCH   8   9
ATOM      9  N   UNL d   1       4.696  -1.325   0.798  0.00  0.00    -0.366 N 
ATOM     10  H   UNL d   1       4.915  -2.071   0.145  0.00  0.00     0.165 HD
BRANCH   9  11
ATOM     11  C   UNL d   1       5.777  -0.794   1.521  0.00  0.00     0.033 A 
ATOM     12  C   UNL d   1       5.600  -0.077   2.712  0.00  0.00     0.056 A 
ATOM     13  C   UNL d   1       6.689   0.500   3.367  0.00  0.00     0.074 A 
ATOM     14 CL   UNL d   1       6.435   1.353   4.842  0.00  0.00    -0.081 Cl
ATOM     15  C   UNL d   1       7.966   0.383   2.826  0.00  0.00     0.138 A 
ATOM     16  C   UNL d   1       8.164  -0.318   1.641  0.00  0.00     0.046 A 
ATOM     17  F   UNL d   1       9.023   0.942   3.430  0.00  0.00    -0.204 F 
ATOM     18  C   UNL d   1       7.074  -0.905   0.992  0.00  0.00     0.032 A 
ENDBRANCH   9  11
ENDBRANCH   8   9
ENDBRANCH   2   7
BRANCH   1  19
ATOM     19  C   UNL d   1      -0.440  -2.706  -0.024  0.00  0.00     0.056 A 
ATOM     20  C   UNL d   1       0.248  -3.577   0.830  0.00  0.00     0.032 A 
ATOM     21  C   UNL d   1      -0.078  -4.935   0.851  0.00  0.00     0.009 A 
ATOM     22  C   UNL d   1      -1.089  -5.437   0.023  0.00  0.00    -0.058 A 
ATOM     23  C   UNL d   1      -1.802  -4.552  -0.795  0.00  0.00     0.009 A 
ATOM     24  C   UNL d   1      -1.498  -3.189  -0.804  0.00  0.00     0.032 A 
BRANCH  22  25
ATOM     25  C   UNL d   1      -1.380  -6.916  -0.017  0.00  0.00     0.034 C 
ATOM     26  C   UNL d   1      -0.497  -7.629  -1.031  0.00  0.00     0.010 C 
ENDBRANCH  22  25
ENDBRANCH   1  19
TORSDOF 5
