REMARK  4 active torsions:
REMARK  status: ('A' for Active; 'I' for Inactive)
REMARK    1  A    between atoms: C_3  and  C_1 
REMARK    2  A    between atoms: C_16  and  C_5 
REMARK    3  A    between atoms: N_8  and  C_16 
REMARK    4  A    between atoms: C_14  and  C_13 
ROOT
ATOM      1  C   UNL d   1      -0.132  -2.701   0.042  0.00  0.00     0.165 C 
ENDROOT
BRANCH   1   2
ATOM      2  N   UNL d   1       1.104  -3.459   0.242  0.00  0.00    -0.393 N 
ATOM      3  C   UNL d   1       1.428  -4.282  -0.691  0.00  0.00     0.094 C 
ATOM      4  HN  UNL d   1       1.677  -3.341   1.077  1.00  0.00     0.159 HD
BRANCH   3   5
ATOM      5  C   UNL d   1       2.687  -5.051  -0.609  0.00  0.00    -0.021 A 
ATOM      6  C   UNL d   1       3.568  -4.833   0.457  0.00  0.00     0.014 A 
ATOM      7  C   UNL d   1       4.753  -5.564   0.545  0.00  0.00     0.024 A 
ATOM      8  C   UNL d   1       5.054  -6.508  -0.435  0.00  0.00     0.034 A 
ATOM      9  C   UNL d   1       4.184  -6.720  -1.507  0.00  0.00     0.024 A 
ATOM     10 CL   UNL d   1       6.506  -7.423  -0.318  0.00  0.00    -0.084 Cl
ATOM     11  C   UNL d   1       2.995  -5.988  -1.598  0.00  0.00     0.014 A 
ENDBRANCH   3   5
ENDBRANCH   1   2
BRANCH   1  12
ATOM     12  C   UNL d   1       0.205  -1.240   0.047  0.00  0.00     0.001 A 
ATOM     13  S   UNL d   1      -0.160  -0.255  -1.302  0.00  0.00    -0.092 SA
ATOM     14  C   UNL d   1       0.545   1.139  -0.584  0.00  0.00     0.022 A 
ATOM     15  C   UNL d   1       1.017   0.850   0.683  0.00  0.00     0.021 A 
ATOM     16  C   UNL d   1       0.823  -0.514   1.045  0.00  0.00     0.018 A 
BRANCH  14  17
ATOM     17  C   UNL d   1       0.615   2.399  -1.292  0.00  0.00     0.021 A 
ATOM     18  S   UNL d   1       1.857   3.543  -0.963  0.00  0.00    -0.101 SA
ATOM     19  C   UNL d   1       1.299   4.612  -2.172  0.00  0.00     0.050 A 
ATOM     20  C   UNL d   1       0.174   4.135  -2.802  0.00  0.00     0.008 A 
ATOM     21  C   UNL d   1      -0.223   2.864  -2.291  0.00  0.00     0.021 A 
ENDBRANCH  14  17
ENDBRANCH   1  12
TORSDOF 4
