REMARK  4 active torsions:
REMARK  status: ('A' for Active; 'I' for Inactive)
REMARK    1  A    between atoms: C_7  and  C_1 
REMARK    2  A    between atoms: N_23  and  C_2 
REMARK    3  A    between atoms: N_6  and  N_12 
REMARK       I    between atoms: N_12  and  C_7 
REMARK    4  A    between atoms: C_17  and  N_8 
ROOT
ATOM      1  C   UNL d   1       3.819  -0.030  -0.008  0.00  0.00     0.279 C 
ATOM      2  N   UNL d   1       4.591  -1.185   0.086  0.00  0.00    -0.260 N 
ATOM      3  O   UNL d   1       2.607  -0.076  -0.238  0.00  0.00    -0.265 OA
ATOM      4  H   UNL d   1       5.607  -1.112   0.060  0.00  0.00     0.190 HD
ENDROOT
BRANCH   1   5
ATOM      5  C   UNL d   1       4.508   1.234   0.246  0.00  0.00     0.103 A 
ATOM      6  C   UNL d   1       3.937   2.495   0.363  0.00  0.00     0.062 A 
ATOM      7  C   UNL d   1       4.877   3.531   0.736  0.00  0.00     0.032 A 
ATOM      8  C   UNL d   1       4.793   4.931   0.999  0.00  0.00    -0.045 A 
ATOM      9  C   UNL d   1       6.142   2.958   0.878  0.00  0.00     0.088 A 
ATOM     10  C   UNL d   1       5.968   5.572   1.441  0.00  0.00     0.032 A 
ATOM     11  C   UNL d   1       3.578   5.811   0.863  0.00  0.00     0.049 C 
ATOM     12  C   UNL d   1       7.154   4.864   1.579  0.00  0.00     0.006 A 
ATOM     13  N   UNL d   1       7.280   3.563   1.275  0.00  0.00    -0.354 N 
ATOM     14  C   UNL d   1       8.379   5.563   2.094  0.00  0.00     0.068 C 
ATOM     15  HN  UNL d   1       8.170   3.069   1.340  1.00  0.00     0.166 HD
ATOM     16  S   UNL d   1       6.194   1.300   0.502  0.00  0.00    -0.064 SA
BRANCH   6  17
ATOM     17  N   UNL d   1       2.608   2.675   0.182  0.00  0.00    -0.397 N 
ATOM     18  H   UNL d   1       1.995   1.867   0.034  0.00  0.00     0.156 HD
ATOM     19  H   UNL d   1       2.098   3.508   0.440  0.00  0.00     0.156 HD
ENDBRANCH   6  17
ENDBRANCH   1   5
BRANCH   2  20
ATOM     20  N   UNL d   1       4.067  -2.499  -0.055  0.00  0.00    -0.248 N 
ATOM     21  C   UNL d   1       4.718  -3.370  -0.918  0.00  0.00     0.257 C 
ATOM     22  C   UNL d   1       3.900  -4.627  -1.199  0.00  0.00     0.236 C 
ATOM     23  O   UNL d   1       5.778  -3.111  -1.481  0.00  0.00    -0.270 OA
ATOM     24  N   UNL d   1       3.239  -5.110   0.029  0.00  0.00    -0.308 N 
ATOM     25  C   UNL d   1       2.443  -4.174   0.722  0.00  0.00     0.244 C 
ATOM     26  C   UNL d   1       2.672  -2.720   0.304  0.00  0.00     0.255 C 
ATOM     27  O   UNL d   1       1.577  -4.427   1.557  0.00  0.00    -0.271 OA
BRANCH  24  28
ATOM     28  C   UNL d   1       3.258  -6.516   0.342  0.00  0.00     0.037 A 
ATOM     29  C   UNL d   1       2.238  -7.128   1.091  0.00  0.00     0.033 A 
ATOM     30  C   UNL d   1       2.279  -8.492   1.415  0.00  0.00     0.044 A 
ATOM     31  C   UNL d   1       3.346  -9.263   0.991  0.00  0.00     0.116 A 
ATOM     32  C   UNL d   1       4.375  -8.694   0.254  0.00  0.00     0.044 A 
ATOM     33  F   UNL d   1       3.394 -10.564   1.303  0.00  0.00    -0.206 F 
ATOM     34  C   UNL d   1       4.328  -7.331  -0.065  0.00  0.00     0.033 A 
ENDBRANCH  24  28
ENDBRANCH   2  20
TORSDOF 4
