REMARK  4 active torsions:
REMARK  status: ('A' for Active; 'I' for Inactive)
REMARK    1  A    between atoms: N_2  and  S_1 
REMARK    2  A    between atoms: C_4  and  S_1 
REMARK    3  A    between atoms: C_5  and  N_3 
REMARK    4  A    between atoms: O_19  and  C_12 
ROOT
ATOM      1  N   UNL d   1       0.705  -0.517   1.096  0.00  0.00    -0.304 N 
ATOM      2  N   UNL d   1       2.132  -2.616   2.451  0.00  0.00    -0.376 N 
ATOM      3  C   UNL d   1       1.798  -0.205   2.073  0.00  0.00     0.155 C 
ATOM      4  C   UNL d   1       0.092  -1.854   1.337  0.00  0.00     0.155 C 
ATOM      5  C   UNL d   1       2.844  -1.355   2.171  0.00  0.00     0.143 C 
ATOM      6  C   UNL d   1       1.156  -2.955   1.391  0.00  0.00     0.143 C 
ENDROOT
BRANCH   1   7
ATOM      7  S   UNL d   1       0.964  -0.069  -0.511  0.00  0.00     0.260 S 
ATOM      8  O   UNL d   1       0.041  -0.774  -1.363  0.00  0.00    -0.200 OA
ATOM      9  O   UNL d   1       2.394  -0.079  -0.756  0.00  0.00    -0.200 OA
BRANCH   7  10
ATOM     10  C   UNL d   1       0.419   1.624  -0.456  0.00  0.00     0.079 A 
ATOM     11  C   UNL d   1       1.296   2.667  -0.766  0.00  0.00     0.028 A 
ATOM     12  C   UNL d   1       0.839   3.983  -0.689  0.00  0.00     0.044 A 
ATOM     13  C   UNL d   1      -0.476   4.237  -0.306  0.00  0.00     0.116 A 
ATOM     14  C   UNL d   1      -1.353   3.200  -0.000  0.00  0.00     0.044 A 
ATOM     15  F   UNL d   1      -0.906   5.502  -0.225  0.00  0.00    -0.206 F 
ATOM     16  C   UNL d   1      -0.907   1.882  -0.078  0.00  0.00     0.028 A 
ENDBRANCH   7  10
ENDBRANCH   1   7
BRANCH   2  17
ATOM     17  C   UNL d   1       2.704  -3.638   3.202  0.00  0.00     0.064 A 
ATOM     18  C   UNL d   1       3.174  -3.496   4.528  0.00  0.00     0.094 A 
ATOM     19  C   UNL d   1       3.554  -4.625   5.280  0.00  0.00     0.039 A 
ATOM     20  C   UNL d   1       3.509  -5.907   4.739  0.00  0.00     0.003 A 
ATOM     21  C   UNL d   1       3.140  -6.064   3.415  0.00  0.00     0.002 A 
ATOM     22  C   UNL d   1       2.754  -4.947   2.667  0.00  0.00     0.032 A 
BRANCH  18  23
ATOM     23  O   UNL d   1       3.405  -2.321   5.199  0.00  0.00    -0.354 OA
ATOM     24  C   UNL d   1       2.310  -1.431   5.333  0.00  0.00     0.210 C 
ENDBRANCH  18  23
ENDBRANCH   2  17
TORSDOF 4
