REMARK  2 active torsions:
REMARK  status: ('A' for Active; 'I' for Inactive)
REMARK    1  A    between atoms: C_3  and  C_1 
REMARK    2  A    between atoms: N_2  and  C_4 
ROOT
ATOM      1  C   UNL d   1       0.514  -0.779  -1.095  0.00  0.00     0.048 A 
ATOM      2  C   UNL d   1      -0.241  -2.553  -3.168  0.00  0.00     0.038 A 
ATOM      3  C   UNL d   1       0.855  -2.136  -1.035  0.00  0.00     0.018 A 
ATOM      4  C   UNL d   1      -0.219  -0.321  -2.198  0.00  0.00     0.018 A 
ATOM      5  C   UNL d   1       0.480  -3.015  -2.058  0.00  0.00     0.031 A 
ATOM      6  C   UNL d   1      -0.592  -1.196  -3.226  0.00  0.00     0.031 A 
ENDROOT
BRANCH   2   7
ATOM      7  N   UNL d   1      -0.607  -3.448  -4.223  0.00  0.00    -0.333 N 
ATOM      8  C   UNL d   1      -1.204  -3.111  -5.426  0.00  0.00     0.096 A 
ATOM      9  C   UNL d   1      -1.399  -4.249  -6.178  0.00  0.00     0.019 A 
ATOM     10  C   UNL d   1      -0.909  -5.333  -5.426  0.00  0.00     0.019 A 
ATOM     11  C   UNL d   1      -0.427  -4.821  -4.241  0.00  0.00     0.096 A 
ENDBRANCH   2   7
BRANCH   1  12
ATOM     12  C   UNL d   1       0.930   0.181  -0.008  0.00  0.00     0.417 C 
ATOM     13  F   UNL d   1       1.645  -0.405   0.993  0.00  0.00    -0.166 F 
ATOM     14  F   UNL d   1      -0.135   0.779   0.595  0.00  0.00    -0.166 F 
ATOM     15  F   UNL d   1       1.710   1.193  -0.479  0.00  0.00    -0.166 F 
ENDBRANCH   1  12
TORSDOF 2
