REMARK  5 active torsions:
REMARK  status: ('A' for Active; 'I' for Inactive)
REMARK       I    between atoms: N_2  and  C_1 
REMARK    1  A    between atoms: C_3  and  C_1 
REMARK       I    between atoms: C_4  and  N_2 
REMARK    2  A    between atoms: C_5  and  C_4 
REMARK    3  A    between atoms: O_14  and  C_6 
REMARK    4  A    between atoms: C_17  and  C_13 
REMARK    5  A    between atoms: C_18  and  C_17 
ROOT
ATOM      1  C   UNL d   1      -1.022   2.909   0.538  0.00  0.00     0.261 C 
ATOM      2  N   UNL d   1       0.338   2.861   0.279  0.00  0.00    -0.289 N 
ATOM      3  C   UNL d   1       0.887   2.279  -0.857  0.00  0.00     0.258 C 
ATOM      4  O   UNL d   1      -1.900   2.374  -0.132  0.00  0.00    -0.267 OA
ATOM      5  O   UNL d   1       0.272   1.690  -1.734  0.00  0.00    -0.267 OA
ATOM      6  H   UNL d   1       0.967   3.175   1.000  0.00  0.00     0.172 HD
ENDROOT
BRANCH   1   7
ATOM      7  C   UNL d   1      -1.456   3.610   1.774  0.00  0.00     0.065 A 
ATOM      8  C   UNL d   1      -2.612   3.163   2.437  0.00  0.00     0.081 A 
ATOM      9  C   UNL d   1      -3.072   3.805   3.584  0.00  0.00     0.037 A 
ATOM     10  C   UNL d   1      -2.404   4.929   4.064  0.00  0.00     0.003 A 
ATOM     11  C   UNL d   1      -1.271   5.404   3.399  0.00  0.00     0.001 A 
ATOM     12  C   UNL d   1      -0.791   4.747   2.258  0.00  0.00     0.020 A 
BRANCH   8  13
ATOM     13  O   UNL d   1      -3.353   2.096   2.004  0.00  0.00    -0.360 OA
ATOM     14  H   UNL d   1      -3.089   1.903   1.075  0.00  0.00     0.217 HD
ENDBRANCH   8  13
ENDBRANCH   1   7
BRANCH   3  15
ATOM     15  C   UNL d   1       2.370   2.356  -0.967  0.00  0.00     0.032 A 
ATOM     16  C   UNL d   1       3.051   1.293  -1.573  0.00  0.00     0.017 A 
ATOM     17  C   UNL d   1       4.445   1.305  -1.655  0.00  0.00     0.008 A 
ATOM     18  C   UNL d   1       5.176   2.386  -1.143  0.00  0.00    -0.058 A 
ATOM     19  C   UNL d   1       4.482   3.480  -0.607  0.00  0.00     0.008 A 
ATOM     20  C   UNL d   1       3.087   3.467  -0.514  0.00  0.00     0.017 A 
BRANCH  18  21
ATOM     21  C   UNL d   1       6.687   2.361  -1.160  0.00  0.00     0.038 C 
BRANCH  21  22
ATOM     22  C   UNL d   1       7.319   2.463   0.235  0.00  0.00     0.000 C 
ATOM     23  C   UNL d   1       6.942   1.310   1.155  0.00  0.00     0.005 C 
ENDBRANCH  21  22
ENDBRANCH  18  21
ENDBRANCH   3  15
TORSDOF 5
