REMARK  4 active torsions:
REMARK  status: ('A' for Active; 'I' for Inactive)
REMARK    1  A    between atoms: O_2  and  S_1 
REMARK    2  A    between atoms: C_3  and  S_1 
REMARK    3  A    between atoms: C_6  and  O_2 
REMARK       I    between atoms: C_7  and  N_8 
REMARK    4  A    between atoms: N_8  and  C_16 
ROOT
ATOM      1  S   UNL d   1       1.133   0.138  -0.177  0.00  0.00     0.303 S 
ATOM      2  O   UNL d   1       0.535   0.764  -1.341  0.00  0.00    -0.193 OA
ATOM      3  O   UNL d   1       2.578   0.097  -0.021  0.00  0.00    -0.193 OA
ENDROOT
BRANCH   1   4
ATOM      4  O   UNL d   1       0.528  -1.370  -0.011  0.00  0.00    -0.229 OA
BRANCH   4   5
ATOM      5  C   UNL d   1       0.761  -2.341  -0.958  0.00  0.00     0.090 A 
ATOM      6  C   UNL d   1       1.861  -2.352  -1.820  0.00  0.00     0.044 A 
ATOM      7  C   UNL d   1       2.039  -3.394  -2.738  0.00  0.00    -0.059 A 
ATOM      8  C   UNL d   1       3.220  -3.402  -3.664  0.00  0.00     0.048 C 
ATOM      9  C   UNL d   1       1.099  -4.429  -2.789  0.00  0.00     0.013 A 
ATOM     10  C   UNL d   1       0.000  -4.441  -1.922  0.00  0.00    -0.059 A 
ATOM     11  C   UNL d   1      -0.159  -3.392  -1.004  0.00  0.00     0.044 A 
ATOM     12  C   UNL d   1      -0.978  -5.577  -1.988  0.00  0.00     0.048 C 
ENDBRANCH   4   5
ENDBRANCH   1   4
BRANCH   1  13
ATOM     13  C   UNL d   1       0.517   1.011   1.252  0.00  0.00     0.086 A 
ATOM     14  C   UNL d   1       1.300   1.090   2.407  0.00  0.00     0.028 A 
ATOM     15  C   UNL d   1       0.877   1.885   3.478  0.00  0.00     0.031 A 
ATOM     16  C   UNL d   1      -0.321   2.612   3.401  0.00  0.00     0.034 A 
ATOM     17  C   UNL d   1      -1.096   2.512   2.241  0.00  0.00     0.031 A 
ATOM     18  C   UNL d   1      -0.680   1.720   1.165  0.00  0.00     0.028 A 
BRANCH  16  19
ATOM     19  N   UNL d   1      -0.660   3.424   4.504  0.00  0.00    -0.328 N 
ATOM     20  C   UNL d   1      -1.771   4.240   4.631  0.00  0.00     0.218 C 
ATOM     21  O   UNL d   1      -2.672   4.385   3.811  0.00  0.00    -0.274 OA
ATOM     22  C   UNL d   1      -1.812   5.000   5.934  0.00  0.00     0.117 C 
ATOM     23  H   UNL d   1      -0.003   3.420   5.275  0.00  0.00     0.169 HD
ENDBRANCH  16  19
ENDBRANCH   1  13
TORSDOF 4
