REMARK  5 active torsions:
REMARK  status: ('A' for Active; 'I' for Inactive)
REMARK    1  A    between atoms: C_3  and  S_1 
REMARK    2  A    between atoms: O_5  and  S_1 
REMARK    3  A    between atoms: C_4  and  C_2 
REMARK    4  A    between atoms: C_8  and  O_5 
REMARK    5  A    between atoms: C_6  and  C_9 
ROOT
ATOM      1  S   UNL d   1       1.349   0.004   0.222  0.00  0.00     0.304 S 
ATOM      2  O   UNL d   1       0.721   1.115   0.916  0.00  0.00    -0.193 OA
ATOM      3  O   UNL d   1       2.775  -0.033  -0.051  0.00  0.00    -0.193 OA
ENDROOT
BRANCH   1   4
ATOM      4  C   UNL d   1       0.567   0.062  -1.406  0.00  0.00     0.102 A 
ATOM      5  C   UNL d   1      -0.810   0.317  -1.545  0.00  0.00     0.072 A 
ATOM      6  C   UNL d   1      -1.297   0.632  -2.834  0.00  0.00     0.033 A 
ATOM      7  C   UNL d   1      -0.454   0.682  -3.958  0.00  0.00     0.048 A 
ATOM      8  C   UNL d   1       0.902   0.379  -3.794  0.00  0.00     0.018 A 
ATOM      9  C   UNL d   1       1.412   0.076  -2.530  0.00  0.00     0.027 A 
BRANCH   5  10
ATOM     10  C   UNL d   1      -1.795   0.338  -0.397  0.00  0.00     0.419 C 
ATOM     11  F   UNL d   1      -1.451  -0.434   0.662  0.00  0.00    -0.166 F 
ATOM     12  F   UNL d   1      -2.035   1.589   0.070  0.00  0.00    -0.166 F 
ATOM     13  F   UNL d   1      -3.014  -0.143  -0.789  0.00  0.00    -0.166 F 
ENDBRANCH   5  10
BRANCH   7  14
ATOM     14  C   UNL d   1      -0.981   1.082  -5.318  0.00  0.00     0.417 C 
ATOM     15  F   UNL d   1      -2.310   1.376  -5.319  0.00  0.00    -0.166 F 
ATOM     16  F   UNL d   1      -0.354   2.184  -5.813  0.00  0.00    -0.166 F 
ATOM     17  F   UNL d   1      -0.812   0.103  -6.248  0.00  0.00    -0.166 F 
ENDBRANCH   7  14
ENDBRANCH   1   4
BRANCH   1  18
ATOM     18  O   UNL d   1       0.875  -1.435   0.846  0.00  0.00    -0.227 OA
BRANCH  18  19
ATOM     19  C   UNL d   1       1.560  -2.034   1.891  0.00  0.00     0.117 A 
ATOM     20  C   UNL d   1       2.332  -1.344   2.839  0.00  0.00     0.077 A 
ATOM     21  N   UNL d   1       2.382   0.001   2.865  0.00  0.00    -0.363 N 
ATOM     22  C   UNL d   1       3.070  -2.102   3.773  0.00  0.00    -0.007 A 
ATOM     23  C   UNL d   1       3.204   0.626   3.729  0.00  0.00     0.088 A 
ATOM     24  HN  UNL d   1       1.798   0.546   2.231  1.00  0.00     0.165 HD
ATOM     25  C   UNL d   1       4.020  -0.041   4.614  0.00  0.00     0.018 A 
ATOM     26  C   UNL d   1       3.938  -1.427   4.645  0.00  0.00     0.015 A 
ATOM     27  C   UNL d   1       2.942  -3.500   3.818  0.00  0.00     0.014 A 
ATOM     28  C   UNL d   1       2.106  -4.159   2.921  0.00  0.00     0.004 A 
ATOM     29  C   UNL d   1       1.427  -3.430   1.949  0.00  0.00     0.040 A 
ENDBRANCH  18  19
ENDBRANCH   1  18
TORSDOF 5
