REMARK  6 active torsions:
REMARK  status: ('A' for Active; 'I' for Inactive)
REMARK    1  A    between atoms: C_7  and  C_1 
REMARK    2  A    between atoms: C_10  and  C_2 
REMARK    3  A    between atoms: N_8  and  C_3 
REMARK    4  A    between atoms: C_9  and  C_7 
REMARK    5  A    between atoms: C_14  and  N_8 
REMARK    6  A    between atoms: O_18  and  C_15 
ROOT
ATOM      1  C   UNL d   1       0.001   1.293  -0.027  0.00  0.00     0.086 C 
ATOM      2  C   UNL d   1       1.316   0.858  -0.056  0.00  0.00     0.066 C 
ATOM      3  C   UNL d   1       0.309  -1.134  -0.015  0.00  0.00     0.150 C 
ATOM      4  N   UNL d   1       1.464  -0.518  -0.064  0.00  0.00    -0.335 N 
ATOM      5  HN  UNL d   1       2.365  -0.995  -0.104  1.00  0.00     0.168 HD
ATOM      6  S   UNL d   1      -1.034  -0.077   0.161  0.00  0.00    -0.048 SA
ENDROOT
BRANCH   1   7
ATOM      7  C   UNL d   1      -0.533   2.640   0.008  0.00  0.00     0.201 C 
ATOM      8  O   UNL d   1       0.013   3.552   0.629  0.00  0.00    -0.286 OA
BRANCH   7   9
ATOM      9  C   UNL d   1      -1.780   2.999  -0.741  0.00  0.00     0.016 A 
ATOM     10  C   UNL d   1      -2.215   2.312  -1.883  0.00  0.00     0.018 A 
ATOM     11  C   UNL d   1      -3.402   2.689  -2.531  0.00  0.00     0.037 A 
ATOM     12  C   UNL d   1      -4.145   3.773  -2.064  0.00  0.00     0.068 A 
ATOM     13  C   UNL d   1      -3.687   4.486  -0.956  0.00  0.00     0.037 A 
ATOM     14  C   UNL d   1      -2.515   4.106  -0.298  0.00  0.00     0.018 A 
BRANCH  12  15
ATOM     15  O   UNL d   1      -5.311   4.244  -2.599  0.00  0.00    -0.356 OA
ATOM     16  C   UNL d   1      -5.877   3.504  -3.672  0.00  0.00     0.210 C 
ENDBRANCH  12  15
ENDBRANCH   7   9
ENDBRANCH   1   7
BRANCH   2  17
ATOM     17  C   UNL d   1       2.521   1.681  -0.096  0.00  0.00    -0.008 A 
ATOM     18  C   UNL d   1       3.651   1.257   0.623  0.00  0.00     0.014 A 
ATOM     19  C   UNL d   1       4.840   1.988   0.588  0.00  0.00     0.001 A 
ATOM     20  C   UNL d   1       4.914   3.151  -0.174  0.00  0.00     0.000 A 
ATOM     21  C   UNL d   1       3.806   3.576  -0.904  0.00  0.00     0.001 A 
ATOM     22  C   UNL d   1       2.617   2.840  -0.873  0.00  0.00     0.014 A 
ENDBRANCH   2  17
BRANCH   3  23
ATOM     23  N   UNL d   1       0.136  -2.475  -0.062  0.00  0.00    -0.337 N 
ATOM     24  H   UNL d   1      -0.773  -2.859   0.155  0.00  0.00     0.168 HD
BRANCH  23  25
ATOM     25  C   UNL d   1       1.040  -3.397  -0.630  0.00  0.00     0.034 A 
ATOM     26  C   UNL d   1       1.024  -4.729  -0.193  0.00  0.00     0.029 A 
ATOM     27  C   UNL d   1       1.954  -5.656  -0.676  0.00  0.00     0.002 A 
ATOM     28  C   UNL d   1       2.913  -5.266  -1.608  0.00  0.00     0.000 A 
ATOM     29  C   UNL d   1       2.948  -3.948  -2.050  0.00  0.00     0.002 A 
ATOM     30  C   UNL d   1       2.025  -3.025  -1.556  0.00  0.00     0.029 A 
ENDBRANCH  23  25
ENDBRANCH   3  23
TORSDOF 6
