REMARK  3 active torsions:
REMARK  status: ('A' for Active; 'I' for Inactive)
REMARK    1  A    between atoms: C_6  and  C_1 
REMARK    2  A    between atoms: O_10  and  C_3 
REMARK    3  A    between atoms: O_11  and  C_6 
ROOT
ATOM      1  C   UNL d   1       2.525   0.054   0.002  0.00  0.00     0.116 A 
ATOM      2  S   UNL d   1       1.682  -1.444   0.001  0.00  0.00    -0.063 SA
ATOM      3  C   UNL d   1       1.635   1.113   0.002  0.00  0.00     0.102 A 
ATOM      4  C   UNL d   1       0.263   0.708   0.001  0.00  0.00     0.033 A 
ATOM      5  C   UNL d   1       0.165  -0.678   0.001  0.00  0.00     0.087 A 
ATOM      6  N   UNL d   1      -0.971  -1.407   0.001  0.00  0.00    -0.360 N 
ATOM      7  HN  UNL d   1      -0.976  -2.427   0.000  1.00  0.00     0.166 HD
ATOM      8  C   UNL d   1      -0.951   1.429   0.001  0.00  0.00     0.018 A 
ATOM      9  C   UNL d   1      -2.097  -0.667   0.001  0.00  0.00     0.089 A 
ATOM     10  C   UNL d   1      -2.149   0.716   0.001  0.00  0.00     0.018 A 
ENDROOT
BRANCH   1  11
ATOM     11  C   UNL d   1       3.972   0.021   0.002  0.00  0.00     0.302 C 
ATOM     12  O   UNL d   1       4.680  -0.980   0.002  0.00  0.00    -0.259 OA
BRANCH  11  13
ATOM     13  O   UNL d   1       4.471   1.298   0.003  0.00  0.00    -0.322 OA
ATOM     14  C   UNL d   1       5.902   1.345   0.003  0.00  0.00     0.213 C 
ENDBRANCH  11  13
ENDBRANCH   1  11
BRANCH   3  15
ATOM     15  O   UNL d   1       2.008   2.413   0.001  0.00  0.00    -0.358 OA
ATOM     16  H   UNL d   1       2.982   2.495   0.001  0.00  0.00     0.217 HD
ENDBRANCH   3  15
TORSDOF 3
