REMARK  5 active torsions:
REMARK  status: ('A' for Active; 'I' for Inactive)
REMARK    1  A    between atoms: C_7  and  N_1 
REMARK    2  A    between atoms: O_13  and  C_2 
REMARK    3  A    between atoms: C_8  and  C_3 
REMARK    4  A    between atoms: O_16  and  C_8 
REMARK    5  A    between atoms: C_19  and  O_16 
ROOT
ATOM      1  N   UNL d   1       0.168  -1.453  -0.268  0.00  0.00    -0.216 N 
ATOM      2  C   UNL d   1       1.374  -0.850   0.082  0.00  0.00     0.195 C 
ATOM      3  C   UNL d   1       1.112   0.507  -0.015  0.00  0.00     0.174 C 
ATOM      4  N   UNL d   1      -0.684  -0.511  -0.740  0.00  0.00    -0.012 NA
ATOM      5  N   UNL d   1      -0.150   0.682  -0.527  0.00  0.00    -0.274 N 
ATOM      6  HN  UNL d   1      -0.599   1.579  -0.711  1.00  0.00     0.184 HD
ENDROOT
BRANCH   1   7
ATOM      7  C   UNL d   1      -0.235  -2.811  -0.169  0.00  0.00     0.060 A 
ATOM      8  C   UNL d   1       0.441  -3.712   0.666  0.00  0.00     0.055 A 
ATOM      9  C   UNL d   1       0.024  -5.043   0.733  0.00  0.00     0.037 A 
ATOM     10 CL   UNL d   1       0.862  -6.141   1.760  0.00  0.00    -0.084 Cl
ATOM     11  C   UNL d   1      -1.063  -5.490  -0.012  0.00  0.00     0.048 A 
ATOM     12  C   UNL d   1      -1.751  -4.588  -0.818  0.00  0.00     0.037 A 
ATOM     13  C   UNL d   1      -1.354  -3.251  -0.894  0.00  0.00     0.055 A 
ATOM     14 CL   UNL d   1      -3.099  -5.129  -1.739  0.00  0.00    -0.084 Cl
ENDBRANCH   1   7
BRANCH   2  15
ATOM     15  O   UNL d   1       2.494  -1.496   0.414  0.00  0.00    -0.343 OA
ATOM     16  H   UNL d   1       2.558  -2.325  -0.094  0.00  0.00     0.219 HD
ENDBRANCH   2  15
BRANCH   3  17
ATOM     17  C   UNL d   1       2.003   1.606   0.316  0.00  0.00     0.315 C 
ATOM     18  O   UNL d   1       3.161   1.463   0.690  0.00  0.00    -0.257 OA
BRANCH  17  19
ATOM     19  O   UNL d   1       1.389   2.821   0.192  0.00  0.00    -0.317 OA
BRANCH  19  20
ATOM     20  C   UNL d   1       2.158   3.955   0.616  0.00  0.00     0.175 C 
ATOM     21  C   UNL d   1       2.005   4.146   2.114  0.00  0.00     0.034 C 
ENDBRANCH  19  20
ENDBRANCH  17  19
ENDBRANCH   3  17
TORSDOF 5
