REMARK  4 active torsions:
REMARK  status: ('A' for Active; 'I' for Inactive)
REMARK    1  A    between atoms: C_5  and  C_1 
REMARK       I    between atoms: C_2  and  N_4 
REMARK       I    between atoms: N_6  and  C_2 
REMARK    2  A    between atoms: N_4  and  C_3 
REMARK    3  A    between atoms: O_9  and  C_5 
REMARK    4  A    between atoms: C_10  and  N_6 
ROOT
ATOM      1  C   UNL d   1       2.876  -1.764  -1.385  0.00  0.00     0.325 C 
ATOM      2  N   UNL d   1       1.842  -2.420  -0.777  0.00  0.00    -0.308 N 
ATOM      3  N   UNL d   1       3.800  -2.492  -2.064  0.00  0.00    -0.309 N 
ATOM      4  O   UNL d   1       3.114  -0.559  -1.289  0.00  0.00    -0.247 OA
ATOM      5  H   UNL d   1       1.872  -3.434  -0.815  0.00  0.00     0.170 HD
ATOM      6  H   UNL d   1       4.621  -1.917  -2.219  0.00  0.00     0.170 HD
ENDROOT
BRANCH   2   7
ATOM      7  C   UNL d   1       0.901  -1.873   0.148  0.00  0.00     0.053 A 
ATOM      8  C   UNL d   1       0.030  -2.724   0.869  0.00  0.00     0.064 A 
ATOM      9  C   UNL d   1      -0.809  -2.194   1.871  0.00  0.00     0.020 A 
ATOM     10  C   UNL d   1      -0.817  -0.828   2.144  0.00  0.00     0.001 A 
ATOM     11  C   UNL d   1      -0.011   0.021   1.400  0.00  0.00     0.002 A 
ATOM     12  C   UNL d   1       0.831  -0.496   0.410  0.00  0.00     0.030 A 
BRANCH   8  13
ATOM     13  C   UNL d   1      -0.018  -4.183   0.586  0.00  0.00     0.178 C 
ATOM     14  O   UNL d   1       0.724  -4.786  -0.167  0.00  0.00    -0.646 OA
BRANCH  13  15
ATOM     15  O   UNL d   1      -1.014  -4.818   1.232  0.00  0.00    -0.773 OA
ATOM     16  H   UNL d   1      -0.952  -5.748   0.930  0.00  0.00     0.167 HD
ENDBRANCH  13  15
ENDBRANCH   8  13
ENDBRANCH   2   7
BRANCH   3  17
ATOM     17  C   UNL d   1       3.869  -3.791  -2.587  0.00  0.00     0.036 A 
ATOM     18  C   UNL d   1       2.772  -4.606  -2.855  0.00  0.00     0.029 A 
ATOM     19  C   UNL d   1       2.959  -5.872  -3.427  0.00  0.00     0.002 A 
ATOM     20  C   UNL d   1       4.240  -6.324  -3.740  0.00  0.00     0.000 A 
ATOM     21  C   UNL d   1       5.340  -5.511  -3.493  0.00  0.00     0.002 A 
ATOM     22  C   UNL d   1       5.152  -4.249  -2.929  0.00  0.00     0.029 A 
ENDBRANCH   3  17
TORSDOF 4
