REMARK  5 active torsions:
REMARK  status: ('A' for Active; 'I' for Inactive)
REMARK    1  A    between atoms: C_5  and  C_1 
REMARK    2  A    between atoms: N_6  and  C_1 
REMARK    3  A    between atoms: C_9  and  N_6 
REMARK    4  A    between atoms: C_7  and  C_8 
REMARK    5  A    between atoms: C_8  and  C_9 
ROOT
ATOM      1  N   UNL d   1       2.428   0.011  -0.182  0.00  0.00    -0.380 N 
ATOM      2  H   UNL d   1       2.728   0.215   0.770  0.00  0.00     0.160 HD
ENDROOT
BRANCH   1   3
ATOM      3  C   UNL d   1       1.162   0.422  -0.580  0.00  0.00     0.106 C 
ATOM      4  S   UNL d   1       0.472  -0.045  -2.048  0.00  0.00    -0.060 SA
BRANCH   3   5
ATOM      5  C   UNL d   1       0.447   1.321   0.400  0.00  0.00     0.002 A 
ATOM      6  C   UNL d   1      -0.957   1.348   0.467  0.00  0.00     0.014 A 
ATOM      7  C   UNL d   1      -1.617   2.183   1.375  0.00  0.00     0.001 A 
ATOM      8  C   UNL d   1      -0.884   2.995   2.235  0.00  0.00     0.000 A 
ATOM      9  C   UNL d   1       0.508   2.984   2.182  0.00  0.00     0.001 A 
ATOM     10  C   UNL d   1       1.171   2.160   1.265  0.00  0.00     0.014 A 
ENDBRANCH   3   5
ENDBRANCH   1   3
BRANCH   1  11
ATOM     11  C   UNL d   1       3.298  -0.961  -0.848  0.00  0.00     0.126 C 
BRANCH  11  12
ATOM     12  C   UNL d   1       4.781  -0.713  -0.556  0.00  0.00     0.076 C 
BRANCH  12  13
ATOM     13  C   UNL d   1       5.121  -0.906   0.901  0.00  0.00     0.010 A 
ATOM     14  N   UNL d   1       4.533  -0.059   1.786  0.00  0.00    -0.369 N 
ATOM     15  C   UNL d   1       4.828  -0.226   3.094  0.00  0.00     0.088 A 
ATOM     16  HN  UNL d   1       3.895   0.674   1.475  1.00  0.00     0.165 HD
ATOM     17  C   UNL d   1       5.682  -1.205   3.571  0.00  0.00     0.017 A 
ATOM     18  C   UNL d   1       6.279  -2.060   2.653  0.00  0.00     0.003 A 
ATOM     19  C   UNL d   1       6.001  -1.911   1.297  0.00  0.00     0.025 A 
ENDBRANCH  12  13
ENDBRANCH  11  12
ENDBRANCH   1  11
TORSDOF 5
