REMARK  3 active torsions:
REMARK  status: ('A' for Active; 'I' for Inactive)
REMARK    1  A    between atoms: C_7  and  C_1 
REMARK    2  A    between atoms: C_16  and  N_4 
REMARK       I    between atoms: N_14  and  C_7 
REMARK    3  A    between atoms: C_9  and  N_15 
ROOT
ATOM      1  C   UNL d   1      -0.461  -2.520   0.222  0.00  0.00     0.274 C 
ATOM      2  N   UNL d   1      -1.855  -2.695   0.362  0.00  0.00    -0.343 N 
ATOM      3  N   UNL d   1      -4.681  -3.633   0.265  0.00  0.00     0.105 N 
ATOM      4  O   UNL d   1       0.073  -2.399  -0.878  0.00  0.00    -0.266 OA
ATOM      5  C   UNL d   1      -2.615  -2.692  -0.882  0.00  0.00     0.156 C 
ATOM      6  C   UNL d   1      -2.390  -3.547   1.433  0.00  0.00     0.156 C 
ATOM      7  C   UNL d   1      -3.932  -3.626   1.524  0.00  0.00     0.293 C 
ATOM      8  C   UNL d   1      -4.127  -2.612  -0.644  0.00  0.00     0.293 C 
ENDROOT
BRANCH   1   9
ATOM      9  C   UNL d   1       0.346  -2.474   1.446  0.00  0.00     0.141 A 
ATOM     10  N   UNL d   1      -0.122  -2.001   2.611  0.00  0.00    -0.272 N 
ATOM     11  N   UNL d   1       0.920  -2.159   3.453  0.00  0.00    -0.196 N 
ATOM     12  HN  UNL d   1      -1.045  -1.615   2.812  1.00  0.00     0.189 HD
ATOM     13  N   UNL d   1       2.066  -2.632   2.896  0.00  0.00    -0.281 N 
ATOM     14  C   UNL d   1       1.699  -2.846   1.624  0.00  0.00     0.057 A 
ATOM     15  HN  UNL d   1       2.974  -2.786   3.335  1.00  0.00     0.189 HD
ATOM     16  C   UNL d   1       2.639  -3.440   0.645  0.00  0.00     0.072 C 
BRANCH  11  17
ATOM     17  C   UNL d   1       0.781  -1.892   4.835  0.00  0.00     0.074 A 
ATOM     18  C   UNL d   1      -0.488  -1.586   5.359  0.00  0.00     0.033 A 
ATOM     19  C   UNL d   1      -0.637  -1.333   6.722  0.00  0.00     0.002 A 
ATOM     20  C   UNL d   1       0.475  -1.371   7.560  0.00  0.00     0.000 A 
ATOM     21  C   UNL d   1       1.736  -1.673   7.041  0.00  0.00     0.002 A 
ATOM     22  C   UNL d   1       1.892  -1.945   5.681  0.00  0.00     0.033 A 
ENDBRANCH  11  17
ENDBRANCH   1   9
BRANCH   3  23
ATOM     23  C   UNL d   1      -4.982  -4.965  -0.300  0.00  0.00     0.290 C 
ATOM     24  C   UNL d   1      -3.793  -5.814  -0.741  0.00  0.00    -0.009 C 
ATOM     25  C   UNL d   1      -3.753  -5.902  -2.149  0.00  0.00    -0.017 C 
ATOM     26  C   UNL d   1      -2.848  -6.467   0.036  0.00  0.00     0.010 C 
ATOM     27  C   UNL d   1      -2.662  -6.471  -2.784  0.00  0.00     0.013 C 
ATOM     28  C   UNL d   1      -4.973  -5.337  -2.685  0.00  0.00    -0.017 A 
ATOM     29  C   UNL d   1      -1.637  -7.008  -1.997  0.00  0.00     0.001 C 
ATOM     30  C   UNL d   1      -1.746  -7.037  -0.599  0.00  0.00     0.001 C 
ATOM     31  C   UNL d   1      -5.754  -4.840  -1.617  0.00  0.00    -0.009 A 
ATOM     32  C   UNL d   1      -5.435  -5.249  -3.987  0.00  0.00     0.013 A 
ATOM     33  C   UNL d   1      -6.994  -4.256  -1.833  0.00  0.00     0.010 A 
ATOM     34  C   UNL d   1      -7.453  -4.161  -3.146  0.00  0.00     0.001 A 
ATOM     35  C   UNL d   1      -6.680  -4.652  -4.213  0.00  0.00     0.001 A 
ENDBRANCH   3  23
TORSDOF 3
