REMARK  5 active torsions:
REMARK  status: ('A' for Active; 'I' for Inactive)
REMARK    1  A    between atoms: N_2  and  S_1 
REMARK    2  A    between atoms: C_5  and  S_1 
REMARK    3  A    between atoms: C_3  and  N_2 
REMARK       I    between atoms: C_4  and  N_6 
REMARK    4  A    between atoms: C_9  and  C_4 
REMARK    5  A    between atoms: N_6  and  C_17 
ROOT
ATOM      1  C   UNL d   1       0.334   1.201   1.090  0.00  0.00     0.075 A 
ATOM      2  C   UNL d   1      -0.233   0.642   2.237  0.00  0.00     0.027 A 
ATOM      3  C   UNL d   1       0.633   2.563   1.052  0.00  0.00     0.027 A 
ATOM      4  C   UNL d   1      -0.178   2.822   3.334  0.00  0.00     0.035 A 
ATOM      5  C   UNL d   1       0.373   3.368   2.170  0.00  0.00     0.031 A 
ATOM      6  C   UNL d   1      -0.495   1.456   3.348  0.00  0.00     0.031 A 
ENDROOT
BRANCH   1   7
ATOM      7  S   UNL d   1       0.827   0.147  -0.264  0.00  0.00     0.245 S 
ATOM      8  O   UNL d   1       1.837   0.857  -1.021  0.00  0.00    -0.206 OA
ATOM      9  O   UNL d   1       1.074  -1.165   0.292  0.00  0.00    -0.206 OA
BRANCH   7  10
ATOM     10  N   UNL d   1      -0.588   0.136  -1.224  0.00  0.00    -0.180 NA
ATOM     11  H   UNL d   1      -0.580   0.988  -1.784  0.00  0.00     0.146 HD
BRANCH  10  12
ATOM     12  C   UNL d   1      -0.724  -1.034  -2.061  0.00  0.00     0.034 A 
ATOM     13  C   UNL d   1      -1.399  -2.155  -1.534  0.00  0.00    -0.039 A 
ATOM     14  C   UNL d   1      -1.443  -3.346  -2.277  0.00  0.00     0.008 A 
ATOM     15  C   UNL d   1      -2.059  -2.146  -0.183  0.00  0.00     0.050 C 
ATOM     16  C   UNL d   1      -0.854  -3.422  -3.534  0.00  0.00     0.001 A 
ATOM     17  C   UNL d   1      -0.214  -2.306  -4.064  0.00  0.00     0.008 A 
ATOM     18  C   UNL d   1      -0.136  -1.100  -3.341  0.00  0.00    -0.039 A 
ATOM     19  C   UNL d   1       0.575   0.038  -4.020  0.00  0.00     0.050 C 
ENDBRANCH  10  12
ENDBRANCH   7  10
ENDBRANCH   1   7
BRANCH   4  20
ATOM     20  N   UNL d   1      -0.420   3.566   4.513  0.00  0.00    -0.323 N 
ATOM     21  C   UNL d   1      -0.116   4.901   4.736  0.00  0.00     0.256 C 
ATOM     22  O   UNL d   1       0.398   5.675   3.938  0.00  0.00    -0.267 OA
ATOM     23  H   UNL d   1      -0.884   3.063   5.259  0.00  0.00     0.169 HD
BRANCH  21  24
ATOM     24  C   UNL d   1      -0.500   5.440   6.074  0.00  0.00     0.032 A 
ATOM     25  C   UNL d   1      -0.448   4.669   7.244  0.00  0.00     0.018 A 
ATOM     26  C   UNL d   1      -0.848   5.227   8.464  0.00  0.00     0.025 A 
ATOM     27  C   UNL d   1      -1.288   6.550   8.519  0.00  0.00     0.034 A 
ATOM     28  C   UNL d   1      -1.308   7.333   7.367  0.00  0.00     0.025 A 
ATOM     29 CL   UNL d   1      -1.807   7.219  10.015  0.00  0.00    -0.084 Cl
ATOM     30  C   UNL d   1      -0.908   6.780   6.148  0.00  0.00     0.018 A 
ENDBRANCH  21  24
ENDBRANCH   4  20
TORSDOF 5
