REMARK  2 active torsions:
REMARK  status: ('A' for Active; 'I' for Inactive)
REMARK    1  A    between atoms: C_8  and  C_2 
REMARK    2  A    between atoms: O_15  and  C_3 
ROOT
ATOM      1  C   UNL d   1       2.475   0.720   0.109  0.00  0.00     0.107 A 
ATOM      2  C   UNL d   1       1.279   1.479   0.060  0.00  0.00     0.014 A 
ATOM      3  C   UNL d   1       2.392  -0.669   0.058  0.00  0.00     0.162 A 
ATOM      4  N   UNL d   1       1.236  -1.344   0.006  0.00  0.00    -0.339 N 
ATOM      5  HN  UNL d   1       1.226  -2.363  -0.027  1.00  0.00     0.168 HD
ATOM      6  C   UNL d   1       0.045   0.765  -0.006  0.00  0.00    -0.022 A 
ATOM      7  C   UNL d   1       0.085  -0.641  -0.003  0.00  0.00     0.018 A 
ATOM      8  C   UNL d   1       3.779   1.294   0.259  0.00  0.00     0.104 C 
ATOM      9  N   UNL d   1       4.876   1.644   0.366  0.00  0.00    -0.191 NA
ATOM     10  C   UNL d   1      -1.304   1.456  -0.009  0.00  0.00     0.041 C 
ATOM     11  C   UNL d   1      -1.159  -1.491  -0.066  0.00  0.00     0.057 C 
ATOM     12  C   UNL d   1      -2.483   0.573  -0.414  0.00  0.00     0.005 C 
ATOM     13  C   UNL d   1      -2.424  -0.747   0.334  0.00  0.00     0.006 C 
ENDROOT
BRANCH   2  14
ATOM     14  C   UNL d   1       1.296   2.976   0.097  0.00  0.00     0.017 A 
ATOM     15  S   UNL d   1       2.403   3.873  -0.884  0.00  0.00    -0.101 SA
ATOM     16  C   UNL d   1       1.897   5.372  -0.247  0.00  0.00     0.050 A 
ATOM     17  C   UNL d   1       0.808   5.232   0.576  0.00  0.00     0.008 A 
ATOM     18  C   UNL d   1       0.486   3.860   0.797  0.00  0.00     0.020 A 
ENDBRANCH   2  14
BRANCH   3  19
ATOM     19  O   UNL d   1       3.476  -1.502   0.065  0.00  0.00    -0.345 OA
ATOM     20  H   UNL d   1       4.307  -1.004   0.012  0.00  0.00     0.219 HD
ENDBRANCH   3  19
TORSDOF 2
