REMARK  4 active torsions:
REMARK  status: ('A' for Active; 'I' for Inactive)
REMARK    1  A    between atoms: N_12  and  C_3 
REMARK    2  A    between atoms: S_15  and  C_11 
REMARK    3  A    between atoms: C_16  and  N_12 
REMARK    4  A    between atoms: C_19  and  C_16 
ROOT
ATOM      1  C   UNL d   1       1.325  -0.811  -0.024  0.00  0.00     0.091 A 
ATOM      2  C   UNL d   1       0.784   0.466  -0.069  0.00  0.00     0.049 A 
ATOM      3  C   UNL d   1       1.721   1.526  -0.050  0.00  0.00     0.117 A 
ATOM      4  C   UNL d   1      -1.115  -0.910  -0.041  0.00  0.00    -0.008 A 
ATOM      5  N   UNL d   1       2.624  -1.130   0.016  0.00  0.00    -0.330 N 
ATOM      6  HN  UNL d   1       2.966  -2.091   0.037  1.00  0.00     0.168 HD
ATOM      7  N   UNL d   1       3.038   1.220   0.012  0.00  0.00    -0.322 N 
ATOM      8  HN  UNL d   1       3.735   1.964   0.047  1.00  0.00     0.169 HD
ATOM      9  C   UNL d   1      -0.664   0.396  -0.113  0.00  0.00    -0.028 A 
ATOM     10  S   UNL d   1       0.149  -2.041  -0.018  0.00  0.00    -0.075 SA
ATOM     11  C   UNL d   1       3.427  -0.066   0.026  0.00  0.00     0.146 A 
ATOM     12  C   UNL d   1      -1.628   1.551  -0.143  0.00  0.00     0.041 C 
ATOM     13  C   UNL d   1      -2.553  -1.337   0.003  0.00  0.00     0.051 C 
ATOM     14  C   UNL d   1      -3.084   1.109  -0.350  0.00  0.00     0.009 C 
ATOM     15  C   UNL d   1      -3.454  -0.162   0.439  0.00  0.00    -0.014 C 
ATOM     16  C   UNL d   1      -3.389   0.069   1.953  0.00  0.00     0.010 C 
ENDROOT
BRANCH   3  17
ATOM     17  N   UNL d   1       1.331   2.855  -0.139  0.00  0.00    -0.371 N 
ATOM     18  H   UNL d   1       0.347   3.020  -0.007  0.00  0.00     0.161 HD
BRANCH  17  19
ATOM     19  C   UNL d   1       2.159   3.882   0.462  0.00  0.00     0.160 C 
BRANCH  19  20
ATOM     20  C   UNL d   1       1.798   5.207  -0.177  0.00  0.00    -0.041 A 
ATOM     21  C   UNL d   1       1.183   6.234   0.551  0.00  0.00     0.009 A 
ATOM     22  C   UNL d   1       0.865   7.447  -0.068  0.00  0.00     0.001 A 
ATOM     23  C   UNL d   1       1.155   7.643  -1.419  0.00  0.00     0.000 A 
ATOM     24  C   UNL d   1       1.756   6.625  -2.155  0.00  0.00     0.001 A 
ATOM     25  C   UNL d   1       2.075   5.415  -1.538  0.00  0.00     0.009 A 
ENDBRANCH  19  20
ENDBRANCH  17  19
ENDBRANCH   3  17
BRANCH  11  26
ATOM     26  S   UNL d   1       5.167  -0.454   0.059  0.00  0.00    -0.098 SA
ATOM     27  C   UNL d   1       5.887   1.201   0.021  0.00  0.00     0.099 C 
ENDBRANCH  11  26
TORSDOF 4
