REMARK  8 active torsions:
REMARK  status: ('A' for Active; 'I' for Inactive)
REMARK    1  A    between atoms: C_6  and  C_1 
REMARK    2  A    between atoms: O_9  and  C_1 
REMARK    3  A    between atoms: C_2  and  O_11 
REMARK    4  A    between atoms: C_10  and  C_2 
REMARK    5  A    between atoms: C_17  and  C_3 
REMARK    6  A    between atoms: N_18  and  C_3 
REMARK    7  A    between atoms: N_4  and  O_9 
REMARK    8  A    between atoms: O_11  and  C_17 
ROOT
ATOM      1  C   UNL d   1      -1.731  -1.415  -1.436  0.00  0.00     0.100 C 
ATOM      2  N   UNL d   1      -2.846  -1.852  -0.929  0.00  0.00    -0.248 N 
ATOM      3  HN  UNL d   1      -3.252  -2.763  -1.143  1.00  0.00     0.196 HD
ENDROOT
BRANCH   2   4
ATOM      4  O   UNL d   1      -3.425  -0.914  -0.046  0.00  0.00    -0.194 OA
BRANCH   4   5
ATOM      5  C   UNL d   1      -4.628  -1.386   0.407  0.00  0.00     0.315 C 
ATOM      6  O   UNL d   1      -5.202  -2.413   0.073  0.00  0.00    -0.257 OA
BRANCH   5   7
ATOM      7  C   UNL d   1      -5.212  -0.453   1.418  0.00  0.00     0.043 A 
ATOM      8  C   UNL d   1      -4.575   0.727   1.824  0.00  0.00     0.043 A 
ATOM      9  C   UNL d   1      -5.172   1.558   2.783  0.00  0.00     0.056 A 
ATOM     10 CL   UNL d   1      -4.325   2.997   3.230  0.00  0.00    -0.083 Cl
ATOM     11  C   UNL d   1      -6.408   1.216   3.345  0.00  0.00     0.055 A 
ATOM     12  C   UNL d   1      -7.045   0.040   2.945  0.00  0.00     0.026 A 
ATOM     13 CL   UNL d   1      -7.194   2.194   4.531  0.00  0.00    -0.083 Cl
ATOM     14  C   UNL d   1      -6.451  -0.789   1.987  0.00  0.00     0.019 A 
ENDBRANCH   5   7
ENDBRANCH   4   5
ENDBRANCH   2   4
BRANCH   1  15
ATOM     15  C   UNL d   1      -1.010  -2.353  -2.438  0.00  0.00     0.250 C 
BRANCH  15  16
ATOM     16  O   UNL d   1       0.417  -2.393  -2.360  0.00  0.00    -0.314 OA
BRANCH  16  17
ATOM     17  C   UNL d   1       1.090  -1.376  -2.956  0.00  0.00     0.266 C 
ATOM     18  O   UNL d   1       0.541  -0.393  -3.445  0.00  0.00    -0.264 OA
BRANCH  17  19
ATOM     19  C   UNL d   1       2.611  -1.589  -2.953  0.00  0.00     0.037 C 
ATOM     20  C   UNL d   1       3.042  -2.783  -2.089  0.00  0.00     0.025 C 
ATOM     21  C   UNL d   1       3.076  -1.821  -4.398  0.00  0.00     0.025 C 
ATOM     22  C   UNL d   1       3.277  -0.318  -2.402  0.00  0.00     0.025 C 
ENDBRANCH  17  19
ENDBRANCH  16  17
ENDBRANCH  15  16
ENDBRANCH   1  15
BRANCH   1  23
ATOM     23  N   UNL d   1      -1.193  -0.174  -1.202  0.00  0.00    -0.289 NA
ATOM     24  H   UNL d   1      -1.865   0.499  -0.858  0.00  0.00     0.125 HD
ATOM     25  H   UNL d   1      -0.628   0.195  -1.970  0.00  0.00     0.125 HD
ENDBRANCH   1  23
TORSDOF 8
