REMARK  3 active torsions:
REMARK  status: ('A' for Active; 'I' for Inactive)
REMARK    1  A    between atoms: C_8  and  C_1 
REMARK    2  A    between atoms: O_9  and  C_8 
REMARK    3  A    between atoms: C_10  and  O_9 
ROOT
ATOM      1  C   UNL d   1       0.240  -1.419  -0.030  0.00  0.00    -0.006 A 
ATOM      2  C   UNL d   1       0.047  -0.385   0.874  0.00  0.00     0.093 A 
ATOM      3  N   UNL d   1      -1.491  -0.464   2.959  0.00  0.00    -0.191 NA
ATOM      4  C   UNL d   1      -0.808  -0.424   2.020  0.00  0.00     0.107 C 
ATOM      5  S   UNL d   1       0.976   1.000   0.482  0.00  0.00    -0.090 SA
ATOM      6  C   UNL d   1       1.641   0.248  -0.898  0.00  0.00     0.052 A 
ATOM      7  C   UNL d   1       1.166  -1.032  -1.061  0.00  0.00     0.018 A 
ENDROOT
BRANCH   1   8
ATOM      8  C   UNL d   1      -0.408  -2.778   0.033  0.00  0.00     0.216 C 
BRANCH   8   9
ATOM      9  O   UNL d   1      -1.831  -2.669  -0.029  0.00  0.00    -0.347 OA
BRANCH   9  10
ATOM     10  C   UNL d   1      -2.521  -3.847   0.083  0.00  0.00     0.069 A 
ATOM     11  C   UNL d   1      -3.808  -3.740   0.617  0.00  0.00     0.038 A 
ATOM     12  C   UNL d   1      -4.614  -4.873   0.759  0.00  0.00     0.026 A 
ATOM     13  C   UNL d   1      -4.135  -6.115   0.351  0.00  0.00     0.034 A 
ATOM     14  C   UNL d   1      -2.860  -6.230  -0.198  0.00  0.00     0.026 A 
ATOM     15 CL   UNL d   1      -5.122  -7.514   0.516  0.00  0.00    -0.084 Cl
ATOM     16  C   UNL d   1      -2.053  -5.096  -0.334  0.00  0.00     0.038 A 
ENDBRANCH   9  10
ENDBRANCH   8   9
ENDBRANCH   1   8
TORSDOF 3
