REMARK  4 active torsions:
REMARK  status: ('A' for Active; 'I' for Inactive)
REMARK    1  A    between atoms: C_7  and  C_2 
REMARK    2  A    between atoms: O_10  and  C_14 
REMARK    3  A    between atoms: C_11  and  O_10 
REMARK    4  A    between atoms: C_14  and  C_13 
ROOT
ATOM      1  C   UNL d   1       2.434  -1.660   0.015  0.00  0.00    -0.008 A 
ATOM      2  C   UNL d   1       2.594  -2.590  -1.022  0.00  0.00     0.014 A 
ATOM      3  C   UNL d   1       3.430  -1.574   0.999  0.00  0.00     0.014 A 
ATOM      4  C   UNL d   1       4.736  -3.297  -0.114  0.00  0.00    -0.034 A 
ATOM      5  C   UNL d   1       4.566  -2.387   0.936  0.00  0.00     0.010 A 
ATOM      6  C   UNL d   1       3.732  -3.401  -1.086  0.00  0.00     0.010 A 
ENDROOT
BRANCH   4   7
ATOM      7  C   UNL d   1       5.963  -4.174  -0.173  0.00  0.00     0.214 C 
BRANCH   7   8
ATOM      8  O   UNL d   1       5.697  -5.374   0.549  0.00  0.00    -0.347 OA
BRANCH   8   9
ATOM      9  C   UNL d   1       6.723  -6.271   0.660  0.00  0.00     0.069 A 
ATOM     10  C   UNL d   1       7.995  -6.138   0.098  0.00  0.00     0.038 A 
ATOM     11  C   UNL d   1       8.958  -7.134   0.296  0.00  0.00     0.026 A 
ATOM     12  C   UNL d   1       8.650  -8.262   1.054  0.00  0.00     0.034 A 
ATOM     13  C   UNL d   1       7.384  -8.405   1.615  0.00  0.00     0.026 A 
ATOM     14 CL   UNL d   1       9.839  -9.481   1.296  0.00  0.00    -0.084 Cl
ATOM     15  C   UNL d   1       6.425  -7.409   1.415  0.00  0.00     0.038 A 
ENDBRANCH   8   9
ENDBRANCH   7   8
ENDBRANCH   4   7
BRANCH   1  16
ATOM     16  C   UNL d   1       1.240  -0.825   0.063  0.00  0.00     0.063 A 
ATOM     17  N   UNL d   1       0.040  -1.246  -0.505  0.00  0.00    -0.292 N 
ATOM     18  N   UNL d   1      -0.923  -0.352  -0.351  0.00  0.00    -0.061 NA
ATOM     19  HN  UNL d   1      -0.081  -2.138  -0.984  1.00  0.00     0.183 HD
ATOM     20  S   UNL d   1      -0.413   1.018   0.458  0.00  0.00    -0.010 SA
ATOM     21  C   UNL d   1       1.190   0.434   0.638  0.00  0.00     0.096 A 
ENDBRANCH   1  16
TORSDOF 4
