REMARK  7 active torsions:
REMARK  status: ('A' for Active; 'I' for Inactive)
REMARK    1  A    between atoms: C_10  and  C_3 
REMARK    2  A    between atoms: O_9  and  C_4 
REMARK    3  A    between atoms: C_8  and  C_13 
REMARK       I    between atoms: N_12  and  C_8 
REMARK    4  A    between atoms: C_13  and  O_9 
REMARK    5  A    between atoms: C_15  and  N_12 
REMARK    6  A    between atoms: N_14  and  C_18 
REMARK    7  A    between atoms: C_18  and  C_15 
ROOT
ATOM      1  N   UNL d   1      -1.184   1.358  -0.012  0.00  0.00    -0.355 N 
ATOM      2  HN  UNL d   1      -1.202   2.377  -0.023  1.00  0.00     0.166 HD
ATOM      3  C   UNL d   1      -2.337   0.651  -0.019  0.00  0.00     0.045 A 
ATOM      4  C   UNL d   1      -1.134  -1.432   0.082  0.00  0.00     0.084 A 
ATOM      5  C   UNL d   1      -2.337  -0.735  -0.014  0.00  0.00     0.068 A 
ATOM      6  C   UNL d   1      -0.012   0.696   0.010  0.00  0.00     0.045 A 
ATOM      7  C   UNL d   1       0.077  -0.713   0.054  0.00  0.00     0.024 A 
ATOM      8  C   UNL d   1       1.356  -1.321   0.067  0.00  0.00     0.016 A 
ATOM      9  C   UNL d   1       1.157   1.440  -0.006  0.00  0.00     0.030 A 
ATOM     10  C   UNL d   1       2.516  -0.548   0.037  0.00  0.00     0.001 A 
ATOM     11  C   UNL d   1       2.418   0.837   0.006  0.00  0.00     0.002 A 
ENDROOT
BRANCH   4  12
ATOM     12  O   UNL d   1      -1.089  -2.806   0.211  0.00  0.00    -0.341 OA
BRANCH  12  13
ATOM     13  C   UNL d   1      -2.314  -3.393   0.655  0.00  0.00     0.278 C 
BRANCH  13  14
ATOM     14  C   UNL d   1      -2.222  -4.831   1.144  0.00  0.00     0.241 C 
ATOM     15  O   UNL d   1      -3.186  -5.395   1.659  0.00  0.00    -0.271 OA
ATOM     16  N   UNL d   1      -1.012  -5.441   0.948  0.00  0.00    -0.358 N 
ATOM     17  H   UNL d   1      -0.210  -4.856   0.727  0.00  0.00     0.162 HD
BRANCH  16  18
ATOM     18  C   UNL d   1      -0.770  -6.769   1.466  0.00  0.00     0.152 C 
BRANCH  18  19
ATOM     19  C   UNL d   1       0.683  -7.215   1.259  0.00  0.00     0.290 C 
BRANCH  19  20
ATOM     20  N   UNL d   1       1.691  -6.307   1.853  0.00  0.00     0.081 N 
ATOM     21  C   UNL d   1       1.554  -6.226   3.312  0.00  0.00     0.309 C 
ATOM     22  C   UNL d   1       3.034  -6.790   1.517  0.00  0.00     0.309 C 
ENDBRANCH  19  20
ENDBRANCH  18  19
ENDBRANCH  16  18
ENDBRANCH  13  14
ENDBRANCH  12  13
ENDBRANCH   4  12
BRANCH   3  23
ATOM     23  C   UNL d   1      -3.599   1.416  -0.037  0.00  0.00    -0.009 A 
ATOM     24  C   UNL d   1      -3.682   2.659  -0.684  0.00  0.00     0.013 A 
ATOM     25  C   UNL d   1      -4.893   3.353  -0.762  0.00  0.00     0.001 A 
ATOM     26  C   UNL d   1      -6.045   2.821  -0.187  0.00  0.00     0.000 A 
ATOM     27  C   UNL d   1      -5.984   1.606   0.486  0.00  0.00     0.001 A 
ATOM     28  C   UNL d   1      -4.772   0.918   0.568  0.00  0.00     0.013 A 
ENDBRANCH   3  23
TORSDOF 7
