REMARK  2 active torsions:
REMARK  status: ('A' for Active; 'I' for Inactive)
REMARK    1  A    between atoms: C_15  and  C_12 
REMARK    2  A    between atoms: C_19  and  C_13 
ROOT
ATOM      1  N   UNL d   1       1.095   0.489  -0.238  0.00  0.00    -0.196 N 
ATOM      2  C   UNL d   1      -1.260   0.496   0.123  0.00  0.00     0.069 C 
ATOM      3  C   UNL d   1      -1.262  -0.736  -0.483  0.00  0.00     0.092 C 
ATOM      4  C   UNL d   1       0.933  -0.802  -0.773  0.00  0.00     0.170 C 
ATOM      5  N   UNL d   1      -0.202  -1.393  -0.999  0.00  0.00    -0.329 N 
ATOM      6  HN  UNL d   1      -0.283  -2.268  -1.517  1.00  0.00     0.168 HD
ATOM      7  N   UNL d   1       2.348   1.129  -0.168  0.00  0.00    -0.291 N 
ATOM      8  HN  UNL d   1       2.429   2.142  -0.253  1.00  0.00     0.187 HD
ATOM      9  C   UNL d   1      -0.022   1.264   0.115  0.00  0.00     0.281 C 
ATOM     10  C   UNL d   1      -2.465   0.723   0.869  0.00  0.00     0.040 C 
ATOM     11  S   UNL d   1      -2.759  -1.522  -0.321  0.00  0.00    -0.071 SA
ATOM     12  C   UNL d   1       3.403   0.378   0.011  0.00  0.00     0.053 C 
ATOM     13  C   UNL d   1      -3.176  -0.464   0.971  0.00  0.00     0.018 C 
ATOM     14  S   UNL d   1       2.361  -1.776  -1.056  0.00  0.00    -0.086 SA
ATOM     15  C   UNL d   1       3.249  -1.087   0.355  0.00  0.00     0.142 C 
ATOM     16  O   UNL d   1       0.003   2.433   0.490  0.00  0.00    -0.265 OA
ENDROOT
BRANCH  13  17
ATOM     17  C   UNL d   1      -3.952  -1.005   2.094  0.00  0.00    -0.019 A 
ATOM     18  C   UNL d   1      -5.063  -1.835   1.915  0.00  0.00     0.013 A 
ATOM     19  C   UNL d   1      -5.582  -2.559   2.992  0.00  0.00     0.001 A 
ATOM     20  C   UNL d   1      -5.002  -2.454   4.256  0.00  0.00     0.000 A 
ATOM     21  C   UNL d   1      -3.923  -1.597   4.456  0.00  0.00     0.001 A 
ATOM     22  C   UNL d   1      -3.406  -0.872   3.384  0.00  0.00     0.013 A 
ENDBRANCH  13  17
BRANCH  12  23
ATOM     23  C   UNL d   1       4.724   0.960  -0.188  0.00  0.00     0.029 A 
ATOM     24  S   UNL d   1       6.117  -0.029  -0.361  0.00  0.00    -0.100 SA
ATOM     25  C   UNL d   1       7.120   1.301  -0.709  0.00  0.00     0.050 A 
ATOM     26  C   UNL d   1       6.429   2.488  -0.666  0.00  0.00     0.008 A 
ATOM     27  C   UNL d   1       5.049   2.294  -0.360  0.00  0.00     0.021 A 
ENDBRANCH  12  23
TORSDOF 2
