REMARK  1 active torsions:
REMARK  status: ('A' for Active; 'I' for Inactive)
REMARK    1  A    between atoms: N_8  and  C_4 
ROOT
ATOM      1  N   UNL d   1      -0.414  -1.043  -0.067  0.00  0.00    -0.321 N 
ATOM      2  HN  UNL d   1      -0.730  -2.012  -0.086  1.00  0.00     0.169 HD
ATOM      3  C   UNL d   1       0.921  -0.704   0.008  0.00  0.00     0.151 A 
ATOM      4  C   UNL d   1      -1.236  -0.048  -0.110  0.00  0.00     0.150 A 
ATOM      5  S   UNL d   1       1.301   1.028   0.041  0.00  0.00    -0.020 SA
ATOM      6  S   UNL d   1      -0.648   1.597  -0.045  0.00  0.00    -0.014 SA
ATOM      7  S   UNL d   1       2.157  -1.839   0.072  0.00  0.00    -0.052 SA
ENDROOT
BRANCH   4   8
ATOM      8  N   UNL d   1      -2.580  -0.205  -0.188  0.00  0.00    -0.379 N 
ATOM      9  H   UNL d   1      -2.908  -1.130   0.068  0.00  0.00     0.158 HD
ATOM     10  H   UNL d   1      -3.144   0.560   0.160  0.00  0.00     0.158 HD
ENDBRANCH   4   8
TORSDOF 1
