REMARK  1 active torsions:
REMARK  status: ('A' for Active; 'I' for Inactive)
REMARK    1  A    between atoms: C_5  and  C_2 
ROOT
ATOM      1  S   UNL d   1      -0.429  -1.793   0.565  0.00  0.00    -0.117 SA
ATOM      2  C   UNL d   1      -1.651  -1.498  -0.769  0.00  0.00     0.094 C 
ATOM      3  N   UNL d   1      -0.672   1.368   0.458  0.00  0.00    -0.326 N 
ATOM      4  C   UNL d   1      -1.872   0.938  -0.050  0.00  0.00     0.223 C 
ATOM      5  C   UNL d   1      -1.833  -0.047  -1.192  0.00  0.00     0.123 C 
ATOM      6  C   UNL d   1       0.818  -0.586   0.144  0.00  0.00     0.028 A 
ATOM      7  C   UNL d   1       0.597   0.802   0.229  0.00  0.00     0.051 A 
ATOM      8  O   UNL d   1      -2.926   1.443   0.332  0.00  0.00    -0.273 OA
ATOM      9  C   UNL d   1       2.111  -1.065  -0.103  0.00  0.00     0.021 A 
ATOM     10  C   UNL d   1       1.681   1.681   0.124  0.00  0.00     0.031 A 
ATOM     11  C   UNL d   1       2.961   1.192  -0.145  0.00  0.00     0.002 A 
ATOM     12  C   UNL d   1       3.174  -0.178  -0.268  0.00  0.00     0.002 A 
ATOM     13  H   UNL d   1      -0.728   2.248   0.957  0.00  0.00     0.169 HD
ENDROOT
BRANCH   2  14
ATOM     14  C   UNL d   1      -1.319  -2.421  -1.931  0.00  0.00    -0.037 A 
ATOM     15  C   UNL d   1      -0.443  -2.145  -2.969  0.00  0.00     0.057 A 
ATOM     16  S   UNL d   1      -0.284  -3.436  -4.079  0.00  0.00    -0.113 SA
ATOM     17  C   UNL d   1      -1.369  -4.404  -3.187  0.00  0.00     0.050 A 
ATOM     18  C   UNL d   1      -1.853  -3.749  -2.076  0.00  0.00     0.016 A 
ENDBRANCH   2  14
TORSDOF 1
