REMARK  0 active torsions:
REMARK  status: ('A' for Active; 'I' for Inactive)
ROOT
ATOM      1  C   UNL d   1      -1.868   0.607  -0.004  0.00  0.00     0.199 A 
ATOM      2  O   UNL d   1      -1.964  -0.306   1.005  0.00  0.00    -0.262 OA
ATOM      3  N   UNL d   1      -0.824   0.502  -0.771  0.00  0.00    -0.275 N 
ATOM      4  HN  UNL d   1      -0.562   1.074  -1.574  1.00  0.00     0.189 HD
ATOM      5  C   UNL d   1      -0.850  -1.058   0.838  0.00  0.00     0.235 A 
ATOM      6  N   UNL d   1      -0.166  -0.564  -0.233  0.00  0.00    -0.268 N 
ATOM      7  C   UNL d   1      -2.928   1.558  -0.090  0.00  0.00     0.127 A 
ATOM      8  O   UNL d   1      -3.930   1.529   0.842  0.00  0.00    -0.318 OA
ATOM      9  S   UNL d   1      -0.492  -2.324   1.819  0.00  0.00    -0.031 SA
ATOM     10  C   UNL d   1      -3.169   2.582  -0.987  0.00  0.00     0.043 A 
ATOM     11  C   UNL d   1      -4.797   2.528   0.537  0.00  0.00     0.142 A 
ATOM     12  C   UNL d   1      -4.375   3.204  -0.583  0.00  0.00     0.027 A 
ATOM     13  H   UNL d   1       0.709  -0.910  -0.609  0.00  0.00     0.190 HD
ENDROOT
TORSDOF 0
