REMARK  2 active torsions:
REMARK  status: ('A' for Active; 'I' for Inactive)
REMARK    1  A    between atoms: N_16  and  C_1 
REMARK       I    between atoms: C_10  and  N_16 
REMARK       I    between atoms: N_19  and  C_10 
REMARK    2  A    between atoms: C_17  and  N_19 
ROOT
ATOM      1  C   UNL d   1       1.113   2.979  -0.019  0.00  0.00     0.325 C 
ATOM      2  N   UNL d   1       0.027   2.166  -0.077  0.00  0.00    -0.305 N 
ATOM      3  N   UNL d   1       2.344   2.452  -0.257  0.00  0.00    -0.309 N 
ATOM      4  O   UNL d   1       0.881   4.165   0.213  0.00  0.00    -0.247 OA
ATOM      5  H   UNL d   1      -0.812   2.734  -0.042  0.00  0.00     0.171 HD
ATOM      6  H   UNL d   1       2.353   1.589  -0.779  0.00  0.00     0.170 HD
ENDROOT
BRANCH   3   7
ATOM      7  C   UNL d   1       3.592   3.061   0.033  0.00  0.00     0.038 A 
ATOM      8  C   UNL d   1       3.686   4.285   0.731  0.00  0.00     0.062 A 
ATOM      9  C   UNL d   1       4.981   4.719   1.105  0.00  0.00     0.069 A 
ATOM     10  N   UNL d   1       5.271   5.825   1.809  0.00  0.00    -0.310 N 
ATOM     11  C   UNL d   1       6.198   3.921   0.737  0.00  0.00     0.067 A 
ATOM     12  S   UNL d   1       6.917   5.831   2.021  0.00  0.00     0.068 SA
ATOM     13  HN  UNL d   1       4.609   6.523   2.148  1.00  0.00     0.176 HD
ATOM     14  N   UNL d   1       7.340   4.451   1.195  0.00  0.00    -0.310 N 
ATOM     15  HN  UNL d   1       8.282   4.081   1.064  1.00  0.00     0.176 HD
ATOM     16  C   UNL d   1       6.072   2.726  -0.012  0.00  0.00     0.035 A 
ATOM     17  C   UNL d   1       4.757   2.334  -0.340  0.00  0.00     0.032 A 
ENDBRANCH   3   7
BRANCH   2  18
ATOM     18  C   UNL d   1      -0.190   0.800  -0.118  0.00  0.00     0.092 C 
ATOM     19  C   UNL d   1       0.608  -0.304   0.105  0.00  0.00     0.101 C 
ATOM     20  O   UNL d   1      -0.131  -1.434  -0.109  0.00  0.00    -0.240 OA
ATOM     21  C   UNL d   1       1.966  -0.607   0.592  0.00  0.00     0.081 C 
ATOM     22  N   UNL d   1      -1.439  -1.104  -0.373  0.00  0.00    -0.263 N 
ATOM     23  C   UNL d   1      -1.485   0.229  -0.326  0.00  0.00     0.058 C 
ATOM     24  HN  UNL d   1      -2.210  -1.743  -0.564  1.00  0.00     0.194 HD
ATOM     25  C   UNL d   1      -2.793   0.921  -0.453  0.00  0.00     0.072 C 
ENDBRANCH   2  18
TORSDOF 2
