REMARK  5 active torsions:
REMARK  status: ('A' for Active; 'I' for Inactive)
REMARK    1  A    between atoms: C_6  and  C_1 
REMARK    2  A    between atoms: C_8  and  C_2 
REMARK    3  A    between atoms: O_15  and  C_6 
REMARK    4  A    between atoms: O_16  and  C_8 
REMARK    5  A    between atoms: N_18  and  N_17 
ROOT
ATOM      1  N   UNL d   1       1.602  -0.186  -2.423  0.00  0.00    -0.273 NA
ATOM      2  H   UNL d   1       0.755  -0.759  -2.344  0.00  0.00     0.137 HD
ATOM      3  H   UNL d   1       1.504   0.573  -1.743  0.00  0.00     0.137 HD
ENDROOT
BRANCH   1   4
ATOM      4  N   UNL d   1       2.803  -0.948  -2.303  0.00  0.00    -0.273 NA
ATOM      5  H   UNL d   1       2.716  -1.809  -1.758  0.00  0.00     0.137 HD
ATOM      6  H   UNL d   1       3.600  -0.411  -1.957  0.00  0.00     0.137 HD
ENDBRANCH   1   4
TORSDOF 5
