REMARK  4 active torsions:
REMARK  status: ('A' for Active; 'I' for Inactive)
REMARK    1  A    between atoms: C_2  and  S_1 
REMARK    2  A    between atoms: N_6  and  S_1 
REMARK    3  A    between atoms: C_14  and  N_6 
REMARK       I    between atoms: C_11  and  N_12 
REMARK    4  A    between atoms: N_12  and  C_15 
ROOT
ATOM      1  N   UNL d   1       0.176  -0.195  -1.591  0.00  0.00    -0.279 N 
ATOM      2  H   UNL d   1       0.519  -1.143  -1.457  0.00  0.00     0.179 HD
ENDROOT
BRANCH   1   3
ATOM      3  S   UNL d   1      -0.237   0.560  -0.134  0.00  0.00     0.280 S 
ATOM      4  O   UNL d   1      -0.876  -0.449   0.691  0.00  0.00    -0.199 OA
ATOM      5  O   UNL d   1       0.895   1.310   0.354  0.00  0.00    -0.199 OA
BRANCH   3   6
ATOM      6  C   UNL d   1      -1.479   1.748  -0.446  0.00  0.00     0.166 A 
ATOM      7  N   UNL d   1      -2.707   1.437  -1.016  0.00  0.00    -0.340 N 
ATOM      8  C   UNL d   1      -3.324   2.589  -1.153  0.00  0.00     0.183 A 
ATOM      9  HN  UNL d   1      -3.054   0.513  -1.274  1.00  0.00     0.167 HD
ATOM     10  N   UNL d   1      -2.549   3.627  -0.720  0.00  0.00    -0.354 N 
ATOM     11  C   UNL d   1      -1.373   3.112  -0.258  0.00  0.00     0.135 A 
ATOM     12  C   UNL d   1      -2.913   5.019  -0.776  0.00  0.00     0.156 C 
ENDBRANCH   3   6
ENDBRANCH   1   3
BRANCH   1  13
ATOM     13  C   UNL d   1       0.719   0.583  -2.644  0.00  0.00     0.042 A 
ATOM     14  C   UNL d   1       2.083   0.842  -2.771  0.00  0.00     0.032 A 
ATOM     15  C   UNL d   1       2.550   1.663  -3.817  0.00  0.00     0.032 A 
ATOM     16  C   UNL d   1       1.656   2.217  -4.747  0.00  0.00     0.034 A 
ATOM     17  C   UNL d   1       0.305   1.875  -4.638  0.00  0.00     0.032 A 
ATOM     18  C   UNL d   1      -0.161   1.079  -3.595  0.00  0.00     0.032 A 
BRANCH  16  19
ATOM     19  N   UNL d   1       2.130   3.101  -5.751  0.00  0.00    -0.328 N 
ATOM     20  C   UNL d   1       1.339   3.760  -6.681  0.00  0.00     0.218 C 
ATOM     21  O   UNL d   1       0.121   3.673  -6.815  0.00  0.00    -0.274 OA
ATOM     22  C   UNL d   1       2.087   4.681  -7.608  0.00  0.00     0.117 C 
ATOM     23  H   UNL d   1       3.125   3.288  -5.756  0.00  0.00     0.169 HD
ENDBRANCH  16  19
ENDBRANCH   1  13
TORSDOF 4
