REMARK  4 active torsions:
REMARK  status: ('A' for Active; 'I' for Inactive)
REMARK    1  A    between atoms: C_4  and  C_1 
REMARK       I    between atoms: N_8  and  C_4 
REMARK    2  A    between atoms: C_6  and  N_8 
REMARK    3  A    between atoms: C_7  and  C_12 
REMARK    4  A    between atoms: N_11  and  C_10 
ROOT
ATOM      1  C   UNL d   1       4.042  -2.469  -0.219  0.00  0.00     0.062 A 
ATOM      2  C   UNL d   1       4.407  -3.451   0.734  0.00  0.00     0.057 A 
ATOM      3  C   UNL d   1       2.503  -4.006  -1.347  0.00  0.00     0.050 A 
ATOM      4  C   UNL d   1       3.124  -2.757  -1.254  0.00  0.00     0.048 A 
ATOM      5  C   UNL d   1       3.778  -4.708   0.586  0.00  0.00     0.032 A 
ATOM      6  C   UNL d   1       2.849  -4.987  -0.421  0.00  0.00     0.018 A 
ENDROOT
BRANCH   1   7
ATOM      7  N   UNL d   1       4.493  -1.137  -0.148  0.00  0.00    -0.320 N 
ATOM      8  C   UNL d   1       5.319  -0.560  -1.094  0.00  0.00     0.264 C 
ATOM      9  O   UNL d   1       5.637  -1.150  -2.130  0.00  0.00    -0.267 OA
ATOM     10  H   UNL d   1       4.438  -0.679   0.744  0.00  0.00     0.169 HD
BRANCH   8  11
ATOM     11  C   UNL d   1       5.817   0.772  -0.758  0.00  0.00     0.096 A 
ATOM     12  S   UNL d   1       7.284   1.286  -1.488  0.00  0.00    -0.082 SA
ATOM     13  C   UNL d   1       7.204   2.851  -0.790  0.00  0.00     0.017 A 
ATOM     14  C   UNL d   1       8.128   3.901  -0.964  0.00  0.00     0.020 A 
ATOM     15  C   UNL d   1       6.063   2.999   0.000  0.00  0.00     0.004 A 
ATOM     16  C   UNL d   1       7.866   5.142  -0.381  0.00  0.00     0.001 A 
ATOM     17  C   UNL d   1       6.713   5.337   0.364  0.00  0.00     0.001 A 
ATOM     18  C   UNL d   1       5.824   4.277   0.573  0.00  0.00     0.014 A 
ATOM     19  C   UNL d   1       5.324   1.759   0.079  0.00  0.00     0.068 A 
ATOM     20 CL   UNL d   1       3.937   1.622   1.091  0.00  0.00    -0.082 Cl
ENDBRANCH   8  11
ENDBRANCH   1   7
BRANCH   2  21
ATOM     21  N   UNL d   1       5.314  -3.301   1.772  0.00  0.00    -0.375 N 
ATOM     22  C   UNL d   1       5.679  -2.047   2.437  0.00  0.00     0.149 C 
ATOM     23  C   UNL d   1       5.850  -2.302   3.945  0.00  0.00     0.187 C 
ATOM     24  O   UNL d   1       6.793  -3.346   4.223  0.00  0.00    -0.388 OA
ATOM     25  C   UNL d   1       6.387  -4.566   3.579  0.00  0.00     0.187 C 
ATOM     26  C   UNL d   1       6.299  -4.377   2.057  0.00  0.00     0.149 C 
ENDBRANCH   2  21
BRANCH   3  27
ATOM     27  C   UNL d   1       1.439  -4.294  -2.378  0.00  0.00     0.417 C 
ATOM     28  F   UNL d   1       1.162  -3.241  -3.195  0.00  0.00    -0.166 F 
ATOM     29  F   UNL d   1       1.769  -5.332  -3.198  0.00  0.00    -0.166 F 
ATOM     30  F   UNL d   1       0.251  -4.639  -1.806  0.00  0.00    -0.166 F 
ENDBRANCH   3  27
TORSDOF 4
