REMARK  7 active torsions:
REMARK  status: ('A' for Active; 'I' for Inactive)
REMARK    1  A    between atoms: C_9  and  C_1 
REMARK    2  A    between atoms: N_13  and  C_4 
REMARK    3  A    between atoms: S_17  and  C_8 
REMARK    4  A    between atoms: O_18  and  C_9 
REMARK    5  A    between atoms: O_19  and  C_15 
REMARK    6  A    between atoms: C_21  and  O_18 
REMARK    7  A    between atoms: C_22  and  O_19 
ROOT
ATOM      1  C   UNL d   1      -2.043   1.067  -0.016  0.00  0.00     0.110 A 
ATOM      2  C   UNL d   1      -0.025  -0.348   0.013  0.00  0.00     0.090 A 
ATOM      3  S   UNL d   1      -1.696  -0.612   0.127  0.00  0.00    -0.063 SA
ATOM      4  C   UNL d   1      -0.877   1.796  -0.155  0.00  0.00     0.071 A 
ATOM      5  C   UNL d   1       0.304   0.985  -0.146  0.00  0.00     0.042 A 
ATOM      6  N   UNL d   1       0.825  -1.383   0.076  0.00  0.00    -0.330 N 
ATOM      7  HN  UNL d   1       0.523  -2.349   0.196  1.00  0.00     0.168 HD
ATOM      8  C   UNL d   1       2.107  -1.022  -0.034  0.00  0.00     0.144 A 
ATOM      9  N   UNL d   1       2.560   0.236  -0.191  0.00  0.00    -0.346 N 
ATOM     10  HN  UNL d   1       3.561   0.423  -0.253  1.00  0.00     0.167 HD
ATOM     11  C   UNL d   1       1.667   1.246  -0.264  0.00  0.00     0.106 A 
ENDROOT
BRANCH   4  12
ATOM     12  N   UNL d   1      -0.854   3.177  -0.418  0.00  0.00    -0.345 N 
ATOM     13  C   UNL d   1      -0.362   3.872   0.547  0.00  0.00     0.226 C 
ATOM     14  HN  UNL d   1      -1.193   3.587  -1.288  1.00  0.00     0.167 HD
BRANCH  13  15
ATOM     15  O   UNL d   1      -0.260   5.209   0.409  0.00  0.00    -0.347 OA
BRANCH  15  16
ATOM     16  C   UNL d   1       0.329   5.912   1.510  0.00  0.00     0.171 C 
ATOM     17  C   UNL d   1       0.118   7.398   1.295  0.00  0.00     0.034 C 
ENDBRANCH  15  16
ENDBRANCH  13  15
ENDBRANCH   4  12
BRANCH   1  18
ATOM     18  C   UNL d   1      -3.409   1.531   0.099  0.00  0.00     0.302 C 
ATOM     19  O   UNL d   1      -3.760   2.582   0.623  0.00  0.00    -0.259 OA
BRANCH  18  20
ATOM     20  O   UNL d   1      -4.270   0.587  -0.387  0.00  0.00    -0.317 OA
BRANCH  20  21
ATOM     21  C   UNL d   1      -5.658   0.753  -0.062  0.00  0.00     0.174 C 
ATOM     22  C   UNL d   1      -5.944  -0.018   1.214  0.00  0.00     0.034 C 
ENDBRANCH  20  21
ENDBRANCH  18  20
ENDBRANCH   1  18
BRANCH   8  23
ATOM     23  S   UNL d   1       3.349  -2.294   0.040  0.00  0.00    -0.098 SA
ATOM     24  C   UNL d   1       2.300  -3.770   0.035  0.00  0.00     0.099 C 
ENDBRANCH   8  23
TORSDOF 7
