REMARK  1 active torsions:
REMARK  status: ('A' for Active; 'I' for Inactive)
REMARK       I    between atoms: C_2  and  N_1 
REMARK       I    between atoms: C_4  and  N_1 
REMARK       I    between atoms: N_8  and  C_2 
REMARK    1  A    between atoms: C_3  and  C_4 
ROOT
ATOM      1  N   UNL d   1       0.699   0.099   0.792  0.00  0.00    -0.274 N 
ATOM      2  C   UNL d   1       0.406  -1.162   0.343  0.00  0.00     0.325 C 
ATOM      3  C   UNL d   1       0.342   1.258   0.131  0.00  0.00     0.277 C 
ATOM      4  N   UNL d   1       0.938  -2.220   1.076  0.00  0.00    -0.334 N 
ATOM      5  O   UNL d   1      -0.304  -1.367  -0.641  0.00  0.00    -0.247 OA
ATOM      6  O   UNL d   1      -0.305   1.336  -0.908  0.00  0.00    -0.266 OA
ATOM      7  C   UNL d   1       0.660  -3.571   0.576  0.00  0.00     0.127 C 
ATOM      8  C   UNL d   1       2.051  -2.147   2.028  0.00  0.00     0.127 C 
ATOM      9  C   UNL d   1       0.430  -4.559   1.714  0.00  0.00     0.020 C 
ATOM     10  C   UNL d   1       1.840  -3.106   3.199  0.00  0.00     0.020 C 
ATOM     11  C   UNL d   1       1.579  -4.531   2.716  0.00  0.00     0.003 C 
ATOM     12  H   UNL d   1       1.126   0.218   1.694  0.00  0.00     0.173 HD
ENDROOT
BRANCH   3  13
ATOM     13  C   UNL d   1       0.822   2.470   0.788  0.00  0.00     0.121 A 
ATOM     14  N   UNL d   1       1.670   2.418   1.893  0.00  0.00    -0.287 N 
ATOM     15  N   UNL d   1       2.021   3.627   2.299  0.00  0.00    -0.061 NA
ATOM     16  HN  UNL d   1       1.983   1.553   2.334  1.00  0.00     0.183 HD
ATOM     17  S   UNL d   1       1.332   4.849   1.385  0.00  0.00    -0.010 SA
ATOM     18  C   UNL d   1       0.504   3.752   0.366  0.00  0.00     0.101 A 
ENDBRANCH   3  13
TORSDOF 1
