REMARK  1 active torsions:
REMARK  status: ('A' for Active; 'I' for Inactive)
REMARK    1  A    between atoms: C_8  and  N_7 
ROOT
ATOM      1  C   UNL d   1       3.035  -0.018   1.288  0.00  0.00     0.166 A 
ATOM      2  S   UNL d   1       2.620   1.679   1.073  0.00  0.00    -0.022 SA
ATOM      3  C   UNL d   1       2.657   1.862   2.803  0.00  0.00     0.160 A 
ATOM      4  N   UNL d   1       3.171  -0.396   2.521  0.00  0.00    -0.278 N 
ATOM      5  HN  UNL d   1       3.401  -1.344   2.818  1.00  0.00     0.189 HD
ATOM      6  N   UNL d   1       2.961   0.653   3.361  0.00  0.00    -0.282 N 
ATOM      7  N   UNL d   1       3.143  -0.734   0.131  0.00  0.00    -0.335 N 
ATOM      8  S   UNL d   1       2.377   3.246   3.668  0.00  0.00    -0.051 SA
ATOM      9  H   UNL d   1       3.029   0.508   4.362  0.00  0.00     0.188 HD
ATOM     10  H   UNL d   1       2.935  -0.224  -0.714  0.00  0.00     0.168 HD
ENDROOT
BRANCH   7  11
ATOM     11  C   UNL d   1       3.618  -2.048  -0.036  0.00  0.00     0.040 A 
ATOM     12  C   UNL d   1       3.226  -2.825  -1.153  0.00  0.00    -0.032 A 
ATOM     13  C   UNL d   1       3.632  -4.173  -1.238  0.00  0.00     0.051 A 
ATOM     14  C   UNL d   1       2.322  -2.324  -2.249  0.00  0.00     0.050 C 
ATOM     15  C   UNL d   1       4.424  -4.738  -0.249  0.00  0.00     0.117 A 
ATOM     16  C   UNL d   1       4.830  -3.990   0.841  0.00  0.00     0.044 A 
ATOM     17  F   UNL d   1       4.792  -6.022  -0.347  0.00  0.00    -0.206 F 
ATOM     18  C   UNL d   1       4.421  -2.660   0.946  0.00  0.00     0.033 A 
ENDBRANCH   7  11
TORSDOF 1
