REMARK  4 active torsions:
REMARK  status: ('A' for Active; 'I' for Inactive)
REMARK    1  A    between atoms: C_19  and  N_7 
REMARK    2  A    between atoms: N_18  and  C_10 
REMARK    3  A    between atoms: N_14  and  N_18 
REMARK    4  A    between atoms: C_25  and  C_19 
ROOT
ATOM      1  C   UNL d   1       0.012  -1.257  -0.094  0.00  0.00     0.160 A 
ATOM      2  C   UNL d   1       0.798  -2.373  -0.095  0.00  0.00     0.165 A 
ATOM      3  N   UNL d   1      -1.300  -1.576  -0.092  0.00  0.00    -0.172 N 
ATOM      4  HN  UNL d   1      -2.090  -0.932  -0.137  1.00  0.00     0.186 HD
ATOM      5  N   UNL d   1       0.530   0.011  -0.037  0.00  0.00    -0.287 N 
ATOM      6  N   UNL d   1       2.704  -0.975  -0.007  0.00  0.00    -0.269 N 
ATOM      7  N   UNL d   1      -0.076  -3.434  -0.103  0.00  0.00    -0.168 N 
ATOM      8  C   UNL d   1       1.911   0.189   0.028  0.00  0.00     0.332 A 
ATOM      9  C   UNL d   1       2.219  -2.286  -0.051  0.00  0.00     0.282 A 
ATOM     10  C   UNL d   1      -1.352  -2.895  -0.020  0.00  0.00     0.701 A 
ATOM     11  O   UNL d   1       2.408   1.313   0.119  0.00  0.00    -0.246 OA
ATOM     12  O   UNL d   1       2.948  -3.282  -0.023  0.00  0.00    -0.265 OA
ATOM     13  C   UNL d   1      -0.327   1.183   0.016  0.00  0.00     0.163 C 
ATOM     14  C   UNL d   1       4.144  -0.820   0.068  0.00  0.00     0.164 C 
ENDROOT
BRANCH  10  15
ATOM     15  N   UNL d   1      -2.485  -3.644   0.096  0.00  0.00    -0.131 N 
ATOM     16  H   UNL d   1      -2.447  -4.657  -0.046  0.00  0.00     0.205 HD
BRANCH  15  17
ATOM     17  N   UNL d   1      -3.674  -3.021  -0.182  0.00  0.00    -0.281 N 
ATOM     18  C   UNL d   1      -4.441  -3.624  -1.031  0.00  0.00     0.129 C 
ATOM     19  C   UNL d   1      -4.299  -5.039  -1.578  0.00  0.00     0.275 C 
ATOM     20  C   UNL d   1      -5.246  -2.890  -1.998  0.00  0.00     0.024 A 
ATOM     21  N   UNL d   1      -4.726  -4.960  -2.881  0.00  0.00    -0.321 N 
ATOM     22  O   UNL d   1      -3.808  -5.967  -0.971  0.00  0.00    -0.266 OA
ATOM     23  C   UNL d   1      -5.199  -3.675  -3.152  0.00  0.00     0.047 A 
ATOM     24  H   UNL d   1      -4.606  -5.705  -3.551  0.00  0.00     0.169 HD
ATOM     25  C   UNL d   1      -5.457  -3.131  -4.389  0.00  0.00     0.030 A 
ATOM     26  C   UNL d   1      -5.799  -1.773  -4.432  0.00  0.00     0.002 A 
ATOM     27  C   UNL d   1      -5.911  -1.004  -3.253  0.00  0.00     0.001 A 
ATOM     28  C   UNL d   1      -5.613  -1.560  -2.009  0.00  0.00     0.016 A 
ATOM     29  HN  UNL d   1      -3.938  -2.136   0.253  1.00  0.00     0.188 HD
ENDBRANCH  15  17
ENDBRANCH  10  15
BRANCH   7  30
ATOM     30  C   UNL d   1       0.288  -4.841  -0.008  0.00  0.00     0.186 C 
BRANCH  30  31
ATOM     31  C   UNL d   1       0.627  -5.486  -1.337  0.00  0.00    -0.038 A 
ATOM     32  C   UNL d   1      -0.342  -5.684  -2.334  0.00  0.00     0.034 A 
ATOM     33  C   UNL d   1      -0.026  -6.354  -3.527  0.00  0.00     0.056 A 
ATOM     34 CL   UNL d   1      -1.297  -6.578  -4.680  0.00  0.00    -0.083 Cl
ATOM     35  C   UNL d   1       1.270  -6.830  -3.741  0.00  0.00     0.055 A 
ATOM     36  C   UNL d   1       2.241  -6.646  -2.755  0.00  0.00     0.026 A 
ATOM     37 CL   UNL d   1       1.736  -7.652  -5.188  0.00  0.00    -0.083 Cl
ATOM     38  C   UNL d   1       1.920  -5.984  -1.564  0.00  0.00     0.010 A 
ENDBRANCH  30  31
ENDBRANCH   7  30
TORSDOF 4
