REMARK  7 active torsions:
REMARK  status: ('A' for Active; 'I' for Inactive)
REMARK    1  A    between atoms: C_2  and  N_1 
REMARK    2  A    between atoms: O_13  and  C_4 
REMARK    3  A    between atoms: N_10  and  C_6 
REMARK    4  A    between atoms: O_15  and  C_7 
REMARK    5  A    between atoms: C_16  and  N_10 
REMARK    6  A    between atoms: C_11  and  C_17 
REMARK    7  A    between atoms: C_17  and  C_16 
ROOT
ATOM      1  C   UNL d   1       2.760   1.937  -0.230  0.00  0.00     0.097 C 
ENDROOT
BRANCH   1   2
ATOM      2  N   UNL d   1       2.717   1.186   1.042  0.00  0.00    -0.291 NA
ATOM      3  H   UNL d   1       3.519   0.578   1.182  0.00  0.00     0.127 HD
BRANCH   2   4
ATOM      4  C   UNL d   1       1.484   0.566   1.350  0.00  0.00     0.041 A 
ATOM      5  C   UNL d   1       1.343  -0.695   1.973  0.00  0.00     0.123 A 
ATOM      6  C   UNL d   1       0.088  -1.227   2.331  0.00  0.00     0.038 A 
ATOM      7  C   UNL d   1      -1.063  -0.496   2.084  0.00  0.00     0.003 A 
ATOM      8  C   UNL d   1      -0.965   0.755   1.490  0.00  0.00     0.002 A 
ATOM      9  C   UNL d   1       0.288   1.276   1.139  0.00  0.00     0.026 A 
BRANCH   5  10
ATOM     10  N   UNL d   1       2.485  -1.555   2.225  0.00  0.00    -0.114 N 
ATOM     11  O   UNL d   1       3.221  -1.826   1.271  0.00  0.00    -0.532 OA
ATOM     12  O   UNL d   1       2.614  -2.005   3.375  0.00  0.00    -0.532 OA
ENDBRANCH   5  10
ENDBRANCH   2   4
ENDBRANCH   1   2
BRANCH   1  13
ATOM     13  C   UNL d   1       4.171   2.366  -0.675  0.00  0.00     0.053 C 
BRANCH  13  14
ATOM     14  C   UNL d   1       5.077   1.325  -1.303  0.00  0.00    -0.054 A 
ATOM     15  C   UNL d   1       6.002   1.707  -2.295  0.00  0.00     0.046 A 
ATOM     16  C   UNL d   1       6.912   0.786  -2.850  0.00  0.00     0.102 A 
ATOM     17  C   UNL d   1       6.926  -0.532  -2.365  0.00  0.00     0.101 A 
ATOM     18  C   UNL d   1       6.001  -0.918  -1.402  0.00  0.00     0.040 A 
ATOM     19  C   UNL d   1       5.087  -0.005  -0.892  0.00  0.00     0.010 A 
BRANCH  16  20
ATOM     20  O   UNL d   1       7.786   1.089  -3.859  0.00  0.00    -0.353 OA
ATOM     21  C   UNL d   1       7.707   2.378  -4.450  0.00  0.00     0.210 C 
ENDBRANCH  16  20
BRANCH  17  22
ATOM     22  O   UNL d   1       7.729  -1.561  -2.780  0.00  0.00    -0.353 OA
ATOM     23  C   UNL d   1       9.073  -1.217  -3.080  0.00  0.00     0.210 C 
ENDBRANCH  17  22
ENDBRANCH  13  14
ENDBRANCH   1  13
TORSDOF 7
