REMARK  6 active torsions:
REMARK  status: ('A' for Active; 'I' for Inactive)
REMARK       I    between atoms: N_3  and  C_1 
REMARK       I    between atoms: N_4  and  C_1 
REMARK    1  A    between atoms: C_2  and  O_5 
REMARK    2  A    between atoms: C_12  and  N_3 
REMARK    3  A    between atoms: C_11  and  N_4 
REMARK    4  A    between atoms: O_5  and  C_13 
REMARK    5  A    between atoms: O_7  and  C_14 
REMARK    6  A    between atoms: C_15  and  O_7 
ROOT
ATOM      1  C   UNL d   1       1.019  -0.359  -0.215  0.00  0.00     0.325 C 
ATOM      2  N   UNL d   1       2.357  -0.485   0.126  0.00  0.00    -0.309 N 
ATOM      3  N   UNL d   1       0.194  -0.696   0.847  0.00  0.00    -0.309 N 
ATOM      4  O   UNL d   1       0.614  -0.015  -1.321  0.00  0.00    -0.247 OA
ATOM      5  H   UNL d   1       2.552  -0.947   0.999  0.00  0.00     0.170 HD
ATOM      6  H   UNL d   1       0.595  -0.631   1.772  0.00  0.00     0.170 HD
ENDROOT
BRANCH   2   7
ATOM      7  C   UNL d   1       3.454  -0.330  -0.756  0.00  0.00     0.036 A 
ATOM      8  C   UNL d   1       3.355   0.236  -2.031  0.00  0.00     0.032 A 
ATOM      9  C   UNL d   1       4.443   0.228  -2.911  0.00  0.00     0.039 A 
ATOM     10  C   UNL d   1       5.643  -0.361  -2.527  0.00  0.00     0.078 A 
ATOM     11  C   UNL d   1       5.784  -0.823  -1.218  0.00  0.00     0.039 A 
ATOM     12  C   UNL d   1       4.697  -0.810  -0.336  0.00  0.00     0.032 A 
BRANCH  10  13
ATOM     13  O   UNL d   1       6.735  -0.521  -3.324  0.00  0.00    -0.255 OA
BRANCH  13  14
ATOM     14  C   UNL d   1       6.506  -0.737  -4.711  0.00  0.00     0.530 C 
ATOM     15  F   UNL d   1       5.288  -1.254  -4.982  0.00  0.00    -0.144 F 
ATOM     16  F   UNL d   1       6.656   0.422  -5.386  0.00  0.00    -0.144 F 
ATOM     17  F   UNL d   1       7.431  -1.614  -5.164  0.00  0.00    -0.144 F 
ENDBRANCH  13  14
ENDBRANCH  10  13
ENDBRANCH   2   7
BRANCH   3  18
ATOM     18  C   UNL d   1      -1.213  -0.839   0.781  0.00  0.00     0.036 A 
ATOM     19  C   UNL d   1      -1.912  -0.960  -0.424  0.00  0.00     0.032 A 
ATOM     20  C   UNL d   1      -3.306  -1.042  -0.438  0.00  0.00     0.039 A 
ATOM     21  C   UNL d   1      -4.020  -0.977   0.756  0.00  0.00     0.076 A 
ATOM     22  C   UNL d   1      -3.331  -0.942   1.969  0.00  0.00     0.039 A 
ATOM     23  C   UNL d   1      -1.932  -0.876   1.981  0.00  0.00     0.032 A 
BRANCH  21  24
ATOM     24  O   UNL d   1      -5.394  -0.993   0.816  0.00  0.00    -0.311 OA
BRANCH  24  25
ATOM     25  C   UNL d   1      -6.099  -0.277  -0.130  0.00  0.00     0.076 A 
ATOM     26  C   UNL d   1      -7.300  -0.839  -0.567  0.00  0.00     0.037 A 
ATOM     27  C   UNL d   1      -8.074  -0.179  -1.524  0.00  0.00     0.003 A 
ATOM     28  C   UNL d   1      -7.651   1.047  -2.040  0.00  0.00     0.000 A 
ATOM     29  C   UNL d   1      -6.467   1.624  -1.583  0.00  0.00     0.003 A 
ATOM     30  C   UNL d   1      -5.700   0.973  -0.615  0.00  0.00     0.037 A 
ENDBRANCH  24  25
ENDBRANCH  21  24
ENDBRANCH   3  18
TORSDOF 6
