REMARK  1 active torsions:
REMARK  status: ('A' for Active; 'I' for Inactive)
REMARK    1  A    between atoms: C_7  and  C_4 
ROOT
ATOM      1  C   UNL d   1       1.888   0.481   0.087  0.00  0.00    -0.002 A 
ATOM      2  C   UNL d   1       0.848   1.541   0.253  0.00  0.00     0.189 A 
ATOM      3  C   UNL d   1      -0.417   0.848   0.534  0.00  0.00     0.021 A 
ATOM      4  C   UNL d   1       3.179   0.779  -0.105  0.00  0.00     0.030 C 
ATOM      5  C   UNL d   1      -0.199  -0.530   0.528  0.00  0.00    -0.040 A 
ATOM      6  C   UNL d   1       1.223  -0.868   0.207  0.00  0.00     0.082 A 
ATOM      7  O   UNL d   1       1.010   2.741   0.190  0.00  0.00    -0.287 OA
ATOM      8  C   UNL d   1      -1.657   1.403   0.796  0.00  0.00     0.016 A 
ATOM      9  C   UNL d   1      -1.240  -1.403   0.799  0.00  0.00     0.008 A 
ATOM     10  C   UNL d   1      -2.709   0.526   1.070  0.00  0.00     0.001 A 
ATOM     11  C   UNL d   1      -2.501  -0.864   1.075  0.00  0.00     0.001 A 
ENDROOT
BRANCH   4  12
ATOM     12  C   UNL d   1       4.152  -0.247  -0.233  0.00  0.00     0.005 A 
ATOM     13  S   UNL d   1       4.568  -0.858  -1.784  0.00  0.00    -0.102 SA
ATOM     14  C   UNL d   1       5.711  -1.946  -1.128  0.00  0.00     0.050 A 
ATOM     15  C   UNL d   1       5.784  -1.855   0.243  0.00  0.00     0.008 A 
ATOM     16  C   UNL d   1       4.882  -0.879   0.759  0.00  0.00     0.019 A 
ENDBRANCH   4  12
TORSDOF 1
