REMARK  6 active torsions:
REMARK  status: ('A' for Active; 'I' for Inactive)
REMARK    1  A    between atoms: C_13  and  N_1 
REMARK    2  A    between atoms: C_2  and  C_9 
REMARK    3  A    between atoms: C_3  and  C_15 
REMARK       I    between atoms: N_4  and  C_3 
REMARK    4  A    between atoms: C_5  and  N_4 
REMARK    5  A    between atoms: C_7  and  O_10 
REMARK    6  A    between atoms: O_10  and  C_11 
ROOT
ATOM      1  C   UNL d   1      -3.938   2.323   3.597  0.00  0.00     0.070 C 
ATOM      2  C   UNL d   1      -5.730   0.697   3.631  0.00  0.00     0.050 C 
ATOM      3  C   UNL d   1      -3.089   1.426   4.263  0.00  0.00     0.102 C 
ATOM      4  C   UNL d   1      -5.275   1.998   3.369  0.00  0.00     0.048 C 
ATOM      5  C   UNL d   1      -4.843  -0.238   4.186  0.00  0.00     0.019 C 
ATOM      6  C   UNL d   1      -3.547   0.137   4.549  0.00  0.00     0.040 C 
ENDROOT
BRANCH   1   7
ATOM      7  N   UNL d   1      -3.452   3.546   3.073  0.00  0.00    -0.320 N 
ATOM      8  C   UNL d   1      -3.158   3.778   1.736  0.00  0.00     0.256 C 
ATOM      9  O   UNL d   1      -3.093   4.938   1.329  0.00  0.00    -0.267 OA
ATOM     10  H   UNL d   1      -3.842   4.386   3.486  0.00  0.00     0.169 HD
BRANCH   8  11
ATOM     11  C   UNL d   1      -2.850   2.689   0.754  0.00  0.00     0.032 A 
ATOM     12  C   UNL d   1      -3.638   1.541   0.601  0.00  0.00     0.019 A 
ATOM     13  C   UNL d   1      -3.304   0.536  -0.311  0.00  0.00     0.037 A 
ATOM     14  C   UNL d   1      -2.199   0.709  -1.145  0.00  0.00     0.102 A 
ATOM     15  C   UNL d   1      -1.452   1.892  -1.086  0.00  0.00     0.037 A 
ATOM     16  C   UNL d   1      -1.782   2.875  -0.139  0.00  0.00     0.019 A 
BRANCH  14  17
ATOM     17  N   UNL d   1      -1.840  -0.353  -2.092  0.00  0.00    -0.116 N 
ATOM     18  O   UNL d   1      -0.928  -0.125  -2.896  0.00  0.00    -0.532 OA
ATOM     19  O   UNL d   1      -2.467  -1.421  -2.024  0.00  0.00    -0.532 OA
ENDBRANCH  14  17
ENDBRANCH   8  11
ENDBRANCH   1   7
BRANCH   3  20
ATOM     20  O   UNL d   1      -1.911   1.903   4.780  0.00  0.00    -0.308 OA
BRANCH  20  21
ATOM     21  C   UNL d   1      -0.775   1.135   4.762  0.00  0.00     0.083 C 
ATOM     22  C   UNL d   1       0.126   1.305   5.803  0.00  0.00    -0.017 C 
ATOM     23  C   UNL d   1       1.455   0.874   5.683  0.00  0.00    -0.043 C 
ATOM     24  C   UNL d   1      -0.087   1.914   7.155  0.00  0.00     0.042 C 
ATOM     25  C   UNL d   1       2.283   1.421   6.813  0.00  0.00     0.040 C 
ATOM     26  C   UNL d   1       1.864   0.099   4.604  0.00  0.00    -0.055 C 
ATOM     27  C   UNL d   1       1.318   2.446   7.434  0.00  0.00     0.009 C 
ATOM     28  C   UNL d   1       0.912  -0.182   3.611  0.00  0.00     0.010 C 
ATOM     29  C   UNL d   1       3.271  -0.401   4.488  0.00  0.00     0.049 C 
ATOM     30  C   UNL d   1      -0.379   0.370   3.664  0.00  0.00     0.038 C 
ENDBRANCH  20  21
ENDBRANCH   3  20
BRANCH   2  31
ATOM     31  C   UNL d   1      -7.123   0.275   3.233  0.00  0.00     0.417 C 
ATOM     32  F   UNL d   1      -7.895   1.304   2.790  0.00  0.00    -0.166 F 
ATOM     33  F   UNL d   1      -7.110  -0.640   2.224  0.00  0.00    -0.166 F 
ATOM     34  F   UNL d   1      -7.808  -0.300   4.257  0.00  0.00    -0.166 F 
ENDBRANCH   2  31
TORSDOF 6
