REMARK  8 active torsions:
REMARK  status: ('A' for Active; 'I' for Inactive)
REMARK    1  A    between atoms: C_6  and  C_1 
REMARK    2  A    between atoms: C_12  and  C_4 
REMARK    3  A    between atoms: O_10  and  C_6 
REMARK    4  A    between atoms: N_8  and  O_10 
REMARK    5  A    between atoms: C_14  and  C_11 
REMARK    6  A    between atoms: C_15  and  C_11 
REMARK    7  A    between atoms: C_16  and  C_14 
REMARK    8  A    between atoms: C_17  and  C_15 
ROOT
ATOM      1  N   UNL d   1      -2.123  -3.358  -0.022  0.00  0.00    -0.265 N 
ATOM      2  HN  UNL d   1      -2.612  -2.468  -0.127  1.00  0.00     0.194 HD
ATOM      3  C   UNL d   1      -2.698  -4.516  -0.194  0.00  0.00     0.019 C 
ENDROOT
BRANCH   1   4
ATOM      4  O   UNL d   1      -0.757  -3.458   0.324  0.00  0.00    -0.195 OA
BRANCH   4   5
ATOM      5  C   UNL d   1      -0.056  -2.398  -0.208  0.00  0.00     0.320 C 
ATOM      6  O   UNL d   1      -0.286  -1.901  -1.309  0.00  0.00    -0.257 OA
BRANCH   5   7
ATOM      7  C   UNL d   1       1.034  -1.953   0.627  0.00  0.00     0.102 A 
ATOM      8  C   UNL d   1       1.101  -1.656   2.027  0.00  0.00     0.084 A 
ATOM      9  N   UNL d   1       2.344  -1.251   2.348  0.00  0.00    -0.259 N 
ATOM     10  O   UNL d   1       3.078  -1.249   1.191  0.00  0.00    -0.241 OA
ATOM     11  HN  UNL d   1       2.677  -0.995   3.277  1.00  0.00     0.195 HD
ATOM     12  C   UNL d   1       2.302  -1.659   0.162  0.00  0.00     0.091 A 
ATOM     13  C   UNL d   1       2.963  -1.721  -1.156  0.00  0.00     0.080 C 
BRANCH   8  14
ATOM     14  C   UNL d   1       0.071  -1.690   3.074  0.00  0.00    -0.006 A 
ATOM     15  C   UNL d   1      -1.290  -1.512   2.791  0.00  0.00     0.014 A 
ATOM     16  C   UNL d   1      -2.243  -1.551   3.814  0.00  0.00     0.001 A 
ATOM     17  C   UNL d   1      -1.850  -1.738   5.138  0.00  0.00     0.000 A 
ATOM     18  C   UNL d   1      -0.500  -1.881   5.442  0.00  0.00     0.001 A 
ATOM     19  C   UNL d   1       0.450  -1.858   4.419  0.00  0.00     0.014 A 
ENDBRANCH   8  14
ENDBRANCH   5   7
ENDBRANCH   4   5
ENDBRANCH   1   4
BRANCH   3  20
ATOM     20  C   UNL d   1      -1.967  -5.845  -0.248  0.00  0.00     0.093 C 
BRANCH  20  21
ATOM     21  C   UNL d   1      -1.786  -6.565   1.070  0.00  0.00    -0.053 A 
ATOM     22  C   UNL d   1      -1.636  -7.963   1.057  0.00  0.00     0.007 A 
ATOM     23  C   UNL d   1      -1.345  -8.665   2.228  0.00  0.00     0.001 A 
ATOM     24  C   UNL d   1      -1.195  -7.981   3.430  0.00  0.00     0.000 A 
ATOM     25  C   UNL d   1      -1.347  -6.597   3.463  0.00  0.00     0.001 A 
ATOM     26  C   UNL d   1      -1.640  -5.894   2.291  0.00  0.00     0.007 A 
ENDBRANCH  20  21
ENDBRANCH   3  20
BRANCH   3  27
ATOM     27  C   UNL d   1      -4.218  -4.522  -0.246  0.00  0.00     0.093 C 
BRANCH  27  28
ATOM     28  C   UNL d   1      -4.878  -5.080  -1.484  0.00  0.00    -0.053 A 
ATOM     29  C   UNL d   1      -5.882  -6.057  -1.348  0.00  0.00     0.007 A 
ATOM     30  C   UNL d   1      -6.627  -6.480  -2.448  0.00  0.00     0.001 A 
ATOM     31  C   UNL d   1      -6.380  -5.935  -3.706  0.00  0.00     0.000 A 
ATOM     32  C   UNL d   1      -5.378  -4.979  -3.860  0.00  0.00     0.001 A 
ATOM     33  C   UNL d   1      -4.629  -4.552  -2.758  0.00  0.00     0.007 A 
ENDBRANCH  27  28
ENDBRANCH   3  27
TORSDOF 8
