REMARK  1 active torsions:
REMARK  status: ('A' for Active; 'I' for Inactive)
REMARK    1  A    between atoms: N_13  and  C_5 
ROOT
ATOM      1  C   UNL d   1       1.558  -0.179  -0.040  0.00  0.00     0.109 A 
ATOM      2  S   UNL d   1       0.393  -0.598  -1.234  0.00  0.00    -0.033 SA
ATOM      3  N   UNL d   1       1.075   0.599   0.911  0.00  0.00    -0.291 N 
ATOM      4  HN  UNL d   1       1.630   0.958   1.687  1.00  0.00     0.187 HD
ATOM      5  C   UNL d   1      -0.762   0.295  -0.336  0.00  0.00     0.159 A 
ATOM      6  N   UNL d   1      -0.269   0.871   0.737  0.00  0.00    -0.279 N 
ATOM      7  HN  UNL d   1      -0.817   1.454   1.370  1.00  0.00     0.189 HD
ATOM      8  C   UNL d   1       2.933  -0.616  -0.043  0.00  0.00     0.040 A 
ATOM      9  S   UNL d   1       3.597  -1.649  -1.246  0.00  0.00    -0.099 SA
ATOM     10  C   UNL d   1       3.895  -0.288   0.899  0.00  0.00     0.022 A 
ATOM     11  C   UNL d   1       5.136  -1.655  -0.507  0.00  0.00     0.050 A 
ATOM     12  C   UNL d   1       5.162  -0.886   0.633  0.00  0.00     0.008 A 
ENDROOT
BRANCH   5  13
ATOM     13  N   UNL d   1      -2.044   0.383  -0.733  0.00  0.00    -0.379 N 
ATOM     14  H   UNL d   1      -2.270   0.174  -1.698  0.00  0.00     0.158 HD
ATOM     15  H   UNL d   1      -2.602   1.118  -0.313  0.00  0.00     0.158 HD
ENDBRANCH   5  13
TORSDOF 1
