REMARK  6 active torsions:
REMARK  status: ('A' for Active; 'I' for Inactive)
REMARK    1  A    between atoms: C_6  and  C_1 
REMARK    2  A    between atoms: C_9  and  C_3 
REMARK    3  A    between atoms: C_7  and  C_4 
REMARK    4  A    between atoms: O_8  and  C_7 
REMARK    5  A    between atoms: C_14  and  O_8 
REMARK    6  A    between atoms: O_20  and  C_15 
ROOT
ATOM      1  C   UNL d   1       0.178   1.226   0.209  0.00  0.00     0.100 A 
ATOM      2  S   UNL d   1      -0.985  -0.042   0.403  0.00  0.00    -0.079 SA
ATOM      3  C   UNL d   1       1.468   0.716   0.074  0.00  0.00    -0.002 A 
ATOM      4  C   UNL d   1       0.170  -1.267   0.192  0.00  0.00     0.082 A 
ATOM      5  C   UNL d   1       1.429  -0.723   0.031  0.00  0.00     0.038 A 
ENDROOT
BRANCH   4   6
ATOM      6  C   UNL d   1      -0.151  -2.686   0.137  0.00  0.00     0.305 C 
ATOM      7  O   UNL d   1       0.653  -3.532  -0.245  0.00  0.00    -0.258 OA
BRANCH   6   8
ATOM      8  O   UNL d   1      -1.456  -2.952   0.559  0.00  0.00    -0.275 OA
BRANCH   8   9
ATOM      9  C   UNL d   1      -1.994  -4.256   0.452  0.00  0.00     0.079 A 
ATOM     10  C   UNL d   1      -1.252  -5.420   0.641  0.00  0.00     0.040 A 
ATOM     11  C   UNL d   1      -1.847  -6.671   0.437  0.00  0.00     0.039 A 
ATOM     12  C   UNL d   1      -3.191  -6.761   0.075  0.00  0.00     0.068 A 
ATOM     13  C   UNL d   1      -3.946  -5.588  -0.035  0.00  0.00     0.039 A 
ATOM     14  C   UNL d   1      -3.354  -4.336   0.153  0.00  0.00     0.040 A 
BRANCH  12  15
ATOM     15  O   UNL d   1      -3.875  -7.915  -0.189  0.00  0.00    -0.356 OA
ATOM     16  C   UNL d   1      -3.110  -9.113  -0.260  0.00  0.00     0.210 C 
ENDBRANCH  12  15
ENDBRANCH   8   9
ENDBRANCH   6   8
ENDBRANCH   4   6
BRANCH   1  17
ATOM     17  C   UNL d   1      -0.333   2.635   0.198  0.00  0.00     0.424 C 
ATOM     18  F   UNL d   1      -1.619   2.751   0.626  0.00  0.00    -0.166 F 
ATOM     19  F   UNL d   1       0.402   3.466   0.980  0.00  0.00    -0.166 F 
ATOM     20  F   UNL d   1      -0.312   3.154  -1.060  0.00  0.00    -0.166 F 
ENDBRANCH   1  17
BRANCH   3  21
ATOM     21  C   UNL d   1       2.711   1.507  -0.020  0.00  0.00    -0.025 A 
ATOM     22  C   UNL d   1       3.898   0.978   0.524  0.00  0.00     0.012 A 
ATOM     23  C   UNL d   1       5.112   1.669   0.438  0.00  0.00     0.001 A 
ATOM     24  C   UNL d   1       5.160   2.913  -0.178  0.00  0.00     0.000 A 
ATOM     25  C   UNL d   1       4.000   3.454  -0.723  0.00  0.00     0.001 A 
ATOM     26  C   UNL d   1       2.791   2.749  -0.661  0.00  0.00     0.012 A 
ENDBRANCH   3  21
TORSDOF 6
