REMARK  3 active torsions:
REMARK  status: ('A' for Active; 'I' for Inactive)
REMARK    1  A    between atoms: C_10  and  C_2 
REMARK    2  A    between atoms: C_8  and  N_3 
REMARK    3  A    between atoms: O_9  and  C_4 
ROOT
ATOM      1  C   UNL d   1       2.434  -0.747   0.083  0.00  0.00     0.262 A 
ATOM      2  C   UNL d   1       2.407   0.754   0.013  0.00  0.00     0.044 A 
ATOM      3  N   UNL d   1       1.211  -1.426   0.062  0.00  0.00    -0.278 N 
ATOM      4  C   UNL d   1       1.229   1.399  -0.008  0.00  0.00     0.089 A 
ATOM      5  C   UNL d   1      -0.047  -0.738   0.033  0.00  0.00     0.056 A 
ATOM      6  C   UNL d   1      -0.045   0.667  -0.014  0.00  0.00     0.025 A 
ATOM      7  O   UNL d   1       3.534  -1.301   0.112  0.00  0.00    -0.267 OA
ATOM      8  C   UNL d   1      -1.290  -1.398   0.100  0.00  0.00     0.031 A 
ATOM      9  C   UNL d   1      -1.267   1.365  -0.072  0.00  0.00     0.016 A 
ATOM     10  C   UNL d   1      -2.496  -0.693   0.033  0.00  0.00     0.002 A 
ATOM     11  C   UNL d   1      -2.485   0.690  -0.066  0.00  0.00     0.001 A 
ENDROOT
BRANCH   3  12
ATOM     12  C   UNL d   1       1.234  -2.855   0.023  0.00  0.00     0.043 A 
ATOM     13  C   UNL d   1       1.924  -3.573   1.009  0.00  0.00     0.030 A 
ATOM     14  C   UNL d   1       2.006  -4.966   0.950  0.00  0.00     0.002 A 
ATOM     15  C   UNL d   1       1.416  -5.655  -0.108  0.00  0.00     0.000 A 
ATOM     16  C   UNL d   1       0.740  -4.953  -1.104  0.00  0.00     0.002 A 
ATOM     17  C   UNL d   1       0.650  -3.559  -1.041  0.00  0.00     0.030 A 
ENDBRANCH   3  12
BRANCH   2  18
ATOM     18  C   UNL d   1       3.752   1.431  -0.137  0.00  0.00     0.043 C 
ATOM     19  C   UNL d   1       4.410   1.788   1.187  0.00  0.00     0.010 C 
ENDBRANCH   2  18
BRANCH   4  20
ATOM     20  O   UNL d   1       1.112   2.776  -0.036  0.00  0.00    -0.359 OA
ATOM     21  H   UNL d   1       1.980   3.182   0.119  0.00  0.00     0.217 HD
ENDBRANCH   4  20
TORSDOF 3
