REMARK  5 active torsions:
REMARK  status: ('A' for Active; 'I' for Inactive)
REMARK    1  A    between atoms: O_4  and  C_1 
REMARK       I    between atoms: C_2  and  N_3 
REMARK    2  A    between atoms: C_8  and  C_2 
REMARK    3  A    between atoms: N_3  and  C_18 
REMARK    4  A    between atoms: C_7  and  O_4 
REMARK    5  A    between atoms: N_13  and  C_11 
ROOT
ATOM      1  N   UNL d   1      -1.663   3.381  -1.364  0.00  0.00    -0.344 N 
ATOM      2  HN  UNL d   1      -1.119   3.456  -2.223  1.00  0.00     0.167 HD
ATOM      3  C   UNL d   1      -1.234   2.656  -0.307  0.00  0.00     0.148 A 
ATOM      4  C   UNL d   1      -3.667   3.920  -0.080  0.00  0.00     0.050 A 
ATOM      5  C   UNL d   1      -2.857   4.000  -1.213  0.00  0.00     0.119 A 
ATOM      6  C   UNL d   1      -1.976   2.473   0.850  0.00  0.00     0.059 A 
ATOM      7  C   UNL d   1      -3.207   3.121   0.966  0.00  0.00     0.035 A 
ENDROOT
BRANCH   4   8
ATOM      8  N   UNL d   1      -4.882   4.638  -0.069  0.00  0.00    -0.322 N 
ATOM      9  C   UNL d   1      -5.835   4.667   0.934  0.00  0.00     0.256 C 
ATOM     10  O   UNL d   1      -5.773   4.088   2.011  0.00  0.00    -0.267 OA
ATOM     11  H   UNL d   1      -5.104   5.127  -0.926  0.00  0.00     0.169 HD
BRANCH   9  12
ATOM     12  C   UNL d   1      -7.072   5.433   0.600  0.00  0.00     0.032 A 
ATOM     13  C   UNL d   1      -8.289   4.974   1.098  0.00  0.00     0.019 A 
ATOM     14  C   UNL d   1      -9.484   5.621   0.753  0.00  0.00     0.030 A 
ATOM     15  C   UNL d   1      -9.514   6.741  -0.100  0.00  0.00     0.029 A 
ATOM     16  C   UNL d   1      -8.268   7.213  -0.542  0.00  0.00     0.030 A 
ATOM     17  C   UNL d   1      -7.063   6.577  -0.199  0.00  0.00     0.019 A 
BRANCH  15  18
ATOM     18  N   UNL d   1     -10.723   7.364  -0.411  0.00  0.00    -0.390 N 
ATOM     19  C   UNL d   1     -11.880   6.522  -0.730  0.00  0.00     0.149 C 
ATOM     20  C   UNL d   1     -10.734   8.660  -1.088  0.00  0.00     0.149 C 
ENDBRANCH  15  18
ENDBRANCH   9  12
ENDBRANCH   4   8
BRANCH   3  21
ATOM     21  O   UNL d   1       0.037   2.091  -0.318  0.00  0.00    -0.290 OA
BRANCH  21  22
ATOM     22  C   UNL d   1       0.945   2.608  -1.217  0.00  0.00     0.121 A 
ATOM     23  C   UNL d   1       1.351   3.953  -1.209  0.00  0.00     0.069 A 
ATOM     24 CL   UNL d   1       0.809   5.091  -0.022  0.00  0.00    -0.081 Cl
ATOM     25  C   UNL d   1       2.287   4.412  -2.143  0.00  0.00     0.027 A 
ATOM     26  C   UNL d   1       2.869   3.529  -3.050  0.00  0.00     0.003 A 
ATOM     27  C   UNL d   1       2.520   2.180  -3.022  0.00  0.00     0.027 A 
ATOM     28  C   UNL d   1       1.561   1.722  -2.111  0.00  0.00     0.069 A 
ATOM     29 CL   UNL d   1       1.190   0.033  -2.109  0.00  0.00    -0.081 Cl
ENDBRANCH  21  22
ENDBRANCH   3  21
TORSDOF 5
