REMARK  6 active torsions:
REMARK  status: ('A' for Active; 'I' for Inactive)
REMARK    1  A    between atoms: C_11  and  N_1 
REMARK    2  A    between atoms: S_10  and  C_2 
REMARK       I    between atoms: N_7  and  C_9 
REMARK    3  A    between atoms: C_17  and  N_8 
REMARK    4  A    between atoms: C_9  and  C_12 
REMARK    5  A    between atoms: C_12  and  S_10 
REMARK    6  A    between atoms: O_24  and  C_21 
ROOT
ATOM      1  S   UNL d   1       2.490  -6.069  -0.997  0.00  0.00    -0.082 SA
ENDROOT
BRANCH   1   2
ATOM      2  C   UNL d   1       2.902  -7.374  -2.062  0.00  0.00     0.177 C 
ATOM      3  N   UNL d   1       2.139  -8.514  -2.265  0.00  0.00    -0.219 N 
ATOM      4  N   UNL d   1       2.941  -9.426  -2.878  0.00  0.00     0.001 NA
ATOM      5  N   UNL d   1       4.069  -8.794  -3.166  0.00  0.00    -0.006 NA
ATOM      6  N   UNL d   1       4.066  -7.524  -2.656  0.00  0.00    -0.264 N 
ATOM      7  HN  UNL d   1       4.815  -6.835  -2.722  1.00  0.00     0.186 HD
BRANCH   3   8
ATOM      8  C   UNL d   1       0.778  -8.809  -2.002  0.00  0.00     0.057 A 
ATOM      9  C   UNL d   1      -0.186  -7.795  -1.911  0.00  0.00     0.034 A 
ATOM     10  C   UNL d   1      -1.524  -8.120  -1.700  0.00  0.00     0.039 A 
ATOM     11  C   UNL d   1      -1.905  -9.450  -1.575  0.00  0.00     0.065 A 
ATOM     12  C   UNL d   1      -0.964 -10.470  -1.656  0.00  0.00     0.039 A 
ATOM     13  C   UNL d   1       0.379 -10.152  -1.884  0.00  0.00     0.034 A 
BRANCH  11  14
ATOM     14  O   UNL d   1      -3.228  -9.712  -1.385  0.00  0.00    -0.361 OA
ATOM     15  H   UNL d   1      -3.360 -10.674  -1.391  0.00  0.00     0.217 HD
ENDBRANCH  11  14
ENDBRANCH   3   8
ENDBRANCH   1   2
BRANCH   1  16
ATOM     16  C   UNL d   1       3.906  -4.966  -1.244  0.00  0.00     0.185 C 
BRANCH  16  17
ATOM     17  C   UNL d   1       3.888  -3.785  -0.275  0.00  0.00     0.229 C 
ATOM     18  N   UNL d   1       5.115  -3.193   0.007  0.00  0.00    -0.348 N 
ATOM     19  C   UNL d   1       5.172  -2.045   0.925  0.00  0.00     0.145 C 
ATOM     20  C   UNL d   1       6.348  -3.378  -0.777  0.00  0.00     0.145 C 
ATOM     21  C   UNL d   1       5.564  -0.736   0.197  0.00  0.00     0.143 C 
ATOM     22  N   UNL d   1       6.758  -0.953  -0.645  0.00  0.00    -0.378 N 
ATOM     23  C   UNL d   1       6.673  -2.097  -1.564  0.00  0.00     0.143 C 
ATOM     24  O   UNL d   1       2.843  -3.361   0.223  0.00  0.00    -0.273 OA
BRANCH  22  25
ATOM     25  C   UNL d   1       7.923  -0.232  -0.477  0.00  0.00     0.030 A 
ATOM     26  C   UNL d   1       7.896   1.130  -0.142  0.00  0.00     0.029 A 
ATOM     27  C   UNL d   1       9.069   1.883  -0.006  0.00  0.00     0.002 A 
ATOM     28  C   UNL d   1      10.308   1.283  -0.196  0.00  0.00     0.000 A 
ATOM     29  C   UNL d   1      10.370  -0.067  -0.516  0.00  0.00     0.002 A 
ATOM     30  C   UNL d   1       9.191  -0.809  -0.653  0.00  0.00     0.029 A 
ENDBRANCH  22  25
ENDBRANCH  16  17
ENDBRANCH   1  16
TORSDOF 6
