REMARK  6 active torsions:
REMARK  status: ('A' for Active; 'I' for Inactive)
REMARK    1  A    between atoms: C_6  and  N_1 
REMARK    2  A    between atoms: C_8  and  C_3 
REMARK    3  A    between atoms: C_10  and  C_6 
REMARK    4  A    between atoms: O_11  and  C_8 
REMARK    5  A    between atoms: C_12  and  C_10 
REMARK    6  A    between atoms: C_13  and  O_11 
ROOT
ATOM      1  N   UNL d   1       0.901   0.463   0.048  0.00  0.00    -0.298 N 
ATOM      2  C   UNL d   1      -0.035   0.598  -0.959  0.00  0.00     0.148 A 
ATOM      3  C   UNL d   1      -0.827  -0.882   0.919  0.00  0.00     0.097 A 
ATOM      4  C   UNL d   1       0.532  -0.323   1.130  0.00  0.00     0.268 A 
ATOM      5  S   UNL d   1      -1.482  -0.319  -0.561  0.00  0.00    -0.053 SA
ATOM      6  S   UNL d   1       0.085   1.471  -2.376  0.00  0.00    -0.052 SA
ATOM      7  O   UNL d   1       1.203  -0.540   2.128  0.00  0.00    -0.266 OA
ENDROOT
BRANCH   1   8
ATOM      8  C   UNL d   1       2.213   1.121   0.075  0.00  0.00     0.138 C 
BRANCH   8   9
ATOM      9  C   UNL d   1       3.373   0.127  -0.068  0.00  0.00     0.059 C 
BRANCH   9  10
ATOM     10  C   UNL d   1       4.722   0.797   0.028  0.00  0.00    -0.057 A 
ATOM     11  C   UNL d   1       5.293   1.063   1.282  0.00  0.00     0.007 A 
ATOM     12  C   UNL d   1       6.553   1.656   1.375  0.00  0.00     0.001 A 
ATOM     13  C   UNL d   1       7.252   1.995   0.219  0.00  0.00     0.000 A 
ATOM     14  C   UNL d   1       6.687   1.751  -1.031  0.00  0.00     0.001 A 
ATOM     15  C   UNL d   1       5.426   1.158  -1.128  0.00  0.00     0.007 A 
ENDBRANCH   9  10
ENDBRANCH   8   9
ENDBRANCH   1   8
BRANCH   3  16
ATOM     16  C   UNL d   1      -1.416  -1.710   1.785  0.00  0.00     0.159 C 
BRANCH  16  17
ATOM     17  O   UNL d   1      -2.693  -2.178   1.613  0.00  0.00    -0.362 OA
BRANCH  17  18
ATOM     18  C   UNL d   1      -2.898  -3.480   2.161  0.00  0.00     0.170 C 
ATOM     19  C   UNL d   1      -4.320  -3.894   1.826  0.00  0.00     0.034 C 
ENDBRANCH  17  18
ENDBRANCH  16  17
ENDBRANCH   3  16
TORSDOF 6
