REMARK  4 active torsions:
REMARK  status: ('A' for Active; 'I' for Inactive)
REMARK    1  A    between atoms: C_3  and  C_1 
REMARK       I    between atoms: N_2  and  C_3 
REMARK       I    between atoms: C_5  and  N_2 
REMARK       I    between atoms: N_16  and  C_5 
REMARK    2  A    between atoms: C_6  and  C_10 
REMARK    3  A    between atoms: C_7  and  C_11 
REMARK    4  A    between atoms: C_15  and  N_16 
ROOT
ATOM      1  C   UNL d   1       0.074  -1.143   0.875  0.00  0.00     0.050 A 
ATOM      2  C   UNL d   1      -0.312   0.333  -1.024  0.00  0.00     0.050 A 
ATOM      3  C   UNL d   1      -0.775  -0.627  -0.112  0.00  0.00     0.032 A 
ATOM      4  C   UNL d   1       1.886   0.269   0.043  0.00  0.00     0.037 A 
ATOM      5  C   UNL d   1       1.398  -0.679   0.945  0.00  0.00     0.045 A 
ATOM      6  C   UNL d   1       1.020   0.780  -0.930  0.00  0.00     0.045 A 
ENDROOT
BRANCH   4   7
ATOM      7  N   UNL d   1       3.232   0.694   0.018  0.00  0.00    -0.313 N 
ATOM      8  C   UNL d   1       4.252   0.239   0.818  0.00  0.00     0.305 C 
ATOM      9  N   UNL d   1       5.506   0.516   0.352  0.00  0.00    -0.174 NA
ATOM     10  O   UNL d   1       4.152  -0.446   1.830  0.00  0.00    -0.253 OA
ATOM     11  C   UNL d   1       5.950   1.821   0.352  0.00  0.00     0.257 C 
ATOM     12  H   UNL d   1       6.162  -0.083   0.843  0.00  0.00     0.141 HD
ATOM     13  O   UNL d   1       5.294   2.768  -0.065  0.00  0.00    -0.272 OA
ATOM     14  H   UNL d   1       3.500   1.381  -0.678  0.00  0.00     0.170 HD
BRANCH  11  15
ATOM     15  C   UNL d   1       7.337   1.940   0.796  0.00  0.00     0.115 A 
ATOM     16  N   UNL d   1       8.093   0.792   1.047  0.00  0.00    -0.288 N 
ATOM     17  N   UNL d   1       9.323   1.083   1.431  0.00  0.00    -0.061 NA
ATOM     18  HN  UNL d   1       7.737  -0.158   0.946  1.00  0.00     0.183 HD
ATOM     19  S   UNL d   1       9.602   2.730   1.523  0.00  0.00    -0.010 SA
ATOM     20  C   UNL d   1       8.012   3.128   1.014  0.00  0.00     0.101 A 
ENDBRANCH  11  15
ENDBRANCH   4   7
BRANCH   1  21
ATOM     21  C   UNL d   1      -0.406  -2.178   1.867  0.00  0.00     0.417 C 
ATOM     22  F   UNL d   1      -1.562  -2.789   1.484  0.00  0.00    -0.166 F 
ATOM     23  F   UNL d   1       0.494  -3.180   2.063  0.00  0.00    -0.166 F 
ATOM     24  F   UNL d   1      -0.653  -1.644   3.094  0.00  0.00    -0.166 F 
ENDBRANCH   1  21
BRANCH   2  25
ATOM     25  C   UNL d   1      -1.213   0.867  -2.113  0.00  0.00     0.417 C 
ATOM     26  F   UNL d   1      -2.462   0.325  -2.101  0.00  0.00    -0.166 F 
ATOM     27  F   UNL d   1      -1.389   2.214  -2.030  0.00  0.00    -0.166 F 
ATOM     28  F   UNL d   1      -0.716   0.629  -3.358  0.00  0.00    -0.166 F 
ENDBRANCH   2  25
TORSDOF 4
