REMARK  6 active torsions:
REMARK  status: ('A' for Active; 'I' for Inactive)
REMARK    1  A    between atoms: C_10  and  C_1 
REMARK    2  A    between atoms: N_15  and  C_3 
REMARK    3  A    between atoms: C_12  and  C_6 
REMARK    4  A    between atoms: C_14  and  C_9 
REMARK    5  A    between atoms: O_22  and  C_10 
REMARK    6  A    between atoms: C_26  and  O_22 
ROOT
ATOM      1  C   UNL d   1       2.364   0.073   0.071  0.00  0.00     0.179 A 
ATOM      2  C   UNL d   1       0.247   0.881   0.068  0.00  0.00     0.058 A 
ATOM      3  C   UNL d   1       1.625   1.236   0.119  0.00  0.00     0.082 A 
ATOM      4  C   UNL d   1       0.238  -0.515   0.033  0.00  0.00     0.162 A 
ATOM      5  O   UNL d   1       1.512  -1.000   0.038  0.00  0.00    -0.284 OA
ATOM      6  C   UNL d   1      -1.011   1.518   0.060  0.00  0.00     0.017 A 
ATOM      7  N   UNL d   1      -0.831  -1.329  -0.011  0.00  0.00    -0.335 N 
ATOM      8  HN  UNL d   1      -0.749  -2.345  -0.026  1.00  0.00     0.168 HD
ATOM      9  C   UNL d   1      -2.022  -0.692  -0.034  0.00  0.00     0.045 A 
ATOM     10  C   UNL d   1      -2.145   0.697   0.015  0.00  0.00     0.045 A 
ENDROOT
BRANCH   9  11
ATOM     11  C   UNL d   1      -3.217  -1.563  -0.120  0.00  0.00    -0.009 A 
ATOM     12  C   UNL d   1      -3.266  -2.803   0.539  0.00  0.00     0.014 A 
ATOM     13  C   UNL d   1      -4.398  -3.626   0.462  0.00  0.00     0.007 A 
ATOM     14  C   UNL d   1      -5.511  -3.236  -0.289  0.00  0.00    -0.062 A 
ATOM     15  C   UNL d   1      -5.483  -2.004  -0.944  0.00  0.00     0.007 A 
ATOM     16  C   UNL d   1      -6.713  -4.129  -0.382  0.00  0.00     0.048 C 
ATOM     17  C   UNL d   1      -4.351  -1.185  -0.864  0.00  0.00     0.014 A 
ENDBRANCH   9  11
BRANCH   6  18
ATOM     18  C   UNL d   1      -1.145   2.963   0.131  0.00  0.00     0.086 A 
ATOM     19  O   UNL d   1      -0.178   3.719  -0.470  0.00  0.00    -0.322 OA
ATOM     20  C   UNL d   1      -0.489   5.023  -0.256  0.00  0.00     0.142 A 
ATOM     21  C   UNL d   1      -1.667   5.126   0.441  0.00  0.00     0.027 A 
ATOM     22  C   UNL d   1      -2.103   3.798   0.671  0.00  0.00     0.040 A 
ENDBRANCH   6  18
BRANCH   1  23
ATOM     23  C   UNL d   1       3.789  -0.123  -0.021  0.00  0.00     0.319 C 
ATOM     24  O   UNL d   1       4.621   0.774  -0.112  0.00  0.00    -0.257 OA
BRANCH  23  25
ATOM     25  O   UNL d   1       4.078  -1.453  -0.107  0.00  0.00    -0.316 OA
BRANCH  25  26
ATOM     26  C   UNL d   1       5.361  -1.761  -0.661  0.00  0.00     0.175 C 
ATOM     27  C   UNL d   1       5.224  -1.791  -2.173  0.00  0.00     0.034 C 
ENDBRANCH  25  26
ENDBRANCH  23  25
ENDBRANCH   1  23
BRANCH   3  28
ATOM     28  N   UNL d   1       2.145   2.479   0.169  0.00  0.00    -0.396 N 
ATOM     29  H   UNL d   1       1.557   3.280  -0.063  0.00  0.00     0.156 HD
ATOM     30  H   UNL d   1       3.136   2.644  -0.014  0.00  0.00     0.156 HD
ENDBRANCH   3  28
TORSDOF 6
