REMARK  2 active torsions:
REMARK  status: ('A' for Active; 'I' for Inactive)
REMARK       I    between atoms: N_5  and  C_1 
REMARK       I    between atoms: N_6  and  C_1 
REMARK    1  A    between atoms: C_4  and  N_5 
REMARK    2  A    between atoms: C_13  and  N_6 
ROOT
ATOM      1  C   UNL d   1       1.114   0.260   0.141  0.00  0.00     0.325 C 
ATOM      2  N   UNL d   1       0.516  -0.470   1.153  0.00  0.00    -0.306 N 
ATOM      3  N   UNL d   1       0.248   0.410  -0.929  0.00  0.00    -0.309 N 
ATOM      4  O   UNL d   1       2.261   0.690   0.176  0.00  0.00    -0.247 OA
ATOM      5  H   UNL d   1      -0.086  -1.220   0.819  0.00  0.00     0.170 HD
ATOM      6  H   UNL d   1      -0.730   0.460  -0.681  0.00  0.00     0.170 HD
ENDROOT
BRANCH   2   7
ATOM      7  C   UNL d   1       1.229  -0.844   2.325  0.00  0.00     0.064 A 
ATOM      8  C   UNL d   1       1.098  -2.170   2.755  0.00  0.00     0.070 A 
ATOM      9  C   UNL d   1       1.884  -2.611   3.844  0.00  0.00     0.010 A 
ATOM     10  N   UNL d   1       0.264  -2.993   2.074  0.00  0.00    -0.363 N 
ATOM     11  C   UNL d   1       1.783  -3.980   4.179  0.00  0.00     0.016 A 
ATOM     12  C   UNL d   1       2.727  -1.677   4.502  0.00  0.00     0.023 A 
ATOM     13  C   UNL d   1       0.941  -4.829   3.470  0.00  0.00     0.018 A 
ATOM     14  C   UNL d   1       0.201  -4.290   2.440  0.00  0.00     0.088 A 
ATOM     15  C   UNL d   1       2.794  -0.346   4.087  0.00  0.00     0.022 A 
ATOM     16 BR   UNL d   1       3.834  -2.161   5.975  0.00  0.00    -0.050 Br
ATOM     17  C   UNL d   1       2.048   0.070   2.993  0.00  0.00     0.033 A 
ATOM     18  HN  UNL d   1      -0.303  -2.641   1.303  1.00  0.00     0.165 HD
ENDBRANCH   2   7
BRANCH   3  19
ATOM     19  C   UNL d   1       0.620   0.791  -2.230  0.00  0.00     0.036 A 
ATOM     20  C   UNL d   1       1.925   0.634  -2.716  0.00  0.00     0.031 A 
ATOM     21  C   UNL d   1       2.240   0.989  -4.031  0.00  0.00     0.026 A 
ATOM     22  C   UNL d   1       1.253   1.506  -4.863  0.00  0.00     0.034 A 
ATOM     23  C   UNL d   1      -0.051   1.660  -4.395  0.00  0.00     0.026 A 
ATOM     24 CL   UNL d   1       1.641   1.950  -6.479  0.00  0.00    -0.084 Cl
ATOM     25  C   UNL d   1      -0.369   1.291  -3.083  0.00  0.00     0.031 A 
ENDBRANCH   3  19
TORSDOF 2
