REMARK  2 active torsions:
REMARK  status: ('A' for Active; 'I' for Inactive)
REMARK    1  A    between atoms: C_12  and  N_4 
REMARK    2  A    between atoms: O_14  and  C_5 
ROOT
ATOM      1  C   UNL d   1       1.434   0.883  -0.039  0.00  0.00     0.101 A 
ATOM      2  C   UNL d   1       0.702   2.181  -0.095  0.00  0.00     0.268 A 
ATOM      3  C   UNL d   1       0.750  -0.268   0.021  0.00  0.00     0.110 A 
ATOM      4  N   UNL d   1      -0.692   2.146  -0.042  0.00  0.00    -0.277 N 
ATOM      5  C   UNL d   1       2.883   0.814  -0.041  0.00  0.00     0.090 A 
ATOM      6  C   UNL d   1      -1.429   0.916   0.002  0.00  0.00     0.056 A 
ATOM      7  C   UNL d   1      -0.716  -0.297   0.035  0.00  0.00     0.026 A 
ATOM      8  C   UNL d   1       3.517  -0.360  -0.008  0.00  0.00     0.120 A 
ATOM      9  O   UNL d   1       1.400  -1.525   0.060  0.00  0.00    -0.273 OA
ATOM     10  C   UNL d   1       2.763  -1.619   0.032  0.00  0.00     0.290 A 
ATOM     11  O   UNL d   1       1.377   3.215  -0.148  0.00  0.00    -0.267 OA
ATOM     12  O   UNL d   1       3.346  -2.697   0.046  0.00  0.00    -0.260 OA
ATOM     13  C   UNL d   1      -2.834   0.861  -0.052  0.00  0.00     0.031 A 
ATOM     14  C   UNL d   1      -1.410  -1.520   0.055  0.00  0.00     0.016 A 
ATOM     15  C   UNL d   1      -3.514  -0.360  -0.031  0.00  0.00     0.002 A 
ATOM     16  C   UNL d   1      -2.803  -1.551   0.028  0.00  0.00     0.001 A 
ENDROOT
BRANCH   4  17
ATOM     17  C   UNL d   1      -1.391   3.386  -0.034  0.00  0.00     0.043 A 
ATOM     18  C   UNL d   1      -1.210   4.293  -1.088  0.00  0.00     0.030 A 
ATOM     19  C   UNL d   1      -1.823   5.546  -1.058  0.00  0.00     0.002 A 
ATOM     20  C   UNL d   1      -2.606   5.911   0.036  0.00  0.00     0.000 A 
ATOM     21  C   UNL d   1      -2.782   5.022   1.096  0.00  0.00     0.002 A 
ATOM     22  C   UNL d   1      -2.179   3.762   1.063  0.00  0.00     0.030 A 
ENDBRANCH   4  17
BRANCH   5  23
ATOM     23  O   UNL d   1       3.619   1.983  -0.067  0.00  0.00    -0.359 OA
ATOM     24  H   UNL d   1       3.004   2.752  -0.082  0.00  0.00     0.217 HD
ENDBRANCH   5  23
TORSDOF 2
