REMARK  5 active torsions:
REMARK  status: ('A' for Active; 'I' for Inactive)
REMARK    1  A    between atoms: C_2  and  C_1 
REMARK    2  A    between atoms: O_6  and  C_1 
REMARK    3  A    between atoms: O_3  and  C_2 
REMARK    4  A    between atoms: C_5  and  O_3 
REMARK    5  A    between atoms: O_12  and  C_7 
ROOT
ATOM      1  C   UNL d   1      -1.547   0.601   1.379  0.00  0.00     0.070 A 
ATOM      2  C   UNL d   1      -3.467  -1.266   2.225  0.00  0.00     0.068 A 
ATOM      3  C   UNL d   1      -1.219  -0.752   1.502  0.00  0.00     0.039 A 
ATOM      4  C   UNL d   1      -2.829   1.022   1.727  0.00  0.00     0.039 A 
ATOM      5  C   UNL d   1      -3.779   0.090   2.156  0.00  0.00     0.039 A 
ATOM      6  C   UNL d   1      -2.176  -1.687   1.915  0.00  0.00     0.039 A 
ENDROOT
BRANCH   1   7
ATOM      7  O   UNL d   1      -0.534   1.399   0.916  0.00  0.00    -0.336 OA
BRANCH   7   8
ATOM      8  C   UNL d   1      -0.887   2.678   0.378  0.00  0.00     0.222 C 
ATOM      9  C   UNL d   1       0.392   3.499   0.264  0.00  0.00     0.051 C 
BRANCH   8  10
ATOM     10  C   UNL d   1      -1.506   2.561  -1.015  0.00  0.00     0.170 C 
ATOM     11  O   UNL d   1      -2.237   3.402  -1.514  0.00  0.00    -0.648 OA
BRANCH  10  12
ATOM     12  O   UNL d   1      -1.117   1.444  -1.685  0.00  0.00    -0.775 OA
ATOM     13  H   UNL d   1      -0.565   0.874  -1.109  0.00  0.00     0.167 HD
ENDBRANCH  10  12
ENDBRANCH   8  10
ENDBRANCH   7   8
ENDBRANCH   1   7
BRANCH   2  14
ATOM     14  O   UNL d   1      -4.478  -2.081   2.652  0.00  0.00    -0.356 OA
ATOM     15  C   UNL d   1      -4.476  -3.391   2.095  0.00  0.00     0.210 C 
ENDBRANCH   2  14
TORSDOF 5
