REMARK  2 active torsions:
REMARK  status: ('A' for Active; 'I' for Inactive)
REMARK       I    between atoms: N_2  and  C_1 
REMARK    1  A    between atoms: C_4  and  C_1 
REMARK    2  A    between atoms: C_5  and  N_2 
ROOT
ATOM      1  C   UNL d   1       1.013  -0.161  -0.024  0.00  0.00     0.252 C 
ATOM      2  N   UNL d   1       0.356  -0.705   1.055  0.00  0.00    -0.344 N 
ATOM      3  O   UNL d   1       2.196  -0.369  -0.263  0.00  0.00    -0.268 OA
ATOM      4  H   UNL d   1      -0.662  -0.667   1.117  0.00  0.00     0.163 HD
ENDROOT
BRANCH   2   5
ATOM      5  C   UNL d   1       1.030  -1.649   1.950  0.00  0.00     0.177 C 
ATOM      6  C   UNL d   1      -0.016  -2.622   2.529  0.00  0.00     0.240 C 
ATOM      7  N   UNL d   1       0.420  -3.607   3.372  0.00  0.00    -0.359 N 
ATOM      8  O   UNL d   1      -1.214  -2.548   2.255  0.00  0.00    -0.271 OA
ATOM      9  C   UNL d   1       1.797  -3.960   3.637  0.00  0.00     0.122 C 
ATOM     10  H   UNL d   1      -0.312  -4.235   3.686  0.00  0.00     0.162 HD
ATOM     11  C   UNL d   1       2.522  -2.910   4.466  0.00  0.00     0.020 C 
ATOM     12  C   UNL d   1       2.932  -1.677   3.665  0.00  0.00     0.004 C 
ATOM     13  C   UNL d   1       1.771  -0.889   3.057  0.00  0.00     0.035 C 
ENDBRANCH   2   5
BRANCH   1  14
ATOM     14  C   UNL d   1       0.210   0.709  -0.935  0.00  0.00     0.032 A 
ATOM     15  C   UNL d   1       0.582   0.784  -2.285  0.00  0.00     0.024 A 
ATOM     16  C   UNL d   1      -0.133   1.581  -3.194  0.00  0.00    -0.055 A 
ATOM     17  C   UNL d   1       0.300   1.627  -4.634  0.00  0.00     0.049 C 
ATOM     18  C   UNL d   1      -1.240   2.324  -2.735  0.00  0.00    -0.056 A 
ATOM     19  C   UNL d   1      -1.594   2.260  -1.377  0.00  0.00     0.008 A 
ATOM     20  C   UNL d   1      -2.040   3.192  -3.668  0.00  0.00     0.049 C 
ATOM     21  C   UNL d   1      -0.876   1.463  -0.481  0.00  0.00     0.017 A 
ENDBRANCH   1  14
TORSDOF 2
