REMARK  3 active torsions:
REMARK  status: ('A' for Active; 'I' for Inactive)
REMARK    1  A    between atoms: N_2  and  S_1 
REMARK    2  A    between atoms: C_9  and  S_1 
REMARK    3  A    between atoms: C_3  and  N_4 
ROOT
ATOM      1  N   UNL d   1       0.592   0.886   1.058  0.00  0.00    -0.204 NA
ATOM      2  N   UNL d   1       1.374   3.688   1.301  0.00  0.00    -0.280 NA
ATOM      3  C   UNL d   1      -0.352   1.990   0.676  0.00  0.00     0.122 C 
ATOM      4  C   UNL d   1       1.553   1.359   2.106  0.00  0.00     0.122 C 
ATOM      5  C   UNL d   1       0.398   3.281   0.250  0.00  0.00     0.111 C 
ATOM      6  C   UNL d   1       2.328   2.599   1.627  0.00  0.00     0.111 C 
ENDROOT
BRANCH   2   7
ATOM      7  C   UNL d   1       1.933   4.971   1.055  0.00  0.00     0.025 A 
ATOM      8  C   UNL d   1       1.186   6.154   1.325  0.00  0.00     0.012 A 
ATOM      9  C   UNL d   1       1.784   7.399   1.025  0.00  0.00     0.044 A 
ATOM     10  C   UNL d   1      -0.109   6.158   1.901  0.00  0.00     0.015 A 
ATOM     11  C   UNL d   1       1.073   8.569   1.258  0.00  0.00     0.030 A 
ATOM     12  N   UNL d   1       3.026   7.517   0.533  0.00  0.00    -0.359 N 
ATOM     13  C   UNL d   1      -0.214   8.556   1.798  0.00  0.00     0.002 A 
ATOM     14  C   UNL d   1      -0.805   7.346   2.127  0.00  0.00     0.001 A 
ATOM     15  C   UNL d   1       3.738   6.394   0.313  0.00  0.00     0.007 A 
ATOM     16  HN  UNL d   1       3.422   8.435   0.329  1.00  0.00     0.166 HD
ATOM     17  C   UNL d   1       3.231   5.123   0.549  0.00  0.00     0.049 A 
ATOM     18  C   UNL d   1       5.142   6.563  -0.187  0.00  0.00     0.068 C 
ENDBRANCH   2   7
BRANCH   1  19
ATOM     19  S   UNL d   1       1.264  -0.004  -0.226  0.00  0.00     0.243 S 
ATOM     20  O   UNL d   1       2.531  -0.554   0.206  0.00  0.00    -0.206 OA
ATOM     21  O   UNL d   1       1.162   0.775  -1.440  0.00  0.00    -0.206 OA
BRANCH  19  22
ATOM     22  C   UNL d   1       0.125  -1.371  -0.364  0.00  0.00     0.074 A 
ATOM     23  C   UNL d   1      -0.916  -1.326  -1.297  0.00  0.00     0.026 A 
ATOM     24  C   UNL d   1      -1.733  -2.447  -1.472  0.00  0.00     0.025 A 
ATOM     25  C   UNL d   1      -1.496  -3.605  -0.727  0.00  0.00     0.034 A 
ATOM     26  C   UNL d   1      -0.456  -3.650   0.201  0.00  0.00     0.025 A 
ATOM     27 CL   UNL d   1      -2.481  -4.994  -0.972  0.00  0.00    -0.084 Cl
ATOM     28  C   UNL d   1       0.360  -2.531   0.384  0.00  0.00     0.026 A 
ENDBRANCH  19  22
ENDBRANCH   1  19
TORSDOF 3
