REMARK  2 active torsions:
REMARK  status: ('A' for Active; 'I' for Inactive)
REMARK    1  A    between atoms: C_5  and  C_1 
REMARK    2  A    between atoms: C_9  and  N_2 
ROOT
ATOM      1  C   UNL d   1      -0.140  -1.318   0.100  0.00  0.00     0.149 A 
ATOM      2  N   UNL d   1       1.076  -0.719   0.151  0.00  0.00    -0.238 N 
ATOM      3  N   UNL d   1      -1.130  -0.495   0.239  0.00  0.00    -0.238 N 
ATOM      4  HN  UNL d   1      -2.125  -0.719   0.228  1.00  0.00     0.196 HD
ATOM      5  C   UNL d   1       0.822   0.595   0.394  0.00  0.00     0.395 A 
ATOM      6  O   UNL d   1      -0.538   0.784   0.411  0.00  0.00    -0.179 OA
ATOM      7  O   UNL d   1       1.628   1.502   0.556  0.00  0.00    -0.235 OA
ENDROOT
BRANCH   1   8
ATOM      8  C   UNL d   1      -0.349  -2.782   0.057  0.00  0.00     0.034 A 
ATOM      9  C   UNL d   1      -1.305  -3.376  -0.786  0.00  0.00     0.069 A 
ATOM     10  C   UNL d   1      -1.521  -4.763  -0.698  0.00  0.00     0.056 A 
ATOM     11 CL   UNL d   1      -2.166  -2.437  -1.963  0.00  0.00    -0.082 Cl
ATOM     12 CL   UNL d   1      -2.693  -5.588  -1.669  0.00  0.00    -0.083 Cl
ATOM     13  C   UNL d   1      -0.782  -5.543   0.198  0.00  0.00     0.026 A 
ATOM     14  C   UNL d   1       0.165  -4.952   1.029  0.00  0.00     0.003 A 
ATOM     15  C   UNL d   1       0.363  -3.574   0.975  0.00  0.00     0.017 A 
ENDBRANCH   1   8
BRANCH   2  16
ATOM     16  C   UNL d   1       2.364  -1.267  -0.004  0.00  0.00     0.061 A 
ATOM     17  C   UNL d   1       3.432  -0.837   0.784  0.00  0.00     0.117 A 
ATOM     18  N   UNL d   1       4.674  -1.380   0.753  0.00  0.00    -0.373 N 
ATOM     19  C   UNL d   1       4.887  -2.365  -0.142  0.00  0.00     0.088 A 
ATOM     20  HN  UNL d   1       5.413  -1.057   1.377  1.00  0.00     0.164 HD
ATOM     21  C   UNL d   1       3.913  -2.832  -1.008  0.00  0.00     0.019 A 
ATOM     22  C   UNL d   1       2.635  -2.278  -0.933  0.00  0.00     0.033 A 
ENDBRANCH   2  16
TORSDOF 2
