REMARK  4 active torsions:
REMARK  status: ('A' for Active; 'I' for Inactive)
REMARK    1  A    between atoms: C_4  and  C_1 
REMARK    2  A    between atoms: O_12  and  C_1 
REMARK    3  A    between atoms: C_2  and  C_3 
REMARK    4  A    between atoms: O_11  and  C_2 
ROOT
ATOM      1  C   UNL d   1       1.482   3.614   1.216  0.00  0.00     0.084 C 
ATOM      2  C   UNL d   1       0.252   0.884   0.973  0.00  0.00     0.084 C 
ATOM      3  C   UNL d   1       2.113   2.405   1.905  0.00  0.00     0.016 C 
ATOM      4  C   UNL d   1       1.121   1.272   2.177  0.00  0.00     0.016 C 
ATOM      5  C   UNL d   1      -0.350   2.095   0.260  0.00  0.00     0.016 C 
ATOM      6  C   UNL d   1       0.668   3.203  -0.015  0.00  0.00     0.016 C 
ENDROOT
BRANCH   1   7
ATOM      7  C   UNL d   1       0.662   4.437   2.204  0.00  0.00     0.143 C 
ATOM      8  O   UNL d   1      -0.546   4.360   2.349  0.00  0.00    -0.650 OA
BRANCH   7   9
ATOM      9  O   UNL d   1       1.419   5.272   2.953  0.00  0.00    -0.776 OA
ATOM     10  H   UNL d   1       2.372   5.242   2.749  0.00  0.00     0.167 HD
ENDBRANCH   7   9
ENDBRANCH   1   7
BRANCH   2  11
ATOM     11  C   UNL d   1       1.001   0.011  -0.022  0.00  0.00     0.143 C 
ATOM     12  O   UNL d   1       2.208   0.043  -0.210  0.00  0.00    -0.650 OA
BRANCH  11  13
ATOM     13  O   UNL d   1       0.184  -0.806  -0.726  0.00  0.00    -0.776 OA
ATOM     14  H   UNL d   1      -0.761  -0.725  -0.494  0.00  0.00     0.167 HD
ENDBRANCH  11  13
ENDBRANCH   2  11
TORSDOF 4
