REMARK  3 active torsions:
REMARK  status: ('A' for Active; 'I' for Inactive)
REMARK    1  A    between atoms: C_17  and  N_1 
REMARK    2  A    between atoms: C_16  and  C_4 
REMARK    3  A    between atoms: N_15  and  N_13 
ROOT
ATOM      1  N   UNL d   1      -2.253  -2.621   0.019  0.00  0.00    -0.309 N 
ATOM      2  HN  UNL d   1      -2.838  -1.812   0.229  1.00  0.00     0.186 HD
ATOM      3  C   UNL d   1      -0.972  -2.515  -0.109  0.00  0.00     0.122 C 
ENDROOT
BRANCH   1   4
ATOM      4  N   UNL d   1      -2.785  -3.861  -0.140  0.00  0.00    -0.280 N 
ATOM      5  C   UNL d   1      -4.060  -4.143   0.242  0.00  0.00     0.164 A 
ATOM      6  N   UNL d   1      -4.780  -5.072  -0.342  0.00  0.00    -0.334 N 
ATOM      7  S   UNL d   1      -4.836  -3.340   1.559  0.00  0.00    -0.051 SA
ATOM      8  C   UNL d   1      -5.962  -5.265   0.351  0.00  0.00     0.051 A 
ATOM      9  HN  UNL d   1      -4.508  -5.578  -1.185  1.00  0.00     0.168 HD
ATOM     10  C   UNL d   1      -6.938  -6.236   0.056  0.00  0.00     0.031 A 
ATOM     11  C   UNL d   1      -6.147  -4.443   1.463  0.00  0.00     0.035 A 
ATOM     12  C   UNL d   1      -8.020  -6.415   0.922  0.00  0.00     0.002 A 
ATOM     13  C   UNL d   1      -8.166  -5.607   2.046  0.00  0.00     0.002 A 
ATOM     14  C   UNL d   1      -7.252  -4.585   2.318  0.00  0.00     0.021 A 
ATOM     15  H   UNL d   1      -2.494  -4.394  -0.958  0.00  0.00     0.189 HD
ENDBRANCH   1   4
BRANCH   3  16
ATOM     16  C   UNL d   1      -0.436  -1.181  -0.038  0.00  0.00     0.022 A 
ATOM     17  C   UNL d   1      -1.202  -0.040   0.069  0.00  0.00     0.131 A 
ATOM     18  N   UNL d   1      -0.362   1.037   0.013  0.00  0.00    -0.267 N 
ATOM     19  N   UNL d   1       0.937   0.639  -0.066  0.00  0.00    -0.298 N 
ATOM     20  C   UNL d   1       0.891  -0.701  -0.083  0.00  0.00     0.035 A 
ATOM     21  HN  UNL d   1       1.766   1.231  -0.104  1.00  0.00     0.187 HD
ATOM     22  C   UNL d   1       2.149  -1.487  -0.152  0.00  0.00     0.070 C 
BRANCH  18  23
ATOM     23  C   UNL d   1      -0.735   2.406   0.003  0.00  0.00     0.056 A 
ATOM     24  C   UNL d   1       0.243   3.392  -0.184  0.00  0.00     0.031 A 
ATOM     25  C   UNL d   1      -0.121   4.738  -0.222  0.00  0.00     0.002 A 
ATOM     26  C   UNL d   1      -1.459   5.111  -0.074  0.00  0.00     0.000 A 
ATOM     27  C   UNL d   1      -2.434   4.140   0.119  0.00  0.00     0.002 A 
ATOM     28  C   UNL d   1      -2.082   2.790   0.153  0.00  0.00     0.031 A 
ENDBRANCH  18  23
ENDBRANCH   3  16
TORSDOF 3
