REMARK  7 active torsions:
REMARK  status: ('A' for Active; 'I' for Inactive)
REMARK    1  A    between atoms: C_9  and  C_1 
REMARK    2  A    between atoms: C_15  and  C_2 
REMARK    3  A    between atoms: C_6  and  N_3 
REMARK    4  A    between atoms: C_7  and  C_10 
REMARK    5  A    between atoms: C_8  and  C_11 
REMARK    6  A    between atoms: O_23  and  C_9 
REMARK    7  A    between atoms: C_27  and  O_23 
ROOT
ATOM      1  C   UNL d   1      -0.366  -1.222   0.168  0.00  0.00     0.069 A 
ATOM      2  C   UNL d   1       0.954  -0.763   0.093  0.00  0.00     0.066 A 
ATOM      3  N   UNL d   1       0.912   0.649   0.001  0.00  0.00    -0.314 N 
ATOM      4  C   UNL d   1      -1.210  -0.089   0.132  0.00  0.00     0.045 A 
ATOM      5  C   UNL d   1      -0.429   1.046   0.046  0.00  0.00     0.014 A 
ATOM      6  C   UNL d   1      -0.947   2.438  -0.100  0.00  0.00     0.068 C 
ENDROOT
BRANCH   3   7
ATOM      7  C   UNL d   1       2.035   1.543  -0.161  0.00  0.00     0.041 A 
ATOM      8  C   UNL d   1       3.148   1.163  -0.921  0.00  0.00     0.046 A 
ATOM      9  C   UNL d   1       4.283   1.985  -1.013  0.00  0.00     0.050 A 
ATOM     10  C   UNL d   1       4.251   3.255  -0.419  0.00  0.00     0.032 A 
ATOM     11  C   UNL d   1       3.122   3.688   0.290  0.00  0.00     0.050 A 
ATOM     12  C   UNL d   1       2.040   2.805   0.451  0.00  0.00     0.046 A 
BRANCH   9  13
ATOM     13  C   UNL d   1       5.534   1.511  -1.716  0.00  0.00     0.417 C 
ATOM     14  F   UNL d   1       5.429   0.264  -2.249  0.00  0.00    -0.166 F 
ATOM     15  F   UNL d   1       5.890   2.330  -2.745  0.00  0.00    -0.166 F 
ATOM     16  F   UNL d   1       6.608   1.472  -0.881  0.00  0.00    -0.166 F 
ENDBRANCH   9  13
BRANCH  11  17
ATOM     17  C   UNL d   1       3.080   5.084   0.868  0.00  0.00     0.417 C 
ATOM     18  F   UNL d   1       1.886   5.400   1.441  0.00  0.00    -0.166 F 
ATOM     19  F   UNL d   1       4.024   5.282   1.827  0.00  0.00    -0.166 F 
ATOM     20  F   UNL d   1       3.300   6.038  -0.079  0.00  0.00    -0.166 F 
ENDBRANCH  11  17
ENDBRANCH   3   7
BRANCH   2  21
ATOM     21  C   UNL d   1       2.179  -1.595   0.087  0.00  0.00    -0.008 A 
ATOM     22  C   UNL d   1       2.278  -2.688  -0.789  0.00  0.00     0.014 A 
ATOM     23  C   UNL d   1       3.443  -3.453  -0.858  0.00  0.00     0.001 A 
ATOM     24  C   UNL d   1       4.543  -3.115  -0.076  0.00  0.00     0.000 A 
ATOM     25  C   UNL d   1       4.460  -2.043   0.809  0.00  0.00     0.001 A 
ATOM     26  C   UNL d   1       3.274  -1.308   0.916  0.00  0.00     0.014 A 
ENDBRANCH   2  21
BRANCH   1  27
ATOM     27  C   UNL d   1      -0.816  -2.610   0.253  0.00  0.00     0.295 C 
ATOM     28  O   UNL d   1      -0.206  -3.502   0.836  0.00  0.00    -0.259 OA
BRANCH  27  29
ATOM     29  O   UNL d   1      -1.977  -2.808  -0.438  0.00  0.00    -0.318 OA
BRANCH  29  30
ATOM     30  C   UNL d   1      -2.420  -4.168  -0.528  0.00  0.00     0.174 C 
ATOM     31  C   UNL d   1      -1.693  -4.891  -1.650  0.00  0.00     0.034 C 
ENDBRANCH  29  30
ENDBRANCH  27  29
ENDBRANCH   1  27
TORSDOF 7
