REMARK  7 active torsions:
REMARK  status: ('A' for Active; 'I' for Inactive)
REMARK    1  A    between atoms: C_2  and  C_1 
REMARK    2  A    between atoms: C_3  and  C_2 
REMARK    3  A    between atoms: O_19  and  C_4 
REMARK    4  A    between atoms: O_20  and  C_5 
REMARK    5  A    between atoms: O_21  and  C_6 
REMARK    6  A    between atoms: N_15  and  C_7 
REMARK    7  A    between atoms: C_13  and  N_15 
ROOT
ATOM      1  C   UNL d   1      -0.930  -1.351  -0.386  0.00  0.00     0.110 C 
ATOM      2  C   UNL d   1      -1.616  -0.424   0.316  0.00  0.00     0.115 C 
ATOM      3  C   UNL d   1       0.490  -1.343  -0.427  0.00  0.00     0.105 C 
ATOM      4  N   UNL d   1       1.649  -1.285  -0.451  0.00  0.00    -0.191 NA
ENDROOT
BRANCH   1   5
ATOM      5  C   UNL d   1      -1.712  -2.428  -1.058  0.00  0.00     0.204 C 
ATOM      6  O   UNL d   1      -2.800  -2.795  -0.625  0.00  0.00    -0.286 OA
BRANCH   5   7
ATOM      7  C   UNL d   1      -1.110  -3.047  -2.243  0.00  0.00     0.022 A 
ATOM      8  C   UNL d   1      -0.307  -2.419  -3.182  0.00  0.00     0.065 A 
ATOM      9  S   UNL d   1       0.225  -3.472  -4.423  0.00  0.00    -0.113 SA
ATOM     10  C   UNL d   1      -0.661  -4.776  -3.770  0.00  0.00     0.050 A 
ATOM     11  C   UNL d   1      -1.343  -4.414  -2.630  0.00  0.00     0.023 A 
ENDBRANCH   5   7
ENDBRANCH   1   5
BRANCH   2  12
ATOM     12  N   UNL d   1      -1.119   0.678   0.971  0.00  0.00    -0.364 N 
ATOM     13  H   UNL d   1      -0.120   0.861   0.891  0.00  0.00     0.165 HD
BRANCH  12  14
ATOM     14  C   UNL d   1      -1.792   1.553   1.843  0.00  0.00     0.037 A 
ATOM     15  C   UNL d   1      -2.986   1.230   2.490  0.00  0.00     0.069 A 
ATOM     16  C   UNL d   1      -3.653   2.149   3.320  0.00  0.00     0.106 A 
ATOM     17  C   UNL d   1      -3.126   3.442   3.482  0.00  0.00     0.135 A 
ATOM     18  C   UNL d   1      -1.899   3.770   2.865  0.00  0.00     0.106 A 
ATOM     19  C   UNL d   1      -1.275   2.839   2.024  0.00  0.00     0.069 A 
BRANCH  16  20
ATOM     20  O   UNL d   1      -4.785   1.604   3.867  0.00  0.00    -0.353 OA
ATOM     21  C   UNL d   1      -5.519   2.344   4.828  0.00  0.00     0.210 C 
ENDBRANCH  16  20
BRANCH  17  22
ATOM     22  O   UNL d   1      -3.759   4.322   4.322  0.00  0.00    -0.351 OA
ATOM     23  C   UNL d   1      -4.051   5.598   3.753  0.00  0.00     0.210 C 
ENDBRANCH  17  22
BRANCH  18  24
ATOM     24  O   UNL d   1      -1.367   5.009   3.134  0.00  0.00    -0.353 OA
ATOM     25  C   UNL d   1       0.002   5.214   2.803  0.00  0.00     0.210 C 
ENDBRANCH  18  24
ENDBRANCH  12  14
ENDBRANCH   2  12
TORSDOF 7
