REMARK  2 active torsions:
REMARK  status: ('A' for Active; 'I' for Inactive)
REMARK    1  A    between atoms: C_3  and  C_1 
REMARK       I    between atoms: N_10  and  C_3 
REMARK    2  A    between atoms: C_15  and  N_10 
ROOT
ATOM      1  C   UNL d   1      -1.407  -1.364  -0.190  0.00  0.00     0.061 A 
ATOM      2  C   UNL d   1      -0.269  -0.591   0.158  0.00  0.00     0.082 A 
ATOM      3  S   UNL d   1       1.895   0.310   0.774  0.00  0.00     0.068 SA
ATOM      4  N   UNL d   1       0.962  -1.035   0.480  0.00  0.00    -0.310 N 
ATOM      5  HN  UNL d   1       1.263  -2.008   0.534  1.00  0.00     0.176 HD
ATOM      6  C   UNL d   1      -0.365   0.922   0.193  0.00  0.00     0.068 A 
ATOM      7  N   UNL d   1       0.789   1.519   0.526  0.00  0.00    -0.310 N 
ATOM      8  HN  UNL d   1       0.954   2.522   0.611  1.00  0.00     0.176 HD
ATOM      9  C   UNL d   1      -2.587  -0.629  -0.476  0.00  0.00     0.019 A 
ATOM     10  C   UNL d   1      -2.669   0.781  -0.436  0.00  0.00     0.003 A 
ATOM     11  C   UNL d   1      -1.575   1.593  -0.108  0.00  0.00     0.032 A 
ENDROOT
BRANCH   1  12
ATOM     12  C   UNL d   1      -1.430  -2.841  -0.301  0.00  0.00     0.258 C 
ATOM     13  N   UNL d   1      -0.276  -3.532   0.020  0.00  0.00    -0.323 N 
ATOM     14  H   UNL d   1       0.495  -2.990   0.404  0.00  0.00     0.169 HD
ATOM     15  O   UNL d   1      -2.487  -3.349  -0.665  0.00  0.00    -0.267 OA
BRANCH  13  16
ATOM     16  C   UNL d   1      -0.064  -4.922  -0.123  0.00  0.00     0.035 A 
ATOM     17  C   UNL d   1      -0.955  -5.773  -0.788  0.00  0.00     0.031 A 
ATOM     18  C   UNL d   1      -0.681  -7.138  -0.922  0.00  0.00     0.026 A 
ATOM     19  C   UNL d   1       0.487  -7.664  -0.385  0.00  0.00     0.034 A 
ATOM     20  C   UNL d   1       1.385  -6.835   0.282  0.00  0.00     0.026 A 
ATOM     21 CL   UNL d   1       0.825  -9.342  -0.553  0.00  0.00    -0.084 Cl
ATOM     22  C   UNL d   1       1.113  -5.466   0.407  0.00  0.00     0.031 A 
ENDBRANCH  13  16
ENDBRANCH   1  12
TORSDOF 2
