REMARK  6 active torsions:
REMARK  status: ('A' for Active; 'I' for Inactive)
REMARK    1  A    between atoms: C_3  and  N_1 
REMARK    2  A    between atoms: N_2  and  C_4 
REMARK    3  A    between atoms: C_7  and  C_5 
REMARK    4  A    between atoms: O_14  and  C_7 
REMARK    5  A    between atoms: C_22  and  O_14 
REMARK    6  A    between atoms: C_19  and  C_22 
ROOT
ATOM      1  C   UNL d   1       0.190   1.990   2.869  0.00  0.00     0.106 A 
ATOM      2  C   UNL d   1       0.393   0.207   1.258  0.00  0.00     0.106 A 
ATOM      3  C   UNL d   1      -1.737   0.591   2.361  0.00  0.00     0.044 A 
ATOM      4  C   UNL d   1       0.977   1.268   1.965  0.00  0.00     0.072 A 
ATOM      5  C   UNL d   1      -1.159   1.662   3.065  0.00  0.00     0.053 A 
ATOM      6  C   UNL d   1      -0.957  -0.139   1.452  0.00  0.00     0.053 A 
ENDROOT
BRANCH   3   7
ATOM      7  C   UNL d   1      -3.164   0.269   2.655  0.00  0.00     0.293 C 
ATOM      8  O   UNL d   1      -3.820   0.911   3.458  0.00  0.00    -0.259 OA
BRANCH   7   9
ATOM      9  O   UNL d   1      -3.587  -0.813   1.961  0.00  0.00    -0.313 OA
BRANCH   9  10
ATOM     10  C   UNL d   1      -4.908  -1.277   2.286  0.00  0.00     0.217 C 
BRANCH  10  11
ATOM     11  C   UNL d   1      -5.772  -1.244   1.053  0.00  0.00    -0.028 A 
ATOM     12  C   UNL d   1      -5.955  -2.393   0.271  0.00  0.00     0.051 A 
ATOM     13  C   UNL d   1      -6.748  -2.340  -0.876  0.00  0.00     0.119 A 
ATOM     14  F   UNL d   1      -6.912  -3.448  -1.609  0.00  0.00    -0.206 F 
ATOM     15  C   UNL d   1      -7.366  -1.163  -1.269  0.00  0.00     0.084 A 
ATOM     16  C   UNL d   1      -7.189  -0.027  -0.492  0.00  0.00     0.119 A 
ATOM     17  C   UNL d   1      -6.403  -0.054   0.659  0.00  0.00     0.051 A 
ATOM     18  F   UNL d   1      -7.783   1.117  -0.855  0.00  0.00    -0.206 F 
ENDBRANCH  10  11
ENDBRANCH   9  10
ENDBRANCH   7   9
ENDBRANCH   3   7
BRANCH   1  19
ATOM     19  N   UNL d   1       0.789   3.092   3.635  0.00  0.00    -0.116 N 
ATOM     20  O   UNL d   1       2.000   3.297   3.490  0.00  0.00    -0.532 OA
ATOM     21  O   UNL d   1       0.045   3.744   4.380  0.00  0.00    -0.532 OA
ENDBRANCH   1  19
BRANCH   2  22
ATOM     22  N   UNL d   1       1.216  -0.562   0.312  0.00  0.00    -0.116 N 
ATOM     23  O   UNL d   1       2.396  -0.220   0.167  0.00  0.00    -0.532 OA
ATOM     24  O   UNL d   1       0.674  -1.506  -0.280  0.00  0.00    -0.532 OA
ENDBRANCH   2  22
TORSDOF 6
