REMARK  5 active torsions:
REMARK  status: ('A' for Active; 'I' for Inactive)
REMARK    1  A    between atoms: C_2  and  C_1 
REMARK       I    between atoms: N_4  and  C_2 
REMARK    2  A    between atoms: C_5  and  C_3 
REMARK    3  A    between atoms: C_6  and  N_4 
REMARK    4  A    between atoms: S_12  and  C_10 
REMARK    5  A    between atoms: C_19  and  S_12 
ROOT
ATOM      1  C   UNL d   1       0.747   1.257  -0.350  0.00  0.00     0.062 A 
ATOM      2  C   UNL d   1       1.521   0.106  -0.130  0.00  0.00     0.067 A 
ATOM      3  C   UNL d   1      -0.613   1.070  -0.578  0.00  0.00     0.106 A 
ATOM      4  N   UNL d   1      -1.245  -0.129  -0.556  0.00  0.00    -0.359 N 
ATOM      5  HN  UNL d   1      -2.242  -0.205  -0.759  1.00  0.00     0.166 HD
ATOM      6  C   UNL d   1      -0.507  -1.216  -0.256  0.00  0.00     0.075 A 
ATOM      7  C   UNL d   1       0.864  -1.142  -0.059  0.00  0.00     0.054 A 
ENDROOT
BRANCH   1   8
ATOM      8  C   UNL d   1       1.312   2.632  -0.244  0.00  0.00     0.258 C 
ATOM      9  N   UNL d   1       0.733   3.619  -1.028  0.00  0.00    -0.322 N 
ATOM     10  H   UNL d   1      -0.211   3.489  -1.357  0.00  0.00     0.169 HD
ATOM     11  O   UNL d   1       2.205   2.817   0.571  0.00  0.00    -0.267 OA
BRANCH   9  12
ATOM     12  C   UNL d   1       1.198   4.956  -1.100  0.00  0.00     0.046 A 
ATOM     13  C   UNL d   1       2.522   5.266  -1.475  0.00  0.00    -0.035 A 
ATOM     14  C   UNL d   1       2.880   6.615  -1.673  0.00  0.00     0.009 A 
ATOM     15  C   UNL d   1       3.598   4.255  -1.773  0.00  0.00     0.050 C 
ATOM     16  C   UNL d   1       1.953   7.641  -1.523  0.00  0.00     0.001 A 
ATOM     17  C   UNL d   1       0.652   7.332  -1.141  0.00  0.00     0.009 A 
ATOM     18  C   UNL d   1       0.260   6.002  -0.917  0.00  0.00    -0.035 A 
ATOM     19  C   UNL d   1      -1.143   5.793  -0.407  0.00  0.00     0.050 C 
ENDBRANCH   9  12
ENDBRANCH   1   8
BRANCH   2  20
ATOM     20  C   UNL d   1       3.020   0.095   0.044  0.00  0.00     0.418 C 
ATOM     21  F   UNL d   1       3.696   1.155  -0.462  0.00  0.00    -0.166 F 
ATOM     22  F   UNL d   1       3.395  -0.049   1.343  0.00  0.00    -0.166 F 
ATOM     23  F   UNL d   1       3.567  -0.983  -0.603  0.00  0.00    -0.166 F 
ENDBRANCH   2  20
BRANCH   6  24
ATOM     24  S   UNL d   1      -1.359  -2.768  -0.107  0.00  0.00    -0.073 SA
BRANCH  24  25
ATOM     25  C   UNL d   1      -1.864  -2.720   1.607  0.00  0.00     0.007 A 
ATOM     26  C   UNL d   1      -2.616  -1.658   2.122  0.00  0.00     0.019 A 
ATOM     27  C   UNL d   1      -3.015  -1.654   3.461  0.00  0.00     0.001 A 
ATOM     28  C   UNL d   1      -2.678  -2.719   4.293  0.00  0.00     0.000 A 
ATOM     29  C   UNL d   1      -1.941  -3.789   3.787  0.00  0.00     0.001 A 
ATOM     30  C   UNL d   1      -1.538  -3.791   2.449  0.00  0.00     0.019 A 
ENDBRANCH  24  25
ENDBRANCH   6  24
TORSDOF 5
