REMARK  2 active torsions:
REMARK  status: ('A' for Active; 'I' for Inactive)
REMARK    1  A    between atoms: C_8  and  C_6 
REMARK    2  A    between atoms: O_14  and  N_9 
ROOT
ATOM      1  C   UNL d   1       5.186   2.367  -0.291  0.00  0.00    -0.042 A 
ATOM      2  C   UNL d   1       6.592   2.254  -0.219  0.00  0.00    -0.043 A 
ATOM      3  C   UNL d   1       4.407   1.183  -0.263  0.00  0.00     0.022 A 
ATOM      4  C   UNL d   1       4.474   3.724  -0.347  0.00  0.00    -0.020 C 
ATOM      5  C   UNL d   1       7.519   3.474  -0.148  0.00  0.00    -0.020 C 
ATOM      6  C   UNL d   1       4.991  -0.085  -0.210  0.00  0.00    -0.011 A 
ATOM      7  C   UNL d   1       7.162   0.962  -0.229  0.00  0.00     0.009 A 
ATOM      8  C   UNL d   1       6.378  -0.191  -0.229  0.00  0.00     0.014 A 
ATOM      9  C   UNL d   1       5.450   4.875  -0.680  0.00  0.00     0.015 C 
ATOM     10  C   UNL d   1       6.747   4.791   0.104  0.00  0.00     0.015 C 
ATOM     11  C   UNL d   1       3.795   3.976   1.018  0.00  0.00     0.020 C 
ATOM     12  C   UNL d   1       3.388   3.754  -1.449  0.00  0.00     0.020 C 
ATOM     13  C   UNL d   1       8.319   3.582  -1.467  0.00  0.00     0.020 C 
ATOM     14  C   UNL d   1       8.524   3.336   1.022  0.00  0.00     0.020 C 
ENDROOT
BRANCH   6  15
ATOM     15  C   UNL d   1       4.170  -1.331  -0.147  0.00  0.00     0.038 C 
ATOM     16  N   UNL d   1       4.642  -2.419  -0.683  0.00  0.00    -0.273 N 
ATOM     17  HN  UNL d   1       5.545  -2.481  -1.154  1.00  0.00     0.193 HD
ATOM     18  C   UNL d   1       2.830  -1.286   0.564  0.00  0.00     0.071 C 
BRANCH  16  19
ATOM     19  O   UNL d   1       3.757  -3.494  -0.535  0.00  0.00    -0.290 OA
ATOM     20  H   UNL d   1       4.230  -4.216  -0.986  0.00  0.00     0.244 HD
ENDBRANCH  16  19
ENDBRANCH   6  15
TORSDOF 2
