REMARK  6 active torsions:
REMARK  status: ('A' for Active; 'I' for Inactive)
REMARK    1  A    between atoms: N_6  and  C_1 
REMARK    2  A    between atoms: C_11  and  N_2 
REMARK    3  A    between atoms: C_8  and  N_6 
REMARK    4  A    between atoms: C_10  and  C_7 
REMARK    5  A    between atoms: O_15  and  C_10 
REMARK    6  A    between atoms: O_20  and  C_16 
ROOT
ATOM      1  C   UNL d   1      -0.439  -1.088   0.144  0.00  0.00     0.130 C 
ATOM      2  N   UNL d   1       0.894  -0.686   0.268  0.00  0.00    -0.240 N 
ATOM      3  N   UNL d   1       0.986   0.667   0.443  0.00  0.00    -0.297 N 
ATOM      4  HN  UNL d   1       1.822   1.211   0.659  1.00  0.00     0.187 HD
ATOM      5  C   UNL d   1      -1.183   0.072   0.163  0.00  0.00     0.076 C 
ATOM      6  C   UNL d   1      -0.259   1.121   0.268  0.00  0.00     0.026 C 
ATOM      7  C   UNL d   1      -0.545   2.572   0.189  0.00  0.00     0.070 C 
ENDROOT
BRANCH   1   8
ATOM      8  N   UNL d   1      -0.867  -2.380   0.073  0.00  0.00    -0.340 N 
ATOM      9  H   UNL d   1      -0.365  -3.133   0.558  0.00  0.00     0.167 HD
BRANCH   8  10
ATOM     10  C   UNL d   1      -1.936  -2.843  -0.737  0.00  0.00     0.050 A 
ATOM     11  C   UNL d   1      -2.651  -4.021  -0.428  0.00  0.00     0.064 A 
ATOM     12  C   UNL d   1      -3.727  -4.430  -1.239  0.00  0.00     0.020 A 
ATOM     13  C   UNL d   1      -4.135  -3.654  -2.324  0.00  0.00     0.001 A 
ATOM     14  C   UNL d   1      -3.453  -2.483  -2.627  0.00  0.00     0.002 A 
ATOM     15  C   UNL d   1      -2.365  -2.092  -1.848  0.00  0.00     0.030 A 
BRANCH  11  16
ATOM     16  C   UNL d   1      -2.237  -4.864   0.725  0.00  0.00     0.178 C 
ATOM     17  O   UNL d   1      -1.074  -4.937   1.094  0.00  0.00    -0.646 OA
BRANCH  16  18
ATOM     18  O   UNL d   1      -3.246  -5.514   1.337  0.00  0.00    -0.773 OA
ATOM     19  H   UNL d   1      -4.141  -5.236   1.077  0.00  0.00     0.167 HD
ENDBRANCH  16  18
ENDBRANCH  11  16
ENDBRANCH   8  10
ENDBRANCH   1   8
BRANCH   2  20
ATOM     20  C   UNL d   1       2.083  -1.452   0.110  0.00  0.00     0.058 A 
ATOM     21  C   UNL d   1       2.106  -2.587  -0.709  0.00  0.00     0.034 A 
ATOM     22  C   UNL d   1       3.290  -3.318  -0.872  0.00  0.00     0.039 A 
ATOM     23  C   UNL d   1       4.452  -2.937  -0.199  0.00  0.00     0.068 A 
ATOM     24  C   UNL d   1       4.430  -1.792   0.602  0.00  0.00     0.039 A 
ATOM     25  C   UNL d   1       3.262  -1.036   0.740  0.00  0.00     0.034 A 
BRANCH  23  26
ATOM     26  O   UNL d   1       5.655  -3.586  -0.244  0.00  0.00    -0.356 OA
ATOM     27  C   UNL d   1       5.723  -4.758  -1.048  0.00  0.00     0.210 C 
ENDBRANCH  23  26
ENDBRANCH   2  20
TORSDOF 6
