REMARK  2 active torsions:
REMARK  status: ('A' for Active; 'I' for Inactive)
REMARK    1  A    between atoms: C_8  and  C_10 
REMARK    2  A    between atoms: C_10  and  N_9 
ROOT
ATOM      1  N   UNL d   1      -1.427   0.551  -0.674  0.00  0.00    -0.245 N 
ATOM      2  HN  UNL d   1      -2.108   1.191  -0.265  1.00  0.00     0.196 HD
ATOM      3  C   UNL d   1      -0.339  -1.329  -1.305  0.00  0.00     0.084 A 
ATOM      4  C   UNL d   1      -1.482  -0.785  -0.678  0.00  0.00     0.124 A 
ATOM      5  O   UNL d   1      -0.263   0.892  -1.337  0.00  0.00    -0.241 OA
ATOM      6  C   UNL d   1       0.388  -0.238  -1.713  0.00  0.00     0.076 A 
ATOM      7  N   UNL d   1      -2.512  -1.482  -0.145  0.00  0.00    -0.371 N 
ATOM      8  C   UNL d   1       1.660  -0.072  -2.436  0.00  0.00     0.079 C 
ATOM      9  H   UNL d   1      -3.062  -0.970   0.536  0.00  0.00     0.161 HD
ENDROOT
BRANCH   7  10
ATOM     10  C   UNL d   1      -2.506  -2.922   0.018  0.00  0.00     0.161 C 
BRANCH  10  11
ATOM     11  C   UNL d   1      -3.896  -3.537   0.062  0.00  0.00    -0.017 A 
ATOM     12  C   UNL d   1      -4.041  -4.941   0.165  0.00  0.00     0.063 A 
ATOM     13  C   UNL d   1      -5.319  -5.525   0.177  0.00  0.00     0.056 A 
ATOM     14 CL   UNL d   1      -2.625  -5.948   0.263  0.00  0.00    -0.082 Cl
ATOM     15 CL   UNL d   1      -5.562  -7.236   0.278  0.00  0.00    -0.083 Cl
ATOM     16  C   UNL d   1      -6.459  -4.724   0.098  0.00  0.00     0.026 A 
ATOM     17  C   UNL d   1      -6.332  -3.342  -0.001  0.00  0.00     0.002 A 
ATOM     18  C   UNL d   1      -5.065  -2.756  -0.027  0.00  0.00     0.011 A 
ENDBRANCH  10  11
ENDBRANCH   7  10
TORSDOF 2
