REMARK  1 active torsions:
REMARK  status: ('A' for Active; 'I' for Inactive)
REMARK    1  A    between atoms: C_14  and  N_7 
ROOT
ATOM      1  C   UNL d   1       0.947  -0.898  -0.327  0.00  0.00     0.102 C 
ATOM      2  C   UNL d   1       0.497   0.405  -0.199  0.00  0.00     0.071 C 
ATOM      3  C   UNL d   1       2.284  -1.446  -0.246  0.00  0.00     0.268 C 
ATOM      4  S   UNL d   1      -0.332  -2.019  -0.471  0.00  0.00    -0.064 SA
ATOM      5  C   UNL d   1      -0.964   0.479  -0.249  0.00  0.00     0.032 C 
ATOM      6  C   UNL d   1      -1.492  -0.810  -0.237  0.00  0.00     0.088 C 
ATOM      7  N   UNL d   1       3.029  -0.801   0.731  0.00  0.00    -0.305 N 
ATOM      8  N   UNL d   1       1.301   1.520   0.002  0.00  0.00    -0.324 N 
ATOM      9  N   UNL d   1      -2.781  -1.170  -0.075  0.00  0.00    -0.354 N 
ATOM     10  HN  UNL d   1      -3.082  -2.144  -0.079  1.00  0.00     0.166 HD
ATOM     11  C   UNL d   1      -1.921   1.540  -0.228  0.00  0.00    -0.045 C 
ATOM     12  C   UNL d   1       2.634   1.647   0.248  0.00  0.00     0.240 C 
ATOM     13  C   UNL d   1       3.591   0.464   0.293  0.00  0.00     0.235 C 
ATOM     14  O   UNL d   1       2.679  -2.402  -0.903  0.00  0.00    -0.266 OA
ATOM     15  C   UNL d   1      -3.268   1.179  -0.020  0.00  0.00     0.032 C 
ATOM     16  C   UNL d   1      -3.637  -0.152   0.092  0.00  0.00     0.006 C 
ATOM     17  O   UNL d   1       3.082   2.798   0.328  0.00  0.00    -0.271 OA
ATOM     18  C   UNL d   1      -1.654   3.015  -0.381  0.00  0.00     0.049 C 
ATOM     19  C   UNL d   1      -5.057  -0.505   0.424  0.00  0.00     0.068 C 
ATOM     20  H   UNL d   1       0.841   2.418   0.042  0.00  0.00     0.169 HD
ENDROOT
BRANCH   7  21
ATOM     21  C   UNL d   1       3.676  -1.522   1.786  0.00  0.00     0.038 A 
ATOM     22  C   UNL d   1       3.820  -2.918   1.766  0.00  0.00     0.033 A 
ATOM     23  C   UNL d   1       4.402  -3.602   2.840  0.00  0.00     0.044 A 
ATOM     24  C   UNL d   1       4.804  -2.895   3.961  0.00  0.00     0.116 A 
ATOM     25  C   UNL d   1       4.640  -1.520   4.029  0.00  0.00     0.044 A 
ATOM     26  F   UNL d   1       5.343  -3.550   5.000  0.00  0.00    -0.206 F 
ATOM     27  C   UNL d   1       4.085  -0.833   2.943  0.00  0.00     0.033 A 
ENDBRANCH   7  21
TORSDOF 1
