REMARK  2 active torsions:
REMARK  status: ('A' for Active; 'I' for Inactive)
REMARK    1  A    between atoms: N_2  and  S_1 
REMARK    2  A    between atoms: C_5  and  S_1 
REMARK       I    between atoms: C_3  and  N_2 
REMARK       I    between atoms: N_4  and  C_3 
ROOT
ATOM      1  S   UNL d   1       0.922  -0.134  -0.021  0.00  0.00     0.266 S 
ATOM      2  O   UNL d   1       2.332  -0.369   0.206  0.00  0.00    -0.200 OA
ATOM      3  O   UNL d   1       0.387  -0.146  -1.369  0.00  0.00    -0.200 OA
ENDROOT
BRANCH   1   4
ATOM      4  N   UNL d   1       0.506   1.352   0.591  0.00  0.00    -0.232 N 
ATOM      5  C   UNL d   1       0.681   1.750   1.908  0.00  0.00     0.332 C 
ATOM      6  N   UNL d   1       0.272   3.038   2.226  0.00  0.00    -0.333 N 
ATOM      7  O   UNL d   1       1.119   0.981   2.752  0.00  0.00    -0.246 OA
ATOM      8  C   UNL d   1       0.314   3.430   3.632  0.00  0.00     0.127 C 
ATOM      9  C   UNL d   1       0.247   4.154   1.280  0.00  0.00     0.127 C 
ATOM     10  C   UNL d   1      -0.861   4.338   3.975  0.00  0.00     0.020 C 
ATOM     11  C   UNL d   1      -0.916   5.545   3.043  0.00  0.00     0.003 C 
ATOM     12  C   UNL d   1      -0.909   5.106   1.580  0.00  0.00     0.020 C 
ATOM     13  H   UNL d   1      -0.037   1.899  -0.060  0.00  0.00     0.183 HD
ENDBRANCH   1   4
BRANCH   1  14
ATOM     14  C   UNL d   1      -0.026  -1.300   0.929  0.00  0.00     0.080 A 
ATOM     15  C   UNL d   1      -1.315  -1.647   0.515  0.00  0.00     0.026 A 
ATOM     16  C   UNL d   1      -2.021  -2.633   1.211  0.00  0.00     0.008 A 
ATOM     17  C   UNL d   1      -1.443  -3.281   2.311  0.00  0.00    -0.062 A 
ATOM     18  C   UNL d   1      -0.151  -2.922   2.716  0.00  0.00     0.008 A 
ATOM     19  C   UNL d   1      -2.195  -4.367   3.025  0.00  0.00     0.048 C 
ATOM     20  C   UNL d   1       0.561  -1.942   2.022  0.00  0.00     0.026 A 
ENDBRANCH   1  14
TORSDOF 2
