REMARK  7 active torsions:
REMARK  status: ('A' for Active; 'I' for Inactive)
REMARK    1  A    between atoms: C_9  and  N_1 
REMARK    2  A    between atoms: S_18  and  C_2 
REMARK    3  A    between atoms: O_21  and  C_3 
REMARK    4  A    between atoms: S_4  and  C_15 
REMARK    5  A    between atoms: C_12  and  S_4 
REMARK    6  A    between atoms: C_15  and  C_22 
REMARK    7  A    between atoms: C_22  and  S_18 
ROOT
ATOM      1  N   UNL d   1      -0.223  -1.337  -0.040  0.00  0.00    -0.286 N 
ATOM      2  C   UNL d   1       1.040  -0.803   0.059  0.00  0.00     0.164 A 
ATOM      3  C   UNL d   1      -1.050  -0.245  -0.141  0.00  0.00     0.240 A 
ATOM      4  N   UNL d   1       0.985   0.503  -0.061  0.00  0.00    -0.277 N 
ATOM      5  HN  UNL d   1       1.779   1.142  -0.057  1.00  0.00     0.189 HD
ATOM      6  N   UNL d   1      -0.338   0.854  -0.193  0.00  0.00    -0.263 N 
ATOM      7  HN  UNL d   1      -0.700   1.800  -0.310  1.00  0.00     0.190 HD
ENDROOT
BRANCH   2   8
ATOM      8  S   UNL d   1       2.471  -1.720   0.376  0.00  0.00    -0.091 SA
BRANCH   8   9
ATOM      9  C   UNL d   1       3.776  -0.496   0.004  0.00  0.00     0.098 C 
BRANCH   9  10
ATOM     10  C   UNL d   1       5.179  -1.053   0.215  0.00  0.00     0.156 C 
BRANCH  10  11
ATOM     11  S   UNL d   1       5.676  -2.171  -1.081  0.00  0.00     0.176 S 
ATOM     12  O   UNL d   1       4.846  -3.360  -1.047  0.00  0.00    -0.223 OA
ATOM     13  O   UNL d   1       5.826  -1.407  -2.305  0.00  0.00    -0.223 OA
BRANCH  11  14
ATOM     14  C   UNL d   1       7.309  -2.700  -0.589  0.00  0.00     0.059 A 
ATOM     15  C   UNL d   1       7.441  -3.794   0.276  0.00  0.00     0.026 A 
ATOM     16  C   UNL d   1       8.713  -4.269   0.596  0.00  0.00     0.044 A 
ATOM     17  C   UNL d   1       9.834  -3.658   0.043  0.00  0.00     0.116 A 
ATOM     18  C   UNL d   1       9.709  -2.576  -0.825  0.00  0.00     0.044 A 
ATOM     19  F   UNL d   1      11.053  -4.127   0.339  0.00  0.00    -0.206 F 
ATOM     20  C   UNL d   1       8.439  -2.093  -1.150  0.00  0.00     0.026 A 
ENDBRANCH  11  14
ENDBRANCH  10  11
ENDBRANCH   9  10
ENDBRANCH   8   9
ENDBRANCH   2   8
BRANCH   1  21
ATOM     21  C   UNL d   1      -0.601  -2.736  -0.033  0.00  0.00     0.104 C 
ATOM     22  C   UNL d   1      -1.472  -3.171  -1.240  0.00  0.00     0.065 C 
ATOM     23  C   UNL d   1      -2.359  -4.210  -0.629  0.00  0.00    -0.050 A 
ATOM     24  C   UNL d   1      -3.201  -5.091  -1.291  0.00  0.00     0.007 A 
ATOM     25  C   UNL d   1      -2.289  -4.195   0.766  0.00  0.00    -0.050 A 
ATOM     26  C   UNL d   1      -3.977  -5.969  -0.531  0.00  0.00     0.001 A 
ATOM     27  C   UNL d   1      -3.911  -5.949   0.870  0.00  0.00     0.001 A 
ATOM     28  C   UNL d   1      -3.065  -5.054   1.528  0.00  0.00     0.007 A 
ATOM     29  C   UNL d   1      -1.338  -3.154   1.262  0.00  0.00     0.065 C 
ENDBRANCH   1  21
BRANCH   3  30
ATOM     30  O   UNL d   1      -2.375  -0.242  -0.176  0.00  0.00    -0.331 OA
ATOM     31  H   UNL d   1      -2.726  -1.120   0.027  0.00  0.00     0.221 HD
ENDBRANCH   3  30
TORSDOF 7
