REMARK  2 active torsions:
REMARK  status: ('A' for Active; 'I' for Inactive)
REMARK       I    between atoms: N_2  and  C_1 
REMARK       I    between atoms: N_4  and  C_1 
REMARK    1  A    between atoms: C_5  and  C_3 
REMARK    2  A    between atoms: C_7  and  N_4 
ROOT
ATOM      1  C   UNL d   1       0.699   0.118  -0.129  0.00  0.00     0.323 C 
ATOM      2  N   UNL d   1       0.340   1.216   0.640  0.00  0.00    -0.325 N 
ATOM      3  C   UNL d   1       0.635   2.577   0.191  0.00  0.00     0.123 C 
ATOM      4  N   UNL d   1       0.463  -1.095   0.482  0.00  0.00    -0.309 N 
ATOM      5  O   UNL d   1       1.213   0.264  -1.235  0.00  0.00    -0.247 OA
ATOM      6  C   UNL d   1      -0.696   1.223   1.664  0.00  0.00     0.128 C 
ATOM      7  C   UNL d   1       0.165   3.437   1.372  0.00  0.00     0.032 C 
ATOM      8  C   UNL d   1      -1.069   2.689   1.855  0.00  0.00     0.022 C 
ATOM      9  H   UNL d   1       0.063  -1.059   1.404  0.00  0.00     0.170 HD
ENDROOT
BRANCH   3  10
ATOM     10  C   UNL d   1       2.074   2.845  -0.173  0.00  0.00    -0.020 A 
ATOM     11  C   UNL d   1       2.383   3.418  -1.406  0.00  0.00     0.096 A 
ATOM     12  N   UNL d   1       3.638   3.672  -1.843  0.00  0.00    -0.375 N 
ATOM     13  C   UNL d   1       4.644   3.303  -1.025  0.00  0.00     0.087 A 
ATOM     14  HN  UNL d   1       3.813   4.119  -2.743  1.00  0.00     0.164 HD
ATOM     15  C   UNL d   1       4.454   2.727   0.219  0.00  0.00     0.018 A 
ATOM     16  C   UNL d   1       3.149   2.503   0.654  0.00  0.00     0.012 A 
ENDBRANCH   3  10
BRANCH   4  17
ATOM     17  C   UNL d   1       0.815  -2.379   0.013  0.00  0.00     0.036 A 
ATOM     18  C   UNL d   1       1.455  -2.616  -1.207  0.00  0.00     0.036 A 
ATOM     19  C   UNL d   1       1.781  -3.919  -1.613  0.00  0.00    -0.060 A 
ATOM     20  C   UNL d   1       2.446  -4.157  -2.939  0.00  0.00     0.048 C 
ATOM     21  C   UNL d   1       1.460  -4.996  -0.782  0.00  0.00     0.007 A 
ATOM     22  C   UNL d   1       0.828  -4.771   0.440  0.00  0.00     0.003 A 
ATOM     23  C   UNL d   1       0.508  -3.470   0.835  0.00  0.00     0.029 A 
ENDBRANCH   4  17
TORSDOF 2
