REMARK  10 active torsions:
REMARK  status: ('A' for Active; 'I' for Inactive)
REMARK    1  A    between atoms: N_5  and  S_1 
REMARK    2  A    between atoms: C_6  and  S_1 
REMARK    3  A    between atoms: C_2  and  C_9 
REMARK    4  A    between atoms: C_3  and  C_2 
REMARK    5  A    between atoms: C_4  and  C_2 
REMARK    6  A    between atoms: O_16  and  C_3 
REMARK    7  A    between atoms: O_15  and  C_4 
REMARK    8  A    between atoms: N_10  and  N_5 
REMARK    9  A    between atoms: C_21  and  O_15 
REMARK   10  A    between atoms: C_20  and  O_16 
ROOT
ATOM      1  C   UNL d   1       0.602   3.468   1.686  0.00  0.00     0.131 C 
ATOM      2  N   UNL d   1       0.914   2.206   1.272  0.00  0.00    -0.301 N 
ATOM      3  H   UNL d   1       1.590   1.680   1.841  0.00  0.00     0.186 HD
ENDROOT
BRANCH   2   4
ATOM      4  N   UNL d   1       0.311   1.495   0.183  0.00  0.00    -0.223 N 
ATOM      5  H   UNL d   1      -0.352   1.904  -0.477  0.00  0.00     0.200 HD
BRANCH   4   6
ATOM      6  S   UNL d   1       0.451  -0.200   0.145  0.00  0.00     0.276 S 
ATOM      7  O   UNL d   1       1.819  -0.543   0.475  0.00  0.00    -0.199 OA
ATOM      8  O   UNL d   1      -0.197  -0.662  -1.061  0.00  0.00    -0.199 OA
BRANCH   6   9
ATOM      9  C   UNL d   1      -0.571  -0.630   1.538  0.00  0.00     0.081 A 
ATOM     10  C   UNL d   1      -1.933  -0.877   1.345  0.00  0.00     0.026 A 
ATOM     11  C   UNL d   1      -2.724  -1.240   2.432  0.00  0.00     0.008 A 
ATOM     12  C   UNL d   1      -2.164  -1.368   3.711  0.00  0.00    -0.062 A 
ATOM     13  C   UNL d   1      -0.799  -1.109   3.893  0.00  0.00     0.008 A 
ATOM     14  C   UNL d   1      -3.021  -1.807   4.863  0.00  0.00     0.048 C 
ATOM     15  C   UNL d   1       0.001  -0.748   2.808  0.00  0.00     0.026 A 
ENDBRANCH   6   9
ENDBRANCH   4   6
ENDBRANCH   2   4
BRANCH   1  16
ATOM     16  C   UNL d   1       1.031   4.095   2.803  0.00  0.00     0.131 C 
BRANCH  16  17
ATOM     17  C   UNL d   1       1.962   3.465   3.774  0.00  0.00     0.300 C 
ATOM     18  O   UNL d   1       2.158   3.857   4.914  0.00  0.00    -0.259 OA
BRANCH  17  19
ATOM     19  O   UNL d   1       2.628   2.433   3.187  0.00  0.00    -0.318 OA
BRANCH  19  20
ATOM     20  C   UNL d   1       3.879   2.064   3.782  0.00  0.00     0.174 C 
ATOM     21  C   UNL d   1       4.957   2.941   3.170  0.00  0.00     0.034 C 
ENDBRANCH  19  20
ENDBRANCH  17  19
ENDBRANCH  16  17
BRANCH  16  22
ATOM     22  C   UNL d   1       0.600   5.502   2.953  0.00  0.00     0.300 C 
ATOM     23  O   UNL d   1      -0.336   6.005   2.346  0.00  0.00    -0.259 OA
BRANCH  22  24
ATOM     24  O   UNL d   1       1.502   6.171   3.706  0.00  0.00    -0.318 OA
BRANCH  24  25
ATOM     25  C   UNL d   1       1.531   7.594   3.551  0.00  0.00     0.174 C 
ATOM     26  C   UNL d   1       2.512   7.908   2.438  0.00  0.00     0.034 C 
ENDBRANCH  24  25
ENDBRANCH  22  24
ENDBRANCH  16  22
ENDBRANCH   1  16
TORSDOF 10
