REMARK  7 active torsions:
REMARK  status: ('A' for Active; 'I' for Inactive)
REMARK    1  A    between atoms: N_12  and  C_3 
REMARK    2  A    between atoms: S_14  and  C_11 
REMARK    3  A    between atoms: C_22  and  N_12 
REMARK    4  A    between atoms: C_18  and  S_14 
REMARK    5  A    between atoms: C_16  and  C_18 
REMARK    6  A    between atoms: C_17  and  C_16 
REMARK    7  A    between atoms: C_29  and  C_22 
ROOT
ATOM      1  C   UNL d   1       1.261  -0.836   0.030  0.00  0.00     0.090 A 
ATOM      2  C   UNL d   1       0.732   0.440  -0.060  0.00  0.00     0.043 A 
ATOM      3  C   UNL d   1       1.668   1.495  -0.098  0.00  0.00     0.096 A 
ATOM      4  C   UNL d   1      -1.178  -0.910  -0.021  0.00  0.00    -0.008 A 
ATOM      5  N   UNL d   1       2.555  -1.157   0.124  0.00  0.00    -0.330 N 
ATOM      6  HN  UNL d   1       2.893  -2.116   0.198  1.00  0.00     0.168 HD
ATOM      7  N   UNL d   1       2.984   1.196  -0.011  0.00  0.00    -0.327 N 
ATOM      8  HN  UNL d   1       3.685   1.938  -0.039  1.00  0.00     0.169 HD
ATOM      9  C   UNL d   1      -0.712   0.390  -0.096  0.00  0.00    -0.029 A 
ATOM     10  S   UNL d   1       0.073  -2.055   0.042  0.00  0.00    -0.075 SA
ATOM     11  C   UNL d   1       3.360  -0.093   0.113  0.00  0.00     0.146 A 
ATOM     12  C   UNL d   1      -1.643   1.568  -0.139  0.00  0.00     0.041 C 
ATOM     13  C   UNL d   1      -2.620  -1.311  -0.000  0.00  0.00     0.051 C 
ATOM     14  C   UNL d   1      -3.108   1.150  -0.348  0.00  0.00     0.009 C 
ATOM     15  C   UNL d   1      -3.505  -0.122   0.432  0.00  0.00    -0.014 C 
ATOM     16  C   UNL d   1      -3.446   0.097   1.949  0.00  0.00     0.010 C 
ENDROOT
BRANCH  11  17
ATOM     17  S   UNL d   1       5.092  -0.402   0.415  0.00  0.00    -0.086 SA
BRANCH  17  18
ATOM     18  C   UNL d   1       5.076  -2.224   0.415  0.00  0.00     0.166 C 
BRANCH  18  19
ATOM     19  C   UNL d   1       6.454  -2.760   0.734  0.00  0.00     0.169 C 
ATOM     20  O   UNL d   1       7.280  -2.953  -0.161  0.00  0.00    -0.291 OA
BRANCH  19  21
ATOM     21  C   UNL d   1       6.833  -3.084   2.148  0.00  0.00     0.011 A 
ATOM     22  C   UNL d   1       5.989  -2.857   3.244  0.00  0.00     0.016 A 
ATOM     23  C   UNL d   1       6.411  -3.180   4.540  0.00  0.00     0.020 A 
ATOM     24  C   UNL d   1       7.678  -3.724   4.747  0.00  0.00     0.011 A 
ATOM     25  C   UNL d   1       8.526  -3.959   3.669  0.00  0.00     0.020 A 
ATOM     26 BR   UNL d   1       8.250  -4.136   6.501  0.00  0.00    -0.051 Br
ATOM     27  C   UNL d   1       8.103  -3.642   2.375  0.00  0.00     0.016 A 
ENDBRANCH  19  21
ENDBRANCH  18  19
ENDBRANCH  17  18
ENDBRANCH  11  17
BRANCH   3  28
ATOM     28  N   UNL d   1       1.220   2.810  -0.169  0.00  0.00    -0.274 NA
ATOM     29  H   UNL d   1       0.758   3.056   0.704  0.00  0.00     0.129 HD
BRANCH  28  30
ATOM     30  C   UNL d   1       2.152   3.838  -0.593  0.00  0.00     0.132 C 
BRANCH  30  31
ATOM     31  C   UNL d   1       1.430   5.167  -0.512  0.00  0.00    -0.045 A 
ATOM     32  C   UNL d   1       1.598   6.002   0.603  0.00  0.00     0.008 A 
ATOM     33  C   UNL d   1       0.886   7.198   0.713  0.00  0.00     0.001 A 
ATOM     34  C   UNL d   1      -0.010   7.573  -0.289  0.00  0.00     0.000 A 
ATOM     35  C   UNL d   1      -0.196   6.750  -1.401  0.00  0.00     0.001 A 
ATOM     36  C   UNL d   1       0.519   5.551  -1.508  0.00  0.00     0.008 A 
ENDBRANCH  30  31
ENDBRANCH  28  30
ENDBRANCH   3  28
TORSDOF 7
