REMARK  4 active torsions:
REMARK  status: ('A' for Active; 'I' for Inactive)
REMARK    1  A    between atoms: S_11  and  C_1 
REMARK    2  A    between atoms: C_13  and  S_11 
REMARK    3  A    between atoms: C_12  and  C_13 
REMARK    4  A    between atoms: C_15  and  C_12 
ROOT
ATOM      1  C   UNL d   1      -4.800   0.763   1.418  0.00  0.00     0.145 A 
ATOM      2  N   UNL d   1      -4.665   0.411   2.672  0.00  0.00    -0.335 N 
ATOM      3  HN  UNL d   1      -4.122  -0.366   3.049  1.00  0.00     0.168 HD
ATOM      4  N   UNL d   1      -5.625   1.835   1.259  0.00  0.00    -0.335 N 
ATOM      5  C   UNL d   1      -5.422   1.327   3.369  0.00  0.00     0.062 A 
ATOM      6  C   UNL d   1      -6.034   2.231   2.506  0.00  0.00     0.062 A 
ATOM      7  C   UNL d   1      -5.635   1.451   4.750  0.00  0.00     0.057 A 
ATOM      8  C   UNL d   1      -6.865   3.268   2.937  0.00  0.00     0.057 A 
ATOM      9  C   UNL d   1      -7.068   3.381   4.318  0.00  0.00     0.058 A 
ATOM     10  C   UNL d   1      -6.462   2.487   5.214  0.00  0.00     0.058 A 
ATOM     11 CL   UNL d   1      -6.693   2.606   6.925  0.00  0.00    -0.082 Cl
ATOM     12 CL   UNL d   1      -8.093   4.669   4.856  0.00  0.00    -0.082 Cl
ATOM     13  H   UNL d   1      -5.896   2.229   0.370  0.00  0.00     0.168 HD
ENDROOT
BRANCH   1  14
ATOM     14  S   UNL d   1      -4.075   0.041   0.032  0.00  0.00    -0.086 SA
BRANCH  14  15
ATOM     15  C   UNL d   1      -4.775  -1.631   0.118  0.00  0.00     0.166 C 
BRANCH  15  16
ATOM     16  C   UNL d   1      -6.290  -1.654  -0.032  0.00  0.00     0.169 C 
ATOM     17  O   UNL d   1      -6.981  -0.641  -0.154  0.00  0.00    -0.291 OA
BRANCH  16  18
ATOM     18  C   UNL d   1      -6.973  -2.988  -0.060  0.00  0.00     0.010 A 
ATOM     19  C   UNL d   1      -6.266  -4.199  -0.081  0.00  0.00     0.015 A 
ATOM     20  C   UNL d   1      -6.955  -5.413  -0.159  0.00  0.00     0.001 A 
ATOM     21  C   UNL d   1      -8.348  -5.429  -0.208  0.00  0.00     0.000 A 
ATOM     22  C   UNL d   1      -9.059  -4.232  -0.171  0.00  0.00     0.001 A 
ATOM     23  C   UNL d   1      -8.375  -3.017  -0.097  0.00  0.00     0.015 A 
ENDBRANCH  16  18
ENDBRANCH  15  16
ENDBRANCH  14  15
ENDBRANCH   1  14
TORSDOF 4
