REMARK  0 active torsions:
REMARK  status: ('A' for Active; 'I' for Inactive)
ROOT
ATOM      1  C   UNL d   1       1.707  -0.804   0.002  0.00  0.00     0.152 A 
ATOM      2  N   UNL d   1       0.958   0.354   0.001  0.00  0.00    -0.238 N 
ATOM      3  N   UNL d   1       1.105  -2.045   0.003  0.00  0.00    -0.306 N 
ATOM      4  N   UNL d   1       1.721   1.470   0.000  0.00  0.00    -0.302 N 
ATOM      5  HN  UNL d   1       1.414   2.443  -0.000  1.00  0.00     0.186 HD
ATOM      6  C   UNL d   1      -0.272  -2.165   0.004  0.00  0.00     0.259 A 
ATOM      7  C   UNL d   1       3.023  -0.409   0.002  0.00  0.00     0.107 A 
ATOM      8  C   UNL d   1      -1.075  -0.906   0.003  0.00  0.00     0.061 A 
ATOM      9  C   UNL d   1      -0.445   0.346   0.002  0.00  0.00     0.074 A 
ATOM     10  C   UNL d   1       2.974   0.998   0.001  0.00  0.00     0.134 A 
ATOM     11  C   UNL d   1       4.173  -1.245   0.002  0.00  0.00     0.105 C 
ATOM     12  N   UNL d   1       5.098  -1.944   0.003  0.00  0.00    -0.191 NA
ATOM     13  O   UNL d   1      -0.812  -3.265   0.005  0.00  0.00    -0.267 OA
ATOM     14  C   UNL d   1      -2.471  -0.974   0.004  0.00  0.00     0.019 A 
ATOM     15  C   UNL d   1      -1.190   1.528   0.001  0.00  0.00     0.032 A 
ATOM     16  C   UNL d   1      -3.222   0.204   0.003  0.00  0.00     0.001 A 
ATOM     17  C   UNL d   1      -2.584   1.448   0.001  0.00  0.00     0.002 A 
ATOM     18  H   UNL d   1       1.645  -2.904   0.004  0.00  0.00     0.170 HD
ENDROOT
TORSDOF 0
