REMARK  7 active torsions:
REMARK  status: ('A' for Active; 'I' for Inactive)
REMARK    1  A    between atoms: C_8  and  C_1 
REMARK    2  A    between atoms: C_10  and  N_2 
REMARK    3  A    between atoms: S_9  and  C_5 
REMARK    4  A    between atoms: C_14  and  S_9 
REMARK    5  A    between atoms: O_17  and  C_11 
REMARK    6  A    between atoms: C_12  and  C_14 
REMARK    7  A    between atoms: O_16  and  C_12 
ROOT
ATOM      1  C   UNL d   1       0.020  -1.253   0.014  0.00  0.00     0.142 A 
ATOM      2  N   UNL d   1       1.322  -0.742  -0.200  0.00  0.00    -0.275 N 
ATOM      3  N   UNL d   1      -0.805  -0.235   0.210  0.00  0.00    -0.282 N 
ATOM      4  HN  UNL d   1      -1.798  -0.316   0.428  1.00  0.00     0.188 HD
ATOM      5  C   UNL d   1       1.132   0.636  -0.154  0.00  0.00     0.168 A 
ATOM      6  N   UNL d   1      -0.125   0.930   0.075  0.00  0.00    -0.278 N 
ATOM      7  HN  UNL d   1      -0.521   1.868   0.141  1.00  0.00     0.189 HD
ENDROOT
BRANCH   1   8
ATOM      8  C   UNL d   1      -0.393  -2.660   0.171  0.00  0.00     0.043 A 
ATOM      9  C   UNL d   1      -1.570  -3.211  -0.379  0.00  0.00     0.082 A 
ATOM     10  C   UNL d   1      -1.871  -4.569  -0.166  0.00  0.00     0.038 A 
ATOM     11  C   UNL d   1      -1.027  -5.394   0.574  0.00  0.00     0.003 A 
ATOM     12  C   UNL d   1       0.103  -4.855   1.166  0.00  0.00     0.001 A 
ATOM     13  C   UNL d   1       0.393  -3.500   0.993  0.00  0.00     0.018 A 
BRANCH   9  14
ATOM     14  O   UNL d   1      -2.584  -2.561  -1.030  0.00  0.00    -0.355 OA
ATOM     15  C   UNL d   1      -2.247  -1.673  -2.084  0.00  0.00     0.210 C 
ENDBRANCH   9  14
ENDBRANCH   1   8
BRANCH   2  16
ATOM     16  C   UNL d   1       2.552  -1.464  -0.353  0.00  0.00     0.043 A 
ATOM     17  C   UNL d   1       2.584  -2.713  -0.988  0.00  0.00     0.030 A 
ATOM     18  C   UNL d   1       3.766  -3.464  -1.020  0.00  0.00     0.002 A 
ATOM     19  C   UNL d   1       4.939  -2.955  -0.469  0.00  0.00     0.000 A 
ATOM     20  C   UNL d   1       4.931  -1.699   0.124  0.00  0.00     0.002 A 
ATOM     21  C   UNL d   1       3.744  -0.966   0.199  0.00  0.00     0.030 A 
ENDBRANCH   2  16
BRANCH   5  22
ATOM     22  S   UNL d   1       2.319   1.874  -0.408  0.00  0.00    -0.082 SA
BRANCH  22  23
ATOM     23  C   UNL d   1       1.588   3.270   0.494  0.00  0.00     0.192 C 
BRANCH  23  24
ATOM     24  C   UNL d   1       1.486   3.016   1.980  0.00  0.00     0.149 C 
ATOM     25  O   UNL d   1       2.254   3.513   2.803  0.00  0.00    -0.649 OA
BRANCH  24  26
ATOM     26  O   UNL d   1       0.471   2.212   2.364  0.00  0.00    -0.776 OA
ATOM     27  H   UNL d   1      -0.070   1.841   1.626  0.00  0.00     0.167 HD
ENDBRANCH  24  26
ENDBRANCH  23  24
ENDBRANCH  22  23
ENDBRANCH   5  22
TORSDOF 7
