REMARK  4 active torsions:
REMARK  status: ('A' for Active; 'I' for Inactive)
REMARK    1  A    between atoms: S_11  and  C_3 
REMARK    2  A    between atoms: C_14  and  S_11 
REMARK    3  A    between atoms: C_12  and  C_14 
REMARK    4  A    between atoms: C_13  and  C_12 
ROOT
ATOM      1  N   UNL d   1       1.111  -0.505   0.603  0.00  0.00    -0.268 N 
ATOM      2  C   UNL d   1       1.938   0.519   0.250  0.00  0.00     0.173 A 
ATOM      3  C   UNL d   1       1.774  -1.639   0.229  0.00  0.00     0.168 A 
ATOM      4  N   UNL d   1       3.025   0.080  -0.328  0.00  0.00    -0.277 N 
ATOM      5  HN  UNL d   1       3.795   0.640  -0.694  1.00  0.00     0.189 HD
ATOM      6  S   UNL d   1       1.322   2.080   0.664  0.00  0.00    -0.050 SA
ATOM      7  N   UNL d   1       2.919  -1.309  -0.342  0.00  0.00    -0.277 N 
ATOM      8  HN  UNL d   1       3.605  -1.958  -0.725  1.00  0.00     0.189 HD
ATOM      9  C   UNL d   1      -0.083  -0.130   1.215  0.00  0.00     0.061 A 
ATOM     10  C   UNL d   1      -0.132   1.270   1.342  0.00  0.00     0.035 A 
ATOM     11  C   UNL d   1      -1.111  -0.945   1.657  0.00  0.00     0.031 A 
ATOM     12  C   UNL d   1      -1.222   1.879   1.940  0.00  0.00     0.021 A 
ATOM     13  C   UNL d   1      -2.212  -0.327   2.254  0.00  0.00     0.002 A 
ATOM     14  C   UNL d   1      -2.266   1.070   2.399  0.00  0.00     0.002 A 
ENDROOT
BRANCH   3  15
ATOM     15  S   UNL d   1       1.190  -3.235   0.511  0.00  0.00    -0.084 SA
BRANCH  15  16
ATOM     16  C   UNL d   1       2.607  -4.255   0.009  0.00  0.00     0.166 C 
BRANCH  16  17
ATOM     17  C   UNL d   1       2.419  -5.686   0.494  0.00  0.00     0.169 C 
ATOM     18  O   UNL d   1       1.673  -5.993   1.426  0.00  0.00    -0.291 OA
BRANCH  17  19
ATOM     19  C   UNL d   1       3.200  -6.781  -0.159  0.00  0.00     0.011 A 
ATOM     20  C   UNL d   1       4.219  -6.537  -1.089  0.00  0.00     0.017 A 
ATOM     21  C   UNL d   1       4.909  -7.609  -1.668  0.00  0.00     0.025 A 
ATOM     22  C   UNL d   1       4.590  -8.921  -1.317  0.00  0.00     0.034 A 
ATOM     23  C   UNL d   1       3.588  -9.174  -0.386  0.00  0.00     0.025 A 
ATOM     24 CL   UNL d   1       5.442 -10.231  -2.035  0.00  0.00    -0.084 Cl
ATOM     25  C   UNL d   1       2.896  -8.107   0.191  0.00  0.00     0.017 A 
ENDBRANCH  17  19
ENDBRANCH  16  17
ENDBRANCH  15  16
ENDBRANCH   3  15
TORSDOF 4
