REMARK  4 active torsions:
REMARK  status: ('A' for Active; 'I' for Inactive)
REMARK    1  A    between atoms: N_2  and  C_1 
REMARK    2  A    between atoms: N_7  and  C_1 
REMARK    3  A    between atoms: C_3  and  N_2 
REMARK    4  A    between atoms: N_4  and  N_7 
ROOT
ATOM      1  C   UNL d   1       1.010  -0.245  -0.074  0.00  0.00     0.186 C 
ATOM      2  S   UNL d   1       2.153  -1.056  -0.980  0.00  0.00    -0.040 SA
ENDROOT
BRANCH   1   3
ATOM      3  N   UNL d   1       0.580   1.054  -0.211  0.00  0.00    -0.361 N 
ATOM      4  H   UNL d   1      -0.011   1.289   0.583  0.00  0.00     0.162 HD
BRANCH   3   5
ATOM      5  C   UNL d   1       1.320   2.152  -0.820  0.00  0.00     0.088 C 
ATOM      6  C   UNL d   1       1.728   2.037  -2.309  0.00  0.00     0.009 C 
ATOM      7  C   UNL d   1       2.151   3.481  -2.595  0.00  0.00     0.011 C 
ATOM      8  C   UNL d   1       0.490   1.880  -3.215  0.00  0.00     0.007 C 
ATOM      9  C   UNL d   1       0.782   4.049  -2.239  0.00  0.00    -0.012 C 
ATOM     10  C   UNL d   1       0.542   3.491  -0.816  0.00  0.00     0.030 C 
ATOM     11  C   UNL d   1      -0.117   3.291  -3.227  0.00  0.00     0.005 C 
ENDBRANCH   3   5
ENDBRANCH   1   3
BRANCH   1  12
ATOM     12  N   UNL d   1       0.401  -0.953   0.937  0.00  0.00    -0.277 N 
ATOM     13  H   UNL d   1       0.753  -1.897   1.044  0.00  0.00     0.189 HD
BRANCH  12  14
ATOM     14  N   UNL d   1      -0.202  -0.342   1.998  0.00  0.00    -0.307 N 
ATOM     15  C   UNL d   1      -0.626  -1.107   2.965  0.00  0.00    -0.004 C 
ATOM     16  C   UNL d   1      -0.619  -2.623   2.976  0.00  0.00     0.064 C 
ATOM     17  C   UNL d   1      -1.122  -0.447   4.231  0.00  0.00     0.064 C 
ATOM     18  HN  UNL d   1      -0.316   0.671   2.034  1.00  0.00     0.186 HD
ENDBRANCH  12  14
ENDBRANCH   1  12
TORSDOF 4
