REMARK  4 active torsions:
REMARK  status: ('A' for Active; 'I' for Inactive)
REMARK    1  A    between atoms: C_10  and  N_1 
REMARK    2  A    between atoms: N_5  and  N_11 
REMARK    3  A    between atoms: C_7  and  C_9 
REMARK    4  A    between atoms: C_8  and  C_10 
REMARK       I    between atoms: N_11  and  C_8 
ROOT
ATOM      1  C   UNL d   1       1.019   1.185  -0.529  0.00  0.00     0.254 C 
ATOM      2  N   UNL d   1       1.190   0.620   0.730  0.00  0.00    -0.268 N 
ATOM      3  O   UNL d   1       0.653   0.597  -1.541  0.00  0.00    -0.270 OA
ATOM      4  H   UNL d   1       1.889   1.083   1.317  0.00  0.00     0.190 HD
ENDROOT
BRANCH   1   5
ATOM      5  C   UNL d   1       1.376   2.693  -0.537  0.00  0.00     0.236 C 
BRANCH   5   6
ATOM      6  N   UNL d   1       2.784   3.012  -0.832  0.00  0.00    -0.307 N 
ATOM      7  C   UNL d   1       3.744   2.347  -0.058  0.00  0.00     0.234 C 
ATOM      8  C   UNL d   1       5.148   2.388  -0.603  0.00  0.00     0.182 C 
ATOM      9  O   UNL d   1       3.469   1.722   0.968  0.00  0.00    -0.272 OA
ATOM     10  S   UNL d   1       5.779   4.051  -0.400  0.00  0.00    -0.118 SA
ATOM     11  C   UNL d   1       4.411   4.892  -1.190  0.00  0.00     0.028 A 
ATOM     12  C   UNL d   1       3.125   4.319  -1.377  0.00  0.00     0.054 A 
ATOM     13  C   UNL d   1       4.684   6.206  -1.605  0.00  0.00     0.021 A 
ATOM     14  C   UNL d   1       2.170   5.106  -2.045  0.00  0.00     0.031 A 
ATOM     15  C   UNL d   1       2.457   6.412  -2.465  0.00  0.00     0.002 A 
ATOM     16  C   UNL d   1       3.708   6.968  -2.234  0.00  0.00     0.002 A 
ENDBRANCH   5   6
ENDBRANCH   1   5
BRANCH   2  17
ATOM     17  N   UNL d   1       0.952  -0.712   0.954  0.00  0.00    -0.300 N 
ATOM     18  C   UNL d   1       1.334  -1.209   2.100  0.00  0.00     0.055 C 
ATOM     19  C   UNL d   1       2.002  -0.400   3.197  0.00  0.00     0.072 C 
ATOM     20  HN  UNL d   1       0.494  -1.292   0.251  1.00  0.00     0.186 HD
BRANCH  18  21
ATOM     21  C   UNL d   1       1.127  -2.622   2.342  0.00  0.00     0.098 A 
ATOM     22  O   UNL d   1       1.538  -3.166   3.533  0.00  0.00    -0.321 OA
ATOM     23  C   UNL d   1       1.230  -4.486   3.508  0.00  0.00     0.142 A 
ATOM     24  C   UNL d   1       0.628  -4.816   2.318  0.00  0.00     0.027 A 
ATOM     25  C   UNL d   1       0.562  -3.618   1.565  0.00  0.00     0.041 A 
ENDBRANCH  18  21
ENDBRANCH   2  17
TORSDOF 4
