REMARK  4 active torsions:
REMARK  status: ('A' for Active; 'I' for Inactive)
REMARK    1  A    between atoms: C_3  and  S_1 
REMARK    2  A    between atoms: N_7  and  S_1 
REMARK    3  A    between atoms: C_2  and  C_6 
REMARK       I    between atoms: C_6  and  N_11 
REMARK    4  A    between atoms: N_11  and  N_7 
ROOT
ATOM      1  C   UNL d   1       0.630   3.875   1.153  0.00  0.00     0.280 C 
ATOM      2  N   UNL d   1       0.997   2.539   1.127  0.00  0.00    -0.256 N 
ATOM      3  O   UNL d   1      -0.116   4.340   0.290  0.00  0.00    -0.265 OA
ATOM      4  H   UNL d   1       1.610   2.135   1.833  0.00  0.00     0.191 HD
ENDROOT
BRANCH   2   5
ATOM      5  N   UNL d   1       0.506   1.648   0.099  0.00  0.00    -0.220 N 
ATOM      6  H   UNL d   1      -0.089   2.001  -0.657  0.00  0.00     0.200 HD
BRANCH   5   7
ATOM      7  S   UNL d   1       1.020   0.042   0.121  0.00  0.00     0.282 S 
ATOM      8  O   UNL d   1       2.428   0.037  -0.209  0.00  0.00    -0.198 OA
ATOM      9  O   UNL d   1       0.551  -0.534   1.365  0.00  0.00    -0.198 OA
BRANCH   7  10
ATOM     10  C   UNL d   1       0.244  -0.914  -1.149  0.00  0.00     0.121 A 
ATOM     11  S   UNL d   1      -0.837  -0.103  -2.194  0.00  0.00    -0.088 SA
ATOM     12  C   UNL d   1      -1.163  -1.537  -3.072  0.00  0.00     0.051 A 
ATOM     13  C   UNL d   1      -0.458  -2.615  -2.583  0.00  0.00     0.009 A 
ATOM     14  C   UNL d   1       0.354  -2.255  -1.472  0.00  0.00     0.033 A 
ENDBRANCH   7  10
ENDBRANCH   5   7
ENDBRANCH   2   5
BRANCH   1  15
ATOM     15  C   UNL d   1       1.179   4.651   2.247  0.00  0.00     0.115 A 
ATOM     16  C   UNL d   1       1.009   5.985   2.603  0.00  0.00     0.046 A 
ATOM     17  N   UNL d   1       1.722   6.378   3.735  0.00  0.00    -0.298 N 
ATOM     18  C   UNL d   1       0.186   7.033   1.948  0.00  0.00     0.071 C 
ATOM     19  N   UNL d   1       2.420   5.388   4.255  0.00  0.00    -0.269 N 
ATOM     20  HN  UNL d   1       1.705   7.323   4.118  1.00  0.00     0.187 HD
ATOM     21  S   UNL d   1       2.249   3.967   3.409  0.00  0.00     0.009 SA
ATOM     22  HN  UNL d   1       3.003   5.483   5.087  1.00  0.00     0.195 HD
ENDBRANCH   1  15
TORSDOF 4
