REMARK  4 active torsions:
REMARK  status: ('A' for Active; 'I' for Inactive)
REMARK    1  A    between atoms: C_8  and  N_1 
REMARK    2  A    between atoms: C_9  and  C_2 
REMARK    3  A    between atoms: C_11  and  C_7 
REMARK    4  A    between atoms: C_12  and  C_8 
ROOT
ATOM      1  N   UNL d   1       0.119  -1.439   0.025  0.00  0.00    -0.293 N 
ATOM      2  C   UNL d   1       1.391  -0.959  -0.123  0.00  0.00     0.121 A 
ATOM      3  N   UNL d   1       1.487   0.344  -0.116  0.00  0.00    -0.337 N 
ATOM      4  HN  UNL d   1       2.336   0.904  -0.190  1.00  0.00     0.167 HD
ATOM      5  C   UNL d   1       0.193   0.798   0.013  0.00  0.00     0.103 A 
ATOM      6  C   UNL d   1      -0.729  -0.366   0.111  0.00  0.00     0.276 A 
ATOM      7  C   UNL d   1      -0.157   2.093   0.041  0.00  0.00     0.046 C 
ATOM      8  O   UNL d   1      -1.935  -0.369   0.259  0.00  0.00    -0.265 OA
ENDROOT
BRANCH   1   9
ATOM      9  C   UNL d   1      -0.402  -2.791   0.184  0.00  0.00     0.172 C 
BRANCH   9  10
ATOM     10  C   UNL d   1       0.154  -3.525   1.383  0.00  0.00    -0.040 A 
ATOM     11  C   UNL d   1       0.378  -2.868   2.604  0.00  0.00     0.012 A 
ATOM     12  C   UNL d   1       0.902  -3.561   3.696  0.00  0.00     0.043 A 
ATOM     13  C   UNL d   1       1.177  -4.917   3.578  0.00  0.00     0.116 A 
ATOM     14  C   UNL d   1       0.931  -5.596   2.392  0.00  0.00     0.043 A 
ATOM     15  F   UNL d   1       1.682  -5.581   4.626  0.00  0.00    -0.206 F 
ATOM     16  C   UNL d   1       0.414  -4.904   1.297  0.00  0.00     0.012 A 
ENDBRANCH   9  10
ENDBRANCH   1   9
BRANCH   2  17
ATOM     17  C   UNL d   1       2.593  -1.823  -0.239  0.00  0.00     0.008 A 
ATOM     18  C   UNL d   1       2.589  -3.040  -0.926  0.00  0.00     0.015 A 
ATOM     19  C   UNL d   1       3.739  -3.831  -0.979  0.00  0.00     0.001 A 
ATOM     20  C   UNL d   1       4.920  -3.386  -0.393  0.00  0.00     0.000 A 
ATOM     21  C   UNL d   1       4.954  -2.147   0.244  0.00  0.00     0.001 A 
ATOM     22  C   UNL d   1       3.795  -1.369   0.324  0.00  0.00     0.015 A 
ENDBRANCH   2  17
BRANCH   7  23
ATOM     23  C   UNL d   1      -1.533   2.578   0.135  0.00  0.00    -0.034 A 
ATOM     24  C   UNL d   1      -2.121   2.819   1.383  0.00  0.00     0.014 A 
ATOM     25  C   UNL d   1      -3.455   3.227   1.464  0.00  0.00     0.043 A 
ATOM     26  C   UNL d   1      -4.192   3.398   0.297  0.00  0.00     0.116 A 
ATOM     27  C   UNL d   1      -3.620   3.174  -0.950  0.00  0.00     0.043 A 
ATOM     28  F   UNL d   1      -5.474   3.778   0.376  0.00  0.00    -0.206 F 
ATOM     29  C   UNL d   1      -2.288   2.766  -1.032  0.00  0.00     0.014 A 
ENDBRANCH   7  23
TORSDOF 4
