REMARK  9 active torsions:
REMARK  status: ('A' for Active; 'I' for Inactive)
REMARK    1  A    between atoms: N_7  and  C_1 
REMARK       I    between atoms: C_8  and  N_6 
REMARK       I    between atoms: C_11  and  N_7 
REMARK    2  A    between atoms: O_21  and  C_8 
REMARK    3  A    between atoms: C_17  and  C_11 
REMARK    4  A    between atoms: N_14  and  C_17 
REMARK    5  A    between atoms: C_19  and  N_14 
REMARK    6  A    between atoms: C_20  and  N_14 
REMARK    7  A    between atoms: C_22  and  C_19 
REMARK    8  A    between atoms: C_23  and  C_20 
REMARK    9  A    between atoms: C_24  and  O_21 
ROOT
ATOM      1  C   UNL d   1       2.276   3.157   1.262  0.00  0.00     0.098 C 
ATOM      2  C   UNL d   1       1.120   3.506   1.944  0.00  0.00     0.086 C 
ATOM      3  C   UNL d   1       1.818   5.582   1.159  0.00  0.00     0.011 C 
ATOM      4  C   UNL d   1       0.777   4.886   1.745  0.00  0.00    -0.018 C 
ATOM      5  S   UNL d   1       3.093   4.556   0.715  0.00  0.00    -0.073 SA
ATOM      6  N   UNL d   1       0.500   7.604   1.046  0.00  0.00    -0.323 N 
ATOM      7  C   UNL d   1      -0.019   8.565   0.203  0.00  0.00     0.363 C 
ATOM      8  C   UNL d   1       1.858   7.064   0.906  0.00  0.00     0.174 C 
ATOM      9  C   UNL d   1       0.332   2.577   2.698  0.00  0.00     0.103 C 
ATOM     10  N   UNL d   1      -0.280   1.834   3.345  0.00  0.00    -0.191 NA
ATOM     11  C   UNL d   1      -0.519   5.585   2.054  0.00  0.00     0.061 C 
ATOM     12  C   UNL d   1      -0.304   7.103   2.168  0.00  0.00     0.133 C 
ATOM     13  O   UNL d   1      -1.148   9.034   0.318  0.00  0.00    -0.238 OA
ENDROOT
BRANCH   1  14
ATOM     14  N   UNL d   1       2.760   1.879   0.988  0.00  0.00    -0.319 N 
ATOM     15  C   UNL d   1       3.841   1.579   0.167  0.00  0.00     0.251 C 
ATOM     16  O   UNL d   1       4.692   2.370  -0.227  0.00  0.00    -0.271 OA
ATOM     17  H   UNL d   1       2.189   1.081   1.254  0.00  0.00     0.169 HD
BRANCH  15  18
ATOM     18  C   UNL d   1       3.975   0.098  -0.215  0.00  0.00     0.375 C 
BRANCH  18  19
ATOM     19  N   UNL d   1       2.695  -0.594  -0.502  0.00  0.00     0.105 N 
BRANCH  19  20
ATOM     20  C   UNL d   1       1.870   0.047  -1.557  0.00  0.00     0.311 C 
BRANCH  20  21
ATOM     21  C   UNL d   1       2.474   0.351  -2.916  0.00  0.00    -0.030 A 
ATOM     22  C   UNL d   1       2.353  -0.550  -3.987  0.00  0.00     0.009 A 
ATOM     23  C   UNL d   1       2.775  -0.197  -5.274  0.00  0.00     0.001 A 
ATOM     24  C   UNL d   1       3.335   1.058  -5.510  0.00  0.00     0.000 A 
ATOM     25  C   UNL d   1       3.486   1.952  -4.455  0.00  0.00     0.001 A 
ATOM     26  C   UNL d   1       3.056   1.603  -3.173  0.00  0.00     0.009 A 
ENDBRANCH  20  21
ENDBRANCH  19  20
BRANCH  19  27
ATOM     27  C   UNL d   1       2.946  -2.014  -0.855  0.00  0.00     0.311 C 
BRANCH  27  28
ATOM     28  C   UNL d   1       3.616  -2.861   0.217  0.00  0.00    -0.030 A 
ATOM     29  C   UNL d   1       3.316  -2.719   1.579  0.00  0.00     0.009 A 
ATOM     30  C   UNL d   1       3.967  -3.502   2.537  0.00  0.00     0.001 A 
ATOM     31  C   UNL d   1       4.897  -4.463   2.145  0.00  0.00     0.000 A 
ATOM     32  C   UNL d   1       5.167  -4.653   0.792  0.00  0.00     0.001 A 
ATOM     33  C   UNL d   1       4.527  -3.861  -0.165  0.00  0.00     0.009 A 
ENDBRANCH  27  28
ENDBRANCH  19  27
ENDBRANCH  18  19
ENDBRANCH  15  18
ENDBRANCH   1  14
BRANCH   7  34
ATOM     34  O   UNL d   1       0.837   8.915  -0.790  0.00  0.00    -0.304 OA
BRANCH  34  35
ATOM     35  C   UNL d   1       0.345   9.874  -1.738  0.00  0.00     0.176 C 
ATOM     36  C   UNL d   1      -0.510   9.193  -2.792  0.00  0.00     0.034 C 
ENDBRANCH  34  35
ENDBRANCH   7  34
TORSDOF 9
