REMARK  7 active torsions:
REMARK  status: ('A' for Active; 'I' for Inactive)
REMARK    1  A    between atoms: C_14  and  C_3 
REMARK    2  A    between atoms: N_4  and  C_10 
REMARK    3  A    between atoms: C_23  and  C_7 
REMARK       I    between atoms: C_9  and  N_11 
REMARK    4  A    between atoms: C_12  and  C_9 
REMARK    5  A    between atoms: N_11  and  N_17 
REMARK    6  A    between atoms: C_16  and  C_24 
REMARK       I    between atoms: N_17  and  C_16 
REMARK    7  A    between atoms: C_24  and  C_23 
ROOT
ATOM      1  C   UNL d   1       3.148  -3.816  -0.068  0.00  0.00     0.236 C 
ATOM      2  N   UNL d   1       3.395  -4.471   1.124  0.00  0.00    -0.267 N 
ATOM      3  O   UNL d   1       3.304  -4.346  -1.168  0.00  0.00    -0.272 OA
ATOM      4  H   UNL d   1       2.900  -4.185   1.972  0.00  0.00     0.190 HD
ENDROOT
BRANCH   1   5
ATOM      5  C   UNL d   1       2.706  -2.375   0.081  0.00  0.00     0.112 C 
BRANCH   5   6
ATOM      6  C   UNL d   1       1.203  -2.193  -0.080  0.00  0.00     0.096 C 
BRANCH   6   7
ATOM      7  C   UNL d   1       0.421  -2.780   1.032  0.00  0.00     0.148 A 
ATOM      8  N   UNL d   1       0.822  -3.477   2.069  0.00  0.00    -0.323 N 
ATOM      9  C   UNL d   1      -0.368  -3.770   2.709  0.00  0.00     0.137 A 
ATOM     10  HN  UNL d   1       1.772  -3.736   2.336  1.00  0.00     0.169 HD
ATOM     11  N   UNL d   1      -1.450  -3.249   2.105  0.00  0.00    -0.242 N 
ATOM     12  O   UNL d   1      -0.928  -2.593   0.993  0.00  0.00    -0.223 OA
ATOM     13  HN  UNL d   1      -2.425  -3.318   2.394  1.00  0.00     0.196 HD
BRANCH   9  14
ATOM     14  C   UNL d   1      -0.416  -4.593   3.912  0.00  0.00     0.010 A 
ATOM     15  C   UNL d   1       0.773  -5.069   4.483  0.00  0.00     0.017 A 
ATOM     16  C   UNL d   1       0.750  -5.882   5.620  0.00  0.00     0.025 A 
ATOM     17  C   UNL d   1      -0.467  -6.218   6.202  0.00  0.00     0.034 A 
ATOM     18  C   UNL d   1      -1.661  -5.749   5.655  0.00  0.00     0.025 A 
ATOM     19 CL   UNL d   1      -0.499  -7.215   7.603  0.00  0.00    -0.084 Cl
ATOM     20  C   UNL d   1      -1.636  -4.940   4.513  0.00  0.00     0.017 A 
ENDBRANCH   9  14
ENDBRANCH   6   7
ENDBRANCH   5   6
ENDBRANCH   1   5
BRANCH   2  21
ATOM     21  N   UNL d   1       3.755  -5.826   1.048  0.00  0.00    -0.263 N 
ATOM     22  C   UNL d   1       3.919  -6.551   2.214  0.00  0.00     0.270 C 
ATOM     23  O   UNL d   1       3.756  -6.088   3.338  0.00  0.00    -0.266 OA
ATOM     24  H   UNL d   1       4.098  -6.141   0.144  0.00  0.00     0.190 HD
BRANCH  22  25
ATOM     25  C   UNL d   1       4.338  -7.970   2.038  0.00  0.00     0.036 A 
ATOM     26  C   UNL d   1       5.150  -8.565   3.014  0.00  0.00     0.053 A 
ATOM     27  C   UNL d   1       5.554  -9.898   2.851  0.00  0.00     0.103 A 
ATOM     28  C   UNL d   1       5.131 -10.645   1.741  0.00  0.00     0.036 A 
ATOM     29  C   UNL d   1       4.300 -10.053   0.790  0.00  0.00     0.003 A 
ATOM     30  C   UNL d   1       3.905  -8.721   0.936  0.00  0.00     0.017 A 
BRANCH  27  31
ATOM     31  N   UNL d   1       6.442 -10.522   3.841  0.00  0.00    -0.116 N 
ATOM     32  O   UNL d   1       6.826  -9.825   4.791  0.00  0.00    -0.532 OA
ATOM     33  O   UNL d   1       6.763 -11.703   3.662  0.00  0.00    -0.532 OA
ENDBRANCH  27  31
ENDBRANCH  22  25
ENDBRANCH   2  21
TORSDOF 7
