REMARK  9 active torsions:
REMARK  status: ('A' for Active; 'I' for Inactive)
REMARK    1  A    between atoms: C_8  and  C_3 
REMARK    2  A    between atoms: O_17  and  N_9 
REMARK    3  A    between atoms: N_13  and  C_28 
REMARK    4  A    between atoms: C_29  and  N_13 
REMARK    5  A    between atoms: C_15  and  C_18 
REMARK    6  A    between atoms: O_27  and  C_15 
REMARK    7  A    between atoms: C_28  and  C_15 
REMARK    8  A    between atoms: C_18  and  O_17 
REMARK    9  A    between atoms: C_20  and  C_29 
ROOT
ATOM      1  O   UNL d   1       5.955  -1.569  -0.024  0.00  0.00    -0.278 OA
ENDROOT
BRANCH   1   2
ATOM      2  N   UNL d   1       4.854  -0.697  -0.008  0.00  0.00    -0.277 N 
ATOM      3  C   UNL d   1       3.766  -1.395   0.056  0.00  0.00     0.125 C 
ATOM      4  HN  UNL d   1       4.904   0.322  -0.041  1.00  0.00     0.193 HD
BRANCH   3   5
ATOM      5  C   UNL d   1       2.418  -0.768   0.093  0.00  0.00     0.006 A 
ATOM      6  C   UNL d   1       1.291  -1.493   0.130  0.00  0.00     0.057 A 
ATOM      7  C   UNL d   1       0.008  -0.771   0.159  0.00  0.00     0.021 A 
ATOM      8 CL   UNL d   1       1.281  -3.223   0.137  0.00  0.00    -0.083 Cl
ATOM      9  C   UNL d   1       0.018   0.628   0.177  0.00  0.00     0.081 A 
ATOM     10  C   UNL d   1      -1.240  -1.419   0.174  0.00  0.00     0.040 A 
ATOM     11  C   UNL d   1      -1.174   1.360   0.212  0.00  0.00     0.039 A 
ATOM     12  O   UNL d   1       1.151   1.389   0.170  0.00  0.00    -0.346 OA
ATOM     13  C   UNL d   1      -2.402   0.703   0.227  0.00  0.00     0.026 A 
ATOM     14  C   UNL d   1      -2.429  -0.685   0.208  0.00  0.00     0.035 A 
ATOM     15 CL   UNL d   1      -3.940  -1.509   0.227  0.00  0.00    -0.084 Cl
ATOM     16  C   UNL d   1       2.420   0.730   0.086  0.00  0.00     0.217 A 
ENDBRANCH   3   5
ENDBRANCH   1   2
BRANCH   1  17
ATOM     17  C   UNL d   1       7.149  -0.781  -0.048  0.00  0.00     0.234 C 
BRANCH  17  18
ATOM     18  C   UNL d   1       8.374  -1.705  -0.019  0.00  0.00     0.172 C 
BRANCH  18  19
ATOM     19  O   UNL d   1       8.421  -2.544  -1.184  0.00  0.00    -0.392 OA
ATOM     20  H   UNL d   1       8.148  -2.010  -1.950  0.00  0.00     0.210 HD
ENDBRANCH  18  19
BRANCH  18  21
ATOM     21  C   UNL d   1       9.690  -0.904   0.048  0.00  0.00     0.303 C 
BRANCH  21  22
ATOM     22  N   UNL d   1       9.757  -0.073   1.246  0.00  0.00     0.090 N 
ATOM     23  H   UNL d   1       9.744  -0.664   2.079  0.00  0.00     0.316 HD
BRANCH  22  24
ATOM     24  C   UNL d   1      10.963   0.752   1.279  0.00  0.00     0.308 C 
BRANCH  24  25
ATOM     25  C   UNL d   1      10.982   1.572   2.549  0.00  0.00    -0.030 A 
ATOM     26  C   UNL d   1      11.999   1.400   3.499  0.00  0.00     0.010 A 
ATOM     27  C   UNL d   1      11.980   2.127   4.692  0.00  0.00     0.024 A 
ATOM     28  C   UNL d   1      10.947   3.028   4.942  0.00  0.00     0.034 A 
ATOM     29  C   UNL d   1       9.937   3.220   4.002  0.00  0.00     0.024 A 
ATOM     30 CL   UNL d   1      10.912   3.899   6.425  0.00  0.00    -0.084 Cl
ATOM     31  C   UNL d   1       9.958   2.498   2.808  0.00  0.00     0.010 A 
ENDBRANCH  24  25
ENDBRANCH  22  24
ENDBRANCH  21  22
ENDBRANCH  18  21
ENDBRANCH  17  18
ENDBRANCH   1  17
TORSDOF 9
