REMARK  4 active torsions:
REMARK  status: ('A' for Active; 'I' for Inactive)
REMARK    1  A    between atoms: N_2  and  C_1 
REMARK    2  A    between atoms: C_5  and  O_8 
REMARK    3  A    between atoms: C_11  and  C_5 
REMARK    4  A    between atoms: O_8  and  C_13 
ROOT
ATOM      1  C   UNL d   1      -1.566  -1.364   0.072  0.00  0.00     0.138 A 
ATOM      2  C   UNL d   1      -0.238  -0.857  -0.064  0.00  0.00     0.035 A 
ATOM      3  C   UNL d   1      -2.415  -0.280   0.009  0.00  0.00     0.179 A 
ATOM      4  O   UNL d   1      -1.711   0.863  -0.193  0.00  0.00    -0.319 OA
ATOM      5  C   UNL d   1      -0.396   0.515  -0.246  0.00  0.00     0.087 A 
ATOM      6  C   UNL d   1       1.075  -1.375  -0.054  0.00  0.00     0.054 A 
ATOM      7  C   UNL d   1       2.155  -0.491  -0.232  0.00  0.00     0.080 A 
ATOM      8  C   UNL d   1       0.655   1.405  -0.450  0.00  0.00     0.041 A 
ATOM      9  C   UNL d   1       1.948   0.873  -0.439  0.00  0.00     0.040 A 
ENDROOT
BRANCH   7  10
ATOM     10  O   UNL d   1       3.441  -1.085  -0.099  0.00  0.00    -0.275 OA
BRANCH  10  11
ATOM     11  C   UNL d   1       4.652  -0.454  -0.355  0.00  0.00     0.298 C 
ATOM     12  O   UNL d   1       4.822   0.636  -0.875  0.00  0.00    -0.259 OA
BRANCH  11  13
ATOM     13  C   UNL d   1       5.785  -1.286   0.149  0.00  0.00     0.040 A 
ATOM     14  C   UNL d   1       7.075  -0.739   0.092  0.00  0.00     0.019 A 
ATOM     15  C   UNL d   1       8.171  -1.444   0.600  0.00  0.00     0.025 A 
ATOM     16  C   UNL d   1       7.977  -2.703   1.165  0.00  0.00     0.034 A 
ATOM     17  C   UNL d   1       6.705  -3.266   1.212  0.00  0.00     0.025 A 
ATOM     18 CL   UNL d   1       9.318  -3.559   1.821  0.00  0.00    -0.084 Cl
ATOM     19  C   UNL d   1       5.606  -2.561   0.705  0.00  0.00     0.019 A 
ENDBRANCH  11  13
ENDBRANCH  10  11
ENDBRANCH   7  10
BRANCH   1  20
ATOM     20  N   UNL d   1      -2.006  -2.713   0.239  0.00  0.00    -0.113 N 
ATOM     21  O   UNL d   1      -1.140  -3.597   0.235  0.00  0.00    -0.532 OA
ATOM     22  O   UNL d   1      -3.223  -2.897   0.369  0.00  0.00    -0.532 OA
ENDBRANCH   1  20
TORSDOF 4
