REMARK  7 active torsions:
REMARK  status: ('A' for Active; 'I' for Inactive)
REMARK    1  A    between atoms: C_13  and  N_1 
REMARK    2  A    between atoms: C_7  and  C_3 
REMARK    3  A    between atoms: C_4  and  C_7 
REMARK    4  A    between atoms: C_26  and  C_13 
REMARK    5  A    between atoms: O_28  and  C_15 
REMARK    6  A    between atoms: O_29  and  C_17 
REMARK    7  A    between atoms: C_25  and  C_26 
ROOT
ATOM      1  N   UNL d   1       0.862   0.357  -0.055  0.00  0.00    -0.298 N 
ATOM      2  C   UNL d   1      -0.103   0.529  -1.030  0.00  0.00     0.148 A 
ATOM      3  C   UNL d   1      -0.824  -1.051   0.801  0.00  0.00     0.077 A 
ATOM      4  C   UNL d   1       0.521  -0.459   1.011  0.00  0.00     0.266 A 
ATOM      5  S   UNL d   1      -1.523  -0.435  -0.642  0.00  0.00    -0.055 SA
ATOM      6  S   UNL d   1      -0.054   1.490  -2.392  0.00  0.00    -0.052 SA
ATOM      7  O   UNL d   1       1.198  -0.674   2.007  0.00  0.00    -0.266 OA
ENDROOT
BRANCH   1   8
ATOM      8  C   UNL d   1       2.147   1.061  -0.025  0.00  0.00     0.138 C 
BRANCH   8   9
ATOM      9  C   UNL d   1       3.379   0.142  -0.028  0.00  0.00     0.059 C 
BRANCH   9  10
ATOM     10  C   UNL d   1       3.514  -0.743  -1.245  0.00  0.00    -0.054 A 
ATOM     11  C   UNL d   1       3.574  -2.140  -1.095  0.00  0.00     0.046 A 
ATOM     12  C   UNL d   1       3.773  -2.990  -2.197  0.00  0.00     0.102 A 
ATOM     13  C   UNL d   1       3.883  -2.421  -3.476  0.00  0.00     0.101 A 
ATOM     14  C   UNL d   1       3.836  -1.029  -3.623  0.00  0.00     0.040 A 
ATOM     15  C   UNL d   1       3.654  -0.196  -2.521  0.00  0.00     0.010 A 
BRANCH  12  16
ATOM     16  O   UNL d   1       3.909  -4.348  -2.087  0.00  0.00    -0.353 OA
ATOM     17  C   UNL d   1       3.861  -4.927  -0.791  0.00  0.00     0.210 C 
ENDBRANCH  12  16
BRANCH  13  18
ATOM     18  O   UNL d   1       4.107  -3.080  -4.659  0.00  0.00    -0.353 OA
ATOM     19  C   UNL d   1       3.518  -4.368  -4.790  0.00  0.00     0.210 C 
ENDBRANCH  13  18
ENDBRANCH   9  10
ENDBRANCH   8   9
ENDBRANCH   1   8
BRANCH   3  20
ATOM     20  C   UNL d   1      -1.364  -1.941   1.645  0.00  0.00     0.042 C 
BRANCH  20  21
ATOM     21  C   UNL d   1      -2.686  -2.541   1.436  0.00  0.00     0.049 A 
ATOM     22  C   UNL d   1      -2.827  -3.698   0.664  0.00  0.00     0.171 A 
ATOM     23  C   UNL d   1      -4.088  -4.208   0.370  0.00  0.00     0.197 A 
ATOM     24  F   UNL d   1      -1.738  -4.314   0.177  0.00  0.00    -0.202 F 
ATOM     25  F   UNL d   1      -4.204  -5.306  -0.390  0.00  0.00    -0.199 F 
ATOM     26  C   UNL d   1      -5.223  -3.571   0.847  0.00  0.00     0.199 A 
ATOM     27  C   UNL d   1      -5.100  -2.429   1.631  0.00  0.00     0.197 A 
ATOM     28  F   UNL d   1      -6.438  -4.050   0.547  0.00  0.00    -0.199 F 
ATOM     29  C   UNL d   1      -3.840  -1.920   1.923  0.00  0.00     0.171 A 
ATOM     30  F   UNL d   1      -6.196  -1.811   2.090  0.00  0.00    -0.199 F 
ATOM     31  F   UNL d   1      -3.738  -0.804   2.663  0.00  0.00    -0.202 F 
ENDBRANCH  20  21
ENDBRANCH   3  20
TORSDOF 7
