REMARK  9 active torsions:
REMARK  status: ('A' for Active; 'I' for Inactive)
REMARK    1  A    between atoms: C1*_3  and  N_1 
REMARK    2  A    between atoms: N_15  and  C_2 
REMARK    3  A    between atoms: C2*_8  and  O2*_19 
REMARK    4  A    between atoms: C3*_10  and  O3*_21 
REMARK    5  A    between atoms: C4*_11  and  C5*_23 
REMARK    6  A    between atoms: N_20  and  C_14 
REMARK    7  A    between atoms: C_22  and  N_15 
REMARK    8  A    between atoms: C_25  and  C_22 
REMARK    9  A    between atoms: O5*_24  and  C5*_23 
ROOT
ATOM      1  N   UNL d   1       1.518   1.159  -0.046  0.00  0.00    -0.136 N 
ATOM      2  C   UNL d   1       2.350   0.052   0.077  0.00  0.00     0.684 C 
ATOM      3  C   UNL d   1       0.230   0.698   0.022  0.00  0.00     0.158 A 
ATOM      4  N   UNL d   1       1.664  -1.063   0.031  0.00  0.00    -0.185 N 
ATOM      5  HN  UNL d   1       2.031  -2.015   0.011  1.00  0.00     0.184 HD
ATOM      6  C   UNL d   1       0.341  -0.680   0.015  0.00  0.00     0.132 A 
ATOM      7  N   UNL d   1      -0.909   1.408   0.050  0.00  0.00    -0.336 N 
ATOM      8  HN  UNL d   1      -0.953   2.427   0.049  1.00  0.00     0.168 HD
ATOM      9  C   UNL d   1      -0.851  -1.419   0.015  0.00  0.00     0.110 A 
ATOM     10  N   UNL d   1      -2.024  -0.749   0.069  0.00  0.00    -0.341 N 
ATOM     11  HN  UNL d   1      -2.912  -1.250   0.101  1.00  0.00     0.167 HD
ATOM     12  C   UNL d   1      -1.988   0.599   0.081  0.00  0.00     0.183 A 
ENDROOT
BRANCH   1  13
ATOM     13  C1* UNL d   1       1.966   2.503  -0.332  0.00  0.00     0.279 C 
ATOM     14  C2* UNL d   1       0.994   3.684  -0.291  0.00  0.00     0.199 C 
ATOM     15  C3* UNL d   1       0.492   3.786  -1.723  0.00  0.00     0.182 C 
ATOM     16  C4* UNL d   1       1.691   3.306  -2.538  0.00  0.00     0.179 C 
ATOM     17  O4* UNL d   1       2.520   2.497  -1.673  0.00  0.00    -0.353 OA
BRANCH  14  18
ATOM     18  O2* UNL d   1       1.698   4.915   0.025  0.00  0.00    -0.388 OA
ATOM     19  H2* UNL d   1       2.512   4.947  -0.513  0.00  0.00     0.210 HD
ENDBRANCH  14  18
BRANCH  15  20
ATOM     20  O3* UNL d   1       0.147   5.128  -2.073  0.00  0.00    -0.390 OA
ATOM     21  H3* UNL d   1       0.413   5.691  -1.318  0.00  0.00     0.210 HD
ENDBRANCH  15  20
BRANCH  16  22
ATOM     22  C5* UNL d   1       1.298   2.507  -3.784  0.00  0.00     0.198 C 
BRANCH  22  23
ATOM     23  O5* UNL d   1       0.482   1.388  -3.452  0.00  0.00    -0.398 OA
ATOM     24  H5* UNL d   1       1.042   0.759  -2.966  0.00  0.00     0.209 HD
ENDBRANCH  22  23
ENDBRANCH  16  22
ENDBRANCH   1  13
BRANCH   2  25
ATOM     25  N   UNL d   1       3.685   0.174   0.224  0.00  0.00    -0.225 N 
ATOM     26  H   UNL d   1       4.151   1.070   0.326  0.00  0.00     0.177 HD
BRANCH  25  27
ATOM     27  C   UNL d   1       4.571  -0.909  -0.193  0.00  0.00     0.142 C 
BRANCH  27  28
ATOM     28  C   UNL d   1       4.984  -0.754  -1.667  0.00  0.00    -0.004 C 
ATOM     29  C   UNL d   1       5.753   0.546  -1.925  0.00  0.00     0.011 C 
ATOM     30  C   UNL d   1       5.846  -1.946  -2.095  0.00  0.00     0.011 C 
ENDBRANCH  27  28
ENDBRANCH  25  27
ENDBRANCH   2  25
BRANCH   9  31
ATOM     31  N   UNL d   1      -0.887  -2.807  -0.026  0.00  0.00    -0.287 NA
ATOM     32  H   UNL d   1      -0.024  -3.242   0.281  0.00  0.00     0.125 HD
ATOM     33  H   UNL d   1      -1.758  -3.180   0.322  0.00  0.00     0.125 HD
ENDBRANCH   9  31
TORSDOF 9
