REMARK  5 active torsions:
REMARK  status: ('A' for Active; 'I' for Inactive)
REMARK    1  A    between atoms: C_6  and  C_1 
REMARK    2  A    between atoms: C_4  and  C_2 
REMARK    3  A    between atoms: O_14  and  C_5 
REMARK    4  A    between atoms: S_7  and  C_6 
REMARK    5  A    between atoms: C_11  and  S_7 
ROOT
ATOM      1  C   UNL d   1       1.417  -0.361   0.010  0.00  0.00    -0.014 A 
ATOM      2  C   UNL d   1      -0.941  -1.077  -0.054  0.00  0.00     0.010 A 
ATOM      3  C   UNL d   1       0.426  -1.367  -0.076  0.00  0.00     0.026 A 
ATOM      4  C   UNL d   1       0.975   0.978   0.022  0.00  0.00     0.075 A 
ATOM      5  C   UNL d   1      -1.355   0.249  -0.052  0.00  0.00     0.018 A 
ATOM      6  C   UNL d   1      -0.401   1.266  -0.015  0.00  0.00     0.038 A 
ENDROOT
BRANCH   1   7
ATOM      7  C   UNL d   1       2.888  -0.727   0.147  0.00  0.00     0.121 C 
BRANCH   7   8
ATOM      8  S   UNL d   1       3.254  -2.510   0.357  0.00  0.00    -0.125 SA
BRANCH   8   9
ATOM      9  C   UNL d   1       5.023  -2.610   0.511  0.00  0.00     0.001 A 
ATOM     10  C   UNL d   1       5.901  -1.524   0.545  0.00  0.00     0.020 A 
ATOM     11  C   UNL d   1       7.277  -1.732   0.703  0.00  0.00     0.025 A 
ATOM     12  C   UNL d   1       7.779  -3.026   0.825  0.00  0.00     0.034 A 
ATOM     13  C   UNL d   1       6.920  -4.117   0.784  0.00  0.00     0.025 A 
ATOM     14 CL   UNL d   1       9.467  -3.276   1.035  0.00  0.00    -0.084 Cl
ATOM     15  C   UNL d   1       5.549  -3.907   0.626  0.00  0.00     0.020 A 
ENDBRANCH   8   9
ENDBRANCH   7   8
ENDBRANCH   1   7
BRANCH   4  16
ATOM     16  O   UNL d   1       1.746   2.096   0.195  0.00  0.00    -0.355 OA
ATOM     17  C   UNL d   1       2.939   2.207  -0.567  0.00  0.00     0.210 C 
ENDBRANCH   4  16
BRANCH   2  18
ATOM     18  C   UNL d   1      -1.963  -2.157   0.006  0.00  0.00     0.155 C 
ATOM     19  O   UNL d   1      -3.092  -1.945  -0.439  0.00  0.00    -0.293 OA
ATOM     20  C   UNL d   1      -1.615  -3.479   0.649  0.00  0.00     0.096 C 
ENDBRANCH   2  18
TORSDOF 5
