REMARK  9 active torsions:
REMARK  status: ('A' for Active; 'I' for Inactive)
REMARK    1  A    between atoms: N_4  and  C_1 
REMARK       I    between atoms: C_3  and  N_4 
REMARK    2  A    between atoms: C_8  and  C_3 
REMARK    3  A    between atoms: S_17  and  C_5 
REMARK    4  A    between atoms: O_14  and  C_11 
REMARK       I    between atoms: N_12  and  C_13 
REMARK    5  A    between atoms: C_13  and  C_22 
REMARK    6  A    between atoms: C_28  and  O_14 
REMARK    7  A    between atoms: C_22  and  S_17 
REMARK    8  A    between atoms: C_18  and  C_23 
REMARK    9  A    between atoms: O_30  and  C_25 
ROOT
ATOM      1  C   UNL d   1      -1.655  -5.373  -2.207  0.00  0.00     0.168 A 
ATOM      2  S   UNL d   1      -0.060  -5.304  -1.627  0.00  0.00    -0.026 SA
ATOM      3  C   UNL d   1      -0.549  -4.022  -0.599  0.00  0.00     0.130 A 
ATOM      4  N   UNL d   1      -2.488  -4.574  -1.580  0.00  0.00    -0.278 N 
ATOM      5  HN  UNL d   1      -3.494  -4.556  -1.746  1.00  0.00     0.189 HD
ATOM      6  N   UNL d   1      -1.839  -3.763  -0.671  0.00  0.00    -0.286 N 
ATOM      7  HN  UNL d   1      -2.306  -3.045  -0.117  1.00  0.00     0.188 HD
ENDROOT
BRANCH   1   8
ATOM      8  N   UNL d   1      -2.074  -6.247  -3.175  0.00  0.00    -0.302 N 
ATOM      9  C   UNL d   1      -1.399  -7.017  -4.080  0.00  0.00     0.262 C 
ATOM     10  O   UNL d   1      -1.991  -7.937  -4.648  0.00  0.00    -0.267 OA
ATOM     11  H   UNL d   1      -3.078  -6.370  -3.201  0.00  0.00     0.171 HD
BRANCH   9  12
ATOM     12  C   UNL d   1       0.004  -6.793  -4.472  0.00  0.00     0.083 A 
ATOM     13  C   UNL d   1       0.504  -5.558  -4.873  0.00  0.00     0.163 A 
ATOM     14  N   UNL d   1       1.794  -5.387  -5.253  0.00  0.00    -0.346 N 
ATOM     15  C   UNL d   1       2.573  -6.477  -5.342  0.00  0.00     0.090 A 
ATOM     16  HN  UNL d   1       2.161  -4.459  -5.465  1.00  0.00     0.167 HD
ATOM     17  C   UNL d   1       2.150  -7.750  -5.015  0.00  0.00     0.018 A 
ATOM     18  C   UNL d   1       0.845  -7.906  -4.564  0.00  0.00     0.023 A 
BRANCH  13  19
ATOM     19  O   UNL d   1      -0.354  -4.460  -4.892  0.00  0.00    -0.293 OA
BRANCH  19  20
ATOM     20  C   UNL d   1       0.185  -3.233  -5.211  0.00  0.00     0.077 A 
ATOM     21  C   UNL d   1       0.847  -2.999  -6.419  0.00  0.00     0.037 A 
ATOM     22  C   UNL d   1       1.401  -1.746  -6.680  0.00  0.00     0.003 A 
ATOM     23  C   UNL d   1       1.252  -0.714  -5.756  0.00  0.00     0.000 A 
ATOM     24  C   UNL d   1       0.537  -0.930  -4.576  0.00  0.00     0.003 A 
ATOM     25  C   UNL d   1      -0.004  -2.189  -4.305  0.00  0.00     0.037 A 
ENDBRANCH  19  20
ENDBRANCH  13  19
ENDBRANCH   9  12
ENDBRANCH   1   8
BRANCH   3  26
ATOM     26  S   UNL d   1       0.463  -3.070   0.468  0.00  0.00    -0.094 SA
BRANCH  26  27
ATOM     27  C   UNL d   1       2.148  -3.353  -0.142  0.00  0.00     0.184 C 
BRANCH  27  28
ATOM     28  C   UNL d   1       2.661  -4.757   0.170  0.00  0.00     0.229 C 
ATOM     29  N   UNL d   1       3.844  -5.157  -0.459  0.00  0.00    -0.351 N 
ATOM     30  C   UNL d   1       4.110  -6.591  -0.526  0.00  0.00     0.126 C 
ATOM     31  C   UNL d   1       4.614  -4.325  -1.376  0.00  0.00     0.126 C 
ATOM     32  C   UNL d   1       5.592  -6.945  -0.489  0.00  0.00     0.029 C 
ATOM     33  C   UNL d   1       6.526  -6.041  -1.313  0.00  0.00     0.024 C 
ATOM     34  C   UNL d   1       6.111  -4.564  -1.210  0.00  0.00     0.029 C 
ATOM     35  O   UNL d   1       2.059  -5.521   0.929  0.00  0.00    -0.273 OA
BRANCH  33  36
ATOM     36  C   UNL d   1       6.800  -6.465  -2.752  0.00  0.00    -0.021 A 
ATOM     37  C   UNL d   1       8.100  -6.405  -3.301  0.00  0.00     0.074 A 
ATOM     38  C   UNL d   1       8.351  -6.772  -4.629  0.00  0.00     0.037 A 
ATOM     39  C   UNL d   1       7.319  -7.235  -5.434  0.00  0.00     0.003 A 
ATOM     40  C   UNL d   1       6.042  -7.346  -4.902  0.00  0.00     0.001 A 
ATOM     41  C   UNL d   1       5.778  -6.942  -3.588  0.00  0.00     0.010 A 
BRANCH  37  42
ATOM     42  O   UNL d   1       9.216  -6.170  -2.538  0.00  0.00    -0.355 OA
ATOM     43  C   UNL d   1       9.409  -4.800  -2.206  0.00  0.00     0.210 C 
ENDBRANCH  37  42
ENDBRANCH  33  36
ENDBRANCH  27  28
ENDBRANCH  26  27
ENDBRANCH   3  26
TORSDOF 9
