REMARK  3 active torsions:
REMARK  status: ('A' for Active; 'I' for Inactive)
REMARK    1  A    between atoms: C_4  and  C_1 
REMARK    2  A    between atoms: C_2  and  C_5 
REMARK    3  A    between atoms: N_13  and  C_4 
ROOT
ATOM      1  C   UNL d   1       0.236   1.217  -0.015  0.00  0.00     0.023 A 
ATOM      2  C   UNL d   1      -0.425  -0.024   0.001  0.00  0.00     0.048 A 
ATOM      3  C   UNL d   1       1.711  -1.213  -0.008  0.00  0.00     0.049 A 
ATOM      4  C   UNL d   1       1.645   1.216  -0.027  0.00  0.00     0.017 A 
ATOM      5  C   UNL d   1       0.310  -1.222  -0.002  0.00  0.00     0.041 A 
ATOM      6  C   UNL d   1       2.370   0.022  -0.019  0.00  0.00     0.017 A 
ATOM      7 CL   UNL d   1      -2.146  -0.195   0.066  0.00  0.00    -0.083 Cl
ENDROOT
BRANCH   1   8
ATOM      8  C   UNL d   1      -0.475   2.533  -0.024  0.00  0.00     0.106 C 
ATOM      9  S   UNL d   1       0.044   3.916   0.767  0.00  0.00    -0.060 SA
BRANCH   8  10
ATOM     10  N   UNL d   1      -1.628   2.626  -0.757  0.00  0.00    -0.389 N 
ATOM     11  H   UNL d   1      -2.086   1.823  -1.173  0.00  0.00     0.157 HD
ATOM     12  H   UNL d   1      -2.155   3.493  -0.727  0.00  0.00     0.157 HD
ENDBRANCH   8  10
ENDBRANCH   1   8
BRANCH   3  13
ATOM     13  C   UNL d   1       2.504  -2.498  -0.001  0.00  0.00     0.417 C 
ATOM     14  F   UNL d   1       1.726  -3.615   0.002  0.00  0.00    -0.166 F 
ATOM     15  F   UNL d   1       3.317  -2.611  -1.087  0.00  0.00    -0.166 F 
ATOM     16  F   UNL d   1       3.314  -2.602   1.089  0.00  0.00    -0.166 F 
ENDBRANCH   3  13
TORSDOF 3
