REMARK  6 active torsions:
REMARK  status: ('A' for Active; 'I' for Inactive)
REMARK    1  A    between atoms: N_6  and  C_1 
REMARK    2  A    between atoms: C_2  and  C_3 
REMARK       I    between atoms: C_9  and  N_7 
REMARK    3  A    between atoms: C_12  and  C_9 
REMARK    4  A    between atoms: C_23  and  C_12 
REMARK    5  A    between atoms: S_22  and  C_23 
REMARK    6  A    between atoms: C_24  and  S_22 
ROOT
ATOM      1  N   UNL d   1       0.534   2.285  -0.102  0.00  0.00    -0.363 N 
ATOM      2  N   UNL d   1       2.432   4.384  -0.022  0.00  0.00    -0.349 N 
ATOM      3  C   UNL d   1       2.982   5.598  -0.387  0.00  0.00     0.220 C 
ATOM      4  C   UNL d   1       1.328   2.536  -1.316  0.00  0.00     0.144 C 
ATOM      5  C   UNL d   1       0.213   3.508   0.640  0.00  0.00     0.144 C 
ATOM      6  C   UNL d   1       2.655   3.211  -0.893  0.00  0.00     0.145 C 
ATOM      7  C   UNL d   1       1.543   4.117   1.125  0.00  0.00     0.145 C 
ATOM      8  O   UNL d   1       3.670   5.712  -1.406  0.00  0.00    -0.273 OA
ENDROOT
BRANCH   1   9
ATOM      9  C   UNL d   1      -0.191   1.121   0.014  0.00  0.00     0.125 A 
ATOM     10  N   UNL d   1      -0.516   0.484  -1.141  0.00  0.00    -0.350 N 
ATOM     11  C   UNL d   1      -1.139  -0.718  -1.087  0.00  0.00     0.106 A 
ATOM     12  HN  UNL d   1      -0.292   0.907  -2.042  1.00  0.00     0.166 HD
ATOM     13  C   UNL d   1      -1.476  -1.365   0.087  0.00  0.00     0.065 A 
ATOM     14  C   UNL d   1      -1.161  -0.714   1.277  0.00  0.00     0.045 A 
ATOM     15  C   UNL d   1      -0.509   0.523   1.250  0.00  0.00     0.078 A 
ATOM     16 CL   UNL d   1       0.002   1.137   2.788  0.00  0.00    -0.080 Cl
BRANCH  13  17
ATOM     17  C   UNL d   1      -2.108  -2.718   0.051  0.00  0.00     0.418 C 
ATOM     18  F   UNL d   1      -2.338  -3.239   1.289  0.00  0.00    -0.166 F 
ATOM     19  F   UNL d   1      -3.311  -2.719  -0.583  0.00  0.00    -0.166 F 
ATOM     20  F   UNL d   1      -1.339  -3.634  -0.598  0.00  0.00    -0.166 F 
ENDBRANCH  13  17
ENDBRANCH   1   9
BRANCH   3  21
ATOM     21  C   UNL d   1       2.795   6.811   0.510  0.00  0.00     0.113 C 
BRANCH  21  22
ATOM     22  C   UNL d   1       2.418   8.048  -0.297  0.00  0.00     0.088 C 
BRANCH  22  23
ATOM     23  S   UNL d   1       0.689   7.919  -0.895  0.00  0.00    -0.130 SA
BRANCH  23  24
ATOM     24  C   UNL d   1       0.487   9.535  -1.620  0.00  0.00     0.000 A 
ATOM     25  C   UNL d   1       1.338  10.002  -2.629  0.00  0.00     0.021 A 
ATOM     26  C   UNL d   1       1.142  11.270  -3.183  0.00  0.00     0.043 A 
ATOM     27  C   UNL d   1       0.091  12.060  -2.734  0.00  0.00     0.116 A 
ATOM     28  C   UNL d   1      -0.773  11.605  -1.745  0.00  0.00     0.043 A 
ATOM     29  F   UNL d   1      -0.098  13.274  -3.266  0.00  0.00    -0.206 F 
ATOM     30  C   UNL d   1      -0.577  10.338  -1.190  0.00  0.00     0.021 A 
ENDBRANCH  23  24
ENDBRANCH  22  23
ENDBRANCH  21  22
ENDBRANCH   3  21
TORSDOF 6
