REMARK  5 active torsions:
REMARK  status: ('A' for Active; 'I' for Inactive)
REMARK    1  A    between atoms: C_2  and  C_1 
REMARK    2  A    between atoms: O_18  and  C_3 
REMARK       I    between atoms: C_6  and  N_10 
REMARK    3  A    between atoms: O_17  and  C_6 
REMARK    4  A    between atoms: N_10  and  C_11 
REMARK    5  A    between atoms: C_19  and  O_17 
ROOT
ATOM      1  C   UNL d   1       4.717  -3.948  -2.189  0.00  0.00    -0.091 C 
ATOM      2  C   UNL d   1       4.634  -3.932  -3.387  0.00  0.00     0.014 C 
ATOM      3  C   UNL d   1       4.748  -3.928  -0.721  0.00  0.00     0.273 C 
ENDROOT
BRANCH   3   4
ATOM      4  O   UNL d   1       3.412  -3.724  -0.241  0.00  0.00    -0.292 OA
BRANCH   4   5
ATOM      5  C   UNL d   1       3.087  -2.418  -0.064  0.00  0.00     0.366 C 
ATOM      6  N   UNL d   1       1.724  -2.317   0.033  0.00  0.00    -0.301 N 
ATOM      7  H   UNL d   1       1.236  -3.201  -0.024  0.00  0.00     0.171 HD
ATOM      8  O   UNL d   1       3.902  -1.510  -0.040  0.00  0.00    -0.238 OA
BRANCH   6   9
ATOM      9  C   UNL d   1       0.972  -1.129   0.057  0.00  0.00     0.053 A 
ATOM     10  C   UNL d   1       1.539   0.141   0.065  0.00  0.00     0.051 A 
ATOM     11  C   UNL d   1       0.738   1.295   0.058  0.00  0.00     0.101 A 
ATOM     12  C   UNL d   1      -0.633   1.119   0.045  0.00  0.00     0.157 A 
ATOM     13  N   UNL d   1      -1.224  -0.101   0.039  0.00  0.00    -0.344 N 
ATOM     14  C   UNL d   1      -0.416  -1.188   0.045  0.00  0.00     0.119 A 
ATOM     15  HN  UNL d   1      -2.240  -0.196   0.029  1.00  0.00     0.167 HD
BRANCH  11  16
ATOM     16  C   UNL d   1       1.416   2.628   0.054  0.00  0.00     0.421 C 
ATOM     17  F   UNL d   1       0.608   3.720   0.102  0.00  0.00    -0.166 F 
ATOM     18  F   UNL d   1       2.268   2.762   1.114  0.00  0.00    -0.166 F 
ATOM     19  F   UNL d   1       2.195   2.798  -1.054  0.00  0.00    -0.166 F 
ENDBRANCH  11  16
BRANCH  12  20
ATOM     20  O   UNL d   1      -1.434   2.237   0.040  0.00  0.00    -0.340 OA
ATOM     21  C   UNL d   1      -2.829   1.949   0.031  0.00  0.00     0.211 C 
ENDBRANCH  12  20
ENDBRANCH   6   9
ENDBRANCH   4   5
ENDBRANCH   3   4
TORSDOF 5
