REMARK  4 active torsions:
REMARK  status: ('A' for Active; 'I' for Inactive)
REMARK    1  A    between atoms: O_14  and  C_7 
REMARK    2  A    between atoms: C_15  and  O_14 
REMARK    3  A    between atoms: C_17  and  O_19 
REMARK    4  A    between atoms: O_19  and  C_20 
ROOT
ATOM      1  C   UNL d   1      -4.969  -0.624   1.782  0.00  0.00    -0.017 C 
ATOM      2  C   UNL d   1      -7.105  -0.004  -2.017  0.00  0.00    -0.013 C 
ATOM      3  C   UNL d   1      -3.449  -0.581   1.612  0.00  0.00    -0.072 C 
ATOM      4  C   UNL d   1      -5.682  -0.515   0.398  0.00  0.00     0.003 C 
ATOM      5  C   UNL d   1      -5.580  -0.365  -2.113  0.00  0.00     0.001 C 
ATOM      6  C   UNL d   1      -5.024  -1.123  -0.855  0.00  0.00    -0.001 C 
ATOM      7  C   UNL d   1      -7.095   1.534  -1.786  0.00  0.00     0.140 C 
ATOM      8  C   UNL d   1      -2.833  -0.868   0.453  0.00  0.00    -0.023 C 
ATOM      9  C   UNL d   1      -7.897  -0.716  -0.900  0.00  0.00     0.012 C 
ATOM     10  C   UNL d   1      -3.492  -1.217  -0.839  0.00  0.00     0.033 C 
ATOM     11  C   UNL d   1      -7.148  -0.976   0.409  0.00  0.00     0.007 C 
ATOM     12  C   UNL d   1      -5.471   0.616   2.613  0.00  0.00     0.016 C 
ATOM     13  C   UNL d   1      -4.884   1.005  -2.405  0.00  0.00     0.008 C 
ATOM     14  C   UNL d   1      -2.627  -0.135   2.804  0.00  0.00     0.067 C 
ATOM     15  C   UNL d   1      -5.993   2.016  -2.713  0.00  0.00     0.034 C 
ATOM     16  C   UNL d   1      -3.133   1.218   3.318  0.00  0.00     0.136 C 
ATOM     17  C   UNL d   1      -4.580   1.038   3.780  0.00  0.00     0.034 C 
ATOM     18  C   UNL d   1      -5.341  -1.910   2.547  0.00  0.00     0.020 C 
ATOM     19  C   UNL d   1      -7.787  -0.336  -3.368  0.00  0.00     0.018 C 
ENDROOT
BRANCH   7  20
ATOM     20  O   UNL d   1      -8.410   2.097  -1.772  0.00  0.00    -0.316 OA
BRANCH  20  21
ATOM     21  C   UNL d   1      -8.759   3.176  -2.505  0.00  0.00     0.255 C 
ATOM     22  O   UNL d   1      -8.210   3.583  -3.511  0.00  0.00    -0.266 OA
ATOM     23  C   UNL d   1      -9.905   3.861  -1.812  0.00  0.00     0.126 C 
ENDBRANCH  20  21
ENDBRANCH   7  20
BRANCH  16  24
ATOM     24  O   UNL d   1      -3.051   2.142   2.202  0.00  0.00    -0.316 OA
BRANCH  24  25
ATOM     25  C   UNL d   1      -3.233   3.462   2.448  0.00  0.00     0.255 C 
ATOM     26  O   UNL d   1      -3.342   3.969   3.550  0.00  0.00    -0.266 OA
ATOM     27  C   UNL d   1      -3.398   4.206   1.152  0.00  0.00     0.126 C 
ENDBRANCH  24  25
ENDBRANCH  16  24
TORSDOF 4
