REMARK  2 active torsions:
REMARK  status: ('A' for Active; 'I' for Inactive)
REMARK    1  A    between atoms: C_9  and  N_1 
REMARK       I    between atoms: C_6  and  N_2 
REMARK    2  A    between atoms: C_12  and  C_9 
ROOT
ATOM      1  N   UNL d   1       0.925   1.175   0.216  0.00  0.00    -0.311 N 
ATOM      2  N   UNL d   1       0.267  -1.608   0.679  0.00  0.00    -0.316 N 
ATOM      3  C   UNL d   1      -0.419   0.683   0.088  0.00  0.00     0.064 A 
ATOM      4  C   UNL d   1      -0.737  -0.679   0.307  0.00  0.00     0.064 A 
ATOM      5  C   UNL d   1       2.036   0.389  -0.102  0.00  0.00     0.226 C 
ATOM      6  C   UNL d   1       0.299  -2.267   1.904  0.00  0.00     0.220 C 
ATOM      7  C   UNL d   1       1.790  -0.728  -1.085  0.00  0.00     0.123 C 
ATOM      8  C   UNL d   1       1.272  -1.933  -0.332  0.00  0.00     0.141 C 
ATOM      9  O   UNL d   1       3.168   0.578   0.345  0.00  0.00    -0.273 OA
ATOM     10  O   UNL d   1       1.058  -3.217   2.120  0.00  0.00    -0.273 OA
ATOM     11  C   UNL d   1      -1.472   1.567  -0.184  0.00  0.00     0.032 A 
ATOM     12  C   UNL d   1      -2.065  -1.129   0.231  0.00  0.00     0.032 A 
ATOM     13  C   UNL d   1      -0.562  -1.746   3.031  0.00  0.00     0.117 C 
ATOM     14  C   UNL d   1      -3.088  -0.233  -0.064  0.00  0.00     0.002 A 
ATOM     15  C   UNL d   1      -2.793   1.114  -0.267  0.00  0.00     0.002 A 
ENDROOT
BRANCH   1  16
ATOM     16  C   UNL d   1       1.151   2.394   1.002  0.00  0.00     0.170 C 
BRANCH  16  17
ATOM     17  C   UNL d   1       1.588   3.595   0.185  0.00  0.00    -0.040 A 
ATOM     18  C   UNL d   1       0.768   4.728   0.075  0.00  0.00     0.009 A 
ATOM     19  C   UNL d   1       1.194   5.851  -0.641  0.00  0.00     0.001 A 
ATOM     20  C   UNL d   1       2.445   5.856  -1.258  0.00  0.00     0.000 A 
ATOM     21  C   UNL d   1       3.271   4.745  -1.153  0.00  0.00     0.001 A 
ATOM     22  C   UNL d   1       2.850   3.628  -0.431  0.00  0.00     0.009 A 
ENDBRANCH  16  17
ENDBRANCH   1  16
TORSDOF 2
