REMARK  21 active torsions:
REMARK  status: ('A' for Active; 'I' for Inactive)
REMARK    1  A    between atoms: C_1  and  O_14 
REMARK    2  A    between atoms: C_2  and  O_15 
REMARK    3  A    between atoms: C_3  and  O_16 
REMARK    4  A    between atoms: C_4  and  O_17 
REMARK    5  A    between atoms: C_5  and  O_13 
REMARK    6  A    between atoms: C_6  and  O_18 
REMARK    7  A    between atoms: C_7  and  O_19 
REMARK    8  A    between atoms: C_8  and  O_22 
REMARK    9  A    between atoms: C_11  and  C_31 
REMARK   10  A    between atoms: C_12  and  C_32 
REMARK   11  A    between atoms: C_23  and  O_13 
REMARK   12  A    between atoms: C_26  and  O_14 
REMARK   13  A    between atoms: C_24  and  O_15 
REMARK   14  A    between atoms: C_27  and  O_16 
REMARK   15  A    between atoms: C_25  and  O_17 
REMARK   16  A    between atoms: C_28  and  O_18 
REMARK   17  A    between atoms: C_29  and  O_19 
REMARK   18  A    between atoms: O_22  and  C_31 
REMARK   19  A    between atoms: C_41  and  C_23 
REMARK   20  A    between atoms: C_30  and  O_33 
REMARK   21  A    between atoms: O_33  and  C_32 
ROOT
ATOM      1  N   UNL d   1       0.722   6.374  -9.007  0.00  0.00    -0.194 NA
ATOM      2  C   UNL d   1      -0.426   6.305  -8.824  0.00  0.00     0.096 C 
ATOM      3  C   UNL d   1      -1.868   6.290  -8.502  0.00  0.00     0.264 C 
ENDROOT
BRANCH   3   4
ATOM      4  O   UNL d   1      -2.133   5.738  -7.205  0.00  0.00    -0.334 OA
BRANCH   4   5
ATOM      5  C   UNL d   1      -1.527   6.418  -6.093  0.00  0.00     0.294 C 
ATOM      6  C   UNL d   1      -2.053   7.868  -5.910  0.00  0.00     0.219 C 
ATOM      7  C   UNL d   1      -1.562   8.418  -4.565  0.00  0.00     0.198 C 
ATOM      8  C   UNL d   1      -1.813   7.484  -3.382  0.00  0.00     0.195 C 
ATOM      9  C   UNL d   1      -1.337   6.069  -3.696  0.00  0.00     0.180 C 
ATOM     10  O   UNL d   1      -1.814   5.608  -4.958  0.00  0.00    -0.348 OA
BRANCH   6  11
ATOM     11  O   UNL d   1      -1.482   8.705  -6.960  0.00  0.00    -0.308 OA
BRANCH  11  12
ATOM     12  C   UNL d   1      -2.196   9.789  -7.370  0.00  0.00     0.255 C 
ATOM     13  O   UNL d   1      -3.254  10.176  -6.897  0.00  0.00    -0.266 OA
ATOM     14  C   UNL d   1      -1.508  10.444  -8.526  0.00  0.00     0.126 C 
ENDBRANCH  11  12
ENDBRANCH   6  11
BRANCH   7  15
ATOM     15  O   UNL d   1      -2.073   9.742  -4.272  0.00  0.00    -0.311 OA
BRANCH  15  16
ATOM     16  C   UNL d   1      -3.423   9.877  -4.114  0.00  0.00     0.255 C 
ATOM     17  O   UNL d   1      -4.248   8.987  -4.226  0.00  0.00    -0.266 OA
ATOM     18  C   UNL d   1      -3.744  11.290  -3.731  0.00  0.00     0.126 C 
ENDBRANCH  15  16
ENDBRANCH   7  15
BRANCH   8  19
ATOM     19  O   UNL d   1      -1.064   7.977  -2.246  0.00  0.00    -0.311 OA
BRANCH  19  20
ATOM     20  C   UNL d   1      -1.797   8.482  -1.217  0.00  0.00     0.255 C 
ATOM     21  O   UNL d   1      -3.016   8.547  -1.172  0.00  0.00    -0.266 OA
ATOM     22  C   UNL d   1      -0.912   8.999  -0.127  0.00  0.00     0.126 C 
ENDBRANCH  19  20
ENDBRANCH   8  19
BRANCH   9  23
ATOM     23  C   UNL d   1      -1.835   5.133  -2.564  0.00  0.00     0.205 C 
BRANCH  23  24
ATOM     24  O   UNL d   1      -3.258   5.085  -2.385  0.00  0.00    -0.356 OA
BRANCH  24  25
ATOM     25  C   UNL d   1      -4.046   4.675  -3.515  0.00  0.00     0.292 C 
ATOM     26  C   UNL d   1      -3.774   3.209  -3.916  0.00  0.00     0.219 C 
ATOM     27  C   UNL d   1      -4.726   2.787  -5.048  0.00  0.00     0.198 C 
ATOM     28  C   UNL d   1      -6.178   3.275  -4.903  0.00  0.00     0.195 C 
ATOM     29  C   UNL d   1      -6.274   4.702  -4.347  0.00  0.00     0.181 C 
ATOM     30  O   UNL d   1      -5.438   4.817  -3.176  0.00  0.00    -0.348 OA
BRANCH  26  31
ATOM     31  O   UNL d   1      -2.421   3.047  -4.423  0.00  0.00    -0.308 OA
BRANCH  31  32
ATOM     32  C   UNL d   1      -1.776   1.877  -4.194  0.00  0.00     0.255 C 
ATOM     33  O   UNL d   1      -2.245   0.890  -3.649  0.00  0.00    -0.266 OA
ATOM     34  C   UNL d   1      -0.378   1.957  -4.728  0.00  0.00     0.126 C 
ENDBRANCH  31  32
ENDBRANCH  26  31
BRANCH  27  35
ATOM     35  O   UNL d   1      -4.694   1.347  -5.258  0.00  0.00    -0.311 OA
BRANCH  35  36
ATOM     36  C   UNL d   1      -5.082   0.557  -4.216  0.00  0.00     0.255 C 
ATOM     37  O   UNL d   1      -5.512   0.949  -3.144  0.00  0.00    -0.266 OA
ATOM     38  C   UNL d   1      -4.992  -0.883  -4.598  0.00  0.00     0.126 C 
ENDBRANCH  35  36
ENDBRANCH  27  35
BRANCH  28  39
ATOM     39  O   UNL d   1      -6.961   3.054  -6.112  0.00  0.00    -0.311 OA
BRANCH  39  40
ATOM     40  C   UNL d   1      -6.638   3.732  -7.246  0.00  0.00     0.255 C 
ATOM     41  O   UNL d   1      -5.727   4.540  -7.341  0.00  0.00    -0.266 OA
ATOM     42  C   UNL d   1      -7.577   3.373  -8.362  0.00  0.00     0.126 C 
ENDBRANCH  39  40
ENDBRANCH  28  39
BRANCH  29  43
ATOM     43  C   UNL d   1      -7.734   4.988  -3.954  0.00  0.00     0.213 C 
BRANCH  43  44
ATOM     44  O   UNL d   1      -7.894   6.327  -3.462  0.00  0.00    -0.319 OA
BRANCH  44  45
ATOM     45  C   UNL d   1      -7.991   7.291  -4.414  0.00  0.00     0.254 C 
ATOM     46  O   UNL d   1      -7.994   7.091  -5.621  0.00  0.00    -0.266 OA
ATOM     47  C   UNL d   1      -8.130   8.640  -3.780  0.00  0.00     0.126 C 
ENDBRANCH  44  45
ENDBRANCH  43  44
ENDBRANCH  29  43
ENDBRANCH  24  25
ENDBRANCH  23  24
ENDBRANCH   9  23
ENDBRANCH   4   5
ENDBRANCH   3   4
BRANCH   3  48
ATOM     48  C   UNL d   1      -2.670   5.564  -9.564  0.00  0.00    -0.016 A 
ATOM     49  C   UNL d   1      -2.797   4.170  -9.565  0.00  0.00     0.011 A 
ATOM     50  C   UNL d   1      -3.574   3.538 -10.537  0.00  0.00     0.001 A 
ATOM     51  C   UNL d   1      -4.222   4.289 -11.518  0.00  0.00     0.000 A 
ATOM     52  C   UNL d   1      -4.079   5.673 -11.545  0.00  0.00     0.001 A 
ATOM     53  C   UNL d   1      -3.301   6.308 -10.579  0.00  0.00     0.011 A 
ENDBRANCH   3  48
TORSDOF 21
