REMARK  5 active torsions:
REMARK  status: ('A' for Active; 'I' for Inactive)
REMARK    1  A    between atoms: C_4  and  C_1 
REMARK    2  A    between atoms: O_13  and  C_2 
REMARK       I    between atoms: N_8  and  C_4 
REMARK       I    between atoms: C_7  and  N_9 
REMARK    3  A    between atoms: C_10  and  C_7 
REMARK    4  A    between atoms: N_9  and  N_8 
REMARK    5  A    between atoms: O_20  and  C_17 
ROOT
ATOM      1  C   UNL d   1       2.834  -2.259  -0.484  0.00  0.00     0.279 C 
ATOM      2  N   UNL d   1       2.675  -3.601  -0.176  0.00  0.00    -0.262 N 
ATOM      3  O   UNL d   1       1.865  -1.498  -0.423  0.00  0.00    -0.265 OA
ATOM      4  H   UNL d   1       3.409  -4.291  -0.317  0.00  0.00     0.190 HD
ENDROOT
BRANCH   2   5
ATOM      5  N   UNL d   1       1.419  -4.071   0.215  0.00  0.00    -0.263 N 
ATOM      6  C   UNL d   1       1.096  -5.385  -0.058  0.00  0.00     0.270 C 
ATOM      7  O   UNL d   1       1.864  -6.179  -0.588  0.00  0.00    -0.266 OA
ATOM      8  H   UNL d   1       0.708  -3.358   0.380  0.00  0.00     0.190 HD
BRANCH   6   9
ATOM      9  C   UNL d   1      -0.281  -5.792   0.329  0.00  0.00     0.033 A 
ATOM     10  C   UNL d   1      -0.970  -6.718  -0.461  0.00  0.00     0.020 A 
ATOM     11  C   UNL d   1      -2.263  -7.122  -0.105  0.00  0.00     0.038 A 
ATOM     12  C   UNL d   1      -2.862  -6.613   1.048  0.00  0.00     0.068 A 
ATOM     13  C   UNL d   1      -2.155  -5.719   1.856  0.00  0.00     0.038 A 
ATOM     14  C   UNL d   1      -0.873  -5.299   1.498  0.00  0.00     0.020 A 
BRANCH  12  15
ATOM     15  O   UNL d   1      -4.104  -6.949   1.512  0.00  0.00    -0.356 OA
ATOM     16  C   UNL d   1      -5.045  -7.351   0.523  0.00  0.00     0.210 C 
ENDBRANCH  12  15
ENDBRANCH   6   9
ENDBRANCH   2   5
BRANCH   1  17
ATOM     17  C   UNL d   1       4.189  -1.852  -0.855  0.00  0.00     0.108 A 
ATOM     18  C   UNL d   1       4.584  -0.725  -1.571  0.00  0.00     0.108 A 
ATOM     19  C   UNL d   1       6.016  -0.655  -1.661  0.00  0.00     0.052 A 
ATOM     20 BR   UNL d   1       7.078   0.670  -2.504  0.00  0.00    -0.048 Br
ATOM     21  C   UNL d   1       6.642  -1.706  -1.031  0.00  0.00     0.072 A 
ATOM     22  S   UNL d   1       5.532  -2.793  -0.343  0.00  0.00    -0.092 SA
BRANCH  18  23
ATOM     23  O   UNL d   1       3.591   0.077  -2.042  0.00  0.00    -0.353 OA
ATOM     24  C   UNL d   1       3.942   1.192  -2.835  0.00  0.00     0.210 C 
ENDBRANCH  18  23
ENDBRANCH   1  17
TORSDOF 5
