REMARK  3 active torsions:
REMARK  status: ('A' for Active; 'I' for Inactive)
REMARK       I    between atoms: C_2  and  N_1 
REMARK       I    between atoms: C_3  and  N_1 
REMARK    1  A    between atoms: C_4  and  C_2 
REMARK    2  A    between atoms: O_9  and  C_3 
REMARK    3  A    between atoms: C_14  and  O_9 
ROOT
ATOM      1  N   UNL d   1       1.092   0.192  -0.204  0.00  0.00    -0.267 N 
ATOM      2  C   UNL d   1       0.171   0.325   0.810  0.00  0.00     0.283 C 
ATOM      3  C   UNL d   1       2.460   0.336  -0.107  0.00  0.00     0.372 C 
ATOM      4  O   UNL d   1       3.183   0.159  -1.083  0.00  0.00    -0.238 OA
ATOM      5  O   UNL d   1       0.419   0.625   1.973  0.00  0.00    -0.265 OA
ATOM      6  H   UNL d   1       0.772  -0.070  -1.127  0.00  0.00     0.174 HD
ENDROOT
BRANCH   2   7
ATOM      7  C   UNL d   1      -1.239   0.061   0.378  0.00  0.00     0.147 A 
ATOM      8  O   UNL d   1      -1.492  -0.265  -0.975  0.00  0.00    -0.270 OA
ATOM      9  C   UNL d   1      -2.775  -0.512  -1.389  0.00  0.00     0.288 A 
ATOM     10  O   UNL d   1      -3.042  -0.771  -2.556  0.00  0.00    -0.260 OA
ATOM     11  C   UNL d   1      -3.845  -0.464  -0.374  0.00  0.00     0.082 A 
ATOM     12  C   UNL d   1      -3.570  -0.149   0.895  0.00  0.00     0.009 A 
ATOM     13  C   UNL d   1      -2.221   0.135   1.288  0.00  0.00     0.043 A 
ENDBRANCH   2   7
BRANCH   3  14
ATOM     14  O   UNL d   1       2.892   0.665   1.172  0.00  0.00    -0.261 OA
BRANCH  14  15
ATOM     15  C   UNL d   1       4.231   0.871   1.571  0.00  0.00     0.081 A 
ATOM     16  C   UNL d   1       5.223   1.376   0.737  0.00  0.00     0.037 A 
ATOM     17  C   UNL d   1       6.500   1.599   1.260  0.00  0.00     0.003 A 
ATOM     18  C   UNL d   1       6.771   1.325   2.603  0.00  0.00     0.000 A 
ATOM     19  C   UNL d   1       5.766   0.831   3.433  0.00  0.00     0.003 A 
ATOM     20  C   UNL d   1       4.491   0.608   2.918  0.00  0.00     0.037 A 
ENDBRANCH  14  15
ENDBRANCH   3  14
TORSDOF 3
