REMARK  2 active torsions:
REMARK  status: ('A' for Active; 'I' for Inactive)
REMARK    1  A    between atoms: N_10  and  C_3 
REMARK    2  A    between atoms: C_9  and  C_4 
ROOT
ATOM      1  N   UNL d   1      -1.671   1.299   0.012  0.00  0.00    -0.327 N 
ATOM      2  HN  UNL d   1      -2.233   2.150   0.001  1.00  0.00     0.169 HD
ATOM      3  C   UNL d   1      -0.322   1.361  -0.110  0.00  0.00     0.128 A 
ATOM      4  C   UNL d   1      -2.254   0.093   0.148  0.00  0.00     0.118 A 
ATOM      5  C   UNL d   1       0.447   0.187  -0.095  0.00  0.00     0.100 A 
ATOM      6  N   UNL d   1      -1.582  -1.069   0.191  0.00  0.00    -0.344 N 
ATOM      7  HN  UNL d   1      -2.067  -1.958   0.317  1.00  0.00     0.167 HD
ATOM      8  C   UNL d   1      -0.239  -1.013   0.059  0.00  0.00     0.032 A 
ATOM      9 CL   UNL d   1       2.158   0.173  -0.376  0.00  0.00    -0.078 Cl
ATOM     10  C   UNL d   1       0.458  -2.343   0.056  0.00  0.00     0.070 C 
ENDROOT
BRANCH   4  11
ATOM     11  C   UNL d   1      -3.719   0.024   0.210  0.00  0.00     0.023 A 
ATOM     12  C   UNL d   1      -4.521   1.165   0.133  0.00  0.00     0.102 A 
ATOM     13  N   UNL d   1      -5.880   1.174   0.176  0.00  0.00    -0.374 N 
ATOM     14  C   UNL d   1      -6.491  -0.021   0.302  0.00  0.00     0.087 A 
ATOM     15  HN  UNL d   1      -6.411   2.043   0.116  1.00  0.00     0.164 HD
ATOM     16  C   UNL d   1      -5.807  -1.224   0.385  0.00  0.00     0.018 A 
ATOM     17  C   UNL d   1      -4.415  -1.189   0.341  0.00  0.00     0.018 A 
ENDBRANCH   4  11
BRANCH   3  18
ATOM     18  N   UNL d   1       0.252   2.621  -0.359  0.00  0.00    -0.374 N 
ATOM     19  C   UNL d   1      -0.677   3.654  -0.816  0.00  0.00     0.150 C 
ATOM     20  C   UNL d   1       1.241   3.101   0.608  0.00  0.00     0.150 C 
ENDBRANCH   3  18
TORSDOF 2
