REMARK  5 active torsions:
REMARK  status: ('A' for Active; 'I' for Inactive)
REMARK    1  A    between atoms: C_11  and  C_1 
REMARK    2  A    between atoms: N_14  and  C_3 
REMARK    3  A    between atoms: S_17  and  C_6 
REMARK    4  A    between atoms: N_18  and  C_10 
REMARK    5  A    between atoms: C_16  and  C_11 
ROOT
ATOM      1  C   UNL d   1      -2.303  -0.712  -0.056  0.00  0.00     0.085 C 
ATOM      2  C   UNL d   1      -0.272   0.526  -0.002  0.00  0.00     0.044 A 
ATOM      3  C   UNL d   1      -1.726   0.549   0.006  0.00  0.00     0.061 C 
ATOM      4  C   UNL d   1       0.145  -0.796  -0.090  0.00  0.00     0.090 A 
ATOM      5  S   UNL d   1      -1.109  -1.907  -0.321  0.00  0.00    -0.065 SA
ATOM      6  C   UNL d   1       0.778   1.496   0.065  0.00  0.00     0.039 A 
ATOM      7  C   UNL d   1       2.113   1.031   0.091  0.00  0.00     0.100 A 
ATOM      8  N   UNL d   1       1.402  -1.263  -0.040  0.00  0.00    -0.339 N 
ATOM      9  HN  UNL d   1       1.612  -2.261  -0.082  1.00  0.00     0.167 HD
ATOM     10  C   UNL d   1       2.358  -0.341   0.067  0.00  0.00     0.101 A 
ATOM     11  C   UNL d   1       3.237   1.921   0.100  0.00  0.00     0.104 C 
ATOM     12  N   UNL d   1       4.163   2.616   0.095  0.00  0.00    -0.191 NA
ENDROOT
BRANCH   6  13
ATOM     13  S   UNL d   1       0.329   3.229  -0.029  0.00  0.00    -0.132 SA
ATOM     14  C   UNL d   1       0.987   3.889   1.534  0.00  0.00     0.095 C 
ENDBRANCH   6  13
BRANCH  10  15
ATOM     15  N   UNL d   1       3.634  -0.888   0.210  0.00  0.00    -0.287 NA
ATOM     16  H   UNL d   1       3.546  -1.899   0.119  0.00  0.00     0.125 HD
ATOM     17  H   UNL d   1       4.322  -0.512  -0.433  0.00  0.00     0.125 HD
ENDBRANCH  10  15
BRANCH   3  18
ATOM     18  N   UNL d   1      -2.465   1.677   0.127  0.00  0.00    -0.397 N 
ATOM     19  H   UNL d   1      -2.043   2.592  -0.032  0.00  0.00     0.156 HD
ATOM     20  H   UNL d   1      -3.465   1.662  -0.085  0.00  0.00     0.156 HD
ENDBRANCH   3  18
BRANCH   1  21
ATOM     21  C   UNL d   1      -3.713  -1.092  -0.007  0.00  0.00     0.201 C 
ATOM     22  O   UNL d   1      -4.614  -0.371  -0.439  0.00  0.00    -0.286 OA
BRANCH  21  23
ATOM     23  C   UNL d   1      -4.116  -2.396   0.618  0.00  0.00     0.015 A 
ATOM     24  C   UNL d   1      -5.194  -3.113   0.081  0.00  0.00     0.015 A 
ATOM     25  C   UNL d   1      -5.579  -4.332   0.649  0.00  0.00     0.001 A 
ATOM     26  C   UNL d   1      -4.896  -4.838   1.756  0.00  0.00     0.000 A 
ATOM     27  C   UNL d   1      -3.833  -4.124   2.304  0.00  0.00     0.001 A 
ATOM     28  C   UNL d   1      -3.454  -2.900   1.749  0.00  0.00     0.015 A 
ENDBRANCH  21  23
ENDBRANCH   1  21
TORSDOF 5
