REMARK  6 active torsions:
REMARK  status: ('A' for Active; 'I' for Inactive)
REMARK    1  A    between atoms: N_6  and  C_1 
REMARK    2  A    between atoms: C_2  and  C_3 
REMARK       I    between atoms: C_9  and  N_7 
REMARK    3  A    between atoms: C_12  and  C_9 
REMARK    4  A    between atoms: C_24  and  C_12 
REMARK    5  A    between atoms: C_21  and  S_23 
REMARK    6  A    between atoms: S_23  and  C_24 
ROOT
ATOM      1  N   UNL d   1       0.672   2.181  -0.158  0.00  0.00    -0.363 N 
ATOM      2  N   UNL d   1       2.475   4.360  -0.075  0.00  0.00    -0.349 N 
ATOM      3  C   UNL d   1       3.073   5.564  -0.390  0.00  0.00     0.220 C 
ATOM      4  C   UNL d   1       1.366   2.600  -1.387  0.00  0.00     0.144 C 
ATOM      5  C   UNL d   1       0.309   3.330   0.695  0.00  0.00     0.144 C 
ATOM      6  C   UNL d   1       2.711   3.207  -0.959  0.00  0.00     0.145 C 
ATOM      7  C   UNL d   1       1.613   4.069   1.093  0.00  0.00     0.145 C 
ATOM      8  O   UNL d   1       3.901   5.653  -1.298  0.00  0.00    -0.273 OA
ENDROOT
BRANCH   1   9
ATOM      9  C   UNL d   1      -0.121   1.052  -0.148  0.00  0.00     0.125 A 
ATOM     10  N   UNL d   1      -1.367   1.163   0.380  0.00  0.00    -0.350 N 
ATOM     11  C   UNL d   1      -2.153   0.063   0.462  0.00  0.00     0.106 A 
ATOM     12  HN  UNL d   1      -1.708   2.065   0.712  1.00  0.00     0.166 HD
ATOM     13  C   UNL d   1      -1.777  -1.196   0.024  0.00  0.00     0.065 A 
ATOM     14  C   UNL d   1      -0.498  -1.322  -0.503  0.00  0.00     0.045 A 
ATOM     15  C   UNL d   1       0.343  -0.212  -0.575  0.00  0.00     0.078 A 
ATOM     16 CL   UNL d   1       1.978  -0.532  -1.058  0.00  0.00    -0.080 Cl
BRANCH  13  17
ATOM     17  C   UNL d   1      -2.703  -2.361   0.171  0.00  0.00     0.418 C 
ATOM     18  F   UNL d   1      -2.227  -3.505  -0.392  0.00  0.00    -0.166 F 
ATOM     19  F   UNL d   1      -2.956  -2.662   1.473  0.00  0.00    -0.166 F 
ATOM     20  F   UNL d   1      -3.917  -2.139  -0.406  0.00  0.00    -0.166 F 
ENDBRANCH  13  17
ENDBRANCH   1   9
BRANCH   3  21
ATOM     21  C   UNL d   1       2.707   6.770   0.454  0.00  0.00     0.113 C 
BRANCH  21  22
ATOM     22  C   UNL d   1       3.056   8.087  -0.238  0.00  0.00     0.084 C 
BRANCH  22  23
ATOM     23  S   UNL d   1       1.845   8.455  -1.567  0.00  0.00    -0.160 SA
BRANCH  23  24
ATOM     24  C   UNL d   1       2.428  10.100  -2.179  0.00  0.00    -0.003 C 
ATOM     25  C   UNL d   1       3.859  10.017  -2.724  0.00  0.00     0.026 C 
ATOM     26  C   UNL d   1       1.483  10.503  -3.323  0.00  0.00     0.026 C 
ATOM     27  C   UNL d   1       2.332  11.144  -1.061  0.00  0.00     0.026 C 
ENDBRANCH  23  24
ENDBRANCH  22  23
ENDBRANCH  21  22
ENDBRANCH   3  21
TORSDOF 6
