REMARK  4 active torsions:
REMARK  status: ('A' for Active; 'I' for Inactive)
REMARK    1  A    between atoms: N_10  and  C_2 
REMARK    2  A    between atoms: C_6  and  C_5 
REMARK    3  A    between atoms: C_7  and  C_6 
REMARK       I    between atoms: N_12  and  C_7 
REMARK    4  A    between atoms: C_13  and  N_12 
ROOT
ATOM      1  C   UNL d   1      -2.892  -2.154  -1.391  0.00  0.00     0.223 C 
ATOM      2  N   UNL d   1      -3.478  -1.497  -0.323  0.00  0.00    -0.327 N 
ATOM      3  O   UNL d   1      -3.492  -2.714  -2.306  0.00  0.00    -0.273 OA
ATOM      4  H   UNL d   1      -2.884  -0.892   0.243  0.00  0.00     0.169 HD
ENDROOT
BRANCH   1   5
ATOM      5  C   UNL d   1      -1.379  -2.163  -1.376  0.00  0.00     0.128 C 
BRANCH   5   6
ATOM      6  C   UNL d   1      -0.706  -0.958  -2.005  0.00  0.00     0.156 C 
ATOM      7  C   UNL d   1      -0.931   0.336  -1.258  0.00  0.00     0.238 C 
ATOM      8  N   UNL d   1      -0.743   1.411  -2.087  0.00  0.00    -0.307 N 
ATOM      9  O   UNL d   1      -1.235   0.424  -0.073  0.00  0.00    -0.272 OA
ATOM     10  C   UNL d   1      -0.808   1.155  -3.410  0.00  0.00     0.141 C 
ATOM     11  H   UNL d   1      -0.787   2.349  -1.718  0.00  0.00     0.171 HD
ATOM     12  S   UNL d   1      -1.084  -0.524  -3.732  0.00  0.00    -0.079 SA
BRANCH  10  13
ATOM     13  N   UNL d   1      -0.683   2.048  -4.316  0.00  0.00    -0.380 N 
ATOM     14  H   UNL d   1      -0.507   2.967  -3.909  0.00  0.00     0.158 HD
ATOM     15  HN  UNL d   1      -0.750   1.865  -5.317  1.00  0.00     0.158 HD
ENDBRANCH  10  13
ENDBRANCH   5   6
ENDBRANCH   1   5
BRANCH   2  16
ATOM     16  C   UNL d   1      -4.868  -1.463  -0.048  0.00  0.00     0.037 A 
ATOM     17  C   UNL d   1      -5.788  -2.324  -0.657  0.00  0.00     0.075 A 
ATOM     18  C   UNL d   1      -7.153  -2.178  -0.418  0.00  0.00     0.157 A 
ATOM     19  F   UNL d   1      -8.019  -2.994  -1.034  0.00  0.00    -0.203 F 
ATOM     20  C   UNL d   1      -7.613  -1.192   0.441  0.00  0.00     0.154 A 
ATOM     21  C   UNL d   1      -6.711  -0.369   1.106  0.00  0.00     0.048 A 
ATOM     22  F   UNL d   1      -8.928  -1.026   0.637  0.00  0.00    -0.203 F 
ATOM     23  C   UNL d   1      -5.337  -0.514   0.872  0.00  0.00     0.032 A 
ENDBRANCH   2  16
TORSDOF 4
