REMARK  3 active torsions:
REMARK  status: ('A' for Active; 'I' for Inactive)
REMARK    1  A    between atoms: C_9  and  C_3 
REMARK    2  A    between atoms: C_10  and  C_5 
REMARK    3  A    between atoms: O_22  and  C_16 
ROOT
ATOM      1  N   UNL d   1      -0.456   1.635  -0.773  0.00  0.00    -0.358 N 
ATOM      2  HN  UNL d   1      -0.267   2.220  -1.587  1.00  0.00     0.166 HD
ATOM      3  C   UNL d   1      -1.604   1.727  -0.173  0.00  0.00     0.021 C 
ATOM      4  S   UNL d   1      -1.204  -1.478  -0.447  0.00  0.00    -0.118 SA
ATOM      5  C   UNL d   1      -2.375  -0.543   0.635  0.00  0.00     0.091 C 
ATOM      6  C   UNL d   1      -1.977   0.882   1.033  0.00  0.00     0.078 C 
ATOM      7  C   UNL d   1       0.538   0.739  -0.317  0.00  0.00     0.049 A 
ATOM      8  C   UNL d   1       0.344  -0.647  -0.140  0.00  0.00     0.028 A 
ATOM      9  C   UNL d   1       1.818   1.268  -0.111  0.00  0.00     0.031 A 
ATOM     10  C   UNL d   1       1.425  -1.461   0.233  0.00  0.00     0.021 A 
ATOM     11  C   UNL d   1       2.886   0.453   0.273  0.00  0.00     0.002 A 
ATOM     12  C   UNL d   1       2.689  -0.913   0.442  0.00  0.00     0.002 A 
ENDROOT
BRANCH   3  13
ATOM     13  C   UNL d   1      -2.633   2.659  -0.738  0.00  0.00    -0.013 A 
ATOM     14  C   UNL d   1      -2.639   2.878  -2.122  0.00  0.00     0.016 A 
ATOM     15  C   UNL d   1      -3.660   3.628  -2.710  0.00  0.00     0.037 A 
ATOM     16  C   UNL d   1      -4.661   4.169  -1.913  0.00  0.00     0.065 A 
ATOM     17  C   UNL d   1      -4.637   4.011  -0.532  0.00  0.00     0.037 A 
ATOM     18  C   UNL d   1      -3.615   3.261   0.058  0.00  0.00     0.016 A 
BRANCH  16  19
ATOM     19  O   UNL d   1      -5.665   4.854  -2.531  0.00  0.00    -0.361 OA
ATOM     20  H   UNL d   1      -6.333   5.094  -1.868  0.00  0.00     0.217 HD
ENDBRANCH  16  19
ENDBRANCH   3  13
BRANCH   5  21
ATOM     21  C   UNL d   1      -3.800  -0.637   0.088  0.00  0.00    -0.044 A 
ATOM     22  C   UNL d   1      -4.093  -0.477  -1.279  0.00  0.00     0.010 A 
ATOM     23  C   UNL d   1      -5.387  -0.673  -1.766  0.00  0.00     0.024 A 
ATOM     24  C   UNL d   1      -6.411  -1.010  -0.889  0.00  0.00     0.034 A 
ATOM     25  C   UNL d   1      -6.158  -1.117   0.477  0.00  0.00     0.024 A 
ATOM     26 CL   UNL d   1      -7.992  -1.315  -1.494  0.00  0.00    -0.084 Cl
ATOM     27  C   UNL d   1      -4.862  -0.924   0.964  0.00  0.00     0.010 A 
ENDBRANCH   5  21
TORSDOF 3
