REMARK  9 active torsions:
REMARK  status: ('A' for Active; 'I' for Inactive)
REMARK    1  A    between atoms: N_2  and  C_1 
REMARK    2  A    between atoms: C_4  and  C_1 
REMARK    3  A    between atoms: C_5  and  C_1 
REMARK    4  A    between atoms: C_3  and  N_2 
REMARK    5  A    between atoms: S_9  and  C_3 
REMARK    6  A    between atoms: O_10  and  C_4 
REMARK    7  A    between atoms: O_11  and  C_5 
REMARK    8  A    between atoms: C_14  and  O_10 
REMARK    9  A    between atoms: C_13  and  O_11 
ROOT
ATOM      1  C   UNL d   1       1.052   0.060  -0.074  0.00  0.00     0.284 C 
ENDROOT
BRANCH   1   2
ATOM      2  N   UNL d   1       0.530   1.378  -0.491  0.00  0.00    -0.354 N 
ATOM      3  H   UNL d   1       1.024   1.837  -1.252  0.00  0.00     0.162 HD
BRANCH   2   4
ATOM      4  C   UNL d   1      -0.593   2.010  -0.038  0.00  0.00     0.135 C 
ATOM      5  S   UNL d   1      -1.593   1.455   1.173  0.00  0.00    -0.053 SA
BRANCH   4   6
ATOM      6  S   UNL d   1      -0.743   3.520  -0.916  0.00  0.00    -0.105 SA
ATOM      7  C   UNL d   1      -2.520   3.837  -0.875  0.00  0.00     0.098 C 
ENDBRANCH   4   6
ENDBRANCH   2   4
ENDBRANCH   1   2
BRANCH   1   8
ATOM      8  C   UNL d   1       0.530  -1.122  -0.892  0.00  0.00     0.291 C 
ATOM      9  O   UNL d   1       0.934  -2.273  -0.750  0.00  0.00    -0.262 OA
BRANCH   8  10
ATOM     10  O   UNL d   1      -0.391  -0.747  -1.825  0.00  0.00    -0.320 OA
BRANCH  10  11
ATOM     11  C   UNL d   1      -0.727  -1.748  -2.798  0.00  0.00     0.174 C 
ATOM     12  C   UNL d   1       0.207  -1.593  -3.985  0.00  0.00     0.034 C 
ENDBRANCH  10  11
ENDBRANCH   8  10
ENDBRANCH   1   8
BRANCH   1  13
ATOM     13  C   UNL d   1       2.564   0.080  -0.216  0.00  0.00     0.291 C 
ATOM     14  O   UNL d   1       3.164   0.719  -1.078  0.00  0.00    -0.262 OA
BRANCH  13  15
ATOM     15  O   UNL d   1       3.137  -0.787   0.664  0.00  0.00    -0.320 OA
BRANCH  15  16
ATOM     16  C   UNL d   1       4.467  -1.211   0.340  0.00  0.00     0.174 C 
ATOM     17  C   UNL d   1       4.379  -2.388  -0.617  0.00  0.00     0.034 C 
ENDBRANCH  15  16
ENDBRANCH  13  15
ENDBRANCH   1  13
TORSDOF 9
