REMARK  3 active torsions:
REMARK  status: ('A' for Active; 'I' for Inactive)
REMARK    1  A    between atoms: N_11  and  C_1 
REMARK    2  A    between atoms: N_14  and  N_11 
REMARK    3  A    between atoms: O_16  and  C_13 
ROOT
ATOM      1  C   UNL d   1       2.359   0.688   0.117  0.00  0.00     0.186 A 
ATOM      2  N   UNL d   1       1.216   1.397   0.063  0.00  0.00    -0.329 N 
ATOM      3  HN  UNL d   1       1.220   2.417   0.048  1.00  0.00     0.168 HD
ATOM      4  N   UNL d   1       1.214  -1.365   0.115  0.00  0.00    -0.296 N 
ATOM      5  HN  UNL d   1       1.226  -2.384   0.139  1.00  0.00     0.187 HD
ATOM      6  N   UNL d   1       2.385  -0.660   0.138  0.00  0.00    -0.274 N 
ATOM      7  HN  UNL d   1       3.277  -1.153   0.170  1.00  0.00     0.189 HD
ATOM      8  C   UNL d   1       0.050  -0.704   0.063  0.00  0.00     0.077 A 
ATOM      9  C   UNL d   1       0.073   0.697   0.029  0.00  0.00     0.063 A 
ATOM     10  C   UNL d   1      -1.170  -1.375   0.041  0.00  0.00     0.070 A 
ATOM     11  C   UNL d   1      -1.134   1.380  -0.041  0.00  0.00     0.035 A 
ATOM     12  C   UNL d   1      -2.381  -0.682  -0.023  0.00  0.00     0.070 A 
ATOM     13  C   UNL d   1      -2.358   0.706  -0.071  0.00  0.00     0.039 A 
ENDROOT
BRANCH   1  14
ATOM     14  N   UNL d   1       3.589   1.380   0.166  0.00  0.00    -0.198 NA
ATOM     15  H   UNL d   1       4.303   0.723   0.482  0.00  0.00     0.149 HD
BRANCH  14  16
ATOM     16  N   UNL d   1       3.607   2.683   0.736  0.00  0.00    -0.264 NA
ATOM     17  H   UNL d   1       2.637   3.022   0.800  0.00  0.00     0.137 HD
ATOM     18  H   UNL d   1       4.054   3.327   0.078  0.00  0.00     0.137 HD
ENDBRANCH  14  16
ENDBRANCH   1  14
BRANCH  12  19
ATOM     19  O   UNL d   1      -3.495  -1.470  -0.030  0.00  0.00    -0.356 OA
ATOM     20  C   UNL d   1      -4.753  -0.808  -0.101  0.00  0.00     0.210 C 
ENDBRANCH  12  19
TORSDOF 3
