REMARK  3 active torsions:
REMARK  status: ('A' for Active; 'I' for Inactive)
REMARK    1  A    between atoms: C_7  and  C_1 
REMARK       I    between atoms: N_11  and  C_7 
REMARK    2  A    between atoms: C_8  and  C_13 
REMARK    3  A    between atoms: C_13  and  N_11 
ROOT
ATOM      1  C   UNL d   1      -3.007  -0.757  -0.073  0.00  0.00     0.269 C 
ATOM      2  N   UNL d   1      -3.545  -2.026  -0.036  0.00  0.00    -0.351 N 
ATOM      3  O   UNL d   1      -1.801  -0.537  -0.061  0.00  0.00    -0.266 OA
ATOM      4  H   UNL d   1      -4.557  -2.082   0.022  0.00  0.00     0.163 HD
ENDROOT
BRANCH   2   5
ATOM      5  C   UNL d   1      -2.706  -3.195   0.062  0.00  0.00     0.164 C 
BRANCH   5   6
ATOM      6  C   UNL d   1      -3.492  -4.483   0.039  0.00  0.00    -0.004 A 
ATOM      7  C   UNL d   1      -3.419  -5.423   1.083  0.00  0.00     0.088 A 
ATOM      8  C   UNL d   1      -4.112  -6.642   1.008  0.00  0.00     0.003 A 
ATOM      9  O   UNL d   1      -2.624  -5.126   2.159  0.00  0.00    -0.325 OA
ATOM     10  C   UNL d   1      -4.013  -7.630   2.131  0.00  0.00     0.212 C 
ATOM     11  C   UNL d   1      -4.913  -6.913  -0.106  0.00  0.00     0.054 A 
ATOM     12  O   UNL d   1      -2.868  -7.369   2.931  0.00  0.00    -0.362 OA
ATOM     13  C   UNL d   1      -2.830  -5.991   3.276  0.00  0.00     0.345 C 
ATOM     14  C   UNL d   1      -4.991  -5.985  -1.136  0.00  0.00     0.117 A 
ATOM     15  C   UNL d   1      -4.289  -4.785  -1.078  0.00  0.00     0.054 A 
ATOM     16  F   UNL d   1      -5.748  -6.255  -2.206  0.00  0.00    -0.206 F 
ENDBRANCH   5   6
ENDBRANCH   2   5
BRANCH   1  17
ATOM     17  C   UNL d   1      -4.012   0.319  -0.134  0.00  0.00     0.117 A 
ATOM     18  N   UNL d   1      -5.339   0.076  -0.168  0.00  0.00    -0.294 N 
ATOM     19  N   UNL d   1      -5.898   1.302  -0.246  0.00  0.00    -0.301 N 
ATOM     20  HN  UNL d   1      -5.811  -0.828  -0.140  1.00  0.00     0.187 HD
ATOM     21  C   UNL d   1      -7.336   1.425  -0.319  0.00  0.00     0.177 C 
ATOM     22  C   UNL d   1      -4.987   2.325  -0.251  0.00  0.00     0.026 A 
ATOM     23  C   UNL d   1      -3.754   1.714  -0.173  0.00  0.00     0.063 A 
ATOM     24  C   UNL d   1      -5.354   3.760  -0.333  0.00  0.00     0.070 C 
ENDBRANCH   1  17
TORSDOF 3
