REMARK  4 active torsions:
REMARK  status: ('A' for Active; 'I' for Inactive)
REMARK    1  A    between atoms: C_9  and  C_2 
REMARK       I    between atoms: C_5  and  N_8 
REMARK    2  A    between atoms: C_10  and  C_5 
REMARK    3  A    between atoms: N_8  and  N_11 
REMARK    4  A    between atoms: N_11  and  C_17 
ROOT
ATOM      1  N   UNL d   1       6.090  -3.908  -0.410  0.00  0.00    -0.203 NA
ATOM      2  H   UNL d   1       6.597  -4.000   0.480  0.00  0.00     0.153 HD
ENDROOT
BRANCH   1   3
ATOM      3  N   UNL d   1       6.033  -5.159  -1.057  0.00  0.00    -0.283 N 
ATOM      4  C   UNL d   1       6.890  -6.136  -0.565  0.00  0.00     0.266 C 
ATOM      5  O   UNL d   1       7.576  -5.967   0.441  0.00  0.00    -0.266 OA
ATOM      6  H   UNL d   1       5.821  -5.122  -2.047  0.00  0.00     0.184 HD
BRANCH   4   7
ATOM      7  C   UNL d   1       6.946  -7.428  -1.316  0.00  0.00     0.033 A 
ATOM      8  C   UNL d   1       5.989  -7.782  -2.277  0.00  0.00     0.018 A 
ATOM      9  C   UNL d   1       6.046  -9.034  -2.901  0.00  0.00     0.025 A 
ATOM     10  C   UNL d   1       7.055  -9.935  -2.565  0.00  0.00     0.034 A 
ATOM     11  C   UNL d   1       8.015  -9.594  -1.617  0.00  0.00     0.025 A 
ATOM     12 CL   UNL d   1       7.098 -11.485  -3.310  0.00  0.00    -0.084 Cl
ATOM     13  C   UNL d   1       7.961  -8.342  -0.993  0.00  0.00     0.018 A 
ENDBRANCH   4   7
ENDBRANCH   1   3
BRANCH   1  14
ATOM     14  C   UNL d   1       4.831  -3.280  -0.234  0.00  0.00     0.027 A 
ATOM     15  C   UNL d   1       4.652  -2.418   0.857  0.00  0.00     0.026 A 
ATOM     16  C   UNL d   1       3.485  -1.656   1.001  0.00  0.00     0.015 A 
ATOM     17  C   UNL d   1       2.471  -1.712   0.038  0.00  0.00    -0.008 A 
ATOM     18  C   UNL d   1       2.642  -2.573  -1.052  0.00  0.00     0.015 A 
ATOM     19  C   UNL d   1       3.812  -3.335  -1.192  0.00  0.00     0.026 A 
BRANCH  17  20
ATOM     20  C   UNL d   1       1.271  -0.887   0.129  0.00  0.00     0.063 A 
ATOM     21  N   UNL d   1       0.081  -1.272  -0.482  0.00  0.00    -0.292 N 
ATOM     22  N   UNL d   1      -0.880  -0.378  -0.304  0.00  0.00    -0.061 NA
ATOM     23  HN  UNL d   1      -0.037  -2.139  -1.004  1.00  0.00     0.183 HD
ATOM     24  S   UNL d   1      -0.378   0.949   0.580  0.00  0.00    -0.010 SA
ATOM     25  C   UNL d   1       1.216   0.341   0.769  0.00  0.00     0.096 A 
ENDBRANCH  17  20
ENDBRANCH   1  14
TORSDOF 4
