REMARK  6 active torsions:
REMARK  status: ('A' for Active; 'I' for Inactive)
REMARK    1  A    between atoms: N_2  and  C_1 
REMARK    2  A    between atoms: N_4  and  C_3 
REMARK    3  A    between atoms: O_12  and  C_5 
REMARK    4  A    between atoms: O_13  and  C_7 
REMARK    5  A    between atoms: C_18  and  O_12 
REMARK    6  A    between atoms: C_19  and  O_13 
ROOT
ATOM      1  C   UNL d   1       1.532  -0.284  -0.029  0.00  0.00     0.165 A 
ATOM      2  C   UNL d   1       0.630  -1.394  -0.082  0.00  0.00     0.100 A 
ATOM      3  C   UNL d   1       1.109   1.061   0.018  0.00  0.00     0.104 A 
ATOM      4  C   UNL d   1      -0.761  -1.057  -0.034  0.00  0.00     0.098 A 
ATOM      5  C   UNL d   1      -0.257   1.316   0.069  0.00  0.00     0.042 A 
ATOM      6  C   UNL d   1      -1.179   0.279   0.074  0.00  0.00     0.042 A 
ENDROOT
BRANCH   2   7
ATOM      7  N   UNL d   1       0.992  -2.746  -0.262  0.00  0.00    -0.372 N 
ATOM      8  C   UNL d   1       2.249  -3.160  -0.924  0.00  0.00     0.149 C 
ATOM      9  C   UNL d   1       2.155  -4.614  -1.412  0.00  0.00     0.187 C 
ATOM     10  O   UNL d   1       1.811  -5.508  -0.344  0.00  0.00    -0.388 OA
ATOM     11  C   UNL d   1       0.549  -5.126   0.228  0.00  0.00     0.187 C 
ATOM     12  C   UNL d   1       0.597  -3.698   0.806  0.00  0.00     0.149 C 
ENDBRANCH   2   7
BRANCH   1  13
ATOM     13  N   UNL d   1       2.943  -0.533   0.042  0.00  0.00    -0.110 N 
ATOM     14  O   UNL d   1       3.413  -0.831   1.148  0.00  0.00    -0.532 OA
ATOM     15  O   UNL d   1       3.593  -0.408  -1.010  0.00  0.00    -0.532 OA
ENDBRANCH   1  13
BRANCH   4  16
ATOM     16  O   UNL d   1      -1.679  -2.088  -0.133  0.00  0.00    -0.349 OA
BRANCH  16  17
ATOM     17  C   UNL d   1      -3.025  -1.724  -0.450  0.00  0.00     0.171 C 
ATOM     18  C   UNL d   1      -3.845  -2.977  -0.692  0.00  0.00     0.034 C 
ENDBRANCH  16  17
ENDBRANCH   4  16
BRANCH   3  19
ATOM     19  O   UNL d   1       1.816   2.227  -0.060  0.00  0.00    -0.349 OA
BRANCH  19  20
ATOM     20  C   UNL d   1       3.123   2.344   0.490  0.00  0.00     0.171 C 
ATOM     21  C   UNL d   1       3.362   3.819   0.764  0.00  0.00     0.034 C 
ENDBRANCH  19  20
ENDBRANCH   3  19
TORSDOF 6
