REMARK  4 active torsions:
REMARK  status: ('A' for Active; 'I' for Inactive)
REMARK    1  A    between atoms: C_2  and  S_1 
REMARK    2  A    between atoms: C_4  and  S_1 
REMARK    3  A    between atoms: C_5  and  C_3 
REMARK    4  A    between atoms: C_8  and  C_5 
ROOT
ATOM      1  C   UNL d   1       0.606  -1.595  -0.185  0.00  0.00     0.118 C 
ATOM      2  C   UNL d   1       0.694  -2.184  -1.386  0.00  0.00     0.067 C 
ENDROOT
BRANCH   1   3
ATOM      3  S   UNL d   1       1.099   0.056  -0.062  0.00  0.00     0.197 S 
ATOM      4  O   UNL d   1      -0.034   0.900  -0.392  0.00  0.00    -0.218 OA
ATOM      5  O   UNL d   1       2.365   0.232  -0.754  0.00  0.00    -0.218 OA
BRANCH   3   6
ATOM      6  C   UNL d   1       1.427   0.268   1.677  0.00  0.00     0.063 A 
ATOM      7  C   UNL d   1       2.713   0.021   2.170  0.00  0.00     0.025 A 
ATOM      8  C   UNL d   1       2.991   0.260   3.518  0.00  0.00     0.025 A 
ATOM      9  C   UNL d   1       1.990   0.752   4.358  0.00  0.00     0.034 A 
ATOM     10  C   UNL d   1       0.710   1.005   3.863  0.00  0.00     0.025 A 
ATOM     11 CL   UNL d   1       2.342   1.063   6.013  0.00  0.00    -0.084 Cl
ATOM     12  C   UNL d   1       0.425   0.769   2.516  0.00  0.00     0.025 A 
ENDBRANCH   3   6
ENDBRANCH   1   3
BRANCH   2  13
ATOM     13  C   UNL d   1       0.251  -3.592  -1.534  0.00  0.00     0.182 C 
ATOM     14  O   UNL d   1       0.098  -4.317  -0.557  0.00  0.00    -0.288 OA
BRANCH  13  15
ATOM     15  C   UNL d   1       0.026  -4.114  -2.909  0.00  0.00     0.014 A 
ATOM     16  C   UNL d   1       0.212  -5.484  -3.139  0.00  0.00     0.017 A 
ATOM     17  C   UNL d   1      -0.022  -6.025  -4.407  0.00  0.00     0.020 A 
ATOM     18  C   UNL d   1      -0.453  -5.198  -5.442  0.00  0.00     0.011 A 
ATOM     19  C   UNL d   1      -0.649  -3.835  -5.223  0.00  0.00     0.020 A 
ATOM     20 BR   UNL d   1      -0.793  -5.931  -7.151  0.00  0.00    -0.051 Br
ATOM     21  C   UNL d   1      -0.413  -3.291  -3.956  0.00  0.00     0.017 A 
ENDBRANCH  13  15
ENDBRANCH   2  13
TORSDOF 4
