REMARK  6 active torsions:
REMARK  status: ('A' for Active; 'I' for Inactive)
REMARK    1  A    between atoms: C_2  and  N_1 
REMARK    2  A    between atoms: C_3  and  O_6 
REMARK    3  A    between atoms: O_6  and  C_7 
REMARK    4  A    between atoms: N_8  and  N_16 
REMARK    5  A    between atoms: C_11  and  C_17 
REMARK    6  A    between atoms: N_16  and  C_12 
ROOT
ATOM      1  N   UNL d   1      -1.292  -1.916  -5.611  0.00  0.00    -0.326 N 
ATOM      2  HN  UNL d   1      -0.418  -2.389  -5.382  1.00  0.00     0.180 HD
ATOM      3  C   UNL d   1      -2.140  -2.381  -6.473  0.00  0.00     0.116 C 
ENDROOT
BRANCH   1   4
ATOM      4  N   UNL d   1      -1.670  -0.740  -5.037  0.00  0.00    -0.191 NA
ATOM      5  H   UNL d   1      -2.322  -0.798  -4.252  0.00  0.00     0.154 HD
BRANCH   4   6
ATOM      6  C   UNL d   1      -0.627   0.111  -4.606  0.00  0.00     0.098 A 
ATOM      7  C   UNL d   1       0.529   0.270  -5.375  0.00  0.00     0.046 A 
ATOM      8  C   UNL d   1       1.524   1.155  -4.959  0.00  0.00     0.041 A 
ATOM      9  C   UNL d   1       1.327   1.867  -3.779  0.00  0.00     0.118 A 
ATOM     10  C   UNL d   1       0.157   1.663  -3.065  0.00  0.00     0.125 A 
ATOM     11  N   UNL d   1      -0.824   0.807  -3.461  0.00  0.00    -0.353 N 
ATOM     12  HN  UNL d   1      -1.677   0.693  -2.914  1.00  0.00     0.166 HD
BRANCH   9  13
ATOM     13  N   UNL d   1       2.317   2.817  -3.300  0.00  0.00    -0.114 N 
ATOM     14  O   UNL d   1       2.067   3.438  -2.257  0.00  0.00    -0.532 OA
ATOM     15  O   UNL d   1       3.354   2.954  -3.967  0.00  0.00    -0.532 OA
ENDBRANCH   9  13
ENDBRANCH   4   6
ENDBRANCH   1   4
BRANCH   3  16
ATOM     16  C   UNL d   1      -1.833  -3.607  -7.237  0.00  0.00     0.014 A 
ATOM     17  C   UNL d   1      -2.361  -3.860  -8.511  0.00  0.00     0.089 A 
ATOM     18  C   UNL d   1      -2.071  -5.081  -9.135  0.00  0.00     0.038 A 
ATOM     19  C   UNL d   1      -1.246  -6.025  -8.517  0.00  0.00     0.003 A 
ATOM     20  C   UNL d   1      -0.704  -5.761  -7.265  0.00  0.00     0.001 A 
ATOM     21  C   UNL d   1      -0.992  -4.554  -6.628  0.00  0.00     0.015 A 
BRANCH  17  22
ATOM     22  O   UNL d   1      -3.243  -3.067  -9.187  0.00  0.00    -0.254 OA
BRANCH  22  23
ATOM     23  C   UNL d   1      -2.862  -1.722  -9.469  0.00  0.00     0.530 C 
ATOM     24  F   UNL d   1      -1.710  -1.347  -8.879  0.00  0.00    -0.144 F 
ATOM     25  F   UNL d   1      -2.727  -1.567 -10.802  0.00  0.00    -0.144 F 
ATOM     26  F   UNL d   1      -3.850  -0.908  -9.046  0.00  0.00    -0.144 F 
ENDBRANCH  22  23
ENDBRANCH  17  22
ENDBRANCH   3  16
TORSDOF 6
