REMARK  4 active torsions:
REMARK  status: ('A' for Active; 'I' for Inactive)
REMARK       I    between atoms: N_6  and  C_1 
REMARK    1  A    between atoms: C_7  and  C_1 
REMARK    2  A    between atoms: C_5  and  C_2 
REMARK    3  A    between atoms: O_14  and  C_5 
REMARK    4  A    between atoms: C_13  and  N_6 
ROOT
ATOM      1  C   UNL d   1      -1.451  -2.901   1.873  0.00  0.00     0.054 A 
ATOM      2  N   UNL d   1      -1.191  -0.810   0.639  0.00  0.00    -0.360 N 
ATOM      3  HN  UNL d   1      -1.601  -0.013   0.152  1.00  0.00     0.165 HD
ATOM      4  C   UNL d   1       0.155  -0.964   0.771  0.00  0.00     0.101 A 
ATOM      5  C   UNL d   1      -1.957  -1.790   1.199  0.00  0.00     0.106 A 
ATOM      6  C   UNL d   1      -0.066  -3.012   2.000  0.00  0.00     0.021 A 
ATOM      7  C   UNL d   1       0.748  -2.031   1.444  0.00  0.00     0.036 A 
ENDROOT
BRANCH   4   8
ATOM      8  C   UNL d   1       1.050   0.034   0.114  0.00  0.00     0.272 C 
ATOM      9  N   UNL d   1       0.419   1.044  -0.598  0.00  0.00    -0.322 N 
ATOM     10  H   UNL d   1      -0.587   1.100  -0.486  0.00  0.00     0.169 HD
ATOM     11  O   UNL d   1       2.262  -0.100   0.255  0.00  0.00    -0.266 OA
BRANCH   9  12
ATOM     12  C   UNL d   1       1.070   1.995  -1.412  0.00  0.00     0.035 A 
ATOM     13  C   UNL d   1       2.402   1.857  -1.815  0.00  0.00     0.030 A 
ATOM     14  C   UNL d   1       3.015   2.812  -2.628  0.00  0.00     0.009 A 
ATOM     15  C   UNL d   1       2.307   3.934  -3.057  0.00  0.00    -0.062 A 
ATOM     16  C   UNL d   1       0.970   4.077  -2.669  0.00  0.00     0.009 A 
ATOM     17  C   UNL d   1       2.990   4.937  -3.938  0.00  0.00     0.048 C 
ATOM     18  C   UNL d   1       0.353   3.108  -1.861  0.00  0.00     0.030 A 
ENDBRANCH   9  12
ENDBRANCH   4   8
BRANCH   1  19
ATOM     19  C   UNL d   1      -2.388  -3.915   2.400  0.00  0.00     0.294 C 
ATOM     20  O   UNL d   1      -3.600  -3.827   2.306  0.00  0.00    -0.259 OA
BRANCH  19  21
ATOM     21  O   UNL d   1      -1.702  -4.939   2.970  0.00  0.00    -0.322 OA
ATOM     22  C   UNL d   1      -2.520  -5.995   3.475  0.00  0.00     0.213 C 
ENDBRANCH  19  21
ENDBRANCH   1  19
TORSDOF 4
