REMARK  4 active torsions:
REMARK  status: ('A' for Active; 'I' for Inactive)
REMARK    1  A    between atoms: C_2  and  C_1 
REMARK    2  A    between atoms: C_15  and  N_3 
REMARK    3  A    between atoms: C_13  and  C_4 
REMARK    4  A    between atoms: C_14  and  N_5 
ROOT
ATOM      1  C   UNL d   1      -0.265   1.213  -0.002  0.00  0.00     0.057 C 
ATOM      2  C   UNL d   1       1.069   0.835  -0.054  0.00  0.00     0.082 C 
ATOM      3  N   UNL d   1       1.038  -0.570  -0.061  0.00  0.00    -0.255 N 
ATOM      4  N   UNL d   1      -0.232  -1.050  -0.178  0.00  0.00    -0.303 N 
ATOM      5  HN  UNL d   1      -0.522  -2.017  -0.321  1.00  0.00     0.186 HD
ATOM      6  C   UNL d   1      -1.008   0.021  -0.066  0.00  0.00     0.125 C 
ENDROOT
BRANCH   1   7
ATOM      7  C   UNL d   1      -0.829   2.589   0.018  0.00  0.00     0.152 C 
ATOM      8  N   UNL d   1      -2.015   3.009   0.600  0.00  0.00    -0.224 N 
ATOM      9  N   UNL d   1      -2.322   4.224   0.091  0.00  0.00     0.001 NA
ATOM     10  N   UNL d   1      -1.249   4.609  -0.586  0.00  0.00    -0.007 NA
ATOM     11  N   UNL d   1      -0.307   3.616  -0.621  0.00  0.00    -0.269 N 
ATOM     12  HN  UNL d   1       0.616   3.663  -1.054  1.00  0.00     0.185 HD
BRANCH   8  13
ATOM     13  C   UNL d   1      -2.762   2.440   1.657  0.00  0.00     0.056 A 
ATOM     14  C   UNL d   1      -2.145   1.606   2.604  0.00  0.00     0.031 A 
ATOM     15  C   UNL d   1      -2.891   1.068   3.651  0.00  0.00     0.002 A 
ATOM     16  C   UNL d   1      -4.252   1.353   3.758  0.00  0.00     0.000 A 
ATOM     17  C   UNL d   1      -4.863   2.198   2.833  0.00  0.00     0.002 A 
ATOM     18  C   UNL d   1      -4.120   2.759   1.791  0.00  0.00     0.031 A 
ENDBRANCH   8  13
ENDBRANCH   1   7
BRANCH   2  19
ATOM     19  C   UNL d   1       2.289   1.670  -0.092  0.00  0.00    -0.005 A 
ATOM     20  C   UNL d   1       3.380   1.339  -0.912  0.00  0.00     0.037 A 
ATOM     21  C   UNL d   1       4.555   2.090  -0.867  0.00  0.00     0.035 A 
ATOM     22 CL   UNL d   1       5.928   1.577  -1.770  0.00  0.00    -0.084 Cl
ATOM     23  C   UNL d   1       4.638   3.231  -0.075  0.00  0.00     0.024 A 
ATOM     24  C   UNL d   1       3.544   3.609   0.697  0.00  0.00     0.003 A 
ATOM     25  C   UNL d   1       2.391   2.821   0.705  0.00  0.00     0.014 A 
ENDBRANCH   2  19
BRANCH   3  26
ATOM     26  C   UNL d   1       2.105  -1.505   0.035  0.00  0.00     0.057 A 
ATOM     27  C   UNL d   1       3.246  -1.234   0.802  0.00  0.00     0.034 A 
ATOM     28  C   UNL d   1       4.329  -2.115   0.773  0.00  0.00     0.044 A 
ATOM     29  C   UNL d   1       4.258  -3.267  -0.002  0.00  0.00     0.116 A 
ATOM     30  C   UNL d   1       3.107  -3.581  -0.716  0.00  0.00     0.044 A 
ATOM     31  F   UNL d   1       5.315  -4.087  -0.059  0.00  0.00    -0.206 F 
ATOM     32  C   UNL d   1       2.016  -2.711  -0.683  0.00  0.00     0.034 A 
ENDBRANCH   3  26
TORSDOF 4
