REMARK  5 active torsions:
REMARK  status: ('A' for Active; 'I' for Inactive)
REMARK    1  A    between atoms: N_2  and  C_1 
REMARK    2  A    between atoms: C_3  and  C_11 
REMARK    3  A    between atoms: C_4  and  C_17 
REMARK    4  A    between atoms: O_15  and  C_8 
REMARK    5  A    between atoms: C_25  and  O_15 
ROOT
ATOM      1  O   UNL d   1       1.819   2.102  -0.110  0.00  0.00    -0.308 OA
ENDROOT
BRANCH   1   2
ATOM      2  C   UNL d   1       1.162   0.904   0.085  0.00  0.00     0.109 A 
ATOM      3  C   UNL d   1      -0.204   0.786  -0.185  0.00  0.00     0.137 A 
ATOM      4  C   UNL d   1      -0.885  -0.431  -0.009  0.00  0.00     0.055 A 
ATOM      5  C   UNL d   1      -0.181  -1.565   0.430  0.00  0.00     0.050 A 
ATOM      6  C   UNL d   1       1.185  -1.442   0.724  0.00  0.00     0.019 A 
ATOM      7  C   UNL d   1       1.838  -0.216   0.588  0.00  0.00     0.040 A 
BRANCH   3   8
ATOM      8  N   UNL d   1      -0.959   1.919  -0.683  0.00  0.00    -0.113 N 
ATOM      9  O   UNL d   1      -1.982   2.229  -0.062  0.00  0.00    -0.532 OA
ATOM     10  O   UNL d   1      -0.558   2.452  -1.731  0.00  0.00    -0.532 OA
ENDBRANCH   3   8
BRANCH   5  11
ATOM     11  C   UNL d   1      -0.853  -2.909   0.587  0.00  0.00     0.417 C 
ATOM     12  F   UNL d   1      -2.194  -2.875   0.365  0.00  0.00    -0.166 F 
ATOM     13  F   UNL d   1      -0.351  -3.836  -0.274  0.00  0.00    -0.166 F 
ATOM     14  F   UNL d   1      -0.687  -3.426   1.834  0.00  0.00    -0.166 F 
ENDBRANCH   5  11
ENDBRANCH   1   2
BRANCH   1  15
ATOM     15  C   UNL d   1       3.081   2.054  -0.670  0.00  0.00     0.076 A 
ATOM     16  C   UNL d   1       3.436   1.125  -1.651  0.00  0.00     0.038 A 
ATOM     17  C   UNL d   1       4.742   1.081  -2.135  0.00  0.00     0.018 A 
ATOM     18  C   UNL d   1       5.701   2.011  -1.709  0.00  0.00     0.017 A 
ATOM     19  C   UNL d   1       5.324   2.968  -0.752  0.00  0.00     0.018 A 
ATOM     20  C   UNL d   1       4.020   2.989  -0.234  0.00  0.00     0.038 A 
BRANCH  18  21
ATOM     21  C   UNL d   1       7.038   2.008  -2.288  0.00  0.00     0.173 A 
ATOM     22  N   UNL d   1       8.067   2.808  -2.093  0.00  0.00    -0.278 N 
ATOM     23  N   UNL d   1       9.058   2.396  -2.967  0.00  0.00    -0.288 N 
ATOM     24  HN  UNL d   1       8.123   3.579  -1.428  1.00  0.00     0.189 HD
ATOM     25  C   UNL d   1       8.559   1.376  -3.624  0.00  0.00     0.251 A 
ATOM     26  HN  UNL d   1       9.986   2.803  -3.079  1.00  0.00     0.188 HD
ATOM     27  O   UNL d   1       7.292   1.056  -3.248  0.00  0.00    -0.286 OA
ENDBRANCH  18  21
ENDBRANCH   1  15
TORSDOF 5
