REMARK  4 active torsions:
REMARK  status: ('A' for Active; 'I' for Inactive)
REMARK    1  A    between atoms: C_2  and  S_1 
REMARK    2  A    between atoms: N_4  and  S_1 
REMARK    3  A    between atoms: C_5  and  C_15 
REMARK       I    between atoms: N_8  and  C_5 
REMARK    4  A    between atoms: C_15  and  N_9 
ROOT
ATOM      1  N   UNL d   1       0.324  -0.325   1.486  0.00  0.00    -0.203 NA
ATOM      2  N   UNL d   1       2.753  -0.185   3.224  0.00  0.00     0.099 N 
ATOM      3  C   UNL d   1       0.638   0.931   2.223  0.00  0.00     0.138 C 
ATOM      4  C   UNL d   1       0.766  -1.501   2.289  0.00  0.00     0.138 C 
ATOM      5  C   UNL d   1       2.276  -1.427   2.577  0.00  0.00     0.288 C 
ATOM      6  C   UNL d   1       2.141   1.017   2.603  0.00  0.00     0.288 C 
ENDROOT
BRANCH   1   7
ATOM      7  S   UNL d   1       0.747  -0.359  -0.168  0.00  0.00     0.250 S 
ATOM      8  O   UNL d   1       1.865   0.529  -0.393  0.00  0.00    -0.205 OA
ATOM      9  O   UNL d   1       0.774  -1.734  -0.618  0.00  0.00    -0.205 OA
BRANCH   7  10
ATOM     10  C   UNL d   1      -0.585   0.394  -1.082  0.00  0.00     0.116 A 
ATOM     11  S   UNL d   1      -2.074  -0.457  -1.091  0.00  0.00    -0.065 SA
ATOM     12  C   UNL d   1      -2.770   0.677  -2.134  0.00  0.00     0.075 A 
ATOM     13 CL   UNL d   1      -4.381   0.454  -2.683  0.00  0.00    -0.076 Cl
ATOM     14  C   UNL d   1      -1.935   1.716  -2.454  0.00  0.00     0.033 A 
ATOM     15  C   UNL d   1      -0.659   1.554  -1.835  0.00  0.00     0.034 A 
ENDBRANCH   7  10
ENDBRANCH   1   7
BRANCH   2  16
ATOM     16  C   UNL d   1       2.588  -0.148   4.689  0.00  0.00     0.374 C 
BRANCH  16  17
ATOM     17  C   UNL d   1       3.168  -1.368   5.414  0.00  0.00     0.248 C 
ATOM     18  N   UNL d   1       4.541  -1.458   5.611  0.00  0.00    -0.347 N 
ATOM     19  C   UNL d   1       5.068  -2.604   6.356  0.00  0.00     0.152 C 
ATOM     20  C   UNL d   1       5.545  -0.861   4.723  0.00  0.00     0.152 C 
ATOM     21  C   UNL d   1       5.633  -3.643   5.384  0.00  0.00     0.187 C 
ATOM     22  O   UNL d   1       6.654  -3.053   4.557  0.00  0.00    -0.388 OA
ATOM     23  C   UNL d   1       6.131  -1.945   3.799  0.00  0.00     0.187 C 
ATOM     24  O   UNL d   1       2.397  -2.230   5.850  0.00  0.00    -0.271 OA
ENDBRANCH  16  17
ENDBRANCH   2  16
TORSDOF 4
