REMARK  3 active torsions:
REMARK  status: ('A' for Active; 'I' for Inactive)
REMARK       I    between atoms: C_7  and  N_13 
REMARK       I    between atoms: N_11  and  C_7 
REMARK    1  A    between atoms: N_13  and  C_10 
REMARK    2  A    between atoms: C_15  and  N_11 
REMARK    3  A    between atoms: S_18  and  C_17 
ROOT
ATOM      1  C   UNL d   1      -4.884  -0.631   0.386  0.00  0.00     0.325 C 
ATOM      2  N   UNL d   1      -5.031   0.741   0.285  0.00  0.00    -0.307 N 
ATOM      3  N   UNL d   1      -5.948  -1.167   1.091  0.00  0.00    -0.309 N 
ATOM      4  O   UNL d   1      -3.938  -1.272  -0.049  0.00  0.00    -0.247 OA
ATOM      5  H   UNL d   1      -5.500   1.177   1.069  0.00  0.00     0.170 HD
ATOM      6  H   UNL d   1      -6.826  -0.683   0.955  0.00  0.00     0.170 HD
ENDROOT
BRANCH   3   7
ATOM      7  C   UNL d   1      -5.987  -2.437   1.703  0.00  0.00     0.038 A 
ATOM      8  C   UNL d   1      -4.804  -3.125   2.040  0.00  0.00     0.062 A 
ATOM      9  C   UNL d   1      -4.962  -4.355   2.725  0.00  0.00     0.069 A 
ATOM     10  C   UNL d   1      -6.331  -4.889   3.046  0.00  0.00     0.067 A 
ATOM     11  N   UNL d   1      -3.972  -5.149   3.163  0.00  0.00    -0.310 N 
ATOM     12  N   UNL d   1      -6.304  -6.062   3.696  0.00  0.00    -0.310 N 
ATOM     13  C   UNL d   1      -7.492  -4.172   2.679  0.00  0.00     0.035 A 
ATOM     14  S   UNL d   1      -4.700  -6.450   3.893  0.00  0.00     0.068 SA
ATOM     15  HN  UNL d   1      -7.108  -6.607   4.008  1.00  0.00     0.176 HD
ATOM     16  C   UNL d   1      -7.275  -2.946   2.022  0.00  0.00     0.032 A 
ATOM     17  HN  UNL d   1      -2.970  -4.984   3.066  1.00  0.00     0.176 HD
ENDBRANCH   3   7
BRANCH   2  18
ATOM     18  C   UNL d   1      -4.146   1.587  -0.418  0.00  0.00     0.053 A 
ATOM     19  C   UNL d   1      -3.865   2.867   0.097  0.00  0.00     0.027 A 
ATOM     20  C   UNL d   1      -3.059   3.745  -0.640  0.00  0.00     0.021 A 
ATOM     21  C   UNL d   1      -2.529   3.353  -1.871  0.00  0.00     0.002 A 
ATOM     22  C   UNL d   1      -2.796   2.080  -2.370  0.00  0.00     0.002 A 
ATOM     23  C   UNL d   1      -3.598   1.198  -1.645  0.00  0.00     0.031 A 
BRANCH  19  24
ATOM     24  S   UNL d   1      -4.455   3.423   1.701  0.00  0.00    -0.132 SA
ATOM     25  C   UNL d   1      -3.612   2.223   2.780  0.00  0.00     0.095 C 
ENDBRANCH  19  24
ENDBRANCH   2  18
TORSDOF 3
