REMARK  4 active torsions:
REMARK  status: ('A' for Active; 'I' for Inactive)
REMARK       I    between atoms: N_3  and  C_1 
REMARK    1  A    between atoms: C_6  and  C_1 
REMARK    2  A    between atoms: N_2  and  C_6 
REMARK    3  A    between atoms: C_10  and  N_3 
REMARK    4  A    between atoms: C_4  and  C_5 
ROOT
ATOM      1  C   UNL d   1       1.239   0.068   0.119  0.00  0.00     0.250 C 
ATOM      2  N   UNL d   1       0.606  -1.088   0.535  0.00  0.00    -0.326 N 
ATOM      3  O   UNL d   1       2.441   0.187  -0.137  0.00  0.00    -0.271 OA
ATOM      4  H   UNL d   1      -0.408  -1.028   0.584  0.00  0.00     0.169 HD
ENDROOT
BRANCH   2   5
ATOM      5  C   UNL d   1       1.221  -2.307   0.876  0.00  0.00     0.034 A 
ATOM      6  C   UNL d   1       2.594  -2.439   1.064  0.00  0.00     0.030 A 
ATOM      7  C   UNL d   1       3.163  -3.681   1.366  0.00  0.00     0.010 A 
ATOM      8  C   UNL d   1       2.382  -4.843   1.480  0.00  0.00    -0.051 A 
ATOM      9  C   UNL d   1       0.994  -4.689   1.330  0.00  0.00     0.010 A 
ATOM     10  C   UNL d   1       0.420  -3.438   1.044  0.00  0.00     0.030 A 
BRANCH   8  11
ATOM     11  C   UNL d   1       3.062  -6.198   1.741  0.00  0.00    -0.024 C 
ATOM     12  C   UNL d   1       2.075  -7.384   1.806  0.00  0.00     0.019 C 
ATOM     13  C   UNL d   1       4.065  -6.502   0.604  0.00  0.00     0.019 C 
ATOM     14  C   UNL d   1       3.825  -6.160   3.082  0.00  0.00     0.019 C 
ENDBRANCH   8  11
ENDBRANCH   2   5
BRANCH   1  15
ATOM     15  C   UNL d   1       0.300   1.258  -0.108  0.00  0.00     0.374 C 
BRANCH  15  16
ATOM     16  N   UNL d   1      -0.817   1.311   0.867  0.00  0.00     0.097 N 
ATOM     17  C   UNL d   1      -0.315   1.515   2.242  0.00  0.00     0.273 C 
ATOM     18  C   UNL d   1      -1.474   1.540   3.242  0.00  0.00     0.030 C 
ATOM     19  C   UNL d   1      -2.519   2.588   2.878  0.00  0.00     0.003 C 
ATOM     20  C   UNL d   1      -2.925   2.468   1.414  0.00  0.00     0.030 C 
ATOM     21  C   UNL d   1      -1.699   2.439   0.505  0.00  0.00     0.273 C 
ENDBRANCH  15  16
ENDBRANCH   1  15
TORSDOF 4
