REMARK  2 active torsions:
REMARK  status: ('A' for Active; 'I' for Inactive)
REMARK    1  A    between atoms: C_16  and  N_7 
REMARK    2  A    between atoms: C_19  and  C_13 
ROOT
ATOM      1  C   UNL d   1       0.760  -0.805  -0.104  0.00  0.00     0.173 A 
ATOM      2  C   UNL d   1       0.461   0.540  -0.168  0.00  0.00     0.090 A 
ATOM      3  C   UNL d   1       1.968  -1.548   0.139  0.00  0.00     0.285 C 
ATOM      4  C   UNL d   1      -0.971   0.640  -0.236  0.00  0.00     0.051 A 
ATOM      5  C   UNL d   1      -1.436  -0.671  -0.145  0.00  0.00     0.162 A 
ATOM      6  O   UNL d   1      -0.393  -1.535  -0.148  0.00  0.00    -0.285 OA
ATOM      7  N   UNL d   1       2.964  -0.830   0.814  0.00  0.00    -0.303 N 
ATOM      8  N   UNL d   1       1.339   1.600  -0.106  0.00  0.00    -0.322 N 
ATOM      9  N   UNL d   1      -2.703  -1.093  -0.022  0.00  0.00    -0.335 N 
ATOM     10  HN  UNL d   1      -2.956  -2.080   0.018  1.00  0.00     0.168 HD
ATOM     11  C   UNL d   1      -1.945   1.661  -0.301  0.00  0.00    -0.043 A 
ATOM     12  C   UNL d   1       2.684   1.612   0.066  0.00  0.00     0.240 C 
ATOM     13  C   UNL d   1      -3.615  -0.103   0.044  0.00  0.00     0.044 A 
ATOM     14  C   UNL d   1       3.526   0.340   0.153  0.00  0.00     0.235 C 
ATOM     15  C   UNL d   1      -3.281   1.242  -0.136  0.00  0.00     0.038 A 
ATOM     16  O   UNL d   1       2.067  -2.751  -0.101  0.00  0.00    -0.265 OA
ATOM     17  O   UNL d   1       3.242   2.716   0.013  0.00  0.00    -0.271 OA
ATOM     18  C   UNL d   1      -1.705   3.135  -0.456  0.00  0.00     0.049 C 
ATOM     19  H   UNL d   1       0.955   2.533  -0.164  0.00  0.00     0.169 HD
ENDROOT
BRANCH   7  20
ATOM     20  C   UNL d   1       3.709  -1.530   1.820  0.00  0.00     0.038 A 
ATOM     21  C   UNL d   1       5.087  -1.388   2.001  0.00  0.00     0.030 A 
ATOM     22  C   UNL d   1       5.744  -2.057   3.042  0.00  0.00     0.009 A 
ATOM     23  C   UNL d   1       5.037  -2.873   3.930  0.00  0.00    -0.062 A 
ATOM     24  C   UNL d   1       3.663  -3.026   3.753  0.00  0.00     0.009 A 
ATOM     25  C   UNL d   1       5.750  -3.556   5.060  0.00  0.00     0.048 C 
ATOM     26  C   UNL d   1       3.012  -2.367   2.706  0.00  0.00     0.030 A 
ENDBRANCH   7  20
BRANCH  13  27
ATOM     27  C   UNL d   1      -5.000  -0.523   0.358  0.00  0.00    -0.009 A 
ATOM     28  C   UNL d   1      -5.868   0.297   1.108  0.00  0.00     0.013 A 
ATOM     29  C   UNL d   1      -7.179  -0.092   1.393  0.00  0.00     0.001 A 
ATOM     30  C   UNL d   1      -7.650  -1.322   0.946  0.00  0.00     0.000 A 
ATOM     31  C   UNL d   1      -6.807  -2.165   0.227  0.00  0.00     0.001 A 
ATOM     32  C   UNL d   1      -5.495  -1.772  -0.058  0.00  0.00     0.013 A 
ENDBRANCH  13  27
TORSDOF 2
