REMARK  3 active torsions:
REMARK  status: ('A' for Active; 'I' for Inactive)
REMARK    1  A    between atoms: C_11  and  C_2 
REMARK       I    between atoms: C_3  and  N_10 
REMARK       I    between atoms: N_7  and  C_3 
REMARK    2  A    between atoms: C_6  and  N_7 
REMARK    3  A    between atoms: N_10  and  C_11 
ROOT
ATOM      1  C   UNL d   1      -2.632  -3.861  -0.047  0.00  0.00     0.321 C 
ATOM      2  N   UNL d   1      -3.737  -4.042   0.729  0.00  0.00    -0.308 N 
ATOM      3  N   UNL d   1      -2.206  -2.580  -0.218  0.00  0.00    -0.337 N 
ATOM      4  O   UNL d   1      -2.018  -4.844  -0.452  0.00  0.00    -0.247 OA
ATOM      5  H   UNL d   1      -3.792  -4.990   1.080  0.00  0.00     0.170 HD
ATOM      6  H   UNL d   1      -2.618  -1.877   0.377  0.00  0.00     0.164 HD
ENDROOT
BRANCH   3   7
ATOM      7  C   UNL d   1      -0.902  -2.284  -0.760  0.00  0.00     0.181 C 
BRANCH   7   8
ATOM      8  C   UNL d   1      -0.041  -1.734   0.333  0.00  0.00     0.029 A 
ATOM      9  N   UNL d   1       0.793  -2.481   1.146  0.00  0.00    -0.357 N 
ATOM     10  C   UNL d   1       1.505  -1.637   1.981  0.00  0.00     0.007 A 
ATOM     11  C   UNL d   1       0.939  -3.923   1.147  0.00  0.00     0.156 C 
ATOM     12  C   UNL d   1       1.079  -0.349   1.729  0.00  0.00     0.027 A 
ATOM     13  C   UNL d   1       2.549  -2.085   2.947  0.00  0.00     0.068 C 
ATOM     14  C   UNL d   1       0.111  -0.408   0.707  0.00  0.00     0.029 A 
ENDBRANCH   7   8
ENDBRANCH   3   7
BRANCH   2  15
ATOM     15  C   UNL d   1      -4.738  -3.146   1.137  0.00  0.00     0.043 A 
ATOM     16  C   UNL d   1      -5.290  -3.270   2.428  0.00  0.00    -0.013 A 
ATOM     17  C   UNL d   1      -6.394  -2.464   2.763  0.00  0.00     0.042 A 
ATOM     18  C   UNL d   1      -4.689  -4.194   3.458  0.00  0.00     0.052 C 
ATOM     19 CL   UNL d   1      -7.144  -2.555   4.321  0.00  0.00    -0.084 Cl
ATOM     20  C   UNL d   1      -6.931  -1.558   1.847  0.00  0.00     0.024 A 
ATOM     21  C   UNL d   1      -6.364  -1.432   0.579  0.00  0.00     0.004 A 
ATOM     22  C   UNL d   1      -5.267  -2.218   0.227  0.00  0.00     0.030 A 
ENDBRANCH   2  15
TORSDOF 3
