REMARK  6 active torsions:
REMARK  status: ('A' for Active; 'I' for Inactive)
REMARK    1  A    between atoms: C_2  and  C_1 
REMARK       I    between atoms: N_13  and  C_1 
REMARK    2  A    between atoms: C_24  and  N_13 
REMARK    3  A    between atoms: O_20  and  C_14 
REMARK    4  A    between atoms: C_15  and  O_21 
REMARK    5  A    between atoms: O_21  and  C_25 
REMARK    6  A    between atoms: C_25  and  C_24 
ROOT
ATOM      1  C   UNL d   1       1.245   0.177  -0.325  0.00  0.00     0.251 C 
ATOM      2  O   UNL d   1       0.687  -0.477  -1.197  0.00  0.00    -0.268 OA
ATOM      3  N   UNL d   1       2.556  -0.010   0.059  0.00  0.00    -0.355 N 
ATOM      4  H   UNL d   1       2.951   0.561   0.793  0.00  0.00     0.162 HD
ENDROOT
BRANCH   1   5
ATOM      5  C   UNL d   1       0.507   1.266   0.368  0.00  0.00     0.034 A 
ATOM      6  C   UNL d   1       0.756   1.587   1.705  0.00  0.00     0.049 A 
ATOM      7  C   UNL d   1       0.061   2.607   2.340  0.00  0.00     0.060 A 
ATOM      8  N   UNL d   1       0.343   2.882   3.627  0.00  0.00    -0.363 N 
ATOM      9  C   UNL d   1      -0.924   3.332   1.623  0.00  0.00     0.059 A 
ATOM     10  C   UNL d   1      -0.366   3.882   4.194  0.00  0.00     0.105 A 
ATOM     11  HN  UNL d   1       1.052   2.364   4.145  1.00  0.00     0.165 HD
ATOM     12  C   UNL d   1      -1.323   4.593   3.498  0.00  0.00     0.105 A 
ATOM     13  N   UNL d   1      -1.614   4.331   2.205  0.00  0.00    -0.363 N 
ATOM     14  HN  UNL d   1      -2.320   4.863   1.696  1.00  0.00     0.165 HD
ATOM     15  C   UNL d   1      -1.179   2.994   0.301  0.00  0.00     0.033 A 
ATOM     16  C   UNL d   1      -0.479   1.963  -0.332  0.00  0.00     0.019 A 
ENDBRANCH   1   5
BRANCH   3  17
ATOM     17  C   UNL d   1       3.341  -1.129  -0.436  0.00  0.00     0.149 C 
BRANCH  17  18
ATOM     18  C   UNL d   1       4.842  -0.846  -0.395  0.00  0.00     0.195 C 
BRANCH  18  19
ATOM     19  O   UNL d   1       5.543  -2.002  -0.858  0.00  0.00    -0.350 OA
BRANCH  19  20
ATOM     20  C   UNL d   1       6.908  -1.928  -0.842  0.00  0.00     0.069 A 
ATOM     21  C   UNL d   1       7.567  -3.156  -0.789  0.00  0.00     0.039 A 
ATOM     22  C   UNL d   1       8.963  -3.211  -0.779  0.00  0.00     0.039 A 
ATOM     23  C   UNL d   1       9.716  -2.040  -0.859  0.00  0.00     0.068 A 
ATOM     24  C   UNL d   1       9.061  -0.810  -0.916  0.00  0.00     0.039 A 
ATOM     25  C   UNL d   1       7.660  -0.755  -0.908  0.00  0.00     0.039 A 
BRANCH  23  26
ATOM     26  O   UNL d   1      11.072  -2.211  -0.837  0.00  0.00    -0.356 OA
ATOM     27  C   UNL d   1      11.829  -1.208  -1.505  0.00  0.00     0.210 C 
ENDBRANCH  23  26
ENDBRANCH  19  20
ENDBRANCH  18  19
ENDBRANCH  17  18
ENDBRANCH   3  17
TORSDOF 6
