REMARK  1 active torsions:
REMARK  status: ('A' for Active; 'I' for Inactive)
REMARK    1  A    between atoms: N_14  and  C_3 
ROOT
ATOM      1  C   UNL d   1       0.399  -1.501   0.074  0.00  0.00     0.188 C 
ATOM      2  C   UNL d   1       2.397   0.075   0.374  0.00  0.00     0.075 C 
ATOM      3  C   UNL d   1       1.847  -1.144   0.628  0.00  0.00     0.062 C 
ATOM      4  C   UNL d   1       1.694   1.045  -0.441  0.00  0.00    -0.034 C 
ATOM      5  C   UNL d   1      -0.423  -0.208  -0.438  0.00  0.00     0.007 C 
ATOM      6  C   UNL d   1       0.589   0.560  -1.337  0.00  0.00     0.032 C 
ATOM      7  C   UNL d   1       0.611  -2.450  -1.057  0.00  0.00     0.092 C 
ATOM      8  C   UNL d   1      -0.355  -2.206   1.137  0.00  0.00     0.092 C 
ATOM      9  C   UNL d   1       3.687   0.432   0.880  0.00  0.00     0.102 C 
ATOM     10  N   UNL d   1      -0.919  -2.757   1.994  0.00  0.00    -0.195 NA
ATOM     11  N   UNL d   1       0.747  -3.167  -1.963  0.00  0.00    -0.195 NA
ATOM     12  N   UNL d   1       4.725   0.707   1.321  0.00  0.00    -0.191 NA
ATOM     13  C   UNL d   1       1.766   2.382  -0.415  0.00  0.00    -0.018 C 
ATOM     14  C   UNL d   1      -0.955   0.658   0.765  0.00  0.00     0.013 C 
ATOM     15  C   UNL d   1      -1.727  -0.574  -1.207  0.00  0.00     0.013 C 
ATOM     16  C   UNL d   1       0.191   1.841  -2.084  0.00  0.00     0.014 C 
ATOM     17  C   UNL d   1       0.701   3.014  -1.255  0.00  0.00     0.028 C 
ATOM     18  C   UNL d   1      -2.860  -0.453  -0.197  0.00  0.00     0.001 C 
ATOM     19  C   UNL d   1      -2.469   0.753   0.625  0.00  0.00     0.001 C 
ENDROOT
BRANCH   3  20
ATOM     20  N   UNL d   1       2.528  -2.144   1.337  0.00  0.00    -0.399 N 
ATOM     21  H   UNL d   1       3.362  -1.863   1.856  0.00  0.00     0.156 HD
ATOM     22  H   UNL d   1       1.976  -2.837   1.843  0.00  0.00     0.156 HD
ENDBRANCH   3  20
TORSDOF 1
