REMARK  5 active torsions:
REMARK  status: ('A' for Active; 'I' for Inactive)
REMARK    1  A    between atoms: C_2  and  C_1 
REMARK    2  A    between atoms: O_6  and  C_2 
REMARK    3  A    between atoms: O_8  and  C_3 
REMARK    4  A    between atoms: O_7  and  C_4 
REMARK    5  A    between atoms: C_12  and  O_6 
ROOT
ATOM      1  C   UNL d   1       1.544  -0.275   0.289  0.00  0.00     0.106 A 
ATOM      2  C   UNL d   1       0.625  -1.343   0.226  0.00  0.00     0.087 A 
ATOM      3  C   UNL d   1       1.090   1.033   0.031  0.00  0.00     0.087 A 
ATOM      4  C   UNL d   1      -1.171   0.203  -0.279  0.00  0.00     0.006 A 
ATOM      5  C   UNL d   1      -0.268   1.262  -0.228  0.00  0.00     0.038 A 
ATOM      6  C   UNL d   1      -0.725  -1.096  -0.053  0.00  0.00     0.038 A 
ENDROOT
BRANCH   1   7
ATOM      7  C   UNL d   1       2.933  -0.542   0.713  0.00  0.00     0.298 C 
ATOM      8  O   UNL d   1       3.670  -1.349   0.168  0.00  0.00    -0.259 OA
BRANCH   7   9
ATOM      9  O   UNL d   1       3.212   0.230   1.783  0.00  0.00    -0.318 OA
BRANCH   9  10
ATOM     10  C   UNL d   1       4.434   0.020   2.510  0.00  0.00     0.174 C 
ATOM     11  C   UNL d   1       5.705  -0.033   1.679  0.00  0.00     0.034 C 
ENDBRANCH   9  10
ENDBRANCH   7   9
ENDBRANCH   1   7
BRANCH   2  12
ATOM     12  O   UNL d   1       0.912  -2.626   0.617  0.00  0.00    -0.355 OA
ATOM     13  C   UNL d   1       1.721  -3.346  -0.313  0.00  0.00     0.210 C 
ENDBRANCH   2  12
BRANCH   3  14
ATOM     14  O   UNL d   1       1.833   2.183   0.111  0.00  0.00    -0.355 OA
ATOM     15  C   UNL d   1       3.043   2.188  -0.639  0.00  0.00     0.210 C 
ENDBRANCH   3  14
TORSDOF 5
