REMARK  4 active torsions:
REMARK  status: ('A' for Active; 'I' for Inactive)
REMARK    1  A    between atoms: C_2  and  N_1 
REMARK       I    between atoms: C_4  and  N_1 
REMARK    2  A    between atoms: O_10  and  C_3 
REMARK    3  A    between atoms: C_12  and  C_4 
REMARK    4  A    between atoms: O_11  and  C_8 
ROOT
ATOM      1  C   UNL d   1       0.338   0.547   0.962  0.00  0.00     0.068 A 
ATOM      2  C   UNL d   1       0.805   1.806   1.381  0.00  0.00     0.097 A 
ATOM      3  C   UNL d   1      -0.006   2.639   2.168  0.00  0.00     0.075 A 
ATOM      4  C   UNL d   1      -0.951   0.153   1.321  0.00  0.00     0.035 A 
ATOM      5  C   UNL d   1      -1.288   2.228   2.534  0.00  0.00     0.070 A 
ATOM      6  C   UNL d   1      -1.751   0.983   2.109  0.00  0.00     0.039 A 
ENDROOT
BRANCH   1   7
ATOM      7  N   UNL d   1       1.197  -0.328   0.269  0.00  0.00    -0.325 N 
ATOM      8  C   UNL d   1       0.786  -1.280  -0.643  0.00  0.00     0.221 C 
ATOM      9  O   UNL d   1      -0.363  -1.439  -1.054  0.00  0.00    -0.273 OA
ATOM     10  H   UNL d   1       2.187  -0.128   0.339  0.00  0.00     0.169 HD
BRANCH   8  11
ATOM     11  C   UNL d   1       1.906  -2.176  -1.120  0.00  0.00     0.098 C 
ATOM     12  C   UNL d   1       2.137  -3.288  -0.117  0.00  0.00     0.014 C 
ENDBRANCH   8  11
ENDBRANCH   1   7
BRANCH   2  13
ATOM     13  O   UNL d   1       2.064   2.279   1.098  0.00  0.00    -0.354 OA
ATOM     14  C   UNL d   1       2.338   2.380  -0.303  0.00  0.00     0.210 C 
ENDBRANCH   2  13
BRANCH   5  15
ATOM     15  O   UNL d   1      -2.178   2.921   3.306  0.00  0.00    -0.356 OA
ATOM     16  C   UNL d   1      -1.809   4.232   3.708  0.00  0.00     0.210 C 
ENDBRANCH   5  15
TORSDOF 4
