REMARK  6 active torsions:
REMARK  status: ('A' for Active; 'I' for Inactive)
REMARK    1  A    between atoms: C_12  and  C_3 
REMARK    2  A    between atoms: C_16  and  N_6 
REMARK    3  A    between atoms: C_20  and  C_11 
REMARK    4  A    between atoms: N_14  and  C_18 
REMARK    5  A    between atoms: C_30  and  C_20 
REMARK    6  A    between atoms: O_38  and  C_32 
ROOT
ATOM      1  N   UNL d   1      -0.277   0.617   0.070  0.00  0.00    -0.065 N 
ATOM      2  C   UNL d   1       0.043  -0.745   0.092  0.00  0.00     0.730 A 
ATOM      3  C   UNL d   1      -1.670   0.745  -0.043  0.00  0.00     0.173 A 
ATOM      4  N   UNL d   1       1.214  -1.273   0.175  0.00  0.00    -0.151 N 
ATOM      5  HN  UNL d   1       1.382  -2.279   0.156  1.00  0.00     0.188 HD
ATOM      6  N   UNL d   1      -1.209  -1.345  -0.036  0.00  0.00    -0.083 N 
ATOM      7  N   UNL d   1       0.686   1.608   0.041  0.00  0.00    -0.276 N 
ATOM      8  HN  UNL d   1       0.463   2.601  -0.032  1.00  0.00     0.188 HD
ATOM      9  N   UNL d   1      -2.260  -0.441  -0.153  0.00  0.00    -0.261 N 
ATOM     10  HN  UNL d   1      -3.251  -0.640  -0.290  1.00  0.00     0.190 HD
ATOM     11  C   UNL d   1       1.914   1.151   0.115  0.00  0.00     0.099 C 
ATOM     12  C   UNL d   1       2.208  -0.341   0.291  0.00  0.00     0.284 C 
ATOM     13  O   UNL d   1       3.358  -0.655   0.578  0.00  0.00    -0.265 OA
ENDROOT
BRANCH   6  14
ATOM     14  C   UNL d   1      -1.441  -2.739  -0.010  0.00  0.00     0.075 A 
ATOM     15  C   UNL d   1      -0.625  -3.581   0.769  0.00  0.00     0.034 A 
ATOM     16  C   UNL d   1      -0.729  -4.969   0.706  0.00  0.00     0.038 A 
ATOM     17  C   UNL d   1      -1.669  -5.540  -0.152  0.00  0.00     0.103 A 
ATOM     18  C   UNL d   1      -2.540  -4.728  -0.892  0.00  0.00     0.038 A 
ATOM     19  C   UNL d   1      -2.434  -3.333  -0.803  0.00  0.00     0.034 A 
BRANCH  17  20
ATOM     20  N   UNL d   1      -1.715  -7.000  -0.296  0.00  0.00    -0.116 N 
ATOM     21  O   UNL d   1      -2.524  -7.473  -1.106  0.00  0.00    -0.532 OA
ATOM     22  O   UNL d   1      -0.932  -7.672   0.392  0.00  0.00    -0.532 OA
ENDBRANCH  17  20
ENDBRANCH   6  14
BRANCH   3  23
ATOM     23  C   UNL d   1      -2.447   2.011  -0.036  0.00  0.00     0.034 A 
ATOM     24  C   UNL d   1      -3.704   2.108   0.592  0.00  0.00     0.049 A 
ATOM     25  C   UNL d   1      -4.437   3.302   0.535  0.00  0.00     0.048 A 
ATOM     26 CL   UNL d   1      -4.409   0.832   1.524  0.00  0.00    -0.083 Cl
ATOM     27  C   UNL d   1      -3.916   4.404  -0.133  0.00  0.00     0.035 A 
ATOM     28  C   UNL d   1      -2.666   4.331  -0.741  0.00  0.00     0.025 A 
ATOM     29 CL   UNL d   1      -4.820   5.866  -0.204  0.00  0.00    -0.084 Cl
ATOM     30  C   UNL d   1      -1.934   3.137  -0.697  0.00  0.00     0.019 A 
ENDBRANCH   3  23
BRANCH  11  31
ATOM     31  C   UNL d   1       3.116   2.058   0.007  0.00  0.00     0.103 C 
BRANCH  31  32
ATOM     32  C   UNL d   1       3.646   2.136  -1.405  0.00  0.00    -0.052 A 
ATOM     33  C   UNL d   1       3.241   3.177  -2.249  0.00  0.00     0.010 A 
ATOM     34  C   UNL d   1       3.714   3.258  -3.563  0.00  0.00     0.037 A 
ATOM     35  C   UNL d   1       4.586   2.289  -4.056  0.00  0.00     0.068 A 
ATOM     36  C   UNL d   1       5.008   1.259  -3.218  0.00  0.00     0.037 A 
ATOM     37  C   UNL d   1       4.536   1.174  -1.903  0.00  0.00     0.010 A 
BRANCH  35  38
ATOM     38  O   UNL d   1       5.118   2.280  -5.316  0.00  0.00    -0.356 OA
ATOM     39  C   UNL d   1       4.305   2.869  -6.326  0.00  0.00     0.210 C 
ENDBRANCH  35  38
ENDBRANCH  31  32
ENDBRANCH  11  31
TORSDOF 6
