REMARK  4 active torsions:
REMARK  status: ('A' for Active; 'I' for Inactive)
REMARK    1  A    between atoms: C_3  and  C_1 
REMARK    2  A    between atoms: O_4  and  C_2 
REMARK    3  A    between atoms: C_5  and  O_4 
REMARK    4  A    between atoms: N_18  and  C_15 
ROOT
ATOM      1  C   UNL d   1      -0.928   1.373   0.124  0.00  0.00     0.100 A 
ATOM      2  C   UNL d   1      -1.708   0.234   0.035  0.00  0.00     0.163 A 
ATOM      3  N   UNL d   1      -1.201  -0.999  -0.217  0.00  0.00    -0.344 N 
ATOM      4  HN  UNL d   1      -1.808  -1.809  -0.340  1.00  0.00     0.167 HD
ATOM      5  C   UNL d   1       0.467   1.212   0.026  0.00  0.00     0.045 A 
ATOM      6  C   UNL d   1       0.145  -1.107  -0.297  0.00  0.00     0.113 A 
ATOM      7  C   UNL d   1       1.031  -0.041  -0.211  0.00  0.00     0.022 A 
ENDROOT
BRANCH   2   8
ATOM      8  O   UNL d   1      -3.069   0.347   0.289  0.00  0.00    -0.290 OA
BRANCH   8   9
ATOM      9  C   UNL d   1      -3.754  -0.818   0.557  0.00  0.00     0.121 A 
ATOM     10  C   UNL d   1      -3.498  -1.601   1.694  0.00  0.00     0.069 A 
ATOM     11 CL   UNL d   1      -2.359  -1.130   2.908  0.00  0.00    -0.081 Cl
ATOM     12  C   UNL d   1      -4.211  -2.785   1.906  0.00  0.00     0.027 A 
ATOM     13  C   UNL d   1      -5.217  -3.170   1.019  0.00  0.00     0.003 A 
ATOM     14  C   UNL d   1      -5.520  -2.362  -0.077  0.00  0.00     0.027 A 
ATOM     15  C   UNL d   1      -4.792  -1.191  -0.307  0.00  0.00     0.069 A 
ATOM     16 CL   UNL d   1      -5.221  -0.217  -1.668  0.00  0.00    -0.081 Cl
ENDBRANCH   8   9
ENDBRANCH   2   8
BRANCH   1  17
ATOM     17  C   UNL d   1      -1.496   2.736   0.359  0.00  0.00     0.421 C 
ATOM     18  F   UNL d   1      -2.853   2.827   0.358  0.00  0.00    -0.166 F 
ATOM     19  F   UNL d   1      -1.090   3.264   1.548  0.00  0.00    -0.166 F 
ATOM     20  F   UNL d   1      -1.077   3.624  -0.591  0.00  0.00    -0.166 F 
ENDBRANCH   1  17
BRANCH   7  21
ATOM     21  N   UNL d   1       2.411  -0.225  -0.108  0.00  0.00    -0.302 NA
ATOM     22  H   UNL d   1       2.764  -1.069  -0.552  0.00  0.00     0.124 HD
ATOM     23  H   UNL d   1       2.972   0.591  -0.325  0.00  0.00     0.124 HD
ENDBRANCH   7  21
TORSDOF 4
