REMARK  6 active torsions:
REMARK  status: ('A' for Active; 'I' for Inactive)
REMARK    1  A    between atoms: O_13  and  C_2 
REMARK    2  A    between atoms: C_8  and  C_3 
REMARK    3  A    between atoms: C_9  and  C_6 
REMARK    4  A    between atoms: C_20  and  O_13 
REMARK    5  A    between atoms: C_15  and  C_20 
REMARK    6  A    between atoms: C_16  and  C_15 
ROOT
ATOM      1  C   UNL d   1       0.547   0.049   0.077  0.00  0.00     0.108 A 
ATOM      2  C   UNL d   1      -0.262  -1.086   0.101  0.00  0.00     0.165 A 
ATOM      3  C   UNL d   1      -0.085   1.301  -0.003  0.00  0.00     0.025 A 
ATOM      4  N   UNL d   1      -1.614  -1.048   0.047  0.00  0.00    -0.335 N 
ATOM      5  HN  UNL d   1      -2.164  -1.907   0.072  1.00  0.00     0.168 HD
ATOM      6  C   UNL d   1      -2.214   0.155  -0.041  0.00  0.00     0.052 A 
ATOM      7  C   UNL d   1      -1.489   1.335  -0.061  0.00  0.00     0.046 A 
ATOM      8  C   UNL d   1       1.971  -0.093   0.110  0.00  0.00     0.105 C 
ATOM      9  N   UNL d   1       3.129  -0.163   0.148  0.00  0.00    -0.191 NA
ENDROOT
BRANCH   2  10
ATOM     10  O   UNL d   1       0.339  -2.331   0.164  0.00  0.00    -0.327 OA
BRANCH  10  11
ATOM     11  C   UNL d   1      -0.611  -3.393   0.250  0.00  0.00     0.261 C 
BRANCH  11  12
ATOM     12  C   UNL d   1       0.048  -4.767   0.284  0.00  0.00     0.183 C 
ATOM     13  O   UNL d   1       1.263  -4.938   0.233  0.00  0.00    -0.290 OA
BRANCH  12  14
ATOM     14  C   UNL d   1      -0.850  -5.962   0.337  0.00  0.00     0.012 A 
ATOM     15  C   UNL d   1      -0.371  -7.180  -0.169  0.00  0.00     0.018 A 
ATOM     16  C   UNL d   1      -1.179  -8.319  -0.147  0.00  0.00     0.043 A 
ATOM     17  C   UNL d   1      -2.458  -8.242   0.391  0.00  0.00     0.116 A 
ATOM     18  C   UNL d   1      -2.945  -7.046   0.905  0.00  0.00     0.043 A 
ATOM     19  F   UNL d   1      -3.231  -9.335   0.418  0.00  0.00    -0.206 F 
ATOM     20  C   UNL d   1      -2.144  -5.900   0.876  0.00  0.00     0.018 A 
ENDBRANCH  12  14
ENDBRANCH  11  12
ENDBRANCH  10  11
ENDBRANCH   2  10
BRANCH   3  21
ATOM     21  C   UNL d   1       0.628   2.581  -0.039  0.00  0.00     0.086 A 
ATOM     22  O   UNL d   1      -0.012   3.578  -0.729  0.00  0.00    -0.322 OA
ATOM     23  C   UNL d   1       0.761   4.689  -0.659  0.00  0.00     0.142 A 
ATOM     24  C   UNL d   1       1.897   4.434   0.068  0.00  0.00     0.027 A 
ATOM     25  C   UNL d   1       1.814   3.076   0.468  0.00  0.00     0.040 A 
ENDBRANCH   3  21
BRANCH   6  26
ATOM     26  C   UNL d   1      -3.677   0.145  -0.158  0.00  0.00     0.031 A 
ATOM     27  S   UNL d   1      -4.607  -1.107   0.569  0.00  0.00    -0.100 SA
ATOM     28  C   UNL d   1      -6.080  -0.430   0.029  0.00  0.00     0.050 A 
ATOM     29  C   UNL d   1      -5.883   0.722  -0.696  0.00  0.00     0.008 A 
ATOM     30  C   UNL d   1      -4.502   1.052  -0.803  0.00  0.00     0.021 A 
ENDBRANCH   6  26
TORSDOF 6
