REMARK  7 active torsions:
REMARK  status: ('A' for Active; 'I' for Inactive)
REMARK    1  A    between atoms: C1*_7  and  N_1 
REMARK    2  A    between atoms: N_16  and  C_3 
REMARK    3  A    between atoms: C2*_12  and  O2*_20 
REMARK    4  A    between atoms: N_19  and  C_13 
REMARK    5  A    between atoms: C3*_15  and  O3*_21 
REMARK    6  A    between atoms: C4*_17  and  C5*_22 
REMARK    7  A    between atoms: O5*_25  and  C5*_22 
ROOT
ATOM      1  N   UNL d   1       1.560  -1.296  -0.121  0.00  0.00    -0.277 N 
ATOM      2  C   UNL d   1       0.300  -0.747  -0.164  0.00  0.00     0.147 A 
ATOM      3  C   UNL d   1       2.457  -0.230  -0.028  0.00  0.00     0.166 A 
ATOM      4  C   UNL d   1       0.495   0.610  -0.076  0.00  0.00     0.148 A 
ATOM      5  N   UNL d   1       1.823   0.924  -0.025  0.00  0.00    -0.325 N 
ATOM      6  HN  UNL d   1       2.236   1.856   0.008  1.00  0.00     0.169 HD
ATOM      7  N   UNL d   1      -0.887  -1.405  -0.176  0.00  0.00    -0.317 N 
ATOM      8  HN  UNL d   1      -0.959  -2.417  -0.287  1.00  0.00     0.170 HD
ATOM      9  C   UNL d   1      -0.668   1.464   0.039  0.00  0.00     0.278 A 
ATOM     10  N   UNL d   1      -1.853   0.742   0.060  0.00  0.00    -0.298 N 
ATOM     11  C   UNL d   1      -1.927  -0.631  -0.032  0.00  0.00     0.159 A 
ATOM     12  O   UNL d   1      -0.655   2.687   0.135  0.00  0.00    -0.265 OA
ATOM     13  H   UNL d   1      -2.685   1.285   0.210  0.00  0.00     0.171 HD
ENDROOT
BRANCH   1  14
ATOM     14  C1* UNL d   1       1.917  -2.699   0.073  0.00  0.00     0.264 C 
ATOM     15  C2* UNL d   1       2.638  -3.364  -1.102  0.00  0.00     0.198 C 
ATOM     16  C3* UNL d   1       1.603  -4.278  -1.728  0.00  0.00     0.182 C 
ATOM     17  C4* UNL d   1       0.684  -4.609  -0.567  0.00  0.00     0.179 C 
ATOM     18  O4* UNL d   1       0.757  -3.514   0.367  0.00  0.00    -0.353 OA
BRANCH  15  19
ATOM     19  O2* UNL d   1       3.759  -4.170  -0.672  0.00  0.00    -0.388 OA
ATOM     20  H2* UNL d   1       3.580  -4.495   0.231  0.00  0.00     0.210 HD
ENDBRANCH  15  19
BRANCH  16  21
ATOM     21  O3* UNL d   1       2.202  -5.452  -2.278  0.00  0.00    -0.390 OA
ATOM     22  H3* UNL d   1       3.131  -5.456  -1.963  0.00  0.00     0.210 HD
ENDBRANCH  16  21
BRANCH  17  23
ATOM     23  C5* UNL d   1      -0.764  -4.830  -1.014  0.00  0.00     0.198 C 
BRANCH  23  24
ATOM     24  O5* UNL d   1      -1.289  -3.688  -1.693  0.00  0.00    -0.398 OA
ATOM     25  H5* UNL d   1      -1.075  -2.914  -1.123  0.00  0.00     0.209 HD
ENDBRANCH  23  24
ENDBRANCH  17  23
ENDBRANCH   1  14
BRANCH   3  26
ATOM     26  N   UNL d   1       3.801  -0.414   0.147  0.00  0.00    -0.254 NA
ATOM     27  C   UNL d   1       4.492   0.655   0.917  0.00  0.00     0.098 C 
ATOM     28  C   UNL d   1       5.586   1.194   0.001  0.00  0.00     0.016 C 
ATOM     29  C   UNL d   1       5.953  -0.019  -0.821  0.00  0.00     0.016 C 
ATOM     30  C   UNL d   1       4.597  -0.660  -1.075  0.00  0.00     0.098 C 
ENDBRANCH   3  26
BRANCH  11  31
ATOM     31  N   UNL d   1      -3.167  -1.179   0.029  0.00  0.00    -0.274 NA
ATOM     32  H   UNL d   1      -3.936  -0.646  -0.355  0.00  0.00     0.127 HD
ATOM     33  H   UNL d   1      -3.184  -2.155  -0.251  0.00  0.00     0.127 HD
ENDBRANCH  11  31
TORSDOF 7
