REMARK  0 active torsions:
REMARK  status: ('A' for Active; 'I' for Inactive)
ROOT
ATOM      1  C   UNL d   1      -0.509   1.044   0.038  0.00  0.00     0.160 A 
ATOM      2  C   UNL d   1      -0.934  -0.243   0.084  0.00  0.00     0.164 A 
ATOM      3  N   UNL d   1      -1.558   1.917  -0.009  0.00  0.00    -0.174 N 
ATOM      4  HN  UNL d   1      -1.509   2.934  -0.059  1.00  0.00     0.186 HD
ATOM      5  N   UNL d   1       0.837   1.354   0.020  0.00  0.00    -0.287 N 
ATOM      6  C   UNL d   1      -2.651   1.170   0.023  0.00  0.00     0.684 A 
ATOM      7  N   UNL d   1       1.298  -0.994   0.051  0.00  0.00    -0.269 N 
ATOM      8  C   UNL d   1       1.780   0.321   0.023  0.00  0.00     0.332 A 
ATOM      9  C   UNL d   1      -0.047  -1.355   0.108  0.00  0.00     0.282 A 
ATOM     10  N   UNL d   1      -2.302  -0.173   0.068  0.00  0.00    -0.178 N 
ATOM     11  N   UNL d   1      -3.936   1.600  -0.103  0.00  0.00    -0.217 N 
ATOM     12  O   UNL d   1       2.994   0.565   0.002  0.00  0.00    -0.246 OA
ATOM     13  O   UNL d   1      -0.421  -2.527   0.174  0.00  0.00    -0.265 OA
ATOM     14  C   UNL d   1       1.317   2.719  -0.009  0.00  0.00     0.163 C 
ATOM     15  C   UNL d   1       2.244  -2.093   0.040  0.00  0.00     0.164 C 
ATOM     16  C   UNL d   1      -3.185  -1.308  -0.014  0.00  0.00     0.176 C 
ATOM     17  C   UNL d   1      -5.098   1.045   0.565  0.00  0.00     0.141 C 
ATOM     18  C   UNL d   1      -4.218   2.993  -0.456  0.00  0.00     0.141 C 
ATOM     19  C   UNL d   1      -5.756   3.080  -0.461  0.00  0.00     0.022 C 
ATOM     20  C   UNL d   1      -6.229   1.649  -0.253  0.00  0.00     0.022 C 
ENDROOT
TORSDOF 0
