REMARK  1 active torsions:
REMARK  status: ('A' for Active; 'I' for Inactive)
REMARK    1  A    between atoms: C_9  and  C_4 
ROOT
ATOM      1  N   UNL d   1       6.198  -1.383   0.005  0.00  0.00    -0.334 N 
ATOM      2  HN  UNL d   1       6.202  -2.403   0.010  1.00  0.00     0.168 HD
ATOM      3  C   UNL d   1       7.387   0.718  -0.003  0.00  0.00     0.069 A 
ATOM      4  C   UNL d   1       5.085  -0.730   0.001  0.00  0.00     0.157 A 
ATOM      5  C   UNL d   1       7.395  -0.669   0.003  0.00  0.00     0.068 A 
ATOM      6  C   UNL d   1       6.081   1.389  -0.008  0.00  0.00     0.302 A 
ATOM      7  O   UNL d   1       4.969   0.618  -0.005  0.00  0.00    -0.257 OA
ATOM      8  C   UNL d   1       8.636  -1.326   0.005  0.00  0.00     0.040 A 
ATOM      9  C   UNL d   1       9.835  -0.606   0.002  0.00  0.00     0.040 A 
ATOM     10  C   UNL d   1       8.578   1.458  -0.004  0.00  0.00     0.039 A 
ATOM     11  O   UNL d   1       6.013   2.613  -0.014  0.00  0.00    -0.259 OA
ATOM     12  C   UNL d   1       9.797   0.786  -0.002  0.00  0.00     0.013 A 
ATOM     13 BR   UNL d   1       8.741  -3.224   0.009  0.00  0.00    -0.049 Br
ATOM     14 BR   UNL d   1      11.413   1.765  -0.004  0.00  0.00    -0.051 Br
ENDROOT
BRANCH   4  15
ATOM     15  C   UNL d   1       3.735  -1.382   0.002  0.00  0.00    -0.015 C 
ATOM     16  C   UNL d   1       3.704  -2.732   0.010  0.00  0.00    -0.020 C 
ATOM     17  C   UNL d   1       2.478  -3.593   0.011  0.00  0.00     0.036 C 
ATOM     18  C   UNL d   1       2.480  -0.558  -0.005  0.00  0.00     0.052 C 
ENDBRANCH   4  15
TORSDOF 1
