REMARK  3 active torsions:
REMARK  status: ('A' for Active; 'I' for Inactive)
REMARK    1  A    between atoms: C_9  and  C_2 
REMARK    2  A    between atoms: N_7  and  C_13 
REMARK    3  A    between atoms: C_14  and  C_10 
ROOT
ATOM      1  C   UNL d   1       2.435  -1.656  -0.011  0.00  0.00    -0.008 A 
ATOM      2  C   UNL d   1       2.564  -2.571  -1.064  0.00  0.00     0.016 A 
ATOM      3  C   UNL d   1       3.436  -1.616   0.967  0.00  0.00     0.016 A 
ATOM      4  C   UNL d   1       4.648  -3.422  -0.138  0.00  0.00     0.031 A 
ATOM      5  C   UNL d   1       4.527  -2.491   0.898  0.00  0.00     0.030 A 
ATOM      6  C   UNL d   1       3.667  -3.431  -1.135  0.00  0.00     0.030 A 
ENDROOT
BRANCH   4   7
ATOM      7  N   UNL d   1       5.764  -4.274  -0.117  0.00  0.00    -0.365 N 
ATOM      8  C   UNL d   1       5.632  -5.502  -0.506  0.00  0.00     0.099 C 
ATOM      9  HN  UNL d   1       6.670  -3.929   0.200  1.00  0.00     0.165 HD
BRANCH   8  10
ATOM     10  C   UNL d   1       6.746  -6.470  -0.436  0.00  0.00    -0.021 A 
ATOM     11  C   UNL d   1       7.947  -6.141   0.201  0.00  0.00     0.014 A 
ATOM     12  C   UNL d   1       8.962  -7.095   0.306  0.00  0.00     0.024 A 
ATOM     13  C   UNL d   1       8.775  -8.368  -0.232  0.00  0.00     0.034 A 
ATOM     14  C   UNL d   1       7.583  -8.696  -0.879  0.00  0.00     0.024 A 
ATOM     15 CL   UNL d   1      10.019  -9.548  -0.090  0.00  0.00    -0.084 Cl
ATOM     16  C   UNL d   1       6.563  -7.745  -0.981  0.00  0.00     0.014 A 
ENDBRANCH   8  10
ENDBRANCH   4   7
BRANCH   1  17
ATOM     17  C   UNL d   1       1.263  -0.792   0.053  0.00  0.00     0.063 A 
ATOM     18  N   UNL d   1       0.041  -1.201  -0.474  0.00  0.00    -0.292 N 
ATOM     19  N   UNL d   1      -0.901  -0.287  -0.309  0.00  0.00    -0.061 NA
ATOM     20  HN  UNL d   1      -0.110  -2.099  -0.934  1.00  0.00     0.183 HD
ATOM     21  S   UNL d   1      -0.343   1.088   0.461  0.00  0.00    -0.010 SA
ATOM     22  C   UNL d   1       1.253   0.475   0.611  0.00  0.00     0.096 A 
ENDBRANCH   1  17
TORSDOF 3
