REMARK  2 active torsions:
REMARK  status: ('A' for Active; 'I' for Inactive)
REMARK    1  A    between atoms: C_2  and  C_1 
REMARK    2  A    between atoms: C_8  and  C_4 
ROOT
ATOM      1  C   UNL d   1      -2.032  -2.575  -0.028  0.00  0.00     0.058 C 
ATOM      2  C   UNL d   1      -3.358  -2.858  -0.170  0.00  0.00     0.036 C 
ATOM      3  C   UNL d   1      -1.568  -1.168  -0.013  0.00  0.00     0.100 C 
ATOM      4  N   UNL d   1      -1.224  -0.059  -0.003  0.00  0.00    -0.191 NA
ENDROOT
BRANCH   1   5
ATOM      5  C   UNL d   1      -1.040  -3.646   0.055  0.00  0.00     0.013 A 
ATOM      6  C   UNL d   1      -1.144  -4.883  -0.569  0.00  0.00     0.102 A 
ATOM      7  N   UNL d   1      -0.007  -5.601  -0.293  0.00  0.00    -0.364 N 
ATOM      8  C   UNL d   1       0.836  -4.870   0.509  0.00  0.00     0.043 A 
ATOM      9  H   UNL d   1       0.192  -6.533  -0.631  0.00  0.00     0.165 HD
ATOM     10  C   UNL d   1       0.219  -3.638   0.750  0.00  0.00     0.004 A 
ATOM     11  C   UNL d   1       2.090  -5.212   1.032  0.00  0.00     0.030 A 
ATOM     12  C   UNL d   1       0.902  -2.710   1.569  0.00  0.00     0.014 A 
ATOM     13  C   UNL d   1       2.158  -3.037   2.097  0.00  0.00     0.001 A 
ATOM     14  C   UNL d   1       2.742  -4.270   1.830  0.00  0.00     0.002 A 
ENDBRANCH   1   5
BRANCH   2  15
ATOM     15  C   UNL d   1      -4.396  -1.816  -0.270  0.00  0.00    -0.013 A 
ATOM     16  C   UNL d   1      -4.794  -1.237  -1.490  0.00  0.00     0.045 A 
ATOM     17  C   UNL d   1      -5.705  -0.176  -1.514  0.00  0.00     0.048 A 
ATOM     18 CL   UNL d   1      -4.190  -1.817  -3.003  0.00  0.00    -0.083 Cl
ATOM     19  C   UNL d   1      -6.240   0.298  -0.320  0.00  0.00     0.035 A 
ATOM     20  C   UNL d   1      -5.889  -0.289   0.894  0.00  0.00     0.024 A 
ATOM     21 CL   UNL d   1      -7.344   1.618  -0.340  0.00  0.00    -0.084 Cl
ATOM     22  C   UNL d   1      -4.968  -1.340   0.920  0.00  0.00     0.015 A 
ENDBRANCH   2  15
TORSDOF 2
