REMARK  3 active torsions:
REMARK  status: ('A' for Active; 'I' for Inactive)
REMARK    1  A    between atoms: C_2  and  C_1 
REMARK       I    between atoms: N_11  and  C_2 
REMARK    2  A    between atoms: C_18  and  N_11 
REMARK    3  A    between atoms: C_12  and  C_16 
ROOT
ATOM      1  C   UNL d   1       4.870  -2.276   0.281  0.00  0.00    -0.001 A 
ATOM      2  C   UNL d   1       2.168  -3.101   0.000  0.00  0.00     0.035 A 
ATOM      3  C   UNL d   1       4.501  -3.230  -0.671  0.00  0.00     0.016 A 
ATOM      4  C   UNL d   1       3.864  -1.744   1.099  0.00  0.00     0.016 A 
ATOM      5  C   UNL d   1       3.170  -3.635  -0.810  0.00  0.00     0.030 A 
ATOM      6  C   UNL d   1       2.526  -2.145   0.956  0.00  0.00     0.030 A 
ENDROOT
BRANCH   2   7
ATOM      7  N   UNL d   1       0.803  -3.448  -0.122  0.00  0.00    -0.322 N 
ATOM      8  C   UNL d   1       0.284  -4.485  -0.890  0.00  0.00     0.266 C 
ATOM      9  O   UNL d   1       0.989  -5.331  -1.432  0.00  0.00    -0.267 OA
ATOM     10  H   UNL d   1       0.147  -2.901   0.419  0.00  0.00     0.169 HD
BRANCH   8  11
ATOM     11  C   UNL d   1      -1.159  -4.539  -1.013  0.00  0.00     0.114 A 
ATOM     12  C   UNL d   1      -1.958  -5.470  -1.673  0.00  0.00     0.046 A 
ATOM     13  N   UNL d   1      -3.324  -5.201  -1.616  0.00  0.00    -0.298 N 
ATOM     14  C   UNL d   1      -1.548  -6.687  -2.424  0.00  0.00     0.071 C 
ATOM     15  N   UNL d   1      -3.585  -4.097  -0.941  0.00  0.00    -0.269 N 
ATOM     16  HN  UNL d   1      -4.039  -5.789  -2.045  1.00  0.00     0.187 HD
ATOM     17  S   UNL d   1      -2.212  -3.356  -0.359  0.00  0.00     0.009 SA
ATOM     18  HN  UNL d   1      -4.528  -3.736  -0.793  1.00  0.00     0.195 HD
ENDBRANCH   8  11
ENDBRANCH   2   7
BRANCH   1  19
ATOM     19  C   UNL d   1       6.261  -1.857   0.384  0.00  0.00     0.102 A 
ATOM     20  O   UNL d   1       6.574  -0.910   1.325  0.00  0.00    -0.304 OA
ATOM     21  C   UNL d   1       7.913  -0.721   1.170  0.00  0.00     0.233 A 
ATOM     22  N   UNL d   1       8.479  -1.445   0.234  0.00  0.00    -0.354 N 
ATOM     23  C   UNL d   1       7.433  -2.174  -0.274  0.00  0.00     0.127 A 
ATOM     24  HN  UNL d   1       9.459  -1.463  -0.048  1.00  0.00     0.166 HD
ENDBRANCH   1  19
TORSDOF 3
