REMARK  5 active torsions:
REMARK  status: ('A' for Active; 'I' for Inactive)
REMARK    1  A    between atoms: N_4  and  S_1 
REMARK    2  A    between atoms: C_9  and  S_1 
REMARK    3  A    between atoms: C_7  and  C_2 
REMARK    4  A    between atoms: C_3  and  N_4 
REMARK    5  A    between atoms: O_15  and  C_7 
ROOT
ATOM      1  N   UNL d   1       0.483   1.209  -1.047  0.00  0.00    -0.179 NA
ATOM      2  H   UNL d   1      -0.319   1.203  -1.695  0.00  0.00     0.146 HD
ENDROOT
BRANCH   1   3
ATOM      3  C   UNL d   1       0.760   2.546  -0.630  0.00  0.00     0.052 A 
ATOM      4  C   UNL d   1      -0.177   3.569  -0.577  0.00  0.00     0.102 A 
ATOM      5  S   UNL d   1       0.507   5.033  -0.014  0.00  0.00    -0.093 SA
ATOM      6  C   UNL d   1       2.054   4.337   0.107  0.00  0.00     0.059 A 
ATOM      7  C   UNL d   1       2.076   3.004  -0.259  0.00  0.00    -0.032 A 
ATOM      8  C   UNL d   1       3.329   2.195  -0.261  0.00  0.00     0.050 C 
BRANCH   4   9
ATOM      9  C   UNL d   1      -1.571   3.492  -0.963  0.00  0.00     0.301 C 
ATOM     10  O   UNL d   1      -2.024   2.647  -1.728  0.00  0.00    -0.259 OA
BRANCH   9  11
ATOM     11  O   UNL d   1      -2.313   4.460  -0.352  0.00  0.00    -0.322 OA
ATOM     12  C   UNL d   1      -3.707   4.418  -0.649  0.00  0.00     0.213 C 
ENDBRANCH   9  11
ENDBRANCH   4   9
ENDBRANCH   1   3
BRANCH   1  13
ATOM     13  S   UNL d   1      -0.026   0.118   0.188  0.00  0.00     0.245 S 
ATOM     14  O   UNL d   1      -1.472   0.094   0.140  0.00  0.00    -0.206 OA
ATOM     15  O   UNL d   1       0.695   0.390   1.413  0.00  0.00    -0.206 OA
BRANCH  13  16
ATOM     16  C   UNL d   1       0.570  -1.443  -0.425  0.00  0.00     0.075 A 
ATOM     17  C   UNL d   1       1.950  -1.639  -0.547  0.00  0.00     0.028 A 
ATOM     18  C   UNL d   1       2.435  -2.867  -0.998  0.00  0.00     0.044 A 
ATOM     19  C   UNL d   1       1.541  -3.888  -1.307  0.00  0.00     0.116 A 
ATOM     20  C   UNL d   1       0.168  -3.705  -1.172  0.00  0.00     0.044 A 
ATOM     21  F   UNL d   1       2.011  -5.066  -1.734  0.00  0.00    -0.206 F 
ATOM     22  C   UNL d   1      -0.327  -2.476  -0.727  0.00  0.00     0.028 A 
ENDBRANCH  13  16
ENDBRANCH   1  13
TORSDOF 5
