REMARK  7 active torsions:
REMARK  status: ('A' for Active; 'I' for Inactive)
REMARK    1  A    between atoms: C_13  and  N_1 
REMARK    2  A    between atoms: S_15  and  C_2 
REMARK    3  A    between atoms: O_23  and  C_3 
REMARK    4  A    between atoms: C_18  and  C_10 
REMARK    5  A    between atoms: C_12  and  C_22 
REMARK    6  A    between atoms: C_16  and  C_13 
REMARK    7  A    between atoms: C_22  and  S_15 
ROOT
ATOM      1  N   UNL d   1       3.261  -0.598   2.697  0.00  0.00    -0.285 N 
ATOM      2  C   UNL d   1       2.756  -1.390   1.702  0.00  0.00     0.165 A 
ATOM      3  C   UNL d   1       2.848  -1.194   3.861  0.00  0.00     0.240 A 
ATOM      4  N   UNL d   1       2.065  -2.375   2.224  0.00  0.00    -0.277 N 
ATOM      5  HN  UNL d   1       1.579  -3.109   1.707  1.00  0.00     0.189 HD
ATOM      6  N   UNL d   1       2.111  -2.241   3.593  0.00  0.00    -0.263 N 
ATOM      7  HN  UNL d   1       1.655  -2.848   4.274  1.00  0.00     0.190 HD
ENDROOT
BRANCH   2   8
ATOM      8  S   UNL d   1       2.959  -1.095   0.010  0.00  0.00    -0.086 SA
BRANCH   8   9
ATOM      9  C   UNL d   1       2.880  -2.804  -0.642  0.00  0.00     0.140 C 
BRANCH   9  10
ATOM     10  C   UNL d   1       4.153  -3.580  -0.456  0.00  0.00     0.026 A 
ATOM     11  N   UNL d   1       4.084  -4.969  -0.357  0.00  0.00    -0.352 N 
ATOM     12  C   UNL d   1       5.284  -5.493  -0.184  0.00  0.00     0.084 A 
ATOM     13  HN  UNL d   1       3.220  -5.509  -0.411  1.00  0.00     0.166 HD
ATOM     14  S   UNL d   1       6.569  -4.341  -0.174  0.00  0.00    -0.081 SA
ATOM     15  C   UNL d   1       5.442  -3.081  -0.400  0.00  0.00     0.077 A 
BRANCH  12  16
ATOM     16  C   UNL d   1       5.564  -6.915   0.090  0.00  0.00    -0.002 A 
ATOM     17  C   UNL d   1       6.775  -7.529  -0.274  0.00  0.00     0.014 A 
ATOM     18  C   UNL d   1       7.055  -8.846   0.102  0.00  0.00     0.001 A 
ATOM     19  C   UNL d   1       6.122  -9.575   0.834  0.00  0.00     0.000 A 
ATOM     20  C   UNL d   1       4.898  -8.998   1.167  0.00  0.00     0.001 A 
ATOM     21  C   UNL d   1       4.618  -7.680   0.790  0.00  0.00     0.014 A 
ENDBRANCH  12  16
ENDBRANCH   9  10
ENDBRANCH   8   9
ENDBRANCH   2   8
BRANCH   1  22
ATOM     22  C   UNL d   1       3.995   0.643   2.594  0.00  0.00     0.200 C 
BRANCH  22  23
ATOM     23  C   UNL d   1       5.427   0.421   2.915  0.00  0.00     0.070 A 
ATOM     24  O   UNL d   1       5.743   0.333   4.242  0.00  0.00    -0.325 OA
ATOM     25  C   UNL d   1       7.080   0.109   4.317  0.00  0.00     0.142 A 
ATOM     26  C   UNL d   1       7.631   0.060   3.058  0.00  0.00     0.027 A 
ATOM     27  C   UNL d   1       6.564   0.269   2.150  0.00  0.00     0.036 A 
ENDBRANCH  22  23
ENDBRANCH   1  22
BRANCH   3  28
ATOM     28  O   UNL d   1       3.128  -0.780   5.089  0.00  0.00    -0.331 OA
ATOM     29  H   UNL d   1       3.956  -0.274   5.067  0.00  0.00     0.221 HD
ENDBRANCH   3  28
TORSDOF 7
