REMARK  7 active torsions:
REMARK  status: ('A' for Active; 'I' for Inactive)
REMARK    1  A    between atoms: N_6  and  C_1 
REMARK    2  A    between atoms: C_2  and  N_7 
REMARK    3  A    between atoms: C_14  and  C_3 
REMARK    4  A    between atoms: C_17  and  N_4 
REMARK    5  A    between atoms: N_7  and  C_12 
REMARK    6  A    between atoms: O_19  and  C_14 
REMARK    7  A    between atoms: C_25  and  O_19 
ROOT
ATOM      1  N   UNL d   1       1.900  -2.379  -0.315  0.00  0.00    -0.326 N 
ATOM      2  C   UNL d   1       3.253  -2.198  -0.305  0.00  0.00     0.178 C 
ATOM      3  S   UNL d   1       4.109  -3.576  -0.731  0.00  0.00    -0.040 SA
ATOM      4  H   UNL d   1       1.635  -3.196  -0.863  0.00  0.00     0.169 HD
ENDROOT
BRANCH   2   5
ATOM      5  N   UNL d   1       3.694  -0.905  -0.151  0.00  0.00    -0.318 N 
ATOM      6  H   UNL d   1       2.986  -0.246   0.148  0.00  0.00     0.170 HD
BRANCH   5   7
ATOM      7  C   UNL d   1       4.941  -0.394  -0.530  0.00  0.00     0.131 A 
ATOM      8  N   UNL d   1       5.192   0.962  -0.816  0.00  0.00    -0.240 N 
ATOM      9  N   UNL d   1       6.526   1.188  -0.998  0.00  0.00    -0.297 N 
ATOM     10  C   UNL d   1       7.094  -0.015  -0.986  0.00  0.00     0.026 A 
ATOM     11  HN  UNL d   1       6.990   2.089  -1.118  1.00  0.00     0.187 HD
ATOM     12  C   UNL d   1       6.161  -1.020  -0.688  0.00  0.00     0.076 A 
ATOM     13  C   UNL d   1       8.549  -0.174  -1.222  0.00  0.00     0.070 C 
BRANCH   8  14
ATOM     14  C   UNL d   1       4.292   2.064  -0.976  0.00  0.00     0.058 A 
ATOM     15  C   UNL d   1       4.815   3.370  -0.939  0.00  0.00     0.031 A 
ATOM     16  C   UNL d   1       3.973   4.479  -1.045  0.00  0.00     0.002 A 
ATOM     17  C   UNL d   1       2.603   4.299  -1.201  0.00  0.00     0.000 A 
ATOM     18  C   UNL d   1       2.079   3.011  -1.292  0.00  0.00     0.002 A 
ATOM     19  C   UNL d   1       2.920   1.897  -1.201  0.00  0.00     0.031 A 
ENDBRANCH   8  14
ENDBRANCH   5   7
ENDBRANCH   2   5
BRANCH   1  20
ATOM     20  C   UNL d   1       0.837  -1.659   0.198  0.00  0.00     0.093 C 
ATOM     21  C   UNL d   1      -0.487  -1.742  -0.211  0.00  0.00     0.080 C 
ATOM     22  C   UNL d   1      -1.362  -1.106   0.760  0.00  0.00    -0.030 C 
ATOM     23  C   UNL d   1      -2.859  -1.072   0.654  0.00  0.00     0.050 C 
ATOM     24  C   UNL d   1      -0.642  -0.602   1.833  0.00  0.00    -0.012 C 
ATOM     25  S   UNL d   1       1.047  -0.722   1.588  0.00  0.00    -0.076 SA
ATOM     26  C   UNL d   1      -1.164  -0.010   3.104  0.00  0.00     0.057 C 
BRANCH  21  27
ATOM     27  C   UNL d   1      -0.922  -2.431  -1.435  0.00  0.00     0.296 C 
ATOM     28  O   UNL d   1      -2.091  -2.700  -1.688  0.00  0.00    -0.259 OA
BRANCH  27  29
ATOM     29  O   UNL d   1       0.124  -2.759  -2.251  0.00  0.00    -0.318 OA
BRANCH  29  30
ATOM     30  C   UNL d   1      -0.172  -3.564  -3.398  0.00  0.00     0.174 C 
ATOM     31  C   UNL d   1      -0.164  -5.024  -2.987  0.00  0.00     0.034 C 
ENDBRANCH  29  30
ENDBRANCH  27  29
ENDBRANCH  21  27
ENDBRANCH   1  20
TORSDOF 7
