REMARK  3 active torsions:
REMARK  status: ('A' for Active; 'I' for Inactive)
REMARK    1  A    between atoms: C_15  and  C_4 
REMARK    2  A    between atoms: N_11  and  C_8 
REMARK    3  A    between atoms: C_12  and  C_17 
ROOT
ATOM      1  N   UNL d   1       0.088   0.649   0.001  0.00  0.00    -0.219 N 
ATOM      2  N   UNL d   1      -1.094   1.350   0.053  0.00  0.00    -0.276 N 
ATOM      3  HN  UNL d   1      -1.125   2.369   0.092  1.00  0.00     0.189 HD
ATOM      4  C   UNL d   1       1.382   1.148  -0.038  0.00  0.00     0.154 A 
ATOM      5  N   UNL d   1       2.221   0.126  -0.146  0.00  0.00    -0.282 N 
ATOM      6  HN  UNL d   1       3.236   0.198  -0.222  1.00  0.00     0.188 HD
ATOM      7  C   UNL d   1       0.234  -0.721  -0.053  0.00  0.00     0.143 A 
ATOM      8  C   UNL d   1      -2.178   0.613   0.050  0.00  0.00     0.118 A 
ATOM      9  N   UNL d   1       1.503  -1.042  -0.140  0.00  0.00    -0.282 N 
ATOM     10  HN  UNL d   1       1.885  -1.986  -0.193  1.00  0.00     0.188 HD
ATOM     11  C   UNL d   1      -0.931  -1.503   0.002  0.00  0.00     0.056 A 
ATOM     12  C   UNL d   1      -2.116  -0.890   0.054  0.00  0.00     0.053 A 
ENDROOT
BRANCH   4  13
ATOM     13  C   UNL d   1       1.782   2.558   0.011  0.00  0.00     0.011 A 
ATOM     14  C   UNL d   1       1.007   3.538   0.643  0.00  0.00     0.016 A 
ATOM     15  C   UNL d   1       1.433   4.869   0.694  0.00  0.00     0.017 A 
ATOM     16  C   UNL d   1       2.651   5.253   0.118  0.00  0.00     0.048 A 
ATOM     17  C   UNL d   1       3.437   4.275  -0.506  0.00  0.00     0.017 A 
ATOM     18  C   UNL d   1       3.008   2.944  -0.554  0.00  0.00     0.016 A 
BRANCH  16  19
ATOM     19  C   UNL d   1       3.120   6.686   0.170  0.00  0.00     0.417 C 
ATOM     20  F   UNL d   1       2.244   7.521   0.797  0.00  0.00    -0.166 F 
ATOM     21  F   UNL d   1       4.303   6.825   0.829  0.00  0.00    -0.166 F 
ATOM     22  F   UNL d   1       3.315   7.216  -1.069  0.00  0.00    -0.166 F 
ENDBRANCH  16  19
ENDBRANCH   4  13
BRANCH   8  23
ATOM     23  N   UNL d   1      -3.413   1.243   0.059  0.00  0.00    -0.361 N 
ATOM     24  C   UNL d   1      -4.639   0.659  -0.498  0.00  0.00     0.156 C 
ATOM     25  C   UNL d   1      -5.292   1.650  -1.480  0.00  0.00     0.136 C 
ATOM     26  C   UNL d   1      -6.611   1.092  -1.997  0.00  0.00     0.041 C 
ATOM     27  O   UNL d   1      -5.557   2.908  -0.836  0.00  0.00    -0.378 OA
ATOM     28  C   UNL d   1      -4.330   3.503  -0.365  0.00  0.00     0.136 C 
ATOM     29  C   UNL d   1      -3.624   2.577   0.646  0.00  0.00     0.156 C 
ATOM     30  C   UNL d   1      -4.691   4.838   0.274  0.00  0.00     0.041 C 
ENDBRANCH   8  23
TORSDOF 3
