REMARK  10 active torsions:
REMARK  status: ('A' for Active; 'I' for Inactive)
REMARK    1  A    between atoms: C_2  and  C_1 
REMARK    2  A    between atoms: C_3  and  C_1 
REMARK    3  A    between atoms: O_14  and  C_2 
REMARK    4  A    between atoms: O_15  and  C_3 
REMARK       I    between atoms: C_4  and  N_10 
REMARK    5  A    between atoms: C_6  and  C_4 
REMARK    6  A    between atoms: N_7  and  C_5 
REMARK    7  A    between atoms: N_10  and  N_7 
REMARK    8  A    between atoms: C_20  and  O_14 
REMARK    9  A    between atoms: C_21  and  O_15 
REMARK   10  A    between atoms: O_19  and  C_16 
ROOT
ATOM      1  N   UNL d   1       3.215   0.905  -0.793  0.00  0.00    -0.308 N 
ATOM      2  H   UNL d   1       2.789   1.551  -1.470  0.00  0.00     0.186 HD
ENDROOT
BRANCH   1   3
ATOM      3  C   UNL d   1       2.396   0.119  -0.020  0.00  0.00     0.131 C 
ATOM      4  C   UNL d   1       1.051   0.059   0.051  0.00  0.00     0.131 C 
BRANCH   4   5
ATOM      5  C   UNL d   1       0.156   0.843  -0.827  0.00  0.00     0.300 C 
ATOM      6  O   UNL d   1      -0.949   0.458  -1.185  0.00  0.00    -0.259 OA
BRANCH   5   7
ATOM      7  O   UNL d   1       0.759   1.981  -1.267  0.00  0.00    -0.318 OA
BRANCH   7   8
ATOM      8  C   UNL d   1       0.171   2.546  -2.447  0.00  0.00     0.174 C 
ATOM      9  C   UNL d   1       0.746   1.819  -3.651  0.00  0.00     0.034 C 
ENDBRANCH   7   8
ENDBRANCH   5   7
ENDBRANCH   4   5
BRANCH   4  10
ATOM     10  C   UNL d   1       0.485  -0.955   0.976  0.00  0.00     0.300 C 
ATOM     11  O   UNL d   1       1.109  -1.904   1.417  0.00  0.00    -0.259 OA
BRANCH  10  12
ATOM     12  O   UNL d   1      -0.795  -0.639   1.294  0.00  0.00    -0.318 OA
BRANCH  12  13
ATOM     13  C   UNL d   1      -1.495  -1.575   2.128  0.00  0.00     0.174 C 
ATOM     14  C   UNL d   1      -1.215  -1.276   3.588  0.00  0.00     0.034 C 
ENDBRANCH  12  13
ENDBRANCH  10  12
ENDBRANCH   4  10
ENDBRANCH   1   3
BRANCH   1  15
ATOM     15  N   UNL d   1       4.593   0.769  -0.874  0.00  0.00    -0.266 N 
ATOM     16  C   UNL d   1       5.244   1.326  -1.964  0.00  0.00     0.270 C 
ATOM     17  O   UNL d   1       4.641   1.836  -2.907  0.00  0.00    -0.266 OA
ATOM     18  H   UNL d   1       5.060   0.304  -0.104  0.00  0.00     0.190 HD
BRANCH  16  19
ATOM     19  C   UNL d   1       6.743   1.302  -1.949  0.00  0.00     0.033 A 
ATOM     20  C   UNL d   1       7.492   1.052  -0.791  0.00  0.00     0.020 A 
ATOM     21  C   UNL d   1       8.894   1.107  -0.820  0.00  0.00     0.038 A 
ATOM     22  C   UNL d   1       9.561   1.425  -2.003  0.00  0.00     0.068 A 
ATOM     23  C   UNL d   1       8.824   1.644  -3.165  0.00  0.00     0.038 A 
ATOM     24  C   UNL d   1       7.424   1.595  -3.139  0.00  0.00     0.020 A 
BRANCH  22  25
ATOM     25  O   UNL d   1      10.917   1.511  -2.139  0.00  0.00    -0.356 OA
ATOM     26  C   UNL d   1      11.622   1.961  -0.984  0.00  0.00     0.210 C 
ENDBRANCH  22  25
ENDBRANCH  16  19
ENDBRANCH   1  15
TORSDOF 10
