REMARK  1 active torsions:
REMARK  status: ('A' for Active; 'I' for Inactive)
REMARK    1  A    between atoms: C_6  and  N_1 
ROOT
ATOM      1  N   UNL d   1       2.417  -0.594  -0.078  0.00  0.00    -0.254 N 
ATOM      2  C   UNL d   1       2.367   0.808  -0.033  0.00  0.00     0.186 A 
ATOM      3  C   UNL d   1       1.266  -1.416  -0.078  0.00  0.00     0.270 A 
ATOM      4  C   UNL d   1      -0.041  -0.734  -0.028  0.00  0.00     0.098 A 
ATOM      5  N   UNL d   1       1.120   1.374   0.026  0.00  0.00    -0.332 N 
ATOM      6  C   UNL d   1      -0.069   0.655   0.004  0.00  0.00     0.053 A 
ATOM      7  S   UNL d   1       3.636   1.911  -0.118  0.00  0.00    -0.040 SA
ATOM      8  O   UNL d   1       1.289  -2.644  -0.103  0.00  0.00    -0.266 OA
ATOM      9  C   UNL d   1      -1.248  -1.433  -0.030  0.00  0.00     0.134 A 
ATOM     10  F   UNL d   1      -1.288  -2.773  -0.034  0.00  0.00    -0.205 F 
ATOM     11  C   UNL d   1      -1.284   1.348   0.003  0.00  0.00     0.031 A 
ATOM     12  C   UNL d   1      -2.486   0.641  -0.024  0.00  0.00     0.005 A 
ATOM     13  C   UNL d   1      -2.467  -0.752  -0.031  0.00  0.00     0.043 A 
ATOM     14  H   UNL d   1       1.095   2.389   0.035  0.00  0.00     0.168 HD
ENDROOT
BRANCH   1  15
ATOM     15  C   UNL d   1       3.677  -1.272  -0.176  0.00  0.00     0.045 A 
ATOM     16  C   UNL d   1       4.645  -1.138   0.826  0.00  0.00     0.037 A 
ATOM     17  C   UNL d   1       5.896  -1.766   0.714  0.00  0.00    -0.054 A 
ATOM     18  C   UNL d   1       6.894  -1.619   1.830  0.00  0.00     0.049 C 
ATOM     19  C   UNL d   1       6.187  -2.526  -0.437  0.00  0.00    -0.056 A 
ATOM     20  C   UNL d   1       5.200  -2.687  -1.419  0.00  0.00     0.009 A 
ATOM     21  C   UNL d   1       7.528  -3.180  -0.629  0.00  0.00     0.049 C 
ATOM     22  C   UNL d   1       3.950  -2.079  -1.284  0.00  0.00     0.031 A 
ENDBRANCH   1  15
TORSDOF 1
