REMARK  6 active torsions:
REMARK  status: ('A' for Active; 'I' for Inactive)
REMARK    1  A    between atoms: C_25  and  N_1 
REMARK    2  A    between atoms: S_18  and  C_7 
REMARK    3  A    between atoms: C_8  and  N_15 
REMARK       I    between atoms: N_15  and  C_19 
REMARK    4  A    between atoms: C_30  and  S_18 
REMARK    5  A    between atoms: C_19  and  C_30 
REMARK    6  A    between atoms: C_31  and  C_25 
ROOT
ATOM      1  C   UNL d   1      -3.548  -1.798  -0.011  0.00  0.00     0.185 C 
ENDROOT
BRANCH   1   2
ATOM      2  C   UNL d   1      -4.933  -2.285   0.388  0.00  0.00     0.233 C 
ATOM      3  N   UNL d   1      -5.574  -1.577   1.378  0.00  0.00    -0.305 N 
ATOM      4  H   UNL d   1      -5.129  -0.776   1.802  0.00  0.00     0.171 HD
ATOM      5  O   UNL d   1      -5.418  -3.240  -0.221  0.00  0.00    -0.272 OA
BRANCH   3   6
ATOM      6  C   UNL d   1      -6.801  -1.967   1.851  0.00  0.00     0.168 A 
ATOM      7  S   UNL d   1      -7.460  -0.985   3.083  0.00  0.00    -0.032 SA
ATOM      8  C   UNL d   1      -8.795  -2.076   3.132  0.00  0.00     0.109 A 
ATOM      9  C   UNL d   1      -9.911  -1.986   4.040  0.00  0.00     0.040 A 
ATOM     10  N   UNL d   1      -8.693  -3.069   2.271  0.00  0.00    -0.291 N 
ATOM     11  S   UNL d   1     -10.427  -0.522   4.773  0.00  0.00    -0.099 SA
ATOM     12  C   UNL d   1     -10.725  -3.039   4.424  0.00  0.00     0.022 A 
ATOM     13  C   UNL d   1     -11.716  -1.296   5.589  0.00  0.00     0.050 A 
ATOM     14  C   UNL d   1     -11.758  -2.645   5.324  0.00  0.00     0.008 A 
ATOM     15  N   UNL d   1      -7.539  -2.995   1.516  0.00  0.00    -0.279 N 
ATOM     16  HN  UNL d   1      -9.388  -3.810   2.174  1.00  0.00     0.187 HD
ATOM     17  HN  UNL d   1      -7.292  -3.661   0.784  1.00  0.00     0.189 HD
ENDBRANCH   3   6
ENDBRANCH   1   2
BRANCH   1  18
ATOM     18  S   UNL d   1      -2.741  -0.692   1.188  0.00  0.00    -0.083 SA
BRANCH  18  19
ATOM     19  C   UNL d   1      -1.308  -0.303   0.290  0.00  0.00     0.163 A 
ATOM     20  N   UNL d   1      -0.257   0.435   0.769  0.00  0.00    -0.306 N 
ATOM     21  C   UNL d   1       0.593   0.593  -0.304  0.00  0.00     0.159 A 
ATOM     22  N   UNL d   1       0.120  -0.091  -1.327  0.00  0.00    -0.281 N 
ATOM     23  C   UNL d   1       1.785   1.385  -0.362  0.00  0.00     0.120 A 
ATOM     24  N   UNL d   1      -1.077  -0.648  -0.955  0.00  0.00    -0.278 N 
ATOM     25  HN  UNL d   1       0.568  -0.190  -2.239  1.00  0.00     0.188 HD
ATOM     26  HN  UNL d   1      -1.680  -1.226  -1.541  1.00  0.00     0.189 HD
ATOM     27  O   UNL d   1       2.184   2.246   0.630  0.00  0.00    -0.319 OA
ATOM     28  C   UNL d   1       2.701   1.464  -1.398  0.00  0.00     0.043 A 
ATOM     29  C   UNL d   1       3.323   2.858   0.220  0.00  0.00     0.142 A 
ATOM     30  C   UNL d   1       3.688   2.409  -1.025  0.00  0.00     0.027 A 
BRANCH  20  31
ATOM     31  C   UNL d   1      -0.035   0.873   2.134  0.00  0.00     0.159 C 
BRANCH  31  32
ATOM     32  C   UNL d   1      -0.613   2.232   2.399  0.00  0.00    -0.017 C 
ATOM     33  C   UNL d   1      -1.546   2.489   3.326  0.00  0.00     0.008 C 
ENDBRANCH  31  32
ENDBRANCH  20  31
ENDBRANCH  18  19
ENDBRANCH   1  18
TORSDOF 6
