REMARK  6 active torsions:
REMARK  status: ('A' for Active; 'I' for Inactive)
REMARK    1  A    between atoms: C_8  and  C_1 
REMARK    2  A    between atoms: C_9  and  C_2 
REMARK    3  A    between atoms: C_10  and  C_3 
REMARK    4  A    between atoms: O_15  and  C_8 
REMARK    5  A    between atoms: O_16  and  C_9 
REMARK    6  A    between atoms: O_22  and  C_17 
ROOT
ATOM      1  C   UNL d   1      -1.196  -1.079   0.235  0.00  0.00     0.073 A 
ATOM      2  C   UNL d   1       1.182  -1.063  -0.096  0.00  0.00     0.073 A 
ATOM      3  C   UNL d   1      -0.001  -1.826   0.066  0.00  0.00     0.011 A 
ATOM      4  N   UNL d   1      -0.032   1.022   0.026  0.00  0.00    -0.362 N 
ATOM      5  HN  UNL d   1      -0.043   2.042  -0.001  1.00  0.00     0.165 HD
ATOM      6  C   UNL d   1      -1.178   0.322   0.186  0.00  0.00     0.022 A 
ATOM      7  C   UNL d   1       1.131   0.340  -0.099  0.00  0.00     0.022 A 
ATOM      8  C   UNL d   1      -2.421   1.161   0.277  0.00  0.00     0.069 C 
ATOM      9  C   UNL d   1       2.354   1.206  -0.212  0.00  0.00     0.069 C 
ENDROOT
BRANCH   3  10
ATOM     10  C   UNL d   1      -0.006  -3.319   0.040  0.00  0.00    -0.024 A 
ATOM     11  C   UNL d   1       0.906  -4.087   0.789  0.00  0.00     0.015 A 
ATOM     12  C   UNL d   1       0.899  -5.492   0.749  0.00  0.00     0.037 A 
ATOM     13  C   UNL d   1      -0.049  -6.165  -0.015  0.00  0.00     0.068 A 
ATOM     14  C   UNL d   1      -0.982  -5.430  -0.737  0.00  0.00     0.037 A 
ATOM     15  C   UNL d   1      -0.939  -4.030  -0.738  0.00  0.00     0.015 A 
BRANCH  13  16
ATOM     16  O   UNL d   1      -0.189  -7.523  -0.081  0.00  0.00    -0.356 OA
ATOM     17  C   UNL d   1       1.029  -8.260  -0.051  0.00  0.00     0.210 C 
ENDBRANCH  13  16
ENDBRANCH   3  10
BRANCH   2  18
ATOM     18  C   UNL d   1       2.489  -1.692  -0.357  0.00  0.00     0.295 C 
ATOM     19  O   UNL d   1       2.764  -2.294  -1.381  0.00  0.00    -0.259 OA
BRANCH  18  20
ATOM     20  O   UNL d   1       3.302  -1.425   0.692  0.00  0.00    -0.322 OA
ATOM     21  C   UNL d   1       4.684  -1.769   0.536  0.00  0.00     0.213 C 
ENDBRANCH  18  20
ENDBRANCH   2  18
BRANCH   1  22
ATOM     22  C   UNL d   1      -2.470  -1.733   0.588  0.00  0.00     0.295 C 
ATOM     23  O   UNL d   1      -2.663  -2.307   1.644  0.00  0.00    -0.259 OA
BRANCH  22  24
ATOM     24  O   UNL d   1      -3.350  -1.542  -0.424  0.00  0.00    -0.322 OA
ATOM     25  C   UNL d   1      -4.686  -1.994  -0.181  0.00  0.00     0.213 C 
ENDBRANCH  22  24
ENDBRANCH   1  22
TORSDOF 6
