REMARK  4 active torsions:
REMARK  status: ('A' for Active; 'I' for Inactive)
REMARK       I    between atoms: N_5  and  C_1 
REMARK    1  A    between atoms: O_9  and  C_1 
REMARK    2  A    between atoms: N_3  and  O_9 
REMARK    3  A    between atoms: C_15  and  N_5 
REMARK    4  A    between atoms: C_12  and  C_11 
ROOT
ATOM      1  N   UNL d   1       3.220   1.203   0.140  0.00  0.00    -0.267 N 
ATOM      2  HN  UNL d   1       2.716   2.085   0.052  1.00  0.00     0.194 HD
ATOM      3  C   UNL d   1       4.507   1.034   0.097  0.00  0.00     0.126 C 
ENDROOT
BRANCH   1   4
ATOM      4  O   UNL d   1       2.656  -0.085   0.336  0.00  0.00    -0.181 OA
BRANCH   4   5
ATOM      5  C   UNL d   1       1.273  -0.105   0.311  0.00  0.00     0.387 C 
ATOM      6  N   UNL d   1       0.698   1.142   0.346  0.00  0.00    -0.301 N 
ATOM      7  H   UNL d   1       1.391   1.880   0.396  0.00  0.00     0.171 HD
ATOM      8  O   UNL d   1       0.688  -1.183   0.291  0.00  0.00    -0.236 OA
BRANCH   6   9
ATOM      9  C   UNL d   1      -0.670   1.466   0.361  0.00  0.00     0.036 A 
ATOM     10  C   UNL d   1      -1.691   0.518   0.245  0.00  0.00     0.029 A 
ATOM     11  C   UNL d   1      -3.035   0.908   0.262  0.00  0.00     0.002 A 
ATOM     12  C   UNL d   1      -3.371   2.251   0.399  0.00  0.00     0.000 A 
ATOM     13  C   UNL d   1      -2.363   3.206   0.517  0.00  0.00     0.002 A 
ATOM     14  C   UNL d   1      -1.020   2.816   0.495  0.00  0.00     0.029 A 
ENDBRANCH   6   9
ENDBRANCH   4   5
ENDBRANCH   1   4
BRANCH   3  15
ATOM     15  C   UNL d   1       5.468   2.119  -0.173  0.00  0.00    -0.017 A 
ATOM     16  C   UNL d   1       6.832   1.802  -0.185  0.00  0.00     0.040 A 
ATOM     17  C   UNL d   1       7.767   2.792  -0.488  0.00  0.00     0.073 A 
ATOM     18 CL   UNL d   1       9.441   2.391  -0.517  0.00  0.00    -0.081 Cl
ATOM     19  C   UNL d   1       7.340   4.087  -0.774  0.00  0.00     0.138 A 
ATOM     20  C   UNL d   1       5.984   4.407  -0.755  0.00  0.00     0.045 A 
ATOM     21  F   UNL d   1       8.225   5.048  -1.080  0.00  0.00    -0.204 F 
ATOM     22  C   UNL d   1       5.041   3.421  -0.453  0.00  0.00     0.016 A 
ENDBRANCH   3  15
TORSDOF 4
