REMARK  3 active torsions:
REMARK  status: ('A' for Active; 'I' for Inactive)
REMARK    1  A    between atoms: C_4  and  C_3 
REMARK       I    between atoms: N_7  and  C_4 
REMARK    2  A    between atoms: C_11  and  N_7 
REMARK    3  A    between atoms: O_18  and  C_13 
ROOT
ATOM      1  C   UNL d   1       3.182  -0.004   0.355  0.00  0.00     0.270 C 
ATOM      2  N   UNL d   1       3.784   1.230   0.232  0.00  0.00    -0.322 N 
ATOM      3  O   UNL d   1       2.031  -0.267   0.673  0.00  0.00    -0.266 OA
ATOM      4  H   UNL d   1       4.757   1.208  -0.060  0.00  0.00     0.169 HD
ENDROOT
BRANCH   1   5
ATOM      5  C   UNL d   1       4.114  -1.166   0.026  0.00  0.00     0.094 C 
ATOM      6  N   UNL d   1       5.382  -0.923  -0.140  0.00  0.00    -0.297 N 
ATOM      7  N   UNL d   1       6.195  -1.994  -0.379  0.00  0.00    -0.270 N 
ATOM      8  HN  UNL d   1       5.753   0.026  -0.094  1.00  0.00     0.187 HD
ATOM      9  C   UNL d   1       5.794  -3.277  -0.666  0.00  0.00     0.236 C 
ATOM     10  H   UNL d   1       7.197  -1.830  -0.336  0.00  0.00     0.190 HD
ATOM     11  O   UNL d   1       6.604  -4.182  -0.834  0.00  0.00    -0.272 OA
ATOM     12  C   UNL d   1       4.316  -3.470  -0.866  0.00  0.00     0.111 C 
ATOM     13  C   UNL d   1       3.507  -2.540   0.007  0.00  0.00     0.073 C 
ENDBRANCH   1   5
BRANCH   2  14
ATOM     14  C   UNL d   1       3.181   2.488   0.423  0.00  0.00     0.035 A 
ATOM     15  C   UNL d   1       1.867   2.651   0.864  0.00  0.00     0.032 A 
ATOM     16  C   UNL d   1       1.303   3.927   0.981  0.00  0.00     0.039 A 
ATOM     17  C   UNL d   1       2.047   5.055   0.649  0.00  0.00     0.068 A 
ATOM     18  C   UNL d   1       3.378   4.903   0.259  0.00  0.00     0.039 A 
ATOM     19  C   UNL d   1       3.942   3.627   0.142  0.00  0.00     0.032 A 
BRANCH  17  20
ATOM     20  O   UNL d   1       1.585   6.341   0.692  0.00  0.00    -0.356 OA
ATOM     21  C   UNL d   1       0.176   6.485   0.527  0.00  0.00     0.210 C 
ENDBRANCH  17  20
ENDBRANCH   2  14
TORSDOF 3
