REMARK  5 active torsions:
REMARK  status: ('A' for Active; 'I' for Inactive)
REMARK    1  A    between atoms: C_6  and  C_1 
REMARK    2  A    between atoms: N_15  and  C_2 
REMARK       I    between atoms: N_14  and  C_6 
REMARK    3  A    between atoms: N_10  and  N_14 
REMARK    4  A    between atoms: C_19  and  C_17 
REMARK    5  A    between atoms: O_22  and  C_20 
ROOT
ATOM      1  C   UNL d   1       2.485  -0.049   0.006  0.00  0.00     0.103 A 
ATOM      2  C   UNL d   1       1.644   1.060   0.043  0.00  0.00     0.062 A 
ATOM      3  C   UNL d   1       0.232   0.731   0.038  0.00  0.00     0.032 A 
ATOM      4  S   UNL d   1       1.585  -1.494  -0.046  0.00  0.00    -0.064 SA
ATOM      5  C   UNL d   1       0.101  -0.656  -0.020  0.00  0.00     0.088 A 
ATOM      6  N   UNL d   1      -1.038  -1.377  -0.053  0.00  0.00    -0.354 N 
ATOM      7  HN  UNL d   1      -1.040  -2.396  -0.093  1.00  0.00     0.166 HD
ATOM      8  C   UNL d   1      -0.991   1.473   0.069  0.00  0.00    -0.045 A 
ATOM      9  C   UNL d   1      -2.191   0.732   0.031  0.00  0.00     0.032 A 
ATOM     10  C   UNL d   1      -2.168  -0.654  -0.031  0.00  0.00     0.006 A 
ATOM     11  C   UNL d   1      -1.151   2.970   0.141  0.00  0.00     0.049 C 
ATOM     12  C   UNL d   1      -3.460  -1.418  -0.073  0.00  0.00     0.068 C 
ENDROOT
BRANCH   1  13
ATOM     13  C   UNL d   1       3.951  -0.050   0.010  0.00  0.00     0.279 C 
ATOM     14  N   UNL d   1       4.594  -1.290  -0.050  0.00  0.00    -0.266 N 
ATOM     15  H   UNL d   1       4.057  -2.149  -0.103  0.00  0.00     0.190 HD
ATOM     16  O   UNL d   1       4.592   1.002   0.066  0.00  0.00    -0.265 OA
BRANCH  14  17
ATOM     17  N   UNL d   1       5.959  -1.319  -0.103  0.00  0.00    -0.308 N 
ATOM     18  C   UNL d   1       6.552  -2.469  -0.156  0.00  0.00     0.118 C 
ATOM     19  HN  UNL d   1       6.500  -0.454  -0.101  1.00  0.00     0.186 HD
BRANCH  18  20
ATOM     20  C   UNL d   1       8.032  -2.539  -0.256  0.00  0.00    -0.017 A 
ATOM     21  C   UNL d   1       8.790  -1.357  -0.270  0.00  0.00     0.049 A 
ATOM     22  C   UNL d   1      10.177  -1.411  -0.404  0.00  0.00     0.069 A 
ATOM     23  C   UNL d   1      10.803  -2.654  -0.524  0.00  0.00     0.037 A 
ATOM     24  C   UNL d   1      10.055  -3.834  -0.501  0.00  0.00     0.004 A 
ATOM     25  C   UNL d   1       8.666  -3.780  -0.364  0.00  0.00     0.013 A 
BRANCH  22  26
ATOM     26  O   UNL d   1      11.025  -0.337  -0.438  0.00  0.00    -0.356 OA
ATOM     27  C   UNL d   1      10.433   0.952  -0.318  0.00  0.00     0.210 C 
ENDBRANCH  22  26
ENDBRANCH  18  20
ENDBRANCH  14  17
ENDBRANCH   1  13
BRANCH   2  28
ATOM     28  N   UNL d   1       2.152   2.313   0.076  0.00  0.00    -0.397 N 
ATOM     29  H   UNL d   1       3.167   2.455   0.120  0.00  0.00     0.156 HD
ATOM     30  H   UNL d   1       1.626   3.162   0.219  0.00  0.00     0.156 HD
ENDBRANCH   2  28
TORSDOF 5
