REMARK  3 active torsions:
REMARK  status: ('A' for Active; 'I' for Inactive)
REMARK    1  A    between atoms: C_2  and  N_1 
REMARK    2  A    between atoms: C_4  and  C_3 
REMARK    3  A    between atoms: O_13  and  C_7 
ROOT
ATOM      1  C   UNL d   1       0.247  -1.932  -3.059  0.00  0.00    -0.000 A 
ATOM      2  C   UNL d   1       0.558  -3.269  -3.367  0.00  0.00     0.078 A 
ATOM      3  C   UNL d   1      -0.836  -1.310  -3.716  0.00  0.00     0.033 A 
ATOM      4  C   UNL d   1      -0.225  -3.945  -4.319  0.00  0.00     0.039 A 
ATOM      5  C   UNL d   1      -1.597  -2.005  -4.655  0.00  0.00     0.011 A 
ATOM      6  C   UNL d   1      -1.296  -3.324  -4.961  0.00  0.00     0.022 A 
ATOM      7 BR   UNL d   1      -3.045  -1.148  -5.515  0.00  0.00    -0.051 Br
ENDROOT
BRANCH   1   8
ATOM      8  C   UNL d   1       0.959  -1.100  -2.085  0.00  0.00     0.038 C 
ATOM      9  C   UNL d   1       0.543  -1.025  -0.815  0.00  0.00     0.168 C 
BRANCH   9  10
ATOM     10  N   UNL d   1       1.302  -0.254   0.141  0.00  0.00    -0.127 N 
ATOM     11  O   UNL d   1       0.872  -0.266   1.300  0.00  0.00    -0.532 OA
ATOM     12  O   UNL d   1       2.317   0.339  -0.241  0.00  0.00    -0.532 OA
ENDBRANCH   9  10
ENDBRANCH   1   8
BRANCH   2  13
ATOM     13  O   UNL d   1       1.547  -4.076  -2.878  0.00  0.00    -0.355 OA
ATOM     14  C   UNL d   1       2.471  -3.604  -1.915  0.00  0.00     0.210 C 
ENDBRANCH   2  13
TORSDOF 3
