REMARK  6 active torsions:
REMARK  status: ('A' for Active; 'I' for Inactive)
REMARK    1  A    between atoms: C_9  and  C_1 
REMARK    2  A    between atoms: C_5  and  C_18 
REMARK    3  A    between atoms: O_17  and  C_9 
REMARK    4  A    between atoms: N_12  and  O_17 
REMARK    5  A    between atoms: C_19  and  C_14 
REMARK    6  A    between atoms: N_25  and  C_14 
ROOT
ATOM      1  N   UNL d   1      -2.427   2.561  -0.224  0.00  0.00    -0.246 N 
ATOM      2  HN  UNL d   1      -1.599   3.092  -0.492  1.00  0.00     0.196 HD
ATOM      3  C   UNL d   1      -3.587   3.096   0.027  0.00  0.00     0.109 C 
ENDROOT
BRANCH   3   4
ATOM      4  C   UNL d   1      -3.720   4.593  -0.063  0.00  0.00     0.004 A 
ATOM      5  C   UNL d   1      -2.852   5.327  -0.876  0.00  0.00     0.015 A 
ATOM      6  C   UNL d   1      -3.007   6.716  -1.008  0.00  0.00     0.014 A 
ATOM      7  C   UNL d   1      -4.027   7.393  -0.322  0.00  0.00    -0.008 A 
ATOM      8  C   UNL d   1      -4.870   6.654   0.521  0.00  0.00     0.014 A 
ATOM      9  C   UNL d   1      -4.723   5.265   0.648  0.00  0.00     0.015 A 
BRANCH   7  10
ATOM     10  C   UNL d   1      -4.224   8.833  -0.457  0.00  0.00     0.063 A 
ATOM     11  N   UNL d   1      -4.801   9.583   0.565  0.00  0.00    -0.292 N 
ATOM     12  N   UNL d   1      -4.905  10.862   0.247  0.00  0.00    -0.061 NA
ATOM     13  HN  UNL d   1      -5.107   9.191   1.455  1.00  0.00     0.183 HD
ATOM     14  S   UNL d   1      -4.334  11.198  -1.287  0.00  0.00    -0.010 SA
ATOM     15  C   UNL d   1      -3.905   9.563  -1.591  0.00  0.00     0.096 A 
ENDBRANCH   7  10
ENDBRANCH   3   4
BRANCH   3  16
ATOM     16  N   UNL d   1      -4.711   2.363   0.339  0.00  0.00    -0.286 NA
ATOM     17  H   UNL d   1      -4.623   1.388   0.082  0.00  0.00     0.125 HD
ATOM     18  H   UNL d   1      -5.591   2.760   0.028  0.00  0.00     0.125 HD
ENDBRANCH   3  16
BRANCH   1  19
ATOM     19  O   UNL d   1      -2.455   1.151  -0.078  0.00  0.00    -0.193 OA
BRANCH  19  20
ATOM     20  C   UNL d   1      -1.209   0.610  -0.336  0.00  0.00     0.319 C 
ATOM     21  O   UNL d   1      -0.224   1.239  -0.704  0.00  0.00    -0.257 OA
BRANCH  20  22
ATOM     22  C   UNL d   1      -1.168  -0.832  -0.139  0.00  0.00     0.096 A 
ATOM     23  C   UNL d   1      -2.177  -1.679   0.281  0.00  0.00     0.090 A 
ATOM     24  O   UNL d   1      -1.712  -2.955   0.327  0.00  0.00    -0.242 OA
ATOM     25  C   UNL d   1      -3.589  -1.518   0.676  0.00  0.00     0.080 C 
ATOM     26  N   UNL d   1      -0.392  -2.984  -0.056  0.00  0.00    -0.265 N 
ATOM     27  C   UNL d   1      -0.062  -1.715  -0.331  0.00  0.00     0.047 A 
ATOM     28  HN  UNL d   1       0.213  -3.803  -0.119  1.00  0.00     0.194 HD
ATOM     29  C   UNL d   1       1.319  -1.408  -0.777  0.00  0.00     0.071 C 
ENDBRANCH  20  22
ENDBRANCH  19  20
ENDBRANCH   1  19
TORSDOF 6
