REMARK  8 active torsions:
REMARK  status: ('A' for Active; 'I' for Inactive)
REMARK    1  A    between atoms: C_2  and  C_1 
REMARK    2  A    between atoms: C_22  and  N_3 
REMARK    3  A    between atoms: N_20  and  C_4 
REMARK    4  A    between atoms: S_16  and  C_10 
REMARK    5  A    between atoms: C_21  and  S_16 
REMARK    6  A    between atoms: C_18  and  C_21 
REMARK    7  A    between atoms: C_24  and  C_18 
REMARK    8  A    between atoms: C_25  and  C_22 
ROOT
ATOM      1  C   UNL d   1       3.983   0.163  -0.031  0.00  0.00     0.144 A 
ATOM      2  N   UNL d   1       4.606   0.676   1.092  0.00  0.00    -0.307 N 
ATOM      3  N   UNL d   1       4.919  -0.284  -0.854  0.00  0.00    -0.282 N 
ATOM      4  HN  UNL d   1       4.753  -0.766  -1.737  1.00  0.00     0.188 HD
ATOM      5  C   UNL d   1       5.953   0.583   0.841  0.00  0.00     0.163 A 
ATOM      6  N   UNL d   1       6.152   0.009  -0.321  0.00  0.00    -0.278 N 
ATOM      7  HN  UNL d   1       7.057  -0.184  -0.751  1.00  0.00     0.189 HD
ENDROOT
BRANCH   1   8
ATOM      8  C   UNL d   1       2.578   0.146  -0.373  0.00  0.00     0.079 A 
ATOM      9  C   UNL d   1       1.890  -0.806  -1.121  0.00  0.00     0.060 A 
ATOM     10  C   UNL d   1       0.540  -0.397  -1.485  0.00  0.00     0.031 A 
ATOM     11  C   UNL d   1      -0.515  -0.931  -2.287  0.00  0.00    -0.045 A 
ATOM     12  C   UNL d   1       0.268   0.831  -0.883  0.00  0.00     0.088 A 
ATOM     13  C   UNL d   1      -1.706  -0.174  -2.377  0.00  0.00     0.032 A 
ATOM     14  C   UNL d   1      -0.500  -2.212  -3.078  0.00  0.00     0.049 C 
ATOM     15  C   UNL d   1      -1.833   1.034  -1.708  0.00  0.00     0.006 A 
ATOM     16  N   UNL d   1      -0.865   1.557  -0.948  0.00  0.00    -0.354 N 
ATOM     17  C   UNL d   1      -3.100   1.829  -1.826  0.00  0.00     0.068 C 
ATOM     18  HN  UNL d   1      -0.976   2.442  -0.454  1.00  0.00     0.166 HD
ATOM     19  S   UNL d   1       1.559   1.460   0.005  0.00  0.00    -0.065 SA
BRANCH   9  20
ATOM     20  N   UNL d   1       2.473  -1.979  -1.479  0.00  0.00    -0.397 N 
ATOM     21  H   UNL d   1       3.484  -2.084  -1.362  0.00  0.00     0.156 HD
ATOM     22  H   UNL d   1       2.138  -2.536  -2.253  0.00  0.00     0.156 HD
ENDBRANCH   9  20
ENDBRANCH   1   8
BRANCH   2  23
ATOM     23  C   UNL d   1       3.989   1.134   2.324  0.00  0.00     0.159 C 
BRANCH  23  24
ATOM     24  C   UNL d   1       3.729   2.616   2.415  0.00  0.00    -0.017 C 
ATOM     25  C   UNL d   1       3.949   3.561   1.489  0.00  0.00     0.008 C 
ENDBRANCH  23  24
ENDBRANCH   2  23
BRANCH   5  26
ATOM     26  S   UNL d   1       7.190   1.149   1.914  0.00  0.00    -0.085 SA
BRANCH  26  27
ATOM     27  C   UNL d   1       8.134   2.214   0.783  0.00  0.00     0.166 C 
BRANCH  27  28
ATOM     28  C   UNL d   1       9.364   2.836   1.436  0.00  0.00     0.169 C 
ATOM     29  O   UNL d   1       9.678   2.665   2.614  0.00  0.00    -0.291 OA
BRANCH  28  30
ATOM     30  C   UNL d   1      10.231   3.717   0.583  0.00  0.00     0.010 A 
ATOM     31  C   UNL d   1       9.915   4.010  -0.752  0.00  0.00     0.015 A 
ATOM     32  C   UNL d   1      10.749   4.834  -1.514  0.00  0.00     0.001 A 
ATOM     33  C   UNL d   1      11.905   5.373  -0.953  0.00  0.00     0.000 A 
ATOM     34  C   UNL d   1      12.228   5.092   0.373  0.00  0.00     0.001 A 
ATOM     35  C   UNL d   1      11.396   4.270   1.139  0.00  0.00     0.015 A 
ENDBRANCH  28  30
ENDBRANCH  27  28
ENDBRANCH  26  27
ENDBRANCH   5  26
TORSDOF 8
