REMARK  1 active torsions:
REMARK  status: ('A' for Active; 'I' for Inactive)
REMARK    1  A    between atoms: C_9  and  C_6 
ROOT
ATOM      1  C   UNL d   1      -0.166  -0.801   0.260  0.00  0.00     0.065 A 
ATOM      2  C   UNL d   1       1.135  -1.514   0.307  0.00  0.00     0.254 C 
ATOM      3  O   UNL d   1       0.630   1.507   0.534  0.00  0.00    -0.339 OA
ATOM      4  C   UNL d   1      -0.357   0.576   0.388  0.00  0.00     0.085 A 
ATOM      5  N   UNL d   1       2.309  -0.945  -0.097  0.00  0.00    -0.354 N 
ATOM      6  C   UNL d   1       1.606   1.475  -0.524  0.00  0.00     0.179 C 
ATOM      7  C   UNL d   1       2.688   0.452  -0.167  0.00  0.00     0.160 C 
ATOM      8  O   UNL d   1       1.165  -2.700   0.641  0.00  0.00    -0.268 OA
ATOM      9  C   UNL d   1      -1.298  -1.617   0.065  0.00  0.00     0.020 A 
ATOM     10  C   UNL d   1      -1.653   1.113   0.362  0.00  0.00     0.038 A 
ATOM     11  C   UNL d   1      -2.580  -1.071  -0.020  0.00  0.00     0.001 A 
ATOM     12  C   UNL d   1      -2.759   0.298   0.134  0.00  0.00     0.003 A 
ATOM     13  H   UNL d   1       3.070  -1.607  -0.003  0.00  0.00     0.162 HD
ENDROOT
BRANCH   6  14
ATOM     14  C   UNL d   1       1.016   1.490  -1.932  0.00  0.00    -0.027 A 
ATOM     15  C   UNL d   1       0.188   2.568  -2.301  0.00  0.00     0.010 A 
ATOM     16  C   UNL d   1      -0.413   2.616  -3.563  0.00  0.00     0.001 A 
ATOM     17  C   UNL d   1      -0.186   1.589  -4.475  0.00  0.00     0.000 A 
ATOM     18  C   UNL d   1       0.635   0.520  -4.129  0.00  0.00     0.001 A 
ATOM     19  C   UNL d   1       1.235   0.470  -2.867  0.00  0.00     0.010 A 
ENDBRANCH   6  14
TORSDOF 1
