REMARK  7 active torsions:
REMARK  status: ('A' for Active; 'I' for Inactive)
REMARK    1  A    between atoms: C_2  and  C_1 
REMARK    2  A    between atoms: C_5  and  C_1 
REMARK    3  A    between atoms: N_7  and  N_3 
REMARK    4  A    between atoms: O_14  and  C_5 
REMARK       I    between atoms: C_6  and  N_7 
REMARK    5  A    between atoms: O_13  and  C_6 
REMARK    6  A    between atoms: C_15  and  O_13 
REMARK    7  A    between atoms: C_16  and  O_14 
ROOT
ATOM      1  C   UNL d   1       0.873   0.100  -0.126  0.00  0.00     0.208 C 
ATOM      2  N   UNL d   1       0.289   1.198  -0.524  0.00  0.00    -0.287 N 
ATOM      3  HN  UNL d   1       0.839   1.996  -0.841  1.00  0.00     0.187 HD
ENDROOT
BRANCH   1   4
ATOM      4  C   UNL d   1       0.238  -1.154   0.376  0.00  0.00     0.440 C 
ATOM      5  F   UNL d   1       1.094  -2.136   0.758  0.00  0.00    -0.164 F 
ATOM      6  F   UNL d   1      -0.552  -0.907   1.462  0.00  0.00    -0.164 F 
ATOM      7  F   UNL d   1      -0.598  -1.704  -0.550  0.00  0.00    -0.164 F 
ENDBRANCH   1   4
BRANCH   1   8
ATOM      8  C   UNL d   1       2.371   0.071  -0.078  0.00  0.00     0.316 C 
ATOM      9  O   UNL d   1       3.023  -0.837  -0.553  0.00  0.00    -0.258 OA
BRANCH   8  10
ATOM     10  O   UNL d   1       2.796   1.131   0.636  0.00  0.00    -0.317 OA
BRANCH  10  11
ATOM     11  C   UNL d   1       4.172   1.137   1.033  0.00  0.00     0.175 C 
ATOM     12  C   UNL d   1       4.201   0.860   2.523  0.00  0.00     0.034 C 
ENDBRANCH  10  11
ENDBRANCH   8  10
ENDBRANCH   1   8
BRANCH   2  13
ATOM     13  N   UNL d   1      -1.075   1.252  -0.505  0.00  0.00    -0.245 N 
ATOM     14  C   UNL d   1      -1.725   2.465  -0.595  0.00  0.00     0.379 C 
ATOM     15  O   UNL d   1      -1.202   3.555  -0.765  0.00  0.00    -0.237 OA
ATOM     16  H   UNL d   1      -1.656   0.460  -0.255  0.00  0.00     0.192 HD
BRANCH  14  17
ATOM     17  O   UNL d   1      -3.051   2.255  -0.394  0.00  0.00    -0.303 OA
BRANCH  17  18
ATOM     18  C   UNL d   1      -3.846   3.440  -0.242  0.00  0.00     0.176 C 
ATOM     19  C   UNL d   1      -3.908   3.807   1.230  0.00  0.00     0.034 C 
ENDBRANCH  17  18
ENDBRANCH  14  17
ENDBRANCH   2  13
TORSDOF 7
