REMARK  5 active torsions:
REMARK  status: ('A' for Active; 'I' for Inactive)
REMARK       I    between atoms: N_2  and  C_1 
REMARK    1  A    between atoms: C_6  and  C_1 
REMARK    2  A    between atoms: C_11  and  N_2 
REMARK    3  A    between atoms: O_10  and  C_5 
REMARK    4  A    between atoms: C_7  and  C_8 
REMARK    5  A    between atoms: C_17  and  O_10 
ROOT
ATOM      1  N   UNL d   1       2.346  -4.783   0.736  0.00  0.00    -0.344 N 
ATOM      2  HN  UNL d   1       2.626  -5.528   1.373  1.00  0.00     0.167 HD
ATOM      3  C   UNL d   1       1.346  -4.955  -0.149  0.00  0.00     0.148 A 
ATOM      4  C   UNL d   1       2.611  -2.502  -0.071  0.00  0.00     0.050 A 
ATOM      5  C   UNL d   1       2.963  -3.576   0.744  0.00  0.00     0.119 A 
ATOM      6  C   UNL d   1       0.922  -3.958  -1.015  0.00  0.00     0.059 A 
ATOM      7  C   UNL d   1       1.568  -2.716  -0.975  0.00  0.00     0.035 A 
ENDROOT
BRANCH   3   8
ATOM      8  O   UNL d   1       0.658  -6.162  -0.173  0.00  0.00    -0.294 OA
BRANCH   8   9
ATOM      9  C   UNL d   1       1.357  -7.296   0.182  0.00  0.00     0.077 A 
ATOM     10  C   UNL d   1       0.694  -8.251   0.948  0.00  0.00     0.038 A 
ATOM     11  C   UNL d   1       1.334  -9.455   1.278  0.00  0.00     0.011 A 
ATOM     12  C   UNL d   1       2.644  -9.738   0.841  0.00  0.00    -0.050 A 
ATOM     13  C   UNL d   1       3.287  -8.755   0.070  0.00  0.00     0.011 A 
ATOM     14  C   UNL d   1       2.648  -7.558  -0.268  0.00  0.00     0.038 A 
BRANCH  12  15
ATOM     15  C   UNL d   1       3.315 -11.081   1.177  0.00  0.00    -0.024 C 
ATOM     16  C   UNL d   1       4.746 -11.217   0.604  0.00  0.00     0.019 C 
ATOM     17  C   UNL d   1       3.418 -11.264   2.703  0.00  0.00     0.019 C 
ATOM     18  C   UNL d   1       2.479 -12.235   0.582  0.00  0.00     0.019 C 
ENDBRANCH  12  15
ENDBRANCH   8   9
ENDBRANCH   3   8
BRANCH   4  19
ATOM     19  N   UNL d   1       3.203  -1.214  -0.001  0.00  0.00    -0.322 N 
ATOM     20  C   UNL d   1       4.270  -0.884   0.818  0.00  0.00     0.256 C 
ATOM     21  O   UNL d   1       4.950  -1.691   1.444  0.00  0.00    -0.267 OA
ATOM     22  H   UNL d   1       2.751  -0.485  -0.534  0.00  0.00     0.169 HD
BRANCH  20  23
ATOM     23  C   UNL d   1       4.617   0.558   0.975  0.00  0.00     0.032 A 
ATOM     24  C   UNL d   1       5.329   0.911   2.128  0.00  0.00     0.017 A 
ATOM     25  C   UNL d   1       5.754   2.222   2.343  0.00  0.00     0.007 A 
ATOM     26  C   UNL d   1       5.487   3.209   1.389  0.00  0.00    -0.062 A 
ATOM     27  C   UNL d   1       4.744   2.869   0.251  0.00  0.00     0.007 A 
ATOM     28  C   UNL d   1       5.982   4.604   1.614  0.00  0.00     0.048 C 
ATOM     29  C   UNL d   1       4.314   1.550   0.033  0.00  0.00     0.017 A 
ENDBRANCH  20  23
ENDBRANCH   4  19
TORSDOF 5
