REMARK  8 active torsions:
REMARK  status: ('A' for Active; 'I' for Inactive)
REMARK    1  A    between atoms: C_4  and  S_1 
REMARK    2  A    between atoms: N_15  and  S_1 
REMARK    3  A    between atoms: C_13  and  C_2 
REMARK    4  A    between atoms: S_3  and  C_22 
REMARK    5  A    between atoms: N_10  and  S_3 
REMARK    6  A    between atoms: C_9  and  C_14 
REMARK    7  A    between atoms: C_11  and  N_10 
REMARK    8  A    between atoms: C_35  and  N_15 
ROOT
ATOM      1  C   UNL d   1       1.505  -2.003   4.886  0.00  0.00     0.075 A 
ATOM      2  C   UNL d   1       0.174  -1.605   4.723  0.00  0.00     0.026 A 
ATOM      3  C   UNL d   1       2.490  -1.553   4.000  0.00  0.00     0.026 A 
ATOM      4  C   UNL d   1       0.784  -0.442   2.690  0.00  0.00     0.022 A 
ATOM      5  C   UNL d   1      -0.187  -0.824   3.619  0.00  0.00     0.026 A 
ATOM      6  C   UNL d   1       2.124  -0.770   2.901  0.00  0.00     0.026 A 
ENDROOT
BRANCH   4   7
ATOM      7  N   UNL d   1       0.432   0.253   1.494  0.00  0.00    -0.181 NA
ATOM      8  H   UNL d   1      -0.368  -0.138   0.997  0.00  0.00     0.146 HD
BRANCH   7   9
ATOM      9  S   UNL d   1       0.280   1.940   1.563  0.00  0.00     0.252 S 
ATOM     10  O   UNL d   1      -0.128   2.372   0.246  0.00  0.00    -0.205 OA
ATOM     11  O   UNL d   1      -0.494   2.291   2.736  0.00  0.00    -0.205 OA
BRANCH   9  12
ATOM     12  C   UNL d   1       1.905   2.596   1.854  0.00  0.00     0.116 A 
ATOM     13  S   UNL d   1       2.924   2.779   0.492  0.00  0.00    -0.075 SA
ATOM     14  C   UNL d   1       4.263   3.206   1.463  0.00  0.00     0.034 A 
ATOM     15  C   UNL d   1       3.924   3.273   2.798  0.00  0.00     0.023 A 
ATOM     16  C   UNL d   1       2.558   2.937   3.022  0.00  0.00     0.034 A 
BRANCH  14  17
ATOM     17  C   UNL d   1       5.651   3.433   0.943  0.00  0.00     0.067 A 
ATOM     18  C   UNL d   1       6.056   3.466  -0.407  0.00  0.00     0.068 A 
ATOM     19  C   UNL d   1       7.431   3.618  -0.379  0.00  0.00     0.136 A 
ATOM     20  N   UNL d   1       7.765   3.644   0.947  0.00  0.00    -0.292 N 
ATOM     21  N   UNL d   1       6.696   3.590   1.764  0.00  0.00    -0.297 N 
ATOM     22  C   UNL d   1       9.085   3.630   1.540  0.00  0.00     0.178 C 
ATOM     23  HN  UNL d   1       6.686   3.653   2.782  1.00  0.00     0.187 HD
BRANCH  19  24
ATOM     24  C   UNL d   1       8.403   3.699  -1.485  0.00  0.00     0.434 C 
ATOM     25  F   UNL d   1       9.685   3.839  -1.069  0.00  0.00    -0.165 F 
ATOM     26  F   UNL d   1       8.365   2.584  -2.255  0.00  0.00    -0.165 F 
ATOM     27  F   UNL d   1       8.141   4.750  -2.300  0.00  0.00    -0.165 F 
ENDBRANCH  19  24
ENDBRANCH  14  17
ENDBRANCH   9  12
ENDBRANCH   7   9
ENDBRANCH   4   7
BRANCH   1  28
ATOM     28  S   UNL d   1       1.969  -2.995   6.291  0.00  0.00     0.248 S 
ATOM     29  O   UNL d   1       3.366  -2.713   6.550  0.00  0.00    -0.205 OA
ATOM     30  O   UNL d   1       0.979  -2.797   7.330  0.00  0.00    -0.205 OA
BRANCH  28  31
ATOM     31  N   UNL d   1       1.933  -4.561   5.713  0.00  0.00    -0.151 NA
ATOM     32  H   UNL d   1       2.677  -5.108   6.135  0.00  0.00     0.149 HD
BRANCH  31  33
ATOM     33  C   UNL d   1       0.704  -5.207   5.825  0.00  0.00     0.171 A 
ATOM     34  N   UNL d   1      -0.200  -4.983   4.869  0.00  0.00    -0.336 N 
ATOM     35  C   UNL d   1      -1.324  -5.725   4.951  0.00  0.00     0.009 A 
ATOM     36  HN  UNL d   1      -0.052  -4.298   4.128  1.00  0.00     0.168 HD
ATOM     37  C   UNL d   1      -2.330  -5.586   3.847  0.00  0.00     0.068 C 
ATOM     38  C   UNL d   1      -1.553  -6.618   5.983  0.00  0.00     0.049 A 
ATOM     39  C   UNL d   1      -0.552  -6.745   6.931  0.00  0.00     0.009 A 
ATOM     40  N   UNL d   1       0.608  -6.064   6.845  0.00  0.00    -0.336 N 
ATOM     41  C   UNL d   1      -0.731  -7.677   8.092  0.00  0.00     0.068 C 
ATOM     42  HN  UNL d   1       1.364  -6.194   7.517  1.00  0.00     0.168 HD
ENDBRANCH  31  33
ENDBRANCH  28  31
ENDBRANCH   1  28
TORSDOF 8
