REMARK  4 active torsions:
REMARK  status: ('A' for Active; 'I' for Inactive)
REMARK       I    between atoms: N_3  and  C_1 
REMARK    1  A    between atoms: C_8  and  C_1 
REMARK    2  A    between atoms: O_5  and  C_2 
REMARK    3  A    between atoms: C_4  and  N_3 
REMARK    4  A    between atoms: C_12  and  O_5 
ROOT
ATOM      1  C   UNL d   1       2.842  -3.543   0.688  0.00  0.00     0.175 A 
ATOM      2  C   UNL d   1       2.643  -2.649  -0.370  0.00  0.00     0.087 A 
ATOM      3  N   UNL d   1       2.133  -4.684   0.866  0.00  0.00    -0.345 N 
ATOM      4  HN  UNL d   1       2.301  -5.301   1.661  1.00  0.00     0.167 HD
ATOM      5  C   UNL d   1       1.666  -2.976  -1.311  0.00  0.00     0.035 A 
ATOM      6  C   UNL d   1       1.194  -4.961  -0.060  0.00  0.00     0.090 A 
ATOM      7  C   UNL d   1       0.930  -4.149  -1.155  0.00  0.00     0.019 A 
ENDROOT
BRANCH   2   8
ATOM      8  N   UNL d   1       3.385  -1.454  -0.438  0.00  0.00    -0.319 N 
ATOM      9  C   UNL d   1       3.683  -0.674  -1.530  0.00  0.00     0.256 C 
ATOM     10  O   UNL d   1       3.771   0.546  -1.408  0.00  0.00    -0.267 OA
ATOM     11  H   UNL d   1       3.617  -1.024   0.453  0.00  0.00     0.169 HD
BRANCH   9  12
ATOM     12  C   UNL d   1       4.094  -1.315  -2.818  0.00  0.00     0.032 A 
ATOM     13  C   UNL d   1       4.123  -0.532  -3.978  0.00  0.00     0.017 A 
ATOM     14  C   UNL d   1       4.651  -1.048  -5.167  0.00  0.00     0.007 A 
ATOM     15  C   UNL d   1       5.160  -2.351  -5.213  0.00  0.00    -0.062 A 
ATOM     16  C   UNL d   1       5.112  -3.140  -4.061  0.00  0.00     0.007 A 
ATOM     17  C   UNL d   1       5.766  -2.884  -6.479  0.00  0.00     0.048 C 
ATOM     18  C   UNL d   1       4.604  -2.620  -2.869  0.00  0.00     0.017 A 
ENDBRANCH   9  12
ENDBRANCH   2   8
BRANCH   1  19
ATOM     19  O   UNL d   1       3.874  -3.265   1.577  0.00  0.00    -0.292 OA
BRANCH  19  20
ATOM     20  C   UNL d   1       4.705  -4.309   1.922  0.00  0.00     0.078 A 
ATOM     21  C   UNL d   1       5.094  -5.327   1.044  0.00  0.00     0.039 A 
ATOM     22  C   UNL d   1       5.956  -6.338   1.478  0.00  0.00     0.026 A 
ATOM     23  C   UNL d   1       6.449  -6.316   2.781  0.00  0.00     0.034 A 
ATOM     24  C   UNL d   1       6.097  -5.284   3.651  0.00  0.00     0.026 A 
ATOM     25 CL   UNL d   1       7.499  -7.567   3.319  0.00  0.00    -0.084 Cl
ATOM     26  C   UNL d   1       5.231  -4.276   3.217  0.00  0.00     0.039 A 
ENDBRANCH  19  20
ENDBRANCH   1  19
TORSDOF 4
