REMARK  3 active torsions:
REMARK  status: ('A' for Active; 'I' for Inactive)
REMARK    1  A    between atoms: C_15  and  N_1 
REMARK    2  A    between atoms: N_4  and  C_16 
REMARK    3  A    between atoms: C_8  and  C_6 
ROOT
ATOM      1  C   UNL d   1       5.820  -4.201   2.302  0.00  0.00     0.064 C 
ATOM      2  C   UNL d   1       4.858  -4.962   2.871  0.00  0.00     0.126 C 
ATOM      3  N   UNL d   1       3.686  -6.926   1.667  0.00  0.00    -0.191 NA
ATOM      4  N   UNL d   1       4.162  -4.402   5.298  0.00  0.00    -0.191 NA
ATOM      5  C   UNL d   1       4.464  -4.675   4.212  0.00  0.00     0.111 C 
ATOM      6  C   UNL d   1       4.214  -6.035   2.195  0.00  0.00     0.111 C 
ENDROOT
BRANCH   1   7
ATOM      7  C   UNL d   1       6.262  -4.361   0.963  0.00  0.00     0.041 A 
ATOM      8  N   UNL d   1       5.590  -3.795  -0.129  0.00  0.00    -0.322 N 
ATOM      9  C   UNL d   1       6.226  -4.248  -1.276  0.00  0.00     0.097 A 
ATOM     10  C   UNL d   1       7.308  -5.021  -0.927  0.00  0.00     0.020 A 
ATOM     11  C   UNL d   1       7.331  -5.092   0.480  0.00  0.00     0.031 A 
BRANCH   8  12
ATOM     12  C   UNL d   1       4.451  -2.936  -0.122  0.00  0.00     0.039 A 
ATOM     13  C   UNL d   1       4.248  -2.025   0.920  0.00  0.00     0.032 A 
ATOM     14  C   UNL d   1       3.086  -1.253   0.977  0.00  0.00     0.034 A 
ATOM     15  C   UNL d   1       2.124  -1.355  -0.030  0.00  0.00     0.056 A 
ATOM     16  C   UNL d   1       2.330  -2.251  -1.089  0.00  0.00     0.034 A 
ATOM     17  C   UNL d   1       3.501  -3.018  -1.152  0.00  0.00     0.032 A 
BRANCH  15  18
ATOM     18  N   UNL d   1       0.916  -0.604   0.033  0.00  0.00    -0.261 N 
ATOM     19  N   UNL d   1      -0.211  -1.106  -0.540  0.00  0.00    -0.298 N 
ATOM     20  C   UNL d   1      -1.201  -0.327  -0.099  0.00  0.00     0.024 C 
ATOM     21  HN  UNL d   1      -0.283  -1.904  -1.170  1.00  0.00     0.187 HD
ATOM     22  C   UNL d   1      -2.616  -0.637  -0.414  0.00  0.00     0.070 C 
ATOM     23  C   UNL d   1      -0.711   0.771   0.628  0.00  0.00     0.052 C 
ATOM     24  C   UNL d   1       0.660   0.614   0.654  0.00  0.00     0.032 C 
ATOM     25  C   UNL d   1       1.672   1.576   1.161  0.00  0.00     0.070 C 
ENDBRANCH  15  18
ENDBRANCH   8  12
ENDBRANCH   1   7
TORSDOF 3
