REMARK  0 active torsions:
REMARK  status: ('A' for Active; 'I' for Inactive)
ROOT
ATOM      1  C   UNL d   1      -0.910  -0.426  -0.021  0.00  0.00     0.068 A 
ATOM      2  C   UNL d   1       0.543  -0.366  -0.014  0.00  0.00     0.011 A 
ATOM      3  C   UNL d   1      -1.774   0.695  -0.000  0.00  0.00    -0.003 A 
ATOM      4  N   UNL d   1      -1.602  -1.575  -0.037  0.00  0.00    -0.300 N 
ATOM      5  HN  UNL d   1      -1.234  -2.527  -0.053  1.00  0.00     0.187 HD
ATOM      6  S   UNL d   1       0.391   2.478  -0.102  0.00  0.00    -0.124 SA
ATOM      7  N   UNL d   1      -2.886  -1.192  -0.029  0.00  0.00    -0.311 N 
ATOM      8  C   UNL d   1       1.197   0.878  -0.031  0.00  0.00     0.013 A 
ATOM      9  C   UNL d   1      -3.046   0.160  -0.009  0.00  0.00     0.117 A 
ATOM     10  C   UNL d   1      -1.388   2.119   0.042  0.00  0.00     0.121 C 
ATOM     11  C   UNL d   1       1.299  -1.552   0.005  0.00  0.00     0.039 A 
ATOM     12  C   UNL d   1       2.602   0.907  -0.020  0.00  0.00     0.021 A 
ATOM     13  C   UNL d   1       2.690  -1.499   0.009  0.00  0.00     0.035 A 
ATOM     14  C   UNL d   1       3.346  -0.274   0.000  0.00  0.00     0.025 A 
ATOM     15 CL   UNL d   1       3.605  -2.956   0.022  0.00  0.00    -0.084 Cl
ATOM     16  H   UNL d   1      -3.602  -1.910  -0.035  0.00  0.00     0.186 HD
ENDROOT
TORSDOF 0
