REMARK  2 active torsions:
REMARK  status: ('A' for Active; 'I' for Inactive)
REMARK    1  A    between atoms: N_9  and  N_2 
REMARK    2  A    between atoms: C_11  and  N_9 
ROOT
ATOM      1  C   UNL d   1      -1.006   0.904   0.019  0.00  0.00     0.109 A 
ATOM      2  N   UNL d   1      -1.281   2.178   0.043  0.00  0.00    -0.296 N 
ATOM      3  HN  UNL d   1      -0.532   2.870   0.021  1.00  0.00     0.187 HD
ATOM      4  C   UNL d   1       0.419   0.482  -0.023  0.00  0.00     0.006 A 
ATOM      5  C   UNL d   1      -2.063  -0.200   0.046  0.00  0.00     0.200 A 
ATOM      6  C   UNL d   1      -1.602  -1.603   0.032  0.00  0.00     0.058 A 
ATOM      7  C   UNL d   1      -0.300  -1.908   0.024  0.00  0.00     0.016 A 
ATOM      8  C   UNL d   1       0.741  -0.882   0.011  0.00  0.00    -0.023 A 
ATOM      9  O   UNL d   1      -3.261   0.053   0.097  0.00  0.00    -0.286 OA
ATOM     10  C   UNL d   1       1.437   1.447  -0.068  0.00  0.00     0.015 A 
ATOM     11  C   UNL d   1       2.090  -1.261   0.022  0.00  0.00     0.012 A 
ATOM     12  C   UNL d   1       2.775   1.055  -0.061  0.00  0.00     0.001 A 
ATOM     13  C   UNL d   1       3.101  -0.298  -0.009  0.00  0.00     0.001 A 
ENDROOT
BRANCH   2  14
ATOM     14  N   UNL d   1      -2.575   2.568   0.099  0.00  0.00    -0.300 N 
ATOM     15  H   UNL d   1      -3.327   1.895   0.273  0.00  0.00     0.187 HD
BRANCH  14  16
ATOM     16  C   UNL d   1      -2.882   3.935   0.172  0.00  0.00     0.048 A 
ATOM     17  C   UNL d   1      -1.891   4.922   0.082  0.00  0.00     0.032 A 
ATOM     18  C   UNL d   1      -2.213   6.282   0.101  0.00  0.00     0.020 A 
ATOM     19  C   UNL d   1      -3.547   6.668   0.209  0.00  0.00     0.006 A 
ATOM     20  C   UNL d   1      -4.551   5.706   0.298  0.00  0.00     0.020 A 
ATOM     21  I   UNL d   1      -4.034   8.688   0.232  0.00  0.00    -0.045 I 
ATOM     22  C   UNL d   1      -4.218   4.347   0.275  0.00  0.00     0.032 A 
ENDBRANCH  14  16
ENDBRANCH   2  14
TORSDOF 2
