REMARK  4 active torsions:
REMARK  status: ('A' for Active; 'I' for Inactive)
REMARK    1  A    between atoms: C_2  and  C_1 
REMARK    2  A    between atoms: C_15  and  C_7 
REMARK    3  A    between atoms: S_14  and  C_15 
REMARK    4  A    between atoms: C_16  and  S_14 
ROOT
ATOM      1  C   UNL d   1       0.120  -0.886   0.742  0.00  0.00     0.186 A 
ATOM      2  N   UNL d   1       0.294   0.337   1.200  0.00  0.00    -0.322 N 
ATOM      3  HN  UNL d   1       0.347   0.654   2.168  1.00  0.00     0.169 HD
ATOM      4  C   UNL d   1       0.389   1.081   0.047  0.00  0.00     0.113 A 
ATOM      5  N   UNL d   1       0.195   0.385  -1.082  0.00  0.00    -0.246 N 
ATOM      6  HN  UNL d   1       0.169   0.729  -2.042  1.00  0.00     0.196 HD
ATOM      7  O   UNL d   1       0.038  -0.922  -0.627  0.00  0.00    -0.217 OA
ENDROOT
BRANCH   4   8
ATOM      8  C   UNL d   1       0.730   2.530   0.043  0.00  0.00     0.158 C 
BRANCH   8   9
ATOM      9  S   UNL d   1       2.549   2.729  -0.057  0.00  0.00    -0.122 SA
BRANCH   9  10
ATOM     10  C   UNL d   1       2.769   4.496   0.057  0.00  0.00     0.001 A 
ATOM     11  C   UNL d   1       3.946   4.955   0.658  0.00  0.00     0.019 A 
ATOM     12  C   UNL d   1       4.230   6.321   0.732  0.00  0.00     0.008 A 
ATOM     13  C   UNL d   1       3.341   7.257   0.197  0.00  0.00    -0.062 A 
ATOM     14  C   UNL d   1       2.164   6.803  -0.407  0.00  0.00     0.008 A 
ATOM     15  C   UNL d   1       3.670   8.719   0.256  0.00  0.00     0.048 C 
ATOM     16  C   UNL d   1       1.882   5.433  -0.481  0.00  0.00     0.019 A 
ENDBRANCH   9  10
ENDBRANCH   8   9
ENDBRANCH   4   8
BRANCH   1  17
ATOM     17  C   UNL d   1       0.044  -2.088   1.599  0.00  0.00     0.073 A 
ATOM     18  C   UNL d   1      -0.013  -3.391   1.167  0.00  0.00     0.089 A 
ATOM     19  O   UNL d   1      -0.056  -4.211   2.252  0.00  0.00    -0.242 OA
ATOM     20  C   UNL d   1      -0.015  -4.052  -0.152  0.00  0.00     0.080 C 
ATOM     21  N   UNL d   1      -0.031  -3.453   3.409  0.00  0.00    -0.265 N 
ATOM     22  C   UNL d   1       0.032  -2.176   3.009  0.00  0.00     0.045 A 
ATOM     23  HN  UNL d   1      -0.055  -3.796   4.369  1.00  0.00     0.194 HD
ATOM     24  C   UNL d   1       0.061  -1.083   4.010  0.00  0.00     0.071 C 
ENDBRANCH   1  17
TORSDOF 4
