REMARK  1 active torsions:
REMARK  status: ('A' for Active; 'I' for Inactive)
REMARK    1  A    between atoms: O_22  and  C_15 
ROOT
ATOM      1  C   UNL d   1      -0.227  -1.693  -0.726  0.00  0.00    -0.017 C 
ATOM      2  C   UNL d   1       1.814   1.886   1.079  0.00  0.00    -0.014 C 
ATOM      3  C   UNL d   1      -1.746  -1.483  -0.647  0.00  0.00    -0.070 C 
ATOM      4  C   UNL d   1       0.413  -0.446  -0.009  0.00  0.00     0.002 C 
ATOM      5  C   UNL d   1       0.502   2.137   0.259  0.00  0.00     0.001 C 
ATOM      6  C   UNL d   1      -0.144   0.923  -0.482  0.00  0.00    -0.004 C 
ATOM      7  C   UNL d   1      -1.987  -3.268   1.064  0.00  0.00     0.183 C 
ATOM      8  C   UNL d   1      -2.538  -2.209   0.163  0.00  0.00     0.044 C 
ATOM      9  C   UNL d   1       2.548   0.539   0.882  0.00  0.00     0.012 C 
ATOM     10  C   UNL d   1       1.937  -0.401  -0.141  0.00  0.00     0.007 C 
ATOM     11  C   UNL d   1       0.259  -3.000  -0.003  0.00  0.00     0.020 C 
ATOM     12  C   UNL d   1      -1.686   0.950  -0.546  0.00  0.00     0.010 C 
ATOM     13  C   UNL d   1      -0.416   2.963   1.200  0.00  0.00     0.008 C 
ATOM     14  C   UNL d   1      -2.266  -0.238  -1.311  0.00  0.00     0.035 C 
ATOM     15  C   UNL d   1       1.350   2.058   2.551  0.00  0.00     0.126 C 
ATOM     16  O   UNL d   1      -3.027  -4.183   1.431  0.00  0.00    -0.349 OA
ATOM     17  O   UNL d   1      -1.494  -2.612   2.247  0.00  0.00    -0.349 OA
ATOM     18  C   UNL d   1       0.339   3.189   2.506  0.00  0.00     0.033 C 
ATOM     19  C   UNL d   1      -0.851  -3.990   0.361  0.00  0.00     0.074 C 
ATOM     20  C   UNL d   1       0.215  -1.803  -2.205  0.00  0.00     0.020 C 
ATOM     21  C   UNL d   1       2.820   3.014   0.728  0.00  0.00     0.018 C 
ATOM     22  C   UNL d   1      -2.982  -4.223   2.860  0.00  0.00     0.198 C 
ATOM     23  C   UNL d   1      -2.485  -2.853   3.237  0.00  0.00     0.198 C 
ENDROOT
BRANCH  15  24
ATOM     24  O   UNL d   1       0.694   0.884   3.022  0.00  0.00    -0.395 OA
ATOM     25  H   UNL d   1       0.326   1.071   3.901  0.00  0.00     0.210 HD
ENDBRANCH  15  24
TORSDOF 1
