REMARK  1 active torsions:
REMARK  status: ('A' for Active; 'I' for Inactive)
REMARK       I    between atoms: C_4  and  N_1 
REMARK       I    between atoms: N_5  and  C_3 
REMARK       I    between atoms: N_8  and  C_3 
REMARK       I    between atoms: N_9  and  C_4 
REMARK    1  A    between atoms: C_10  and  N_5 
ROOT
ATOM      1  N   UNL d   1       0.835  -0.213  -0.247  0.00  0.00    -0.310 N 
ATOM      2  HN  UNL d   1       1.847  -0.335  -0.210  1.00  0.00     0.171 HD
ATOM      3  C   UNL d   1       0.336   0.965  -0.060  0.00  0.00     0.157 C 
ATOM      4  C   UNL d   1       0.054  -1.283  -0.488  0.00  0.00     0.150 C 
ATOM      5  N   UNL d   1       1.069   2.113   0.120  0.00  0.00    -0.333 N 
ATOM      6  N   UNL d   1       0.484  -2.085  -1.394  0.00  0.00    -0.376 N 
ATOM      7  HN  UNL d   1       0.060  -2.956  -1.715  1.00  0.00     0.158 HD
ATOM      8  N   UNL d   1      -0.994   1.288  -0.057  0.00  0.00    -0.274 NA
ATOM      9  N   UNL d   1      -1.075  -1.582   0.194  0.00  0.00    -0.274 NA
ATOM     10  H   UNL d   1       0.587   2.935  -0.221  0.00  0.00     0.168 HD
ATOM     11  H   UNL d   1       1.355  -1.647  -1.720  0.00  0.00     0.158 HD
ATOM     12  H   UNL d   1      -1.588   0.459  -0.082  0.00  0.00     0.127 HD
ATOM     13  H   UNL d   1      -1.260   1.889   0.715  0.00  0.00     0.127 HD
ATOM     14  H   UNL d   1      -0.933  -1.469   1.189  0.00  0.00     0.127 HD
ATOM     15  H   UNL d   1      -1.324  -2.543  -0.028  0.00  0.00     0.127 HD
ENDROOT
BRANCH   5  16
ATOM     16  C   UNL d   1       2.474   2.228   0.049  0.00  0.00     0.034 A 
ATOM     17  C   UNL d   1       3.039   3.427  -0.417  0.00  0.00     0.031 A 
ATOM     18  C   UNL d   1       4.426   3.583  -0.512  0.00  0.00     0.026 A 
ATOM     19  C   UNL d   1       5.267   2.543  -0.126  0.00  0.00     0.034 A 
ATOM     20  C   UNL d   1       4.732   1.357   0.362  0.00  0.00     0.026 A 
ATOM     21 CL   UNL d   1       6.973   2.730  -0.246  0.00  0.00    -0.084 Cl
ATOM     22  C   UNL d   1       3.344   1.207   0.454  0.00  0.00     0.031 A 
ENDBRANCH   5  16
TORSDOF 1
