REMARK  3 active torsions:
REMARK  status: ('A' for Active; 'I' for Inactive)
REMARK       I    between atoms: N_2  and  C_1 
REMARK       I    between atoms: N_6  and  C_1 
REMARK    1  A    between atoms: C_4  and  N_2 
REMARK    2  A    between atoms: N_3  and  C_5 
REMARK    3  A    between atoms: C_8  and  N_6 
ROOT
ATOM      1  C   UNL d   1       0.132   1.435  -0.363  0.00  0.00     0.325 C 
ATOM      2  N   UNL d   1       0.363   0.309  -1.147  0.00  0.00    -0.307 N 
ATOM      3  N   UNL d   1      -0.500   1.109   0.825  0.00  0.00    -0.309 N 
ATOM      4  O   UNL d   1       0.482   2.566  -0.680  0.00  0.00    -0.247 OA
ATOM      5  H   UNL d   1       0.465  -0.574  -0.677  0.00  0.00     0.170 HD
ATOM      6  H   UNL d   1      -0.680   0.129   0.983  0.00  0.00     0.170 HD
ENDROOT
BRANCH   2   7
ATOM      7  C   UNL d   1       1.083   0.400  -2.367  0.00  0.00     0.063 A 
ATOM      8  C   UNL d   1       2.111  -0.527  -2.681  0.00  0.00     0.057 A 
ATOM      9  C   UNL d   1       2.734  -0.350  -3.936  0.00  0.00     0.031 A 
ATOM     10  C   UNL d   1       2.325   0.624  -4.855  0.00  0.00     0.002 A 
ATOM     11  C   UNL d   1       1.286   1.482  -4.538  0.00  0.00     0.002 A 
ATOM     12  C   UNL d   1       0.682   1.383  -3.292  0.00  0.00     0.032 A 
BRANCH   8  13
ATOM     13  N   UNL d   1       2.481  -1.583  -1.845  0.00  0.00    -0.379 N 
ATOM     14  C   UNL d   1       3.148  -2.769  -2.404  0.00  0.00     0.123 C 
ATOM     15  C   UNL d   1       2.557  -4.007  -1.731  0.00  0.00     0.020 C 
ATOM     16  C   UNL d   1       2.645  -3.919  -0.206  0.00  0.00     0.003 C 
ATOM     17  C   UNL d   1       2.123  -2.579   0.325  0.00  0.00     0.020 C 
ATOM     18  C   UNL d   1       2.767  -1.399  -0.419  0.00  0.00     0.123 C 
ENDBRANCH   8  13
ENDBRANCH   2   7
BRANCH   3  19
ATOM     19  C   UNL d   1      -0.871   2.006   1.854  0.00  0.00     0.036 A 
ATOM     20  C   UNL d   1      -0.806   3.396   1.739  0.00  0.00     0.032 A 
ATOM     21  C   UNL d   1      -1.183   4.226   2.802  0.00  0.00     0.044 A 
ATOM     22  C   UNL d   1      -1.626   3.655   3.986  0.00  0.00     0.116 A 
ATOM     23  C   UNL d   1      -1.707   2.277   4.121  0.00  0.00     0.044 A 
ATOM     24  F   UNL d   1      -1.980   4.444   5.010  0.00  0.00    -0.206 F 
ATOM     25  C   UNL d   1      -1.336   1.449   3.058  0.00  0.00     0.032 A 
ENDBRANCH   3  19
TORSDOF 3
