REMARK  5 active torsions:
REMARK  status: ('A' for Active; 'I' for Inactive)
REMARK    1  A    between atoms: N_3  and  S_1 
REMARK    2  A    between atoms: C_10  and  S_1 
REMARK    3  A    between atoms: C_2  and  N_3 
REMARK    4  A    between atoms: C_14  and  C_8 
REMARK    5  A    between atoms: C_9  and  C_13 
ROOT
ATOM      1  N   UNL d   1       0.386   1.016   1.312  0.00  0.00    -0.264 N 
ATOM      2  H   UNL d   1      -0.077   1.863   1.020  0.00  0.00     0.180 HD
ENDROOT
BRANCH   1   3
ATOM      3  C   UNL d   1       0.772   0.890   2.632  0.00  0.00     0.133 A 
ATOM      4  C   UNL d   1       0.004   1.290   3.697  0.00  0.00     0.082 A 
ATOM      5  C   UNL d   1       0.668   0.785   4.851  0.00  0.00     0.062 A 
ATOM      6  N   UNL d   1       1.845   0.234   4.504  0.00  0.00    -0.296 N 
ATOM      7  N   UNL d   1       1.898   0.328   3.164  0.00  0.00    -0.280 N 
ATOM      8  HN  UNL d   1       2.546  -0.170   5.125  1.00  0.00     0.187 HD
ATOM      9  C   UNL d   1       3.125  -0.004   2.478  0.00  0.00     0.179 C 
BRANCH   5  10
ATOM     10  C   UNL d   1       0.192   0.790   6.238  0.00  0.00    -0.008 A 
ATOM     11  C   UNL d   1      -1.141   1.108   6.546  0.00  0.00     0.014 A 
ATOM     12  C   UNL d   1      -1.596   1.076   7.867  0.00  0.00     0.001 A 
ATOM     13  C   UNL d   1      -0.727   0.726   8.897  0.00  0.00     0.000 A 
ATOM     14  C   UNL d   1       0.598   0.408   8.609  0.00  0.00     0.001 A 
ATOM     15  C   UNL d   1       1.054   0.439   7.288  0.00  0.00     0.014 A 
ENDBRANCH   5  10
ENDBRANCH   1   3
BRANCH   1  16
ATOM     16  S   UNL d   1      -0.093  -0.297   0.453  0.00  0.00     0.264 S 
ATOM     17  O   UNL d   1       0.858  -1.384   0.584  0.00  0.00    -0.200 OA
ATOM     18  O   UNL d   1      -0.551   0.133  -0.850  0.00  0.00    -0.200 OA
BRANCH  16  19
ATOM     19  C   UNL d   1      -1.578  -0.768   1.353  0.00  0.00     0.080 A 
ATOM     20  C   UNL d   1      -2.645   0.140   1.411  0.00  0.00     0.026 A 
ATOM     21  C   UNL d   1      -3.748  -0.146   2.217  0.00  0.00     0.018 A 
ATOM     22  C   UNL d   1      -3.804  -1.340   2.956  0.00  0.00     0.048 A 
ATOM     23  C   UNL d   1      -2.743  -2.255   2.854  0.00  0.00     0.018 A 
ATOM     24  C   UNL d   1      -1.629  -1.974   2.057  0.00  0.00     0.026 A 
BRANCH  22  25
ATOM     25  C   UNL d   1      -4.991  -1.609   3.857  0.00  0.00     0.417 C 
ATOM     26  F   UNL d   1      -4.943  -2.818   4.479  0.00  0.00    -0.166 F 
ATOM     27  F   UNL d   1      -5.094  -0.679   4.847  0.00  0.00    -0.166 F 
ATOM     28  F   UNL d   1      -6.173  -1.573   3.184  0.00  0.00    -0.166 F 
ENDBRANCH  22  25
ENDBRANCH  16  19
ENDBRANCH   1  16
TORSDOF 5
