REMARK  5 active torsions:
REMARK  status: ('A' for Active; 'I' for Inactive)
REMARK    1  A    between atoms: C_2  and  S_1 
REMARK    2  A    between atoms: N_6  and  S_1 
REMARK    3  A    between atoms: N_7  and  C_3 
REMARK    4  A    between atoms: C_13  and  N_6 
REMARK    5  A    between atoms: C_16  and  C_13 
ROOT
ATOM      1  C   UNL d   1       0.684   1.214   1.374  0.00  0.00     0.095 A 
ATOM      2  C   UNL d   1       0.005   3.091   3.279  0.00  0.00     0.103 A 
ATOM      3  N   UNL d   1       0.617   3.495   2.143  0.00  0.00    -0.351 N 
ATOM      4  HN  UNL d   1       0.821   4.482   1.984  1.00  0.00     0.166 HD
ATOM      5  C   UNL d   1       0.954   2.559   1.218  0.00  0.00     0.115 A 
ATOM      6  C   UNL d   1       0.044   0.790   2.525  0.00  0.00     0.030 A 
ATOM      7  C   UNL d   1      -0.287   1.740   3.486  0.00  0.00     0.050 A 
ENDROOT
BRANCH   1   8
ATOM      8  S   UNL d   1       1.091   0.072   0.104  0.00  0.00     0.260 S 
ATOM      9  O   UNL d   1       1.924   0.735  -0.869  0.00  0.00    -0.200 OA
ATOM     10  O   UNL d   1      -0.131  -0.606  -0.260  0.00  0.00    -0.200 OA
BRANCH   8  11
ATOM     11  N   UNL d   1       2.034  -1.055   0.925  0.00  0.00    -0.313 N 
ATOM     12  H   UNL d   1       1.757  -2.017   0.707  0.00  0.00     0.172 HD
BRANCH  11  13
ATOM     13  C   UNL d   1       3.490  -0.827   0.975  0.00  0.00     0.164 C 
BRANCH  13  14
ATOM     14  C   UNL d   1       4.156  -1.987   1.722  0.00  0.00     0.140 C 
ATOM     15  O   UNL d   1       3.896  -3.227   1.023  0.00  0.00    -0.384 OA
ATOM     16  C   UNL d   1       5.145  -3.897   0.805  0.00  0.00     0.168 C 
ATOM     17  C   UNL d   1       6.138  -3.272   1.757  0.00  0.00     0.029 C 
ATOM     18  C   UNL d   1       5.669  -1.840   1.801  0.00  0.00     0.035 C 
ENDBRANCH  13  14
ENDBRANCH  11  13
ENDBRANCH   8  11
ENDBRANCH   1   8
BRANCH   2  19
ATOM     19  N   UNL d   1      -0.429   4.026   4.188  0.00  0.00    -0.363 N 
ATOM     20  C   UNL d   1      -0.625   5.420   3.789  0.00  0.00     0.150 C 
ATOM     21  C   UNL d   1      -1.847   5.948   4.568  0.00  0.00     0.187 C 
ATOM     22  O   UNL d   1      -1.684   5.799   5.994  0.00  0.00    -0.388 OA
ATOM     23  C   UNL d   1      -1.462   4.420   6.343  0.00  0.00     0.187 C 
ATOM     24  C   UNL d   1      -0.225   3.856   5.628  0.00  0.00     0.150 C 
ENDBRANCH   2  19
TORSDOF 5
