REMARK  7 active torsions:
REMARK  status: ('A' for Active; 'I' for Inactive)
REMARK    1  A    between atoms: C_2  and  N_1 
REMARK    2  A    between atoms: C_3  and  C_6 
REMARK    3  A    between atoms: N_20  and  C_11 
REMARK    4  A    between atoms: C_14  and  N_21 
REMARK    5  A    between atoms: C_23  and  N_20 
REMARK    6  A    between atoms: N_21  and  C_22 
REMARK    7  A    between atoms: C_22  and  C_23 
ROOT
ATOM      1  C   UNL d   1       2.406  -2.994   4.899  0.00  0.00     0.139 C 
ATOM      2  C   UNL d   1       3.385  -2.369   4.081  0.00  0.00     0.112 C 
ATOM      3  C   UNL d   1       2.846  -3.709   6.046  0.00  0.00     0.112 C 
ATOM      4  N   UNL d   1       4.176  -1.858   3.401  0.00  0.00    -0.191 NA
ATOM      5  N   UNL d   1       3.188  -4.320   6.974  0.00  0.00    -0.191 NA
ATOM      6  C   UNL d   1       1.089  -2.937   4.627  0.00  0.00     0.117 C 
ENDROOT
BRANCH   6   7
ATOM      7  N   UNL d   1       0.382  -2.387   3.576  0.00  0.00    -0.395 N 
ATOM      8  H   UNL d   1      -0.633  -2.456   3.651  0.00  0.00     0.159 HD
BRANCH   7   9
ATOM      9  C   UNL d   1       0.888  -2.174   2.218  0.00  0.00     0.138 C 
BRANCH   9  10
ATOM     10  C   UNL d   1      -0.256  -2.111   1.185  0.00  0.00     0.139 C 
BRANCH  10  11
ATOM     11  N   UNL d   1      -1.183  -0.998   1.422  0.00  0.00    -0.386 N 
ATOM     12  H   UNL d   1      -1.842  -1.187   2.185  0.00  0.00     0.159 HD
BRANCH  11  13
ATOM     13  C   UNL d   1      -0.724   0.328   1.424  0.00  0.00     0.061 A 
ATOM     14  C   UNL d   1      -1.341   1.363   2.166  0.00  0.00     0.130 A 
ATOM     15  C   UNL d   1      -0.906   2.703   2.054  0.00  0.00     0.054 A 
ATOM     16  C   UNL d   1       0.169   3.039   1.220  0.00  0.00     0.050 A 
ATOM     17  C   UNL d   1       0.792   2.023   0.495  0.00  0.00     0.018 A 
ATOM     18  C   UNL d   1       0.334   0.704   0.576  0.00  0.00     0.032 A 
BRANCH  14  19
ATOM     19  N   UNL d   1      -2.413   1.081   3.144  0.00  0.00    -0.113 N 
ATOM     20  O   UNL d   1      -2.878   2.039   3.779  0.00  0.00    -0.532 OA
ATOM     21  O   UNL d   1      -2.773  -0.096   3.309  0.00  0.00    -0.532 OA
ENDBRANCH  14  19
BRANCH  16  22
ATOM     22  C   UNL d   1       0.660   4.461   1.091  0.00  0.00     0.417 C 
ATOM     23  F   UNL d   1      -0.056   5.351   1.829  0.00  0.00    -0.166 F 
ATOM     24  F   UNL d   1       1.955   4.597   1.487  0.00  0.00    -0.166 F 
ATOM     25  F   UNL d   1       0.610   4.909  -0.193  0.00  0.00    -0.166 F 
ENDBRANCH  16  22
ENDBRANCH  11  13
ENDBRANCH  10  11
ENDBRANCH   9  10
ENDBRANCH   7   9
ENDBRANCH   6   7
TORSDOF 7
