REMARK  2 active torsions:
REMARK  status: ('A' for Active; 'I' for Inactive)
REMARK    1  A    between atoms: C_14  and  C_6 
REMARK    2  A    between atoms: C_18  and  C_12 
ROOT
ATOM      1  C   UNL d   1      -1.032  -0.823  -0.018  0.00  0.00     0.173 A 
ATOM      2  C   UNL d   1      -0.739   0.511   0.015  0.00  0.00     0.088 A 
ATOM      3  C   UNL d   1       0.666   0.645   0.028  0.00  0.00     0.058 A 
ATOM      4  C   UNL d   1       1.138  -0.675  -0.017  0.00  0.00     0.162 A 
ATOM      5  O   UNL d   1       0.098  -1.567  -0.038  0.00  0.00    -0.285 OA
ATOM      6  C   UNL d   1       1.639   1.660   0.051  0.00  0.00     0.017 A 
ATOM      7  N   UNL d   1       2.418  -1.082  -0.035  0.00  0.00    -0.335 N 
ATOM      8  HN  UNL d   1       2.680  -2.068  -0.066  1.00  0.00     0.168 HD
ATOM      9  C   UNL d   1      -2.360  -1.341  -0.034  0.00  0.00     0.282 A 
ATOM     10  N   UNL d   1      -1.735   1.497   0.024  0.00  0.00    -0.349 N 
ATOM     11  HN  UNL d   1      -1.533   2.497   0.042  1.00  0.00     0.166 HD
ATOM     12  C   UNL d   1       3.332  -0.087  -0.007  0.00  0.00     0.045 A 
ATOM     13  C   UNL d   1       2.985   1.265   0.016  0.00  0.00     0.045 A 
ATOM     14  N   UNL d   1      -3.289  -0.319  -0.017  0.00  0.00    -0.317 N 
ATOM     15  C   UNL d   1      -2.939   1.015   0.007  0.00  0.00     0.184 A 
ATOM     16  O   UNL d   1      -2.699  -2.518  -0.059  0.00  0.00    -0.265 OA
ATOM     17  H   UNL d   1      -4.258  -0.602  -0.027  0.00  0.00     0.170 HD
ENDROOT
BRANCH  12  18
ATOM     18  C   UNL d   1       4.746  -0.534   0.025  0.00  0.00    -0.009 A 
ATOM     19  C   UNL d   1       5.146  -1.721  -0.620  0.00  0.00     0.015 A 
ATOM     20  C   UNL d   1       6.471  -2.171  -0.572  0.00  0.00     0.024 A 
ATOM     21  C   UNL d   1       7.424  -1.439   0.129  0.00  0.00     0.034 A 
ATOM     22  C   UNL d   1       7.064  -0.261   0.775  0.00  0.00     0.024 A 
ATOM     23 CL   UNL d   1       9.049  -1.996   0.210  0.00  0.00    -0.084 Cl
ATOM     24  C   UNL d   1       5.737   0.184   0.723  0.00  0.00     0.015 A 
ENDBRANCH  12  18
BRANCH   6  25
ATOM     25  C   UNL d   1       1.262   3.061   0.116  0.00  0.00     0.086 A 
ATOM     26  O   UNL d   1       2.111   3.928  -0.517  0.00  0.00    -0.322 OA
ATOM     27  C   UNL d   1       1.601   5.177  -0.368  0.00  0.00     0.142 A 
ATOM     28  C   UNL d   1       0.441   5.139   0.366  0.00  0.00     0.027 A 
ATOM     29  C   UNL d   1       0.234   3.778   0.698  0.00  0.00     0.040 A 
ENDBRANCH   6  25
TORSDOF 2
