REMARK  3 active torsions:
REMARK  status: ('A' for Active; 'I' for Inactive)
REMARK    1  A    between atoms: S_6  and  C_1 
REMARK    2  A    between atoms: N_3  and  C_8 
REMARK    3  A    between atoms: C_7  and  S_6 
ROOT
ATOM      1  C   UNL d   1       2.061   0.912  -0.145  0.00  0.00     0.120 A 
ATOM      2  S   UNL d   1       1.148   0.774  -1.593  0.00  0.00    -0.045 SA
ATOM      3  N   UNL d   1       1.452   0.564   0.970  0.00  0.00    -0.343 N 
ATOM      4  HN  UNL d   1       1.864   0.588   1.902  1.00  0.00     0.167 HD
ATOM      5  C   UNL d   1      -0.180   0.229  -0.679  0.00  0.00     0.103 A 
ATOM      6  C   UNL d   1       0.164   0.158   0.669  0.00  0.00     0.067 A 
ATOM      7  N   UNL d   1      -1.367  -0.091  -1.236  0.00  0.00    -0.358 N 
ATOM      8  HN  UNL d   1      -1.559  -0.010  -2.234  1.00  0.00     0.166 HD
ATOM      9  C   UNL d   1      -0.820  -0.315   1.555  0.00  0.00     0.034 A 
ATOM     10  C   UNL d   1      -2.276  -0.530  -0.337  0.00  0.00     0.089 A 
ATOM     11  C   UNL d   1      -2.064  -0.664   1.028  0.00  0.00     0.019 A 
ENDROOT
BRANCH   1  12
ATOM     12  S   UNL d   1       3.747   1.386  -0.124  0.00  0.00    -0.045 SA
BRANCH  12  13
ATOM     13  C   UNL d   1       3.520   3.150  -0.009  0.00  0.00     0.109 A 
ATOM     14  C   UNL d   1       4.039   3.948   1.002  0.00  0.00     0.136 A 
ATOM     15  C   UNL d   1       3.818   5.331   1.004  0.00  0.00     0.040 A 
ATOM     16  C   UNL d   1       3.087   5.891  -0.035  0.00  0.00     0.020 A 
ATOM     17  C   UNL d   1       2.611   5.047  -1.023  0.00  0.00     0.089 A 
ATOM     18  N   UNL d   1       2.812   3.708  -1.030  0.00  0.00    -0.358 N 
ATOM     19  HN  UNL d   1       2.441   3.130  -1.784  1.00  0.00     0.166 HD
BRANCH  14  20
ATOM     20  N   UNL d   1       4.835   3.390   2.065  0.00  0.00    -0.113 N 
ATOM     21  O   UNL d   1       5.907   2.854   1.755  0.00  0.00    -0.532 OA
ATOM     22  O   UNL d   1       4.423   3.562   3.220  0.00  0.00    -0.532 OA
ENDBRANCH  14  20
ENDBRANCH  12  13
ENDBRANCH   1  12
TORSDOF 3
