REMARK  5 active torsions:
REMARK  status: ('A' for Active; 'I' for Inactive)
REMARK    1  A    between atoms: N_6  and  C_2 
REMARK    2  A    between atoms: C_5  and  N_7 
REMARK    3  A    between atoms: N_12  and  C_5 
REMARK    4  A    between atoms: C_24  and  N_12 
REMARK    5  A    between atoms: C_17  and  C_24 
ROOT
ATOM      1  N   UNL d   1       1.650  -2.797   0.209  0.00  0.00    -0.265 NA
ATOM      2  N   UNL d   1       2.420  -5.542   0.309  0.00  0.00    -0.356 N 
ATOM      3  C   UNL d   1       1.216  -3.690  -0.880  0.00  0.00     0.117 C 
ATOM      4  C   UNL d   1       3.005  -3.149   0.691  0.00  0.00     0.117 C 
ATOM      5  C   UNL d   1       2.956  -4.566   1.275  0.00  0.00     0.140 C 
ATOM      6  C   UNL d   1       1.151  -5.140  -0.336  0.00  0.00     0.140 C 
ENDROOT
BRANCH   1   7
ATOM      7  C   UNL d   1       1.540  -1.427  -0.047  0.00  0.00     0.103 A 
ATOM      8  C   UNL d   1       1.332  -0.503   0.994  0.00  0.00     0.070 A 
ATOM      9  S   UNL d   1       1.109  -0.783   2.680  0.00  0.00    -0.096 SA
ATOM     10  C   UNL d   1       1.267   0.856   0.704  0.00  0.00     0.060 A 
ATOM     11  C   UNL d   1       0.969   0.878   3.014  0.00  0.00     0.059 A 
ATOM     12  C   UNL d   1       1.078   1.665   1.883  0.00  0.00    -0.027 A 
ATOM     13  C   UNL d   1       0.990   3.151   1.898  0.00  0.00     0.051 C 
ATOM     14  N   UNL d   1       1.385   1.332  -0.560  0.00  0.00    -0.351 N 
ATOM     15  C   UNL d   1       1.546   0.384  -1.489  0.00  0.00     0.182 A 
ATOM     16  HN  UNL d   1       1.353   2.327  -0.783  1.00  0.00     0.166 HD
ATOM     17  N   UNL d   1       1.620  -0.945  -1.304  0.00  0.00    -0.342 N 
ATOM     18  HN  UNL d   1       1.734  -1.576  -2.098  1.00  0.00     0.167 HD
ENDBRANCH   1   7
BRANCH   2  19
ATOM     19  C   UNL d   1       3.134  -6.652  -0.119  0.00  0.00     0.169 C 
ATOM     20  S   UNL d   1       4.785  -6.652  -0.394  0.00  0.00    -0.041 SA
BRANCH  19  21
ATOM     21  N   UNL d   1       2.309  -7.746  -0.287  0.00  0.00    -0.367 N 
ATOM     22  H   UNL d   1       1.476  -7.692   0.283  0.00  0.00     0.161 HD
BRANCH  21  23
ATOM     23  C   UNL d   1       2.742  -9.090  -0.622  0.00  0.00     0.126 C 
BRANCH  23  24
ATOM     24  C   UNL d   1       1.543  -9.983  -0.639  0.00  0.00     0.003 A 
ATOM     25  C   UNL d   1       0.997 -10.542   0.653  0.00  0.00     0.007 A 
ATOM     26  C   UNL d   1       1.668 -11.453  -0.338  0.00  0.00     0.007 A 
ENDBRANCH  23  24
ENDBRANCH  21  23
ENDBRANCH  19  21
ENDBRANCH   2  19
TORSDOF 5
