REMARK  5 active torsions:
REMARK  status: ('A' for Active; 'I' for Inactive)
REMARK    1  A    between atoms: C_4  and  C_1 
REMARK    2  A    between atoms: C_2  and  C_6 
REMARK       I    between atoms: N_13  and  C_2 
REMARK    3  A    between atoms: C_5  and  C_19 
REMARK    4  A    between atoms: C_20  and  N_13 
REMARK    5  A    between atoms: C_19  and  C_20 
ROOT
ATOM      1  C   UNL d   1      -0.903   2.361  -4.984  0.00  0.00     0.251 C 
ATOM      2  O   UNL d   1      -0.728   3.567  -5.127  0.00  0.00    -0.268 OA
ATOM      3  N   UNL d   1      -1.484   1.581  -5.963  0.00  0.00    -0.357 N 
ATOM      4  H   UNL d   1      -1.492   0.577  -5.893  0.00  0.00     0.162 HD
ENDROOT
BRANCH   1   5
ATOM      5  C   UNL d   1      -0.467   1.691  -3.717  0.00  0.00     0.032 A 
ATOM      6  C   UNL d   1       0.143   2.489  -2.736  0.00  0.00     0.018 A 
ATOM      7  C   UNL d   1       0.582   1.937  -1.530  0.00  0.00     0.017 A 
ATOM      8  C   UNL d   1       0.423   0.567  -1.275  0.00  0.00     0.048 A 
ATOM      9  C   UNL d   1      -0.195  -0.230  -2.249  0.00  0.00     0.017 A 
ATOM     10  C   UNL d   1      -0.640   0.325  -3.458  0.00  0.00     0.018 A 
BRANCH   8  11
ATOM     11  C   UNL d   1       0.918  -0.021   0.025  0.00  0.00     0.417 C 
ATOM     12  F   UNL d   1       0.705  -1.363   0.129  0.00  0.00    -0.166 F 
ATOM     13  F   UNL d   1       0.319   0.537   1.113  0.00  0.00    -0.166 F 
ATOM     14  F   UNL d   1       2.256   0.157   0.200  0.00  0.00    -0.166 F 
ENDBRANCH   8  11
ENDBRANCH   1   5
BRANCH   3  15
ATOM     15  C   UNL d   1      -1.875   2.143  -7.248  0.00  0.00     0.128 C 
BRANCH  15  16
ATOM     16  C   UNL d   1      -0.734   2.171  -8.269  0.00  0.00     0.066 C 
BRANCH  16  17
ATOM     17  C   UNL d   1      -0.231   0.796  -8.618  0.00  0.00    -0.016 A 
ATOM     18  S   UNL d   1      -0.929  -0.086  -9.911  0.00  0.00    -0.106 SA
ATOM     19  C   UNL d   1       0.153  -1.392  -9.689  0.00  0.00     0.050 A 
ATOM     20  C   UNL d   1       1.018  -1.173  -8.641  0.00  0.00     0.008 A 
ATOM     21  C   UNL d   1       0.797   0.091  -8.023  0.00  0.00     0.015 A 
ENDBRANCH  16  17
ENDBRANCH  15  16
ENDBRANCH   3  15
TORSDOF 5
