REMARK  3 active torsions:
REMARK  status: ('A' for Active; 'I' for Inactive)
REMARK    1  A    between atoms: C_5  and  N_1 
REMARK    2  A    between atoms: C_8  and  N_3 
REMARK    3  A    between atoms: C_11  and  C_15 
ROOT
ATOM      1  C   UNL d   1       3.032   1.473   6.712  0.00  0.00     0.072 A 
ATOM      2  N   UNL d   1       5.054   0.615   5.327  0.00  0.00    -0.191 NA
ATOM      3  C   UNL d   1       4.130   0.992   5.920  0.00  0.00     0.102 C 
ATOM      4  C   UNL d   1       1.717   1.459   6.212  0.00  0.00     0.053 A 
ATOM      5  C   UNL d   1       3.298   1.966   8.000  0.00  0.00     0.048 A 
ATOM      6  C   UNL d   1       0.693   1.988   7.017  0.00  0.00     0.033 A 
ATOM      7  C   UNL d   1       2.258   2.449   8.790  0.00  0.00     0.035 A 
ATOM      8  C   UNL d   1       0.956   2.465   8.302  0.00  0.00     0.026 A 
ATOM      9 CL   UNL d   1       2.581   3.042  10.371  0.00  0.00    -0.084 Cl
ENDROOT
BRANCH   4  10
ATOM     10  N   UNL d   1       1.452   0.982   4.911  0.00  0.00    -0.364 N 
ATOM     11  C   UNL d   1       0.406   0.241   4.722  0.00  0.00     0.100 C 
ATOM     12  HN  UNL d   1       2.070   1.216   4.135  1.00  0.00     0.165 HD
BRANCH  11  13
ATOM     13  C   UNL d   1       0.044  -0.294   3.395  0.00  0.00    -0.018 A 
ATOM     14  C   UNL d   1      -1.187  -0.940   3.254  0.00  0.00     0.048 A 
ATOM     15  C   UNL d   1      -1.537  -1.473   2.007  0.00  0.00     0.103 A 
ATOM     16  C   UNL d   1      -0.672  -1.359   0.910  0.00  0.00     0.036 A 
ATOM     17  C   UNL d   1       0.552  -0.704   1.064  0.00  0.00     0.003 A 
ATOM     18  C   UNL d   1       0.910  -0.170   2.304  0.00  0.00     0.013 A 
BRANCH  15  19
ATOM     19  N   UNL d   1      -2.824  -2.164   1.854  0.00  0.00    -0.116 N 
ATOM     20  O   UNL d   1      -3.556  -2.239   2.850  0.00  0.00    -0.532 OA
ATOM     21  O   UNL d   1      -3.101  -2.630   0.740  0.00  0.00    -0.532 OA
ENDBRANCH  15  19
ENDBRANCH  11  13
ENDBRANCH   4  10
TORSDOF 3
