REMARK  5 active torsions:
REMARK  status: ('A' for Active; 'I' for Inactive)
REMARK    1  A    between atoms: C_7  and  C_8 
REMARK    2  A    between atoms: O_9  and  C_7 
REMARK    3  A    between atoms: C_11  and  O_9 
REMARK    4  A    between atoms: C_20  and  O_24 
REMARK    5  A    between atoms: O_24  and  C_26 
ROOT
ATOM      1  C   UNL d   1      -6.064  -2.564  -1.271  0.00  0.00    -0.027 C 
ATOM      2  C   UNL d   1      -5.659   0.867   1.274  0.00  0.00    -0.017 C 
ATOM      3  C   UNL d   1      -4.112   0.983   1.135  0.00  0.00    -0.072 C 
ATOM      4  C   UNL d   1      -4.931  -1.545  -1.061  0.00  0.00    -0.001 C 
ATOM      5  C   UNL d   1      -6.334   0.465  -0.170  0.00  0.00     0.003 C 
ATOM      6  C   UNL d   1      -5.349  -0.061  -1.263  0.00  0.00    -0.001 C 
ATOM      7  C   UNL d   1      -5.612  -3.825  -0.407  0.00  0.00     0.094 C 
ATOM      8  C   UNL d   1      -3.466   1.036  -0.048  0.00  0.00    -0.023 C 
ATOM      9  C   UNL d   1      -7.440  -1.940  -0.795  0.00  0.00     0.011 C 
ATOM     10  C   UNL d   1      -4.133   0.856  -1.365  0.00  0.00     0.033 C 
ATOM     11  C   UNL d   1      -7.561  -0.490  -0.200  0.00  0.00     0.007 C 
ATOM     12  C   UNL d   1      -4.521  -1.819   0.370  0.00  0.00     0.007 C 
ATOM     13  C   UNL d   1      -6.001   2.326   1.736  0.00  0.00     0.016 C 
ATOM     14  C   UNL d   1      -4.727  -3.246   0.684  0.00  0.00     0.016 C 
ATOM     15  C   UNL d   1      -3.323   1.218   2.401  0.00  0.00     0.067 C 
ATOM     16  C   UNL d   1      -3.732   2.568   2.987  0.00  0.00     0.136 C 
ATOM     17  C   UNL d   1      -5.264   2.719   3.059  0.00  0.00     0.034 C 
ATOM     18  C   UNL d   1      -6.214  -2.949  -2.756  0.00  0.00     0.016 C 
ATOM     19  C   UNL d   1      -6.165  -0.040   2.465  0.00  0.00     0.020 C 
ENDROOT
BRANCH   7  20
ATOM     20  C   UNL d   1      -4.689  -4.946  -0.921  0.00  0.00     0.264 C 
ATOM     21  O   UNL d   1      -4.055  -4.959  -1.959  0.00  0.00    -0.265 OA
BRANCH  20  22
ATOM     22  O   UNL d   1      -4.506  -5.871   0.098  0.00  0.00    -0.315 OA
BRANCH  22  23
ATOM     23  C   UNL d   1      -3.165  -6.004   0.633  0.00  0.00     0.136 C 
ATOM     24  C   UNL d   1      -2.728  -7.478   0.788  0.00  0.00     0.015 C 
ATOM     25  C   UNL d   1      -1.795  -7.441   2.008  0.00  0.00     0.012 C 
ATOM     26  C   UNL d   1      -3.892  -8.307   1.347  0.00  0.00     0.007 C 
ATOM     27  C   UNL d   1      -2.844  -6.797   2.906  0.00  0.00    -0.012 C 
ATOM     28  C   UNL d   1      -3.132  -5.520   2.116  0.00  0.00     0.037 C 
ATOM     29  C   UNL d   1      -4.056  -7.738   2.765  0.00  0.00     0.005 C 
ENDBRANCH  22  23
ENDBRANCH  20  22
ENDBRANCH   7  20
BRANCH  16  30
ATOM     30  O   UNL d   1      -3.209   3.582   2.109  0.00  0.00    -0.316 OA
BRANCH  30  31
ATOM     31  C   UNL d   1      -3.012   4.811   2.655  0.00  0.00     0.255 C 
ATOM     32  O   UNL d   1      -3.115   5.097   3.831  0.00  0.00    -0.266 OA
ATOM     33  C   UNL d   1      -2.746   5.797   1.555  0.00  0.00     0.126 C 
ENDBRANCH  30  31
ENDBRANCH  16  30
TORSDOF 5
