REMARK  5 active torsions:
REMARK  status: ('A' for Active; 'I' for Inactive)
REMARK    1  A    between atoms: S_16  and  C_4 
REMARK    2  A    between atoms: C_6  and  C_5 
REMARK    3  A    between atoms: C_7  and  C_11 
REMARK    4  A    between atoms: N_13  and  C_8 
REMARK    5  A    between atoms: C_15  and  N_13 
ROOT
ATOM      1  C   UNL d   1       0.577   0.054  -0.016  0.00  0.00     0.093 A 
ATOM      2  N   UNL d   1      -1.567  -1.042   0.017  0.00  0.00    -0.336 N 
ATOM      3  HN  UNL d   1      -2.109  -1.906   0.042  1.00  0.00     0.168 HD
ATOM      4  C   UNL d   1      -0.215  -1.096   0.007  0.00  0.00     0.092 A 
ATOM      5  C   UNL d   1      -0.077   1.299  -0.015  0.00  0.00     0.074 A 
ATOM      6  C   UNL d   1      -2.201   0.145  -0.005  0.00  0.00     0.107 A 
ATOM      7  C   UNL d   1       2.009  -0.048  -0.050  0.00  0.00     0.103 C 
ATOM      8  N   UNL d   1       3.165  -0.110  -0.089  0.00  0.00    -0.191 NA
ATOM      9  C   UNL d   1      -1.485   1.327  -0.018  0.00  0.00     0.066 A 
ENDROOT
BRANCH   4  10
ATOM     10  S   UNL d   1       0.493  -2.746   0.027  0.00  0.00    -0.115 SA
ATOM     11  C   UNL d   1      -0.999  -3.780   0.098  0.00  0.00     0.097 C 
ENDBRANCH   4  10
BRANCH   5  12
ATOM     12  C   UNL d   1       0.626   2.631   0.003  0.00  0.00     0.419 C 
ATOM     13  F   UNL d   1       1.979   2.581   0.001  0.00  0.00    -0.166 F 
ATOM     14  F   UNL d   1       0.278   3.390  -1.073  0.00  0.00    -0.166 F 
ATOM     15  F   UNL d   1       0.281   3.363   1.097  0.00  0.00    -0.166 F 
ENDBRANCH   5  12
BRANCH   6  16
ATOM     16  N   UNL d   1      -3.611   0.201   0.027  0.00  0.00    -0.342 N 
ATOM     17  H   UNL d   1      -3.978   0.735  -0.752  0.00  0.00     0.167 HD
BRANCH  16  18
ATOM     18  C   UNL d   1      -4.433  -0.882   0.404  0.00  0.00     0.034 A 
ATOM     19  C   UNL d   1      -4.102  -1.658   1.523  0.00  0.00     0.045 A 
ATOM     20  C   UNL d   1      -4.840  -2.793   1.877  0.00  0.00     0.050 A 
ATOM     21  C   UNL d   1      -5.963  -3.128   1.112  0.00  0.00     0.016 A 
ATOM     22  C   UNL d   1      -6.329  -2.344   0.016  0.00  0.00     0.003 A 
ATOM     23  C   UNL d   1      -5.568  -1.225  -0.336  0.00  0.00     0.029 A 
BRANCH  20  24
ATOM     24  C   UNL d   1      -4.399  -3.651   3.034  0.00  0.00     0.417 C 
ATOM     25  F   UNL d   1      -3.271  -3.199   3.653  0.00  0.00    -0.166 F 
ATOM     26  F   UNL d   1      -5.345  -3.745   4.008  0.00  0.00    -0.166 F 
ATOM     27  F   UNL d   1      -4.122  -4.929   2.653  0.00  0.00    -0.166 F 
ENDBRANCH  20  24
ENDBRANCH  16  18
ENDBRANCH   6  16
TORSDOF 5
