REMARK  7 active torsions:
REMARK  status: ('A' for Active; 'I' for Inactive)
REMARK    1  A    between atoms: N_2  and  C_1 
REMARK    2  A    between atoms: C_4  and  N_2 
REMARK    3  A    between atoms: C_12  and  N_6 
REMARK    4  A    between atoms: S_8  and  C_7 
REMARK    5  A    between atoms: C_9  and  C_12 
REMARK    6  A    between atoms: C_14  and  C_9 
REMARK    7  A    between atoms: O_10  and  C_14 
ROOT
ATOM      1  N   UNL d   1       0.337  -0.790   0.942  0.00  0.00    -0.333 N 
ATOM      2  H   UNL d   1      -0.576  -0.962   0.535  0.00  0.00     0.168 HD
ENDROOT
BRANCH   1   3
ATOM      3  C   UNL d   1       1.143   0.029   0.185  0.00  0.00     0.172 C 
ATOM      4  S   UNL d   1       2.753  -0.209  -0.211  0.00  0.00    -0.041 SA
ATOM      5  N   UNL d   1       0.549   1.147  -0.322  0.00  0.00    -0.367 N 
ATOM      6  H   UNL d   1       1.192   1.729  -0.850  0.00  0.00     0.161 HD
BRANCH   5   7
ATOM      7  C   UNL d   1      -0.678   1.783   0.134  0.00  0.00     0.124 C 
BRANCH   7   8
ATOM      8  C   UNL d   1      -0.513   2.400   1.524  0.00  0.00     0.046 C 
BRANCH   8   9
ATOM      9  C   UNL d   1      -1.736   3.209   1.931  0.00  0.00     0.165 C 
BRANCH   9  10
ATOM     10  O   UNL d   1      -2.890   2.381   1.913  0.00  0.00    -0.401 OA
ATOM     11  H   UNL d   1      -3.627   2.910   2.267  0.00  0.00     0.209 HD
ENDBRANCH   9  10
ENDBRANCH   8   9
ENDBRANCH   7   8
ENDBRANCH   5   7
ENDBRANCH   1   3
BRANCH   1  12
ATOM     12  C   UNL d   1       0.781  -1.708   1.915  0.00  0.00     0.035 A 
ATOM     13  C   UNL d   1       1.812  -1.365   2.797  0.00  0.00     0.048 A 
ATOM     14  C   UNL d   1       2.309  -2.281   3.725  0.00  0.00     0.002 A 
ATOM     15  C   UNL d   1       1.711  -3.542   3.808  0.00  0.00     0.018 A 
ATOM     16  C   UNL d   1       0.636  -3.873   2.975  0.00  0.00     0.004 A 
ATOM     17  C   UNL d   1       0.159  -2.949   2.040  0.00  0.00     0.029 A 
BRANCH  14  18
ATOM     18  S   UNL d   1       3.662  -1.895   4.827  0.00  0.00    -0.134 SA
ATOM     19  C   UNL d   1       4.628  -0.730   3.820  0.00  0.00     0.095 C 
ENDBRANCH  14  18
ENDBRANCH   1  12
TORSDOF 7
