REMARK  1 active torsions:
REMARK  status: ('A' for Active; 'I' for Inactive)
REMARK    1  A    between atoms: C_8  and  C_1 
ROOT
ATOM      1  C   UNL d   1       2.443  -0.629   0.005  0.00  0.00     0.086 A 
ATOM      2  C   UNL d   1       2.393   0.850  -0.003  0.00  0.00     0.302 A 
ATOM      3  O   UNL d   1       1.137   1.444   0.001  0.00  0.00    -0.272 OA
ATOM      4  C   UNL d   1       1.297  -1.339   0.005  0.00  0.00     0.035 A 
ATOM      5  C   UNL d   1      -0.007  -0.686   0.002  0.00  0.00     0.002 A 
ATOM      6  C   UNL d   1      -0.058   0.704   0.001  0.00  0.00     0.111 A 
ATOM      7  C   UNL d   1      -1.274   1.392   0.000  0.00  0.00     0.070 A 
ATOM      8  C   UNL d   1      -2.467   0.678   0.001  0.00  0.00     0.050 A 
ATOM      9  C   UNL d   1      -1.207  -1.403   0.002  0.00  0.00     0.038 A 
ATOM     10  O   UNL d   1       3.398   1.554  -0.022  0.00  0.00    -0.259 OA
ATOM     11  C   UNL d   1      -2.427  -0.716   0.002  0.00  0.00     0.036 A 
ATOM     12 CL   UNL d   1      -1.327   3.114  -0.000  0.00  0.00    -0.081 Cl
ATOM     13 CL   UNL d   1      -3.903  -1.601   0.002  0.00  0.00    -0.084 Cl
ENDROOT
BRANCH   1  14
ATOM     14  C   UNL d   1       3.713  -1.430  -0.007  0.00  0.00     0.161 C 
ATOM     15  O   UNL d   1       3.683  -2.615  -0.359  0.00  0.00    -0.293 OA
ATOM     16  C   UNL d   1       5.037  -0.848   0.434  0.00  0.00     0.097 C 
ENDBRANCH   1  14
TORSDOF 1
