REMARK  3 active torsions:
REMARK  status: ('A' for Active; 'I' for Inactive)
REMARK    1  A    between atoms: C_5  and  C_1 
REMARK    2  A    between atoms: S_2  and  N_10 
REMARK       I    between atoms: N_11  and  C_5 
REMARK    3  A    between atoms: N_10  and  N_11 
ROOT
ATOM      1  C   UNL d   1      -0.309  -2.698   0.004  0.00  0.00     0.280 C 
ATOM      2  N   UNL d   1       0.855  -3.452   0.021  0.00  0.00    -0.256 N 
ATOM      3  O   UNL d   1      -1.403  -3.268   0.024  0.00  0.00    -0.265 OA
ATOM      4  H   UNL d   1       1.786  -3.047   0.096  0.00  0.00     0.191 HD
ENDROOT
BRANCH   1   5
ATOM      5  C   UNL d   1      -0.156  -1.261  -0.013  0.00  0.00     0.115 A 
ATOM      6  C   UNL d   1      -1.111  -0.251  -0.066  0.00  0.00     0.046 A 
ATOM      7  N   UNL d   1      -0.588   1.040  -0.053  0.00  0.00    -0.298 N 
ATOM      8  C   UNL d   1      -2.591  -0.366  -0.134  0.00  0.00     0.071 C 
ATOM      9  N   UNL d   1       0.730   1.043   0.011  0.00  0.00    -0.269 N 
ATOM     10  HN  UNL d   1      -1.158   1.886  -0.089  1.00  0.00     0.187 HD
ATOM     11  S   UNL d   1       1.376  -0.490   0.056  0.00  0.00     0.009 SA
ATOM     12  HN  UNL d   1       1.292   1.894   0.031  1.00  0.00     0.195 HD
ENDBRANCH   1   5
BRANCH   2  13
ATOM     13  N   UNL d   1       0.744  -4.908   0.184  0.00  0.00    -0.225 N 
ATOM     14  H   UNL d   1      -0.205  -5.221   0.431  0.00  0.00     0.200 HD
BRANCH  13  15
ATOM     15  S   UNL d   1       2.030  -5.657   0.990  0.00  0.00     0.240 S 
ATOM     16  O   UNL d   1       3.244  -5.239   0.325  0.00  0.00    -0.205 OA
ATOM     17  O   UNL d   1       1.827  -5.421   2.402  0.00  0.00    -0.205 OA
ATOM     18  C   UNL d   1       1.718  -7.374   0.642  0.00  0.00     0.187 C 
ENDBRANCH  13  15
ENDBRANCH   2  13
TORSDOF 3
