REMARK  3 active torsions:
REMARK  status: ('A' for Active; 'I' for Inactive)
REMARK    1  A    between atoms: N_5  and  S_1 
REMARK    2  A    between atoms: C_12  and  S_1 
REMARK    3  A    between atoms: C_3  and  N_7 
ROOT
ATOM      1  N   UNL d   1       0.390  -0.947  -0.738  0.00  0.00    -0.203 NA
ATOM      2  N   UNL d   1      -1.052  -3.049   0.648  0.00  0.00    -0.364 N 
ATOM      3  C   UNL d   1      -1.101  -0.930  -0.640  0.00  0.00     0.127 C 
ATOM      4  C   UNL d   1       0.860  -2.370  -0.807  0.00  0.00     0.127 C 
ATOM      5  C   UNL d   1      -1.612  -1.699   0.591  0.00  0.00     0.140 C 
ATOM      6  C   UNL d   1       0.390  -3.221   0.389  0.00  0.00     0.140 C 
ENDROOT
BRANCH   2   7
ATOM      7  C   UNL d   1      -1.674  -4.046   1.392  0.00  0.00     0.123 A 
ATOM      8  C   UNL d   1      -2.592  -3.883   2.459  0.00  0.00     0.076 A 
ATOM      9  S   UNL d   1      -3.100  -2.470   3.317  0.00  0.00    -0.095 SA
ATOM     10  C   UNL d   1      -3.230  -5.006   2.996  0.00  0.00     0.060 A 
ATOM     11  C   UNL d   1      -4.156  -3.335   4.324  0.00  0.00     0.059 A 
ATOM     12  C   UNL d   1      -4.139  -4.689   4.068  0.00  0.00    -0.027 A 
ATOM     13  C   UNL d   1      -4.960  -5.678   4.824  0.00  0.00     0.051 C 
ATOM     14  N   UNL d   1      -3.011  -6.261   2.533  0.00  0.00    -0.351 N 
ATOM     15  C   UNL d   1      -2.109  -6.332   1.556  0.00  0.00     0.182 A 
ATOM     16  HN  UNL d   1      -3.495  -7.080   2.901  1.00  0.00     0.166 HD
ATOM     17  N   UNL d   1      -1.433  -5.322   0.996  0.00  0.00    -0.338 N 
ATOM     18  HN  UNL d   1      -0.739  -5.511   0.273  1.00  0.00     0.168 HD
ENDBRANCH   2   7
BRANCH   1  19
ATOM     19  S   UNL d   1       1.257   0.071   0.318  0.00  0.00     0.243 S 
ATOM     20  O   UNL d   1       2.668  -0.185   0.130  0.00  0.00    -0.206 OA
ATOM     21  O   UNL d   1       0.657   0.008   1.627  0.00  0.00    -0.206 OA
BRANCH  19  22
ATOM     22  C   UNL d   1       0.945   1.691  -0.358  0.00  0.00     0.074 A 
ATOM     23  C   UNL d   1       0.302   2.671   0.405  0.00  0.00     0.026 A 
ATOM     24  C   UNL d   1       0.049   3.925  -0.160  0.00  0.00     0.025 A 
ATOM     25  C   UNL d   1       0.452   4.192  -1.470  0.00  0.00     0.034 A 
ATOM     26  C   UNL d   1       1.135   3.228  -2.213  0.00  0.00     0.025 A 
ATOM     27 CL   UNL d   1       0.096   5.719  -2.180  0.00  0.00    -0.084 Cl
ATOM     28  C   UNL d   1       1.385   1.972  -1.656  0.00  0.00     0.026 A 
ENDBRANCH  19  22
ENDBRANCH   1  19
TORSDOF 3
