REMARK  8 active torsions:
REMARK  status: ('A' for Active; 'I' for Inactive)
REMARK    1  A    between atoms: C_12  and  N_1 
REMARK    2  A    between atoms: C_13  and  C_2 
REMARK    3  A    between atoms: C_3  and  C_14 
REMARK    4  A    between atoms: C_23  and  C_8 
REMARK    5  A    between atoms: C_15  and  C_13 
REMARK    6  A    between atoms: C_14  and  O_22 
REMARK    7  A    between atoms: N_27  and  C_15 
REMARK    8  A    between atoms: O_22  and  N_18 
ROOT
ATOM      1  C   UNL d   1       4.512   1.275  -0.063  0.00  0.00     0.082 C 
ATOM      2  N   UNL d   1       3.660   2.244  -0.251  0.00  0.00    -0.250 N 
ATOM      3  HN  UNL d   1       3.919   3.190  -0.533  1.00  0.00     0.196 HD
ENDROOT
BRANCH   1   4
ATOM      4  C   UNL d   1       6.018   1.627  -0.075  0.00  0.00     0.148 C 
BRANCH   4   5
ATOM      5  C   UNL d   1       6.707   0.903   1.054  0.00  0.00     0.092 A 
ATOM      6  N   UNL d   1       7.790   1.328   1.806  0.00  0.00    -0.316 N 
ATOM      7  C   UNL d   1       8.026   0.380   2.782  0.00  0.00     0.136 A 
ATOM      8  C   UNL d   1       7.103  -0.622   2.533  0.00  0.00     0.078 A 
ATOM      9  N   UNL d   1       8.944   0.401   3.774  0.00  0.00    -0.350 N 
ATOM     10  C   UNL d   1       7.079  -1.741   3.369  0.00  0.00     0.035 A 
ATOM     11  N   UNL d   1       6.335  -0.314   1.453  0.00  0.00    -0.342 N 
ATOM     12  C   UNL d   1       7.999  -1.766   4.413  0.00  0.00     0.019 A 
ATOM     13  C   UNL d   1       8.882  -0.702   4.563  0.00  0.00     0.090 A 
ATOM     14  HN  UNL d   1       5.616  -0.900   1.030  1.00  0.00     0.167 HD
ATOM     15  HN  UNL d   1       9.610   1.161   3.913  1.00  0.00     0.166 HD
BRANCH   6  16
ATOM     16  C   UNL d   1       8.642   2.495   1.671  0.00  0.00     0.093 A 
ATOM     17  C   UNL d   1       8.145   3.899   1.403  0.00  0.00     0.028 A 
ATOM     18  C   UNL d   1       8.915   3.180   0.347  0.00  0.00     0.028 A 
ENDBRANCH   6  16
ENDBRANCH   4   5
ENDBRANCH   1   4
BRANCH   1  19
ATOM     19  N   UNL d   1       4.155  -0.042   0.160  0.00  0.00    -0.290 NA
ATOM     20  H   UNL d   1       4.938  -0.605   0.519  0.00  0.00     0.125 HD
ATOM     21  H   UNL d   1       3.385  -0.141   0.808  0.00  0.00     0.125 HD
ENDBRANCH   1  19
BRANCH   2  22
ATOM     22  O   UNL d   1       2.330   1.817  -0.013  0.00  0.00    -0.194 OA
BRANCH  22  23
ATOM     23  C   UNL d   1       1.812   0.999  -0.994  0.00  0.00     0.317 C 
ATOM     24  O   UNL d   1       2.078   1.055  -2.187  0.00  0.00    -0.257 OA
BRANCH  23  25
ATOM     25  C   UNL d   1       0.996  -0.060  -0.400  0.00  0.00     0.073 A 
ATOM     26  C   UNL d   1       0.556  -1.262  -1.042  0.00  0.00     0.058 A 
ATOM     27  C   UNL d   1      -0.044  -2.050  -0.080  0.00  0.00     0.087 A 
ATOM     28  O   UNL d   1      -0.035  -1.382   1.107  0.00  0.00    -0.314 OA
ATOM     29  C   UNL d   1       0.588  -0.186   0.922  0.00  0.00     0.066 A 
ATOM     30  C   UNL d   1       0.708   0.619   2.160  0.00  0.00     0.078 C 
BRANCH  27  31
ATOM     31  C   UNL d   1      -0.647  -3.381  -0.053  0.00  0.00    -0.002 A 
ATOM     32  C   UNL d   1      -0.653  -4.192  -1.198  0.00  0.00     0.016 A 
ATOM     33  C   UNL d   1      -1.265  -5.452  -1.180  0.00  0.00     0.024 A 
ATOM     34  C   UNL d   1      -1.870  -5.914  -0.015  0.00  0.00     0.034 A 
ATOM     35  C   UNL d   1      -1.856  -5.138   1.139  0.00  0.00     0.024 A 
ATOM     36 CL   UNL d   1      -2.647  -7.448  -0.003  0.00  0.00    -0.084 Cl
ATOM     37  C   UNL d   1      -1.243  -3.880   1.118  0.00  0.00     0.016 A 
ENDBRANCH  27  31
ENDBRANCH  23  25
ENDBRANCH  22  23
ENDBRANCH   2  22
TORSDOF 8
