REMARK  2 active torsions:
REMARK  status: ('A' for Active; 'I' for Inactive)
REMARK    1  A    between atoms: C_6  and  C_1 
REMARK    2  A    between atoms: O_11  and  C_6 
ROOT
ATOM      1  C   UNL d   1      -2.038  -1.176   0.000  0.00  0.00     0.082 A 
ATOM      2  S   UNL d   1      -2.048   0.545   0.003  0.00  0.00    -0.083 SA
ATOM      3  C   UNL d   1      -0.759  -1.704   0.002  0.00  0.00     0.045 A 
ATOM      4  C   UNL d   1      -0.308   0.583   0.004  0.00  0.00     0.023 A 
ATOM      5  C   UNL d   1       0.229  -0.673   0.003  0.00  0.00     0.023 A 
ATOM      6  S   UNL d   1       1.974  -0.637   0.002  0.00  0.00    -0.101 SA
ATOM      7  C   UNL d   1       0.679   1.615   0.006  0.00  0.00     0.027 A 
ATOM      8  C   UNL d   1       1.945   1.077   0.004  0.00  0.00     0.052 A 
ENDROOT
BRANCH   1   9
ATOM      9  C   UNL d   1      -3.316  -1.872  -0.004  0.00  0.00     0.299 C 
ATOM     10  O   UNL d   1      -4.426  -1.353  -0.004  0.00  0.00    -0.259 OA
BRANCH   9  11
ATOM     11  O   UNL d   1      -3.111  -3.224  -0.008  0.00  0.00    -0.322 OA
ATOM     12  C   UNL d   1      -4.318  -3.989  -0.014  0.00  0.00     0.213 C 
ENDBRANCH   9  11
ENDBRANCH   1   9
TORSDOF 2
