REMARK  6 active torsions:
REMARK  status: ('A' for Active; 'I' for Inactive)
REMARK    1  A    between atoms: N_2  and  C_1 
REMARK       I    between atoms: C_3  and  N_2 
REMARK    2  A    between atoms: O_6  and  C_4 
REMARK    3  A    between atoms: C_5  and  C_9 
REMARK    4  A    between atoms: C_7  and  C_5 
REMARK    5  A    between atoms: C_9  and  O_6 
REMARK    6  A    between atoms: O_20  and  C_16 
ROOT
ATOM      1  C   UNL d   1      -1.076   1.251   0.056  0.00  0.00     0.069 A 
ATOM      2  C   UNL d   1      -1.788   0.035   0.069  0.00  0.00     0.096 A 
ATOM      3  C   UNL d   1       0.333   1.211  -0.023  0.00  0.00     0.039 A 
ATOM      4  C   UNL d   1      -1.072  -1.169  -0.049  0.00  0.00     0.039 A 
ATOM      5  C   UNL d   1       1.040   0.003  -0.057  0.00  0.00    -0.060 A 
ATOM      6  C   UNL d   1       0.322  -1.188  -0.087  0.00  0.00     0.009 A 
ATOM      7  C   UNL d   1       2.537  -0.028  -0.053  0.00  0.00     0.048 C 
ENDROOT
BRANCH   2   8
ATOM      8  O   UNL d   1      -3.155   0.053   0.122  0.00  0.00    -0.341 OA
BRANCH   8   9
ATOM      9  C   UNL d   1      -3.814  -1.145   0.507  0.00  0.00     0.259 C 
BRANCH   9  10
ATOM     10  C   UNL d   1      -5.148  -0.866   1.184  0.00  0.00     0.183 C 
ATOM     11  O   UNL d   1      -6.214  -0.972   0.574  0.00  0.00    -0.290 OA
BRANCH  10  12
ATOM     12  C   UNL d   1      -5.173  -0.515   2.637  0.00  0.00     0.012 A 
ATOM     13  C   UNL d   1      -6.294   0.165   3.132  0.00  0.00     0.018 A 
ATOM     14  C   UNL d   1      -6.388   0.496   4.489  0.00  0.00     0.037 A 
ATOM     15  C   UNL d   1      -5.365   0.139   5.366  0.00  0.00     0.068 A 
ATOM     16  C   UNL d   1      -4.266  -0.573   4.886  0.00  0.00     0.037 A 
ATOM     17  C   UNL d   1      -4.160  -0.889   3.527  0.00  0.00     0.018 A 
BRANCH  15  18
ATOM     18  O   UNL d   1      -5.360   0.384   6.711  0.00  0.00    -0.356 OA
ATOM     19  C   UNL d   1      -6.002   1.592   7.107  0.00  0.00     0.210 C 
ENDBRANCH  15  18
ENDBRANCH  10  12
ENDBRANCH   9  10
ENDBRANCH   8   9
ENDBRANCH   2   8
BRANCH   1  20
ATOM     20  N   UNL d   1      -1.616   2.563   0.081  0.00  0.00    -0.325 N 
ATOM     21  C   UNL d   1      -2.855   3.000   0.504  0.00  0.00     0.218 C 
ATOM     22  O   UNL d   1      -3.722   2.354   1.083  0.00  0.00    -0.274 OA
ATOM     23  C   UNL d   1      -3.058   4.479   0.259  0.00  0.00     0.117 C 
ATOM     24  H   UNL d   1      -0.950   3.294  -0.130  0.00  0.00     0.169 HD
ENDBRANCH   1  20
TORSDOF 6
