REMARK  10 active torsions:
REMARK  status: ('A' for Active; 'I' for Inactive)
REMARK    1  A    between atoms: C_2  and  S_1 
REMARK    2  A    between atoms: N_3  and  S_1 
REMARK    3  A    between atoms: C_4  and  N_3 
REMARK    4  A    between atoms: C_10  and  C_4 
REMARK    5  A    between atoms: C_11  and  C_4 
REMARK    6  A    between atoms: C_5  and  C_11 
REMARK    7  A    between atoms: O_24  and  C_10 
REMARK       I    between atoms: C_12  and  N_18 
REMARK    8  A    between atoms: C_22  and  C_12 
REMARK    9  A    between atoms: C_23  and  C_14 
REMARK   10  A    between atoms: N_18  and  C_23 
ROOT
ATOM      1  S   UNL d   1       0.805   0.011  -0.136  0.00  0.00     0.248 S 
ATOM      2  O   UNL d   1       1.211  -1.370  -0.001  0.00  0.00    -0.205 OA
ATOM      3  O   UNL d   1      -0.291   0.394  -1.000  0.00  0.00    -0.205 OA
ENDROOT
BRANCH   1   4
ATOM      4  C   UNL d   1       2.224   0.862  -0.763  0.00  0.00     0.115 A 
ATOM      5  S   UNL d   1       2.129   2.568  -0.843  0.00  0.00    -0.080 SA
ATOM      6  C   UNL d   1       3.730   2.701  -1.448  0.00  0.00     0.002 A 
ATOM      7  C   UNL d   1       4.307   1.457  -1.619  0.00  0.00     0.018 A 
ATOM      8  C   UNL d   1       3.441   0.400  -1.221  0.00  0.00     0.033 A 
BRANCH   6   9
ATOM      9  C   UNL d   1       4.342   4.044  -1.693  0.00  0.00     0.169 C 
BRANCH   9  10
ATOM     10  N   UNL d   1       4.092   4.452  -3.056  0.00  0.00    -0.352 N 
ATOM     11  C   UNL d   1       4.547   5.673  -3.509  0.00  0.00     0.251 C 
ATOM     12  O   UNL d   1       5.203   6.442  -2.812  0.00  0.00    -0.268 OA
ATOM     13  H   UNL d   1       3.746   3.764  -3.711  0.00  0.00     0.163 HD
BRANCH  11  14
ATOM     14  C   UNL d   1       4.226   6.021  -4.919  0.00  0.00     0.032 A 
ATOM     15  C   UNL d   1       3.073   5.536  -5.553  0.00  0.00     0.017 A 
ATOM     16  C   UNL d   1       2.786   5.913  -6.867  0.00  0.00     0.001 A 
ATOM     17  C   UNL d   1       3.642   6.777  -7.551  0.00  0.00     0.000 A 
ATOM     18  C   UNL d   1       4.784   7.271  -6.922  0.00  0.00     0.001 A 
ATOM     19  C   UNL d   1       5.074   6.899  -5.607  0.00  0.00     0.017 A 
ENDBRANCH  11  14
ENDBRANCH   9  10
ENDBRANCH   6   9
ENDBRANCH   1   4
BRANCH   1  20
ATOM     20  N   UNL d   1       0.416   0.585   1.397  0.00  0.00    -0.201 NA
ATOM     21  H   UNL d   1      -0.602   0.672   1.447  0.00  0.00     0.141 HD
BRANCH  20  22
ATOM     22  C   UNL d   1       0.990  -0.151   2.570  0.00  0.00     0.175 C 
BRANCH  22  23
ATOM     23  C   UNL d   1       2.511  -0.146   2.603  0.00  0.00     0.277 C 
ATOM     24  O   UNL d   1       3.218   0.757   2.174  0.00  0.00    -0.263 OA
BRANCH  23  25
ATOM     25  O   UNL d   1       2.978  -1.268   3.222  0.00  0.00    -0.325 OA
ATOM     26  C   UNL d   1       4.403  -1.377   3.295  0.00  0.00     0.213 C 
ENDBRANCH  23  25
ENDBRANCH  22  23
BRANCH  22  27
ATOM     27  C   UNL d   1       0.489   0.491   3.878  0.00  0.00     0.071 C 
BRANCH  27  28
ATOM     28  C   UNL d   1      -1.002   0.382   4.039  0.00  0.00    -0.028 A 
ATOM     29  C   UNL d   1      -1.691  -0.654   4.639  0.00  0.00     0.096 A 
ATOM     30  N   UNL d   1      -3.033  -0.403   4.523  0.00  0.00    -0.365 N 
ATOM     31  C   UNL d   1      -3.240   0.772   3.839  0.00  0.00     0.042 A 
ATOM     32  H   UNL d   1      -3.771  -1.004   4.864  0.00  0.00     0.165 HD
ATOM     33  C   UNL d   1      -1.985   1.307   3.554  0.00  0.00    -0.002 A 
ATOM     34  C   UNL d   1      -4.433   1.391   3.449  0.00  0.00     0.030 A 
ATOM     35  C   UNL d   1      -1.918   2.531   2.856  0.00  0.00     0.014 A 
ATOM     36  C   UNL d   1      -3.100   3.155   2.444  0.00  0.00     0.001 A 
ATOM     37  C   UNL d   1      -4.338   2.590   2.735  0.00  0.00     0.002 A 
ENDBRANCH  27  28
ENDBRANCH  22  27
ENDBRANCH  20  22
ENDBRANCH   1  20
TORSDOF 10
