REMARK  4 active torsions:
REMARK  status: ('A' for Active; 'I' for Inactive)
REMARK       I    between atoms: N_2  and  C_1 
REMARK       I    between atoms: N_4  and  C_1 
REMARK    1  A    between atoms: C_7  and  N_4 
REMARK    2  A    between atoms: O_8  and  C_10 
REMARK    3  A    between atoms: C_11  and  O_8 
REMARK    4  A    between atoms: C_16  and  C_11 
ROOT
ATOM      1  C   UNL d   1      -1.099   0.596   1.226  0.00  0.00     0.036 A 
ATOM      2  C   UNL d   1      -3.892   0.704   1.491  0.00  0.00     0.069 A 
ATOM      3  C   UNL d   1      -1.864  -0.569   1.144  0.00  0.00     0.032 A 
ATOM      4  C   UNL d   1      -1.739   1.800   1.541  0.00  0.00     0.032 A 
ATOM      5  C   UNL d   1      -3.125   1.853   1.680  0.00  0.00     0.039 A 
ATOM      6  C   UNL d   1      -3.257  -0.515   1.276  0.00  0.00     0.039 A 
ENDROOT
BRANCH   1   7
ATOM      7  N   UNL d   1       0.287   0.671   0.969  0.00  0.00    -0.309 N 
ATOM      8  C   UNL d   1       1.127  -0.348   0.565  0.00  0.00     0.327 C 
ATOM      9  N   UNL d   1       2.455   0.032   0.282  0.00  0.00    -0.299 N 
ATOM     10  O   UNL d   1       0.735  -1.513   0.493  0.00  0.00    -0.246 OA
ATOM     11  C   UNL d   1       3.430  -0.966  -0.090  0.00  0.00     0.045 A 
ATOM     12  C   UNL d   1       3.031   1.379   0.442  0.00  0.00     0.134 C 
ATOM     13  C   UNL d   1       4.785  -0.785   0.259  0.00  0.00    -0.031 A 
ATOM     14  C   UNL d   1       3.075  -2.127  -0.797  0.00  0.00     0.030 A 
ATOM     15  C   UNL d   1       5.725  -1.786  -0.045  0.00  0.00     0.009 A 
ATOM     16  C   UNL d   1       5.280   0.458   0.952  0.00  0.00     0.042 C 
ATOM     17  C   UNL d   1       5.340  -2.950  -0.707  0.00  0.00     0.001 A 
ATOM     18  C   UNL d   1       4.018  -3.111  -1.098  0.00  0.00     0.002 A 
ATOM     19  C   UNL d   1       4.160   1.353   1.456  0.00  0.00     0.025 C 
ATOM     20  H   UNL d   1       0.669   1.591   1.060  0.00  0.00     0.170 HD
ENDBRANCH   1   7
BRANCH   2  21
ATOM     21  O   UNL d   1      -5.259   0.680   1.480  0.00  0.00    -0.347 OA
BRANCH  21  22
ATOM     22  C   UNL d   1      -5.855   1.902   1.032  0.00  0.00     0.214 C 
BRANCH  22  23
ATOM     23  C   UNL d   1      -7.228   1.680   0.445  0.00  0.00    -0.034 A 
ATOM     24  C   UNL d   1      -8.167   2.724   0.492  0.00  0.00     0.009 A 
ATOM     25  C   UNL d   1      -9.411   2.584  -0.120  0.00  0.00     0.001 A 
ATOM     26  C   UNL d   1      -9.731   1.408  -0.794  0.00  0.00     0.000 A 
ATOM     27  C   UNL d   1      -8.802   0.368  -0.858  0.00  0.00     0.001 A 
ATOM     28  C   UNL d   1      -7.554   0.507  -0.247  0.00  0.00     0.009 A 
ENDBRANCH  22  23
ENDBRANCH  21  22
ENDBRANCH   2  21
TORSDOF 4
