REMARK  2 active torsions:
REMARK  status: ('A' for Active; 'I' for Inactive)
REMARK       I    between atoms: C_2  and  N_1 
REMARK    1  A    between atoms: O_7  and  C_2 
REMARK    2  A    between atoms: C_11  and  O_7 
ROOT
ATOM      1  N   UNL d   1      -1.616  -0.986  -0.035  0.00  0.00    -0.268 N 
ATOM      2  C   UNL d   1      -2.027  -2.339  -0.044  0.00  0.00     0.372 C 
ATOM      3  C   UNL d   1      -2.383   0.193  -0.034  0.00  0.00     0.054 A 
ATOM      4  C   UNL d   1      -0.278  -0.607  -0.004  0.00  0.00     0.103 A 
ATOM      5  C   UNL d   1      -1.492   1.281  -0.024  0.00  0.00    -0.006 A 
ATOM      6  C   UNL d   1      -0.178   0.760  -0.010  0.00  0.00     0.031 A 
ATOM      7  C   UNL d   1      -3.776   0.418  -0.029  0.00  0.00     0.032 A 
ATOM      8  O   UNL d   1      -1.217  -3.244   0.059  0.00  0.00    -0.238 OA
ATOM      9  C   UNL d   1      -1.996   2.600  -0.023  0.00  0.00     0.032 A 
ATOM     10  C   UNL d   1      -3.376   2.806  -0.021  0.00  0.00     0.011 A 
ATOM     11  C   UNL d   1      -4.255   1.733  -0.022  0.00  0.00     0.021 A 
ATOM     12 BR   UNL d   1      -4.054   4.572  -0.012  0.00  0.00    -0.051 Br
ENDROOT
BRANCH   2  13
ATOM     13  O   UNL d   1      -3.371  -2.447  -0.165  0.00  0.00    -0.293 OA
BRANCH  13  14
ATOM     14  C   UNL d   1      -4.031  -3.740  -0.101  0.00  0.00     0.061 C 
ATOM     15  C   UNL d   1      -3.803  -4.407   1.261  0.00  0.00     0.046 C 
ATOM     16  C   UNL d   1      -5.524  -3.415  -0.264  0.00  0.00     0.046 C 
ATOM     17  C   UNL d   1      -3.604  -4.663  -1.248  0.00  0.00     0.046 C 
ENDBRANCH  13  14
ENDBRANCH   2  13
TORSDOF 2
