REMARK  3 active torsions:
REMARK  status: ('A' for Active; 'I' for Inactive)
REMARK    1  A    between atoms: C_6  and  C_2 
REMARK    2  A    between atoms: O_17  and  C_3 
REMARK    3  A    between atoms: C_11  and  C_7 
ROOT
ATOM      1  C   UNL d   1      -0.681   1.290  -0.011  0.00  0.00     0.110 A 
ATOM      2  C   UNL d   1      -1.429   0.105  -0.030  0.00  0.00     0.075 A 
ATOM      3  C   UNL d   1       0.707   1.179   0.021  0.00  0.00     0.162 A 
ATOM      4  N   UNL d   1       1.366   0.002   0.038  0.00  0.00    -0.335 N 
ATOM      5  HN  UNL d   1       2.385  -0.022   0.074  1.00  0.00     0.168 HD
ATOM      6  C   UNL d   1       0.652  -1.146   0.006  0.00  0.00     0.046 A 
ATOM      7  C   UNL d   1      -0.738  -1.121  -0.025  0.00  0.00     0.048 A 
ATOM      8  C   UNL d   1      -1.285   2.584  -0.016  0.00  0.00     0.104 C 
ATOM      9  N   UNL d   1      -1.701   3.667  -0.019  0.00  0.00    -0.191 NA
ENDROOT
BRANCH   2  10
ATOM     10  C   UNL d   1      -2.933   0.051  -0.043  0.00  0.00     0.419 C 
ATOM     11  F   UNL d   1      -3.554   1.254   0.007  0.00  0.00    -0.166 F 
ATOM     12  F   UNL d   1      -3.401  -0.568  -1.160  0.00  0.00    -0.166 F 
ATOM     13  F   UNL d   1      -3.418  -0.664   1.009  0.00  0.00    -0.166 F 
ENDBRANCH   2  10
BRANCH   3  14
ATOM     14  O   UNL d   1       1.550   2.252   0.050  0.00  0.00    -0.345 OA
ATOM     15  H   UNL d   1       1.067   3.093   0.021  0.00  0.00     0.219 HD
ENDBRANCH   3  14
BRANCH   6  16
ATOM     16  C   UNL d   1       1.419  -2.400   0.062  0.00  0.00     0.006 A 
ATOM     17  C   UNL d   1       0.995  -3.567  -0.576  0.00  0.00     0.101 A 
ATOM     18  N   UNL d   1       1.612  -4.772  -0.495  0.00  0.00    -0.374 N 
ATOM     19  C   UNL d   1       2.735  -4.825   0.249  0.00  0.00     0.087 A 
ATOM     20  HN  UNL d   1       1.246  -5.596  -0.973  1.00  0.00     0.164 HD
ATOM     21  C   UNL d   1       3.274  -3.728   0.898  0.00  0.00     0.018 A 
ATOM     22  C   UNL d   1       2.610  -2.506   0.794  0.00  0.00     0.016 A 
ENDBRANCH   6  16
TORSDOF 3
