REMARK  3 active torsions:
REMARK  status: ('A' for Active; 'I' for Inactive)
REMARK    1  A    between atoms: C_2  and  C_1 
REMARK       I    between atoms: N_3  and  C_1 
REMARK    2  A    between atoms: C_9  and  N_3 
REMARK    3  A    between atoms: N_4  and  C_5 
ROOT
ATOM      1  C   UNL d   1      -4.030  -0.377  -1.482  0.00  0.00     0.030 A 
ATOM      2  C   UNL d   1      -1.172  -0.422  -1.386  0.00  0.00     0.035 A 
ATOM      3  C   UNL d   1      -3.289   0.717  -1.010  0.00  0.00     0.031 A 
ATOM      4  C   UNL d   1      -3.288  -1.476  -1.931  0.00  0.00     0.031 A 
ATOM      5  C   UNL d   1      -1.891  -1.501  -1.885  0.00  0.00     0.032 A 
ATOM      6  C   UNL d   1      -1.884   0.697  -0.949  0.00  0.00     0.032 A 
ENDROOT
BRANCH   2   7
ATOM      7  N   UNL d   1       0.236  -0.416  -1.264  0.00  0.00    -0.323 N 
ATOM      8  C   UNL d   1       1.097  -1.382  -1.774  0.00  0.00     0.261 C 
ATOM      9  O   UNL d   1       0.775  -2.298  -2.518  0.00  0.00    -0.267 OA
ATOM     10  H   UNL d   1       0.634   0.336  -0.720  0.00  0.00     0.169 HD
BRANCH   8  11
ATOM     11  C   UNL d   1       2.515  -1.304  -1.359  0.00  0.00     0.092 A 
ATOM     12  C   UNL d   1       3.558  -1.673  -2.221  0.00  0.00     0.052 A 
ATOM     13 CL   UNL d   1       3.343  -1.984  -3.910  0.00  0.00    -0.083 Cl
ATOM     14  C   UNL d   1       4.873  -1.752  -1.742  0.00  0.00     0.025 A 
ATOM     15  C   UNL d   1       5.163  -1.446  -0.413  0.00  0.00     0.005 A 
ATOM     16  C   UNL d   1       4.138  -1.045   0.439  0.00  0.00     0.043 A 
ATOM     17  C   UNL d   1       2.828  -0.982  -0.035  0.00  0.00     0.133 A 
ATOM     18  F   UNL d   1       1.871  -0.613   0.831  0.00  0.00    -0.205 F 
ENDBRANCH   8  11
ENDBRANCH   2   7
BRANCH   1  19
ATOM     19  N   UNL d   1      -5.410  -0.387  -1.506  0.00  0.00    -0.381 N 
ATOM     20  C   UNL d   1      -6.201   0.822  -1.722  0.00  0.00     0.123 C 
ATOM     21  C   UNL d   1      -7.105   0.615  -2.940  0.00  0.00     0.020 C 
ATOM     22  C   UNL d   1      -7.945  -0.656  -2.815  0.00  0.00     0.003 C 
ATOM     23  C   UNL d   1      -7.067  -1.872  -2.520  0.00  0.00     0.020 C 
ATOM     24  C   UNL d   1      -6.174  -1.622  -1.308  0.00  0.00     0.123 C 
ENDBRANCH   1  19
TORSDOF 3
