REMARK  3 active torsions:
REMARK  status: ('A' for Active; 'I' for Inactive)
REMARK    1  A    between atoms: N_6  and  C_1 
REMARK       I    between atoms: C_8  and  N_6 
REMARK    2  A    between atoms: C_13  and  C_8 
REMARK    3  A    between atoms: N_11  and  C_13 
ROOT
ATOM      1  C   UNL d   1       2.323  -0.879   0.226  0.00  0.00     0.098 A 
ATOM      2  C   UNL d   1       1.909   0.450   0.179  0.00  0.00     0.085 A 
ATOM      3  C   UNL d   1       0.464   0.584   0.183  0.00  0.00    -0.021 A 
ATOM      4  C   UNL d   1      -0.137  -0.658   0.258  0.00  0.00    -0.007 A 
ATOM      5  S   UNL d   1       0.975  -1.921   0.359  0.00  0.00    -0.075 SA
ATOM      6  C   UNL d   1       2.818   1.557   0.093  0.00  0.00     0.103 C 
ATOM      7  N   UNL d   1       3.554   2.445   0.025  0.00  0.00    -0.191 NA
ATOM      8  C   UNL d   1      -0.356   1.841   0.055  0.00  0.00     0.042 C 
ATOM      9  C   UNL d   1      -1.611  -0.919   0.260  0.00  0.00     0.051 C 
ATOM     10  C   UNL d   1      -1.875   1.594   0.231  0.00  0.00     0.009 C 
ATOM     11  C   UNL d   1      -2.374   0.261  -0.370  0.00  0.00    -0.014 C 
ATOM     12  C   UNL d   1      -2.283   0.246  -1.900  0.00  0.00     0.010 C 
ENDROOT
BRANCH   1  13
ATOM     13  N   UNL d   1       3.618  -1.415   0.192  0.00  0.00    -0.319 N 
ATOM     14  C   UNL d   1       3.934  -2.773   0.143  0.00  0.00     0.251 C 
ATOM     15  O   UNL d   1       3.138  -3.710   0.090  0.00  0.00    -0.271 OA
ATOM     16  H   UNL d   1       4.411  -0.779   0.178  0.00  0.00     0.169 HD
BRANCH  14  17
ATOM     17  C   UNL d   1       5.431  -3.105   0.046  0.00  0.00     0.375 C 
BRANCH  17  18
ATOM     18  N   UNL d   1       6.317  -2.173   0.767  0.00  0.00     0.101 N 
ATOM     19  C   UNL d   1       6.102  -2.160   2.235  0.00  0.00     0.299 C 
ATOM     20  C   UNL d   1       6.855  -3.208   3.077  0.00  0.00     0.198 C 
ATOM     21  O   UNL d   1       8.241  -3.265   2.737  0.00  0.00    -0.388 OA
ATOM     22  C   UNL d   1       8.380  -3.592   1.354  0.00  0.00     0.198 C 
ATOM     23  C   UNL d   1       7.741  -2.502   0.474  0.00  0.00     0.299 C 
ENDBRANCH  17  18
ENDBRANCH  14  17
ENDBRANCH   1  13
TORSDOF 3
