REMARK  4 active torsions:
REMARK  status: ('A' for Active; 'I' for Inactive)
REMARK    1  A    between atoms: C_9  and  N_1 
REMARK    2  A    between atoms: C_7  and  C_2 
REMARK    3  A    between atoms: N_10  and  C_8 
REMARK    4  A    between atoms: C_11  and  N_10 
ROOT
ATOM      1  N   UNL d   1       3.700   0.684   0.030  0.00  0.00    -0.225 N 
ATOM      2  C   UNL d   1       3.601  -0.708   0.001  0.00  0.00     0.139 C 
ATOM      3  N   UNL d   1       5.678  -0.130  -0.018  0.00  0.00    -0.007 NA
ATOM      4  N   UNL d   1       5.008   1.007  -0.116  0.00  0.00     0.001 NA
ATOM      5  N   UNL d   1       4.825  -1.199   0.069  0.00  0.00    -0.270 N 
ATOM      6  HN  UNL d   1       5.084  -2.181   0.167  1.00  0.00     0.185 HD
ENDROOT
BRANCH   2   7
ATOM      7  C   UNL d   1       2.361  -1.356  -0.218  0.00  0.00     0.068 C 
ATOM      8  C   UNL d   1       2.112  -2.627   0.118  0.00  0.00     0.092 C 
BRANCH   8   9
ATOM      9  N   UNL d   1       2.916  -3.555   0.723  0.00  0.00    -0.366 N 
ATOM     10  H   UNL d   1       3.881  -3.264   0.877  0.00  0.00     0.165 HD
BRANCH   9  11
ATOM     11  C   UNL d   1       2.624  -4.899   1.025  0.00  0.00     0.031 A 
ATOM     12  C   UNL d   1       1.410  -5.521   0.698  0.00  0.00     0.029 A 
ATOM     13  C   UNL d   1       1.149  -6.847   1.060  0.00  0.00     0.002 A 
ATOM     14  C   UNL d   1       2.096  -7.576   1.768  0.00  0.00     0.000 A 
ATOM     15  C   UNL d   1       3.304  -6.978   2.114  0.00  0.00     0.002 A 
ATOM     16  C   UNL d   1       3.562  -5.651   1.748  0.00  0.00     0.029 A 
ENDBRANCH   9  11
ENDBRANCH   8   9
ENDBRANCH   2   7
BRANCH   1  17
ATOM     17  C   UNL d   1       2.711   1.687   0.206  0.00  0.00     0.056 A 
ATOM     18  C   UNL d   1       1.529   1.419   0.916  0.00  0.00     0.031 A 
ATOM     19  C   UNL d   1       0.559   2.412   1.062  0.00  0.00     0.002 A 
ATOM     20  C   UNL d   1       0.761   3.674   0.506  0.00  0.00     0.000 A 
ATOM     21  C   UNL d   1       1.945   3.954  -0.175  0.00  0.00     0.002 A 
ATOM     22  C   UNL d   1       2.928   2.971  -0.311  0.00  0.00     0.031 A 
ENDBRANCH   1  17
TORSDOF 4
