REMARK  3 active torsions:
REMARK  status: ('A' for Active; 'I' for Inactive)
REMARK    1  A    between atoms: N_12  and  N_5 
REMARK    2  A    between atoms: C_18  and  N_7 
REMARK       I    between atoms: C_13  and  N_12 
REMARK       I    between atoms: N_14  and  C_13 
REMARK    3  A    between atoms: C_19  and  N_14 
ROOT
ATOM      1  C   UNL d   1      -0.262  -0.217   0.183  0.00  0.00     0.146 C 
ATOM      2  C   UNL d   1      -0.290   0.999   0.817  0.00  0.00     0.096 C 
ATOM      3  N   UNL d   1       0.804  -0.740  -0.476  0.00  0.00    -0.329 N 
ATOM      4  HN  UNL d   1       0.757  -1.596  -1.028  1.00  0.00     0.168 HD
ATOM      5  N   UNL d   1       2.065   1.015   0.589  0.00  0.00    -0.221 N 
ATOM      6  C   UNL d   1       0.940   1.695   1.073  0.00  0.00     0.279 C 
ATOM      7  N   UNL d   1      -1.570  -0.706   0.233  0.00  0.00    -0.239 N 
ATOM      8  C   UNL d   1       1.899  -0.038  -0.332  0.00  0.00     0.100 C 
ATOM      9  N   UNL d   1      -2.432   0.313   0.557  0.00  0.00    -0.302 N 
ATOM     10  HN  UNL d   1      -3.451   0.309   0.503  1.00  0.00     0.186 HD
ATOM     11  C   UNL d   1      -1.639   1.313   0.957  0.00  0.00     0.128 C 
ATOM     12  O   UNL d   1       0.962   2.793   1.640  0.00  0.00    -0.265 OA
ATOM     13  C   UNL d   1       3.020  -0.293  -1.317  0.00  0.00     0.091 C 
ENDROOT
BRANCH   5  14
ATOM     14  N   UNL d   1       3.395   1.571   0.793  0.00  0.00    -0.143 NA
ATOM     15  C   UNL d   1       3.934   1.763   2.056  0.00  0.00     0.317 C 
ATOM     16  N   UNL d   1       3.249   2.608   2.884  0.00  0.00    -0.312 N 
ATOM     17  O   UNL d   1       5.039   1.272   2.273  0.00  0.00    -0.252 OA
ATOM     18  H   UNL d   1       2.363   2.951   2.521  0.00  0.00     0.170 HD
ATOM     19  H   UNL d   1       4.103   1.038   0.298  0.00  0.00     0.158 HD
BRANCH  16  20
ATOM     20  C   UNL d   1       3.688   3.200   4.091  0.00  0.00     0.037 A 
ATOM     21  C   UNL d   1       4.929   2.959   4.689  0.00  0.00     0.055 A 
ATOM     22  C   UNL d   1       5.307   3.648   5.854  0.00  0.00     0.058 A 
ATOM     23 CL   UNL d   1       6.870   3.315   6.520  0.00  0.00    -0.082 Cl
ATOM     24  C   UNL d   1       4.440   4.580   6.434  0.00  0.00     0.055 A 
ATOM     25  C   UNL d   1       3.195   4.812   5.852  0.00  0.00     0.028 A 
ATOM     26 CL   UNL d   1       4.846   5.479   7.853  0.00  0.00    -0.083 Cl
ATOM     27  C   UNL d   1       2.824   4.125   4.691  0.00  0.00     0.031 A 
ENDBRANCH  16  20
ENDBRANCH   5  14
BRANCH   7  28
ATOM     28  C   UNL d   1      -2.052  -2.037   0.108  0.00  0.00     0.058 A 
ATOM     29  C   UNL d   1      -1.181  -3.134   0.136  0.00  0.00     0.031 A 
ATOM     30  C   UNL d   1      -1.693  -4.436   0.135  0.00  0.00     0.002 A 
ATOM     31  C   UNL d   1      -3.069  -4.654   0.086  0.00  0.00     0.000 A 
ATOM     32  C   UNL d   1      -3.942  -3.570   0.039  0.00  0.00     0.002 A 
ATOM     33  C   UNL d   1      -3.439  -2.267   0.057  0.00  0.00     0.031 A 
ENDBRANCH   7  28
TORSDOF 3
