REMARK  4 active torsions:
REMARK  status: ('A' for Active; 'I' for Inactive)
REMARK    1  A    between atoms: C_2  and  C_1 
REMARK       I    between atoms: N_5  and  C_2 
REMARK    2  A    between atoms: C_3  and  C_4 
REMARK    3  A    between atoms: C_6  and  N_5 
REMARK    4  A    between atoms: C_18  and  C_10 
ROOT
ATOM      1  C   UNL d   1       1.178   2.531  -0.703  0.00  0.00     0.258 C 
ATOM      2  N   UNL d   1       0.540   3.668  -0.231  0.00  0.00    -0.322 N 
ATOM      3  O   UNL d   1       0.653   1.426  -0.780  0.00  0.00    -0.267 OA
ATOM      4  H   UNL d   1       0.861   4.542  -0.616  0.00  0.00     0.169 HD
ENDROOT
BRANCH   1   5
ATOM      5  C   UNL d   1       2.618   2.652  -1.099  0.00  0.00     0.062 A 
ATOM      6  C   UNL d   1       3.312   3.766  -1.605  0.00  0.00     0.066 A 
ATOM      7  C   UNL d   1       4.709   3.659  -1.791  0.00  0.00     0.034 A 
ATOM      8  C   UNL d   1       5.349   2.463  -1.530  0.00  0.00     0.088 A 
ATOM      9  N   UNL d   1       4.700   1.367  -1.109  0.00  0.00    -0.374 N 
ATOM     10  C   UNL d   1       3.363   1.485  -0.907  0.00  0.00     0.105 A 
ATOM     11  HN  UNL d   1       5.188   0.486  -0.948  1.00  0.00     0.164 HD
BRANCH   6  12
ATOM     12  C   UNL d   1       2.710   5.081  -2.001  0.00  0.00     0.418 C 
ATOM     13  F   UNL d   1       1.355   5.085  -2.096  0.00  0.00    -0.166 F 
ATOM     14  F   UNL d   1       3.013   6.065  -1.110  0.00  0.00    -0.166 F 
ATOM     15  F   UNL d   1       3.156   5.522  -3.209  0.00  0.00    -0.166 F 
ENDBRANCH   6  12
ENDBRANCH   1   5
BRANCH   2  16
ATOM     16  C   UNL d   1      -0.840   3.680   0.077  0.00  0.00     0.041 A 
ATOM     17  C   UNL d   1      -1.448   2.878   1.057  0.00  0.00    -0.032 A 
ATOM     18  C   UNL d   1      -2.854   2.953   1.180  0.00  0.00     0.009 A 
ATOM     19  C   UNL d   1      -3.617   3.827   0.403  0.00  0.00     0.001 A 
ATOM     20  C   UNL d   1      -2.991   4.663  -0.510  0.00  0.00     0.002 A 
ATOM     21  C   UNL d   1      -1.609   4.598  -0.660  0.00  0.00     0.030 A 
BRANCH  17  22
ATOM     22  C   UNL d   1      -0.738   1.946   2.019  0.00  0.00     0.036 C 
ATOM     23  C   UNL d   1       0.585   2.422   2.609  0.00  0.00     0.010 C 
ENDBRANCH  17  22
ENDBRANCH   2  16
TORSDOF 4
