REMARK  3 active torsions:
REMARK  status: ('A' for Active; 'I' for Inactive)
REMARK    1  A    between atoms: C_7  and  C_1 
REMARK    2  A    between atoms: N_11  and  C_7 
REMARK    3  A    between atoms: O_12  and  N_8 
ROOT
ATOM      1  C   UNL d   1       1.948  -2.941   0.013  0.00  0.00     0.106 A 
ATOM      2  C   UNL d   1       0.750  -3.700  -0.007  0.00  0.00     0.059 A 
ATOM      3  N   UNL d   1       3.019  -3.774   0.057  0.00  0.00    -0.295 N 
ATOM      4  HN  UNL d   1       4.006  -3.522   0.111  1.00  0.00     0.187 HD
ATOM      5  C   UNL d   1       1.122  -5.018  -0.009  0.00  0.00     0.131 A 
ATOM      6  N   UNL d   1       2.482  -5.008   0.011  0.00  0.00    -0.306 N 
ATOM      7 BR   UNL d   1      -1.019  -3.083  -0.033  0.00  0.00    -0.047 Br
ATOM      8  C   UNL d   1       3.334  -6.174  -0.008  0.00  0.00     0.177 C 
ENDROOT
BRANCH   1   9
ATOM      9  C   UNL d   1       2.144  -1.483   0.014  0.00  0.00     0.127 C 
ATOM     10  N   UNL d   1       1.127  -0.682   0.072  0.00  0.00    -0.256 N 
ATOM     11  HN  UNL d   1       0.153  -0.983   0.100  1.00  0.00     0.195 HD
BRANCH  10  12
ATOM     12  O   UNL d   1       1.549   0.659   0.092  0.00  0.00    -0.288 OA
ATOM     13  H   UNL d   1       0.701   1.138   0.030  0.00  0.00     0.244 HD
ENDBRANCH  10  12
BRANCH   9  14
ATOM     14  N   UNL d   1       3.463  -1.108  -0.021  0.00  0.00    -0.285 NA
ATOM     15  H   UNL d   1       4.092  -1.827   0.325  0.00  0.00     0.125 HD
ATOM     16  H   UNL d   1       3.603  -0.180   0.353  0.00  0.00     0.125 HD
ENDBRANCH   9  14
ENDBRANCH   1   9
TORSDOF 3
