REMARK  3 active torsions:
REMARK  status: ('A' for Active; 'I' for Inactive)
REMARK    1  A    between atoms: C_3  and  C_1 
REMARK    2  A    between atoms: C_8  and  C_1 
REMARK    3  A    between atoms: O_11  and  C_7 
ROOT
ATOM      1  C   UNL d   1       0.364   1.101   0.716  0.00  0.00     0.068 C 
ATOM      2  C   UNL d   1       1.113  -0.085   0.054  0.00  0.00     0.231 C 
ATOM      3  N   UNL d   1       0.493  -1.295  -0.080  0.00  0.00    -0.360 N 
ATOM      4  O   UNL d   1       2.253   0.004  -0.421  0.00  0.00    -0.272 OA
ATOM      5  C   UNL d   1      -0.770   1.487  -0.295  0.00  0.00     0.024 C 
ATOM      6  C   UNL d   1      -0.886  -1.615   0.191  0.00  0.00     0.122 C 
ATOM      7  C   UNL d   1      -2.019   0.600  -0.411  0.00  0.00     0.003 C 
ATOM      8  C   UNL d   1      -1.821  -0.875  -0.749  0.00  0.00     0.020 C 
ATOM      9  H   UNL d   1       1.058  -1.978  -0.571  0.00  0.00     0.162 HD
ENDROOT
BRANCH   1  10
ATOM     10  C   UNL d   1      -0.113   0.816   2.153  0.00  0.00    -0.038 A 
ATOM     11  C   UNL d   1       0.629  -0.046   2.984  0.00  0.00     0.045 A 
ATOM     12  C   UNL d   1       0.244  -0.304   4.302  0.00  0.00     0.068 A 
ATOM     13  C   UNL d   1      -0.939   0.240   4.791  0.00  0.00     0.037 A 
ATOM     14  C   UNL d   1      -1.681   1.114   3.999  0.00  0.00     0.003 A 
ATOM     15  C   UNL d   1      -1.251   1.427   2.706  0.00  0.00     0.008 A 
BRANCH  12  16
ATOM     16  O   UNL d   1       0.955  -1.085   5.172  0.00  0.00    -0.356 OA
ATOM     17  C   UNL d   1       2.367  -1.054   4.968  0.00  0.00     0.210 C 
ENDBRANCH  12  16
ENDBRANCH   1  10
BRANCH   1  18
ATOM     18  C   UNL d   1       1.330   2.342   0.785  0.00  0.00     0.020 C 
ATOM     19  C   UNL d   1       2.604   2.198   1.626  0.00  0.00     0.006 C 
ENDBRANCH   1  18
TORSDOF 3
