REMARK  4 active torsions:
REMARK  status: ('A' for Active; 'I' for Inactive)
REMARK    1  A    between atoms: N_13  and  C_3 
REMARK    2  A    between atoms: C_18  and  C_9 
REMARK    3  A    between atoms: C_12  and  C_15 
REMARK    4  A    between atoms: C_16  and  N_13 
ROOT
ATOM      1  N   UNL d   1       0.238  -0.745  -0.098  0.00  0.00    -0.074 N 
ATOM      2  C   UNL d   1       0.243   0.651  -0.088  0.00  0.00     0.706 A 
ATOM      3  C   UNL d   1      -0.963  -1.479  -0.067  0.00  0.00     0.127 A 
ATOM      4  N   UNL d   1      -0.914   1.376  -0.057  0.00  0.00    -0.189 N 
ATOM      5  HN  UNL d   1      -0.906   2.396  -0.061  1.00  0.00     0.184 HD
ATOM      6  C   UNL d   1      -2.120  -0.791  -0.054  0.00  0.00     0.076 A 
ATOM      7  N   UNL d   1       1.490   1.070  -0.081  0.00  0.00    -0.185 N 
ATOM      8  HN  UNL d   1       1.832   2.031  -0.072  1.00  0.00     0.185 HD
ATOM      9  C   UNL d   1      -2.030   0.703  -0.021  0.00  0.00     0.062 A 
ATOM     10  N   UNL d   1       1.516  -1.216  -0.106  0.00  0.00    -0.273 N 
ATOM     11  HN  UNL d   1       1.848  -2.180  -0.122  1.00  0.00     0.189 HD
ATOM     12  C   UNL d   1       2.215  -0.081  -0.088  0.00  0.00     0.215 A 
ENDROOT
BRANCH   3  13
ATOM     13  N   UNL d   1      -0.888  -2.874  -0.055  0.00  0.00    -0.243 NA
ATOM     14  H   UNL d   1       0.088  -3.183  -0.134  0.00  0.00     0.135 HD
BRANCH  13  15
ATOM     15  C   UNL d   1      -1.555  -3.643   0.934  0.00  0.00     0.014 A 
ATOM     16  C   UNL d   1      -1.968  -4.941   0.617  0.00  0.00     0.040 A 
ATOM     17  C   UNL d   1      -2.657  -5.729   1.554  0.00  0.00     0.049 A 
ATOM     18  C   UNL d   1      -2.871  -5.223   2.845  0.00  0.00     0.016 A 
ATOM     19  C   UNL d   1      -2.405  -3.958   3.192  0.00  0.00     0.003 A 
ATOM     20  C   UNL d   1      -1.745  -3.176   2.244  0.00  0.00     0.024 A 
BRANCH  17  21
ATOM     21  C   UNL d   1      -3.201  -7.085   1.181  0.00  0.00     0.417 C 
ATOM     22  F   UNL d   1      -2.923  -7.452  -0.101  0.00  0.00    -0.166 F 
ATOM     23  F   UNL d   1      -2.714  -8.081   1.971  0.00  0.00    -0.166 F 
ATOM     24  F   UNL d   1      -4.557  -7.144   1.299  0.00  0.00    -0.166 F 
ENDBRANCH  17  21
ENDBRANCH  13  15
ENDBRANCH   3  13
BRANCH   9  25
ATOM     25  C   UNL d   1      -3.330   1.435   0.039  0.00  0.00    -0.009 A 
ATOM     26  C   UNL d   1      -4.447   0.910   0.705  0.00  0.00     0.014 A 
ATOM     27  C   UNL d   1      -5.652   1.617   0.723  0.00  0.00     0.001 A 
ATOM     28  C   UNL d   1      -5.744   2.855   0.090  0.00  0.00     0.000 A 
ATOM     29  C   UNL d   1      -4.630   3.394  -0.553  0.00  0.00     0.001 A 
ATOM     30  C   UNL d   1      -3.425   2.690  -0.576  0.00  0.00     0.014 A 
ENDBRANCH   9  25
TORSDOF 4
