REMARK  5 active torsions:
REMARK  status: ('A' for Active; 'I' for Inactive)
REMARK    1  A    between atoms: C_3  and  C_1 
REMARK       I    between atoms: N_12  and  C_1 
REMARK    2  A    between atoms: C_6  and  C_17 
REMARK    3  A    between atoms: C_14  and  C_9 
REMARK    4  A    between atoms: C_20  and  N_12 
REMARK    5  A    between atoms: O_23  and  C_14 
ROOT
ATOM      1  C   UNL d   1       0.773  -0.006  -0.201  0.00  0.00     0.228 C 
ATOM      2  N   UNL d   1       0.319   0.602   0.944  0.00  0.00    -0.327 N 
ATOM      3  O   UNL d   1       1.892   0.127  -0.706  0.00  0.00    -0.273 OA
ATOM      4  H   UNL d   1      -0.547   0.262   1.341  0.00  0.00     0.169 HD
ENDROOT
BRANCH   2   5
ATOM      5  C   UNL d   1       0.868   1.738   1.577  0.00  0.00     0.034 A 
ATOM      6  C   UNL d   1       1.990   2.425   1.111  0.00  0.00     0.030 A 
ATOM      7  C   UNL d   1       2.424   3.600   1.744  0.00  0.00     0.016 A 
ATOM      8  C   UNL d   1       1.742   4.111   2.855  0.00  0.00    -0.008 A 
ATOM      9  C   UNL d   1       0.634   3.403   3.336  0.00  0.00     0.016 A 
ATOM     10  C   UNL d   1       0.200   2.232   2.702  0.00  0.00     0.030 A 
BRANCH   8  11
ATOM     11  C   UNL d   1       2.151   5.347   3.514  0.00  0.00     0.063 A 
ATOM     12  N   UNL d   1       1.824   5.595   4.844  0.00  0.00    -0.292 N 
ATOM     13  N   UNL d   1       2.266   6.771   5.255  0.00  0.00    -0.061 NA
ATOM     14  HN  UNL d   1       1.304   4.944   5.434  1.00  0.00     0.183 HD
ATOM     15  S   UNL d   1       3.068   7.617   4.057  0.00  0.00    -0.010 SA
ATOM     16  C   UNL d   1       2.843   6.374   2.894  0.00  0.00     0.096 A 
ENDBRANCH   8  11
ENDBRANCH   2   5
BRANCH   1  17
ATOM     17  C   UNL d   1      -0.195  -0.938  -0.907  0.00  0.00     0.100 C 
ATOM     18  C   UNL d   1      -1.692  -0.991  -0.526  0.00  0.00     0.022 C 
ATOM     19  C   UNL d   1      -2.323   0.376  -0.641  0.00  0.00    -0.025 C 
ATOM     20  C   UNL d   1      -2.270  -1.610  -1.807  0.00  0.00     0.018 C 
ATOM     21  C   UNL d   1      -2.354   0.690  -1.944  0.00  0.00    -0.025 C 
ATOM     22  C   UNL d   1      -1.760  -0.477  -2.707  0.00  0.00     0.023 C 
ATOM     23  C   UNL d   1      -0.243  -0.490  -2.412  0.00  0.00     0.105 C 
BRANCH  23  24
ATOM     24  C   UNL d   1       0.530  -1.453  -3.281  0.00  0.00     0.145 C 
ATOM     25  O   UNL d   1       0.050  -2.097  -4.199  0.00  0.00    -0.650 OA
BRANCH  24  26
ATOM     26  O   UNL d   1       1.843  -1.517  -2.955  0.00  0.00    -0.776 OA
ATOM     27  H   UNL d   1       2.117  -0.911  -2.224  0.00  0.00     0.167 HD
ENDBRANCH  24  26
ENDBRANCH  23  24
ENDBRANCH   1  17
TORSDOF 5
