REMARK  4 active torsions:
REMARK  status: ('A' for Active; 'I' for Inactive)
REMARK       I    between atoms: C_3  and  N_1 
REMARK    1  A    between atoms: C_10  and  C_3 
REMARK    2  A    between atoms: C_5  and  C_13 
REMARK       I    between atoms: N_6  and  C_5 
REMARK    3  A    between atoms: C_12  and  N_6 
REMARK    4  A    between atoms: C_13  and  C_10 
ROOT
ATOM      1  C   UNL d   1       1.071   3.397  -0.538  0.00  0.00     0.112 C 
ENDROOT
BRANCH   1   2
ATOM      2  C   UNL d   1       2.155   2.348  -0.388  0.00  0.00     0.224 C 
ATOM      3  N   UNL d   1       1.818   1.011  -0.458  0.00  0.00    -0.317 N 
ATOM      4  C   UNL d   1       0.594   0.342  -0.648  0.00  0.00     0.043 A 
ATOM      5  C   UNL d   1       2.855   0.006  -0.165  0.00  0.00     0.137 C 
ATOM      6  C   UNL d   1       0.802  -1.040  -0.575  0.00  0.00    -0.030 A 
ATOM      7  C   UNL d   1      -0.683   0.829  -0.878  0.00  0.00     0.030 A 
ATOM      8  C   UNL d   1      -0.242  -1.949  -0.688  0.00  0.00     0.009 A 
ATOM      9  C   UNL d   1       2.252  -1.372  -0.423  0.00  0.00     0.061 C 
ATOM     10  C   UNL d   1      -1.529  -1.455  -0.886  0.00  0.00     0.001 A 
ATOM     11  C   UNL d   1      -1.746  -0.077  -0.990  0.00  0.00     0.002 A 
ATOM     12  O   UNL d   1       3.324   2.687  -0.179  0.00  0.00    -0.273 OA
ENDBRANCH   1   2
BRANCH   1  13
ATOM     13  C   UNL d   1       1.635   4.803  -0.365  0.00  0.00     0.112 C 
BRANCH  13  14
ATOM     14  C   UNL d   1       0.689   5.983  -0.518  0.00  0.00     0.222 C 
ATOM     15  N   UNL d   1      -0.666   5.721  -0.484  0.00  0.00    -0.327 N 
ATOM     16  H   UNL d   1      -0.965   4.792  -0.225  0.00  0.00     0.169 HD
ATOM     17  O   UNL d   1       1.185   7.109  -0.606  0.00  0.00    -0.273 OA
BRANCH  15  18
ATOM     18  C   UNL d   1      -1.704   6.676  -0.615  0.00  0.00     0.034 A 
ATOM     19  C   UNL d   1      -1.496   7.990  -1.041  0.00  0.00     0.031 A 
ATOM     20  C   UNL d   1      -2.553   8.905  -1.094  0.00  0.00     0.020 A 
ATOM     21  C   UNL d   1      -3.834   8.506  -0.728  0.00  0.00     0.006 A 
ATOM     22  C   UNL d   1      -4.068   7.189  -0.337  0.00  0.00     0.020 A 
ATOM     23  I   UNL d   1      -5.390   9.880  -0.751  0.00  0.00    -0.045 I 
ATOM     24  C   UNL d   1      -3.007   6.275  -0.290  0.00  0.00     0.031 A 
ENDBRANCH  15  18
ENDBRANCH  13  14
ENDBRANCH   1  13
TORSDOF 4
