REMARK  8 active torsions:
REMARK  status: ('A' for Active; 'I' for Inactive)
REMARK    1  A    between atoms: C_8  and  N_1 
REMARK    2  A    between atoms: S_9  and  C_2 
REMARK    3  A    between atoms: O_19  and  C_3 
REMARK    4  A    between atoms: C_10  and  C_8 
REMARK    5  A    between atoms: C_14  and  S_9 
REMARK    6  A    between atoms: C_11  and  C_14 
REMARK    7  A    between atoms: C_13  and  C_11 
REMARK    8  A    between atoms: O_25  and  C_22 
ROOT
ATOM      1  N   UNL d   1       4.662   0.780  -1.831  0.00  0.00    -0.285 N 
ATOM      2  C   UNL d   1       3.672  -0.161  -1.885  0.00  0.00     0.165 A 
ATOM      3  C   UNL d   1       4.817   1.209  -3.123  0.00  0.00     0.240 A 
ATOM      4  N   UNL d   1       3.304  -0.351  -3.131  0.00  0.00    -0.277 N 
ATOM      5  HN  UNL d   1       2.601  -1.014  -3.458  1.00  0.00     0.189 HD
ATOM      6  N   UNL d   1       4.043   0.511  -3.918  0.00  0.00    -0.263 N 
ATOM      7  HN  UNL d   1       3.994   0.590  -4.934  1.00  0.00     0.190 HD
ENDROOT
BRANCH   2   8
ATOM      8  S   UNL d   1       2.966  -0.903  -0.490  0.00  0.00    -0.085 SA
BRANCH   8   9
ATOM      9  C   UNL d   1       2.793  -2.630  -1.054  0.00  0.00     0.166 C 
BRANCH   9  10
ATOM     10  C   UNL d   1       4.137  -3.342  -1.015  0.00  0.00     0.169 C 
ATOM     11  O   UNL d   1       5.188  -2.773  -1.316  0.00  0.00    -0.291 OA
BRANCH  10  12
ATOM     12  C   UNL d   1       4.219  -4.775  -0.574  0.00  0.00     0.011 A 
ATOM     13  C   UNL d   1       3.112  -5.560  -0.226  0.00  0.00     0.018 A 
ATOM     14  C   UNL d   1       3.295  -6.858   0.283  0.00  0.00     0.037 A 
ATOM     15  C   UNL d   1       4.579  -7.381   0.436  0.00  0.00     0.068 A 
ATOM     16  C   UNL d   1       5.676  -6.633   0.020  0.00  0.00     0.037 A 
ATOM     17  C   UNL d   1       5.500  -5.339  -0.472  0.00  0.00     0.018 A 
BRANCH  15  18
ATOM     18  O   UNL d   1       4.870  -8.616   0.943  0.00  0.00    -0.356 OA
ATOM     19  C   UNL d   1       4.008  -9.060   1.986  0.00  0.00     0.210 C 
ENDBRANCH  15  18
ENDBRANCH  10  12
ENDBRANCH   9  10
ENDBRANCH   8   9
ENDBRANCH   2   8
BRANCH   1  20
ATOM     20  C   UNL d   1       5.472   1.176  -0.702  0.00  0.00     0.200 C 
BRANCH  20  21
ATOM     21  C   UNL d   1       5.035   2.499  -0.193  0.00  0.00     0.070 A 
ATOM     22  O   UNL d   1       5.521   3.593  -0.853  0.00  0.00    -0.325 OA
ATOM     23  C   UNL d   1       5.003   4.688  -0.235  0.00  0.00     0.142 A 
ATOM     24  C   UNL d   1       4.191   4.312   0.809  0.00  0.00     0.027 A 
ATOM     25  C   UNL d   1       4.211   2.898   0.839  0.00  0.00     0.036 A 
ENDBRANCH  20  21
ENDBRANCH   1  20
BRANCH   3  26
ATOM     26  O   UNL d   1       5.615   2.184  -3.531  0.00  0.00    -0.331 OA
ATOM     27  H   UNL d   1       5.775   2.785  -2.779  0.00  0.00     0.221 HD
ENDBRANCH   3  26
TORSDOF 8
