REMARK  8 active torsions:
REMARK  status: ('A' for Active; 'I' for Inactive)
REMARK    1  A    between atoms: C_8  and  N_2 
REMARK    2  A    between atoms: C_19  and  C_6 
REMARK    3  A    between atoms: C_17  and  C_7 
REMARK    4  A    between atoms: C_10  and  C_8 
REMARK       I    between atoms: N_14  and  C_10 
REMARK    5  A    between atoms: C_11  and  N_13 
REMARK    6  A    between atoms: N_15  and  C_11 
REMARK    7  A    between atoms: N_13  and  N_14 
REMARK    8  A    between atoms: C_21  and  N_15 
ROOT
ATOM      1  C   UNL d   1      -0.576   1.377  -0.168  0.00  0.00     0.127 C 
ATOM      2  N   UNL d   1      -0.686  -1.061  -0.191  0.00  0.00    -0.247 N 
ATOM      3  N   UNL d   1       0.681  -1.132  -0.007  0.00  0.00    -0.294 N 
ATOM      4  HN  UNL d   1       1.145  -2.036   0.083  1.00  0.00     0.187 HD
ATOM      5  C   UNL d   1      -1.319   0.141  -0.473  0.00  0.00     0.284 C 
ATOM      6  C   UNL d   1       0.754   1.333   0.021  0.00  0.00     0.029 C 
ATOM      7  C   UNL d   1       1.368  -0.031   0.049  0.00  0.00     0.071 C 
ATOM      8  C   UNL d   1      -1.324   2.592  -0.193  0.00  0.00     0.106 C 
ATOM      9  N   UNL d   1      -1.904   3.594  -0.206  0.00  0.00    -0.191 NA
ATOM     10  O   UNL d   1      -2.433   0.232  -0.980  0.00  0.00    -0.265 OA
ENDROOT
BRANCH   6  11
ATOM     11  C   UNL d   1       1.500   2.598   0.125  0.00  0.00    -0.022 A 
ATOM     12  C   UNL d   1       1.859   3.147   1.361  0.00  0.00     0.012 A 
ATOM     13  C   UNL d   1       2.486   4.393   1.408  0.00  0.00     0.001 A 
ATOM     14  C   UNL d   1       2.764   5.093   0.233  0.00  0.00     0.000 A 
ATOM     15  C   UNL d   1       2.408   4.557  -1.000  0.00  0.00     0.001 A 
ATOM     16  C   UNL d   1       1.765   3.323  -1.052  0.00  0.00     0.012 A 
ENDBRANCH   6  11
BRANCH   2  17
ATOM     17  C   UNL d   1      -1.291  -2.331  -0.613  0.00  0.00     0.257 C 
BRANCH  17  18
ATOM     18  C   UNL d   1      -2.817  -2.413  -0.622  0.00  0.00     0.256 C 
ATOM     19  N   UNL d   1      -3.445  -2.473  -1.857  0.00  0.00    -0.266 N 
ATOM     20  H   UNL d   1      -4.462  -2.403  -1.772  0.00  0.00     0.190 HD
ATOM     21  O   UNL d   1      -3.478  -2.440   0.418  0.00  0.00    -0.270 OA
BRANCH  19  22
ATOM     22  N   UNL d   1      -2.936  -1.760  -2.994  0.00  0.00    -0.273 N 
ATOM     23  H   UNL d   1      -1.954  -1.509  -2.959  0.00  0.00     0.189 HD
BRANCH  22  24
ATOM     24  C   UNL d   1      -3.732  -0.747  -3.538  0.00  0.00     0.191 C 
ATOM     25  S   UNL d   1      -5.383  -0.611  -3.254  0.00  0.00    -0.039 SA
BRANCH  24  26
ATOM     26  N   UNL d   1      -2.982   0.036  -4.422  0.00  0.00    -0.332 N 
ATOM     27  H   UNL d   1      -2.499  -0.514  -5.121  0.00  0.00     0.168 HD
BRANCH  26  28
ATOM     28  C   UNL d   1      -3.351   1.341  -4.823  0.00  0.00     0.034 A 
ATOM     29  C   UNL d   1      -3.717   2.306  -3.880  0.00  0.00     0.029 A 
ATOM     30  C   UNL d   1      -4.149   3.566  -4.296  0.00  0.00     0.002 A 
ATOM     31  C   UNL d   1      -4.214   3.864  -5.656  0.00  0.00     0.000 A 
ATOM     32  C   UNL d   1      -3.798   2.921  -6.596  0.00  0.00     0.002 A 
ATOM     33  C   UNL d   1      -3.337   1.669  -6.180  0.00  0.00     0.029 A 
ENDBRANCH  26  28
ENDBRANCH  24  26
ENDBRANCH  22  24
ENDBRANCH  19  22
ENDBRANCH  17  18
ENDBRANCH   2  17
BRANCH   7  34
ATOM     34  C   UNL d   1       2.855  -0.163   0.132  0.00  0.00    -0.007 A 
ATOM     35  C   UNL d   1       3.694   0.542  -0.738  0.00  0.00     0.014 A 
ATOM     36  C   UNL d   1       5.080   0.396  -0.659  0.00  0.00     0.001 A 
ATOM     37  C   UNL d   1       5.634  -0.497   0.252  0.00  0.00     0.000 A 
ATOM     38  C   UNL d   1       4.801  -1.253   1.080  0.00  0.00     0.001 A 
ATOM     39  C   UNL d   1       3.415  -1.089   1.020  0.00  0.00     0.014 A 
ENDBRANCH   7  34
TORSDOF 8
