REMARK  3 active torsions:
REMARK  status: ('A' for Active; 'I' for Inactive)
REMARK    1  A    between atoms: C_7  and  C_1 
REMARK    2  A    between atoms: O_10  and  C_2 
REMARK    3  A    between atoms: O_14  and  C_12 
ROOT
ATOM      1  C   UNL d   1      -1.805  -0.910   0.039  0.00  0.00     0.076 A 
ATOM      2  C   UNL d   1      -0.544  -1.392   0.013  0.00  0.00     0.094 A 
ATOM      3  C   UNL d   1      -2.026   0.577   0.057  0.00  0.00     0.259 A 
ATOM      4  C   UNL d   1       0.616  -0.482   0.020  0.00  0.00     0.028 A 
ATOM      5  N   UNL d   1      -0.918   1.380   0.050  0.00  0.00    -0.322 N 
ATOM      6  C   UNL d   1       0.391   0.898   0.032  0.00  0.00     0.048 A 
ATOM      7  O   UNL d   1      -3.148   1.073   0.072  0.00  0.00    -0.267 OA
ATOM      8  C   UNL d   1       1.942  -0.939   0.006  0.00  0.00     0.053 A 
ATOM      9  C   UNL d   1       1.454   1.802   0.024  0.00  0.00     0.033 A 
ATOM     10  C   UNL d   1       3.018  -0.043  -0.002  0.00  0.00     0.069 A 
ATOM     11  C   UNL d   1       2.768   1.330   0.005  0.00  0.00     0.039 A 
ATOM     12  H   UNL d   1      -1.101   2.374   0.058  0.00  0.00     0.169 HD
ENDROOT
BRANCH   1  13
ATOM     13  C   UNL d   1      -2.982  -1.798   0.038  0.00  0.00    -0.018 A 
ATOM     14  C   UNL d   1      -3.514  -2.277   1.242  0.00  0.00     0.012 A 
ATOM     15  C   UNL d   1      -4.665  -3.068   1.238  0.00  0.00     0.001 A 
ATOM     16  C   UNL d   1      -5.287  -3.389   0.032  0.00  0.00     0.000 A 
ATOM     17  C   UNL d   1      -4.746  -2.942  -1.172  0.00  0.00     0.001 A 
ATOM     18  C   UNL d   1      -3.593  -2.154  -1.171  0.00  0.00     0.012 A 
ENDBRANCH   1  13
BRANCH   2  19
ATOM     19  O   UNL d   1      -0.228  -2.739  -0.036  0.00  0.00    -0.359 OA
ATOM     20  H   UNL d   1      -1.050  -3.254  -0.116  0.00  0.00     0.217 HD
ENDBRANCH   2  19
BRANCH  10  21
ATOM     21  O   UNL d   1       4.253  -0.631  -0.018  0.00  0.00    -0.356 OA
ATOM     22  C   UNL d   1       5.380   0.236  -0.031  0.00  0.00     0.210 C 
ENDBRANCH  10  21
TORSDOF 3
