REMARK  8 active torsions:
REMARK  status: ('A' for Active; 'I' for Inactive)
REMARK    1  A    between atoms: N_3  and  C_1 
REMARK    2  A    between atoms: C_8  and  C_2 
REMARK    3  A    between atoms: C_4  and  N_3 
REMARK    4  A    between atoms: N_10  and  C_4 
REMARK    5  A    between atoms: O_14  and  C_8 
REMARK    6  A    between atoms: C_13  and  N_10 
REMARK    7  A    between atoms: C_21  and  O_14 
REMARK    8  A    between atoms: O_20  and  C_15 
ROOT
ATOM      1  N   UNL d   1       1.391  -1.556  -0.060  0.00  0.00    -0.317 N 
ATOM      2  H   UNL d   1       0.793  -0.852  -0.503  0.00  0.00     0.170 HD
ENDROOT
BRANCH   1   3
ATOM      3  C   UNL d   1       0.734  -2.518   0.691  0.00  0.00     0.140 A 
ATOM      4  C   UNL d   1      -0.637  -2.584   0.853  0.00  0.00     0.101 A 
ATOM      5  C   UNL d   1      -0.824  -3.631   1.779  0.00  0.00     0.128 A 
ATOM      6  N   UNL d   1       0.327  -4.185   2.171  0.00  0.00    -0.309 N 
ATOM      7  N   UNL d   1       1.258  -3.507   1.480  0.00  0.00    -0.285 N 
ATOM      8  HN  UNL d   1       0.465  -4.944   2.838  1.00  0.00     0.186 HD
ATOM      9  H   UNL d   1       2.234  -3.751   1.613  0.00  0.00     0.188 HD
BRANCH   4  10
ATOM     10  C   UNL d   1      -1.626  -1.737   0.221  0.00  0.00     0.298 C 
ATOM     11  O   UNL d   1      -1.314  -0.838  -0.549  0.00  0.00    -0.259 OA
BRANCH  10  12
ATOM     12  O   UNL d   1      -2.892  -2.067   0.587  0.00  0.00    -0.318 OA
BRANCH  12  13
ATOM     13  C   UNL d   1      -3.974  -1.381  -0.062  0.00  0.00     0.174 C 
ATOM     14  C   UNL d   1      -4.416  -0.184   0.759  0.00  0.00     0.034 C 
ENDBRANCH  12  13
ENDBRANCH  10  12
ENDBRANCH   4  10
ENDBRANCH   1   3
BRANCH   1  15
ATOM     15  C   UNL d   1       2.806  -1.365  -0.148  0.00  0.00     0.177 C 
ATOM     16  S   UNL d   1       3.986  -2.532  -0.080  0.00  0.00    -0.040 SA
BRANCH  15  17
ATOM     17  N   UNL d   1       3.106  -0.054  -0.419  0.00  0.00    -0.333 N 
ATOM     18  H   UNL d   1       3.999   0.123  -0.869  0.00  0.00     0.168 HD
BRANCH  17  19
ATOM     19  C   UNL d   1       2.344   1.064  -0.025  0.00  0.00     0.034 A 
ATOM     20  C   UNL d   1       1.501   1.013   1.092  0.00  0.00     0.032 A 
ATOM     21  C   UNL d   1       0.633   2.063   1.378  0.00  0.00     0.039 A 
ATOM     22  C   UNL d   1       0.616   3.185   0.556  0.00  0.00     0.068 A 
ATOM     23  C   UNL d   1       1.548   3.292  -0.481  0.00  0.00     0.039 A 
ATOM     24  C   UNL d   1       2.424   2.238  -0.767  0.00  0.00     0.032 A 
BRANCH  22  25
ATOM     25  O   UNL d   1      -0.253   4.231   0.695  0.00  0.00    -0.356 OA
ATOM     26  C   UNL d   1      -1.504   3.898   1.298  0.00  0.00     0.210 C 
ENDBRANCH  22  25
ENDBRANCH  17  19
ENDBRANCH  15  17
ENDBRANCH   1  15
TORSDOF 8
