REMARK  2 active torsions:
REMARK  status: ('A' for Active; 'I' for Inactive)
REMARK    1  A    between atoms: C_5  and  C_3 
REMARK    2  A    between atoms: C_10  and  C_4 
ROOT
ATOM      1  N   UNL d   1       1.374  -0.575  -0.199  0.00  0.00    -0.347 N 
ATOM      2  HN  UNL d   1       2.246  -1.055  -0.419  1.00  0.00     0.167 HD
ATOM      3  C   UNL d   1       1.251   0.795  -0.010  0.00  0.00     0.057 A 
ATOM      4  C   UNL d   1       0.200  -1.169  -0.053  0.00  0.00     0.102 A 
ATOM      5  S   UNL d   1      -1.113  -0.091   0.257  0.00  0.00    -0.080 SA
ATOM      6  C   UNL d   1      -0.032   1.233   0.241  0.00  0.00     0.082 A 
ENDROOT
BRANCH   4   7
ATOM      7  C   UNL d   1      -0.024  -2.621  -0.123  0.00  0.00     0.081 A 
ATOM      8  N   UNL d   1      -1.279  -3.087   0.122  0.00  0.00    -0.361 N 
ATOM      9  C   UNL d   1      -1.435  -4.431   0.078  0.00  0.00     0.105 A 
ATOM     10  HN  UNL d   1      -2.058  -2.461   0.326  1.00  0.00     0.165 HD
ATOM     11  C   UNL d   1      -0.387  -5.291  -0.200  0.00  0.00     0.104 A 
ATOM     12  N   UNL d   1       0.864  -4.847  -0.451  0.00  0.00    -0.372 N 
ATOM     13  C   UNL d   1       1.020  -3.497  -0.404  0.00  0.00     0.120 A 
ATOM     14  HN  UNL d   1       1.636  -5.480  -0.660  1.00  0.00     0.164 HD
ENDBRANCH   4   7
BRANCH   3  15
ATOM     15  C   UNL d   1       2.447   1.699  -0.062  0.00  0.00     0.033 A 
ATOM     16  S   UNL d   1       2.417   3.382   0.254  0.00  0.00    -0.076 SA
ATOM     17  C   UNL d   1       4.087   3.507   0.023  0.00  0.00     0.075 A 
ATOM     18 CL   UNL d   1       4.863   5.027   0.217  0.00  0.00    -0.076 Cl
ATOM     19  C   UNL d   1       4.683   2.319  -0.311  0.00  0.00     0.033 A 
ATOM     20  C   UNL d   1       3.724   1.260  -0.360  0.00  0.00     0.023 A 
ENDBRANCH   3  15
TORSDOF 2
