REMARK  5 active torsions:
REMARK  status: ('A' for Active; 'I' for Inactive)
REMARK    1  A    between atoms: C_3  and  N_1 
REMARK    2  A    between atoms: C_2  and  C_4 
REMARK       I    between atoms: N_14  and  C_2 
REMARK    3  A    between atoms: C_15  and  N_14 
REMARK    4  A    between atoms: C_17  and  C_15 
REMARK    5  A    between atoms: C_16  and  C_17 
ROOT
ATOM      1  C   UNL d   1      -1.766  -6.670  -0.091  0.00  0.00     0.251 C 
ATOM      2  O   UNL d   1      -1.290  -7.404   0.770  0.00  0.00    -0.268 OA
ATOM      3  N   UNL d   1      -2.626  -7.135  -1.066  0.00  0.00    -0.357 N 
ATOM      4  H   UNL d   1      -3.080  -6.500  -1.700  0.00  0.00     0.162 HD
ENDROOT
BRANCH   1   5
ATOM      5  C   UNL d   1      -1.432  -5.214  -0.097  0.00  0.00     0.032 A 
ATOM      6  C   UNL d   1      -0.602  -4.734   0.921  0.00  0.00     0.019 A 
ATOM      7  C   UNL d   1      -0.259  -3.381   0.985  0.00  0.00     0.031 A 
ATOM      8  C   UNL d   1      -0.733  -2.484   0.019  0.00  0.00     0.038 A 
ATOM      9  C   UNL d   1      -1.570  -2.961  -0.997  0.00  0.00     0.031 A 
ATOM     10  C   UNL d   1      -1.906  -4.317  -1.061  0.00  0.00     0.019 A 
BRANCH   8  11
ATOM     11  N   UNL d   1      -0.336  -1.116   0.049  0.00  0.00    -0.333 N 
ATOM     12  C   UNL d   1      -0.718  -0.123  -0.833  0.00  0.00     0.096 A 
ATOM     13  C   UNL d   1      -0.082   1.055  -0.493  0.00  0.00     0.019 A 
ATOM     14  C   UNL d   1       0.721   0.786   0.630  0.00  0.00     0.019 A 
ATOM     15  C   UNL d   1       0.540  -0.541   0.954  0.00  0.00     0.096 A 
ENDBRANCH   8  11
ENDBRANCH   1   5
BRANCH   3  16
ATOM     16  C   UNL d   1      -3.031  -8.529  -1.084  0.00  0.00     0.127 C 
BRANCH  16  17
ATOM     17  C   UNL d   1      -3.965  -8.831  -2.253  0.00  0.00     0.058 C 
BRANCH  17  18
ATOM     18  C   UNL d   1      -4.404 -10.271  -2.289  0.00  0.00    -0.057 A 
ATOM     19  C   UNL d   1      -5.539 -10.683  -1.579  0.00  0.00     0.007 A 
ATOM     20  C   UNL d   1      -5.981 -12.004  -1.660  0.00  0.00     0.001 A 
ATOM     21  C   UNL d   1      -5.292 -12.924  -2.448  0.00  0.00     0.000 A 
ATOM     22  C   UNL d   1      -4.145 -12.530  -3.134  0.00  0.00     0.001 A 
ATOM     23  C   UNL d   1      -3.693 -11.213  -3.045  0.00  0.00     0.007 A 
ENDBRANCH  17  18
ENDBRANCH  16  17
ENDBRANCH   3  16
TORSDOF 5
