REMARK  4 active torsions:
REMARK  status: ('A' for Active; 'I' for Inactive)
REMARK    1  A    between atoms: N_2  and  C_1 
REMARK    2  A    between atoms: N_4  and  C_1 
REMARK    3  A    between atoms: C_3  and  N_2 
REMARK    4  A    between atoms: C_8  and  N_4 
ROOT
ATOM      1  C   UNL d   1       1.069   0.003   0.032  0.00  0.00     0.177 C 
ATOM      2  S   UNL d   1       2.744   0.097  -0.012  0.00  0.00    -0.040 SA
ENDROOT
BRANCH   1   3
ATOM      3  N   UNL d   1       0.478  -0.831  -0.877  0.00  0.00    -0.319 N 
ATOM      4  H   UNL d   1       1.140  -1.340  -1.448  0.00  0.00     0.169 HD
BRANCH   3   5
ATOM      5  C   UNL d   1      -0.869  -1.209  -0.969  0.00  0.00     0.106 A 
ATOM      6  N   UNL d   1      -1.810  -0.547  -0.261  0.00  0.00    -0.352 N 
ATOM      7  C   UNL d   1      -3.078  -1.016  -0.331  0.00  0.00     0.089 A 
ATOM      8  HN  UNL d   1      -1.575   0.270   0.302  1.00  0.00     0.166 HD
ATOM      9  C   UNL d   1      -3.457  -2.112  -1.084  0.00  0.00     0.017 A 
ATOM     10  C   UNL d   1      -2.481  -2.763  -1.827  0.00  0.00     0.005 A 
ATOM     11  C   UNL d   1      -1.168  -2.299  -1.778  0.00  0.00     0.048 A 
ENDBRANCH   3   5
ENDBRANCH   1   3
BRANCH   1  12
ATOM     12  N   UNL d   1       0.240   0.691   0.872  0.00  0.00    -0.333 N 
ATOM     13  H   UNL d   1      -0.703   0.830   0.510  0.00  0.00     0.168 HD
BRANCH  12  14
ATOM     14  C   UNL d   1       0.451   1.075   2.207  0.00  0.00     0.034 A 
ATOM     15  C   UNL d   1      -0.292   2.146   2.712  0.00  0.00     0.031 A 
ATOM     16  C   UNL d   1      -0.172   2.519   4.056  0.00  0.00     0.020 A 
ATOM     17  C   UNL d   1       0.656   1.785   4.906  0.00  0.00     0.006 A 
ATOM     18  C   UNL d   1       1.376   0.696   4.419  0.00  0.00     0.020 A 
ATOM     19  I   UNL d   1       0.796   2.299   6.914  0.00  0.00    -0.045 I 
ATOM     20  C   UNL d   1       1.280   0.350   3.068  0.00  0.00     0.031 A 
ENDBRANCH  12  14
ENDBRANCH   1  12
TORSDOF 4
