REMARK  3 active torsions:
REMARK  status: ('A' for Active; 'I' for Inactive)
REMARK    1  A    between atoms: C_16  and  N_6 
REMARK    2  A    between atoms: C_18  and  C_14 
REMARK    3  A    between atoms: C_19  and  C_16 
ROOT
ATOM      1  C   UNL d   1       1.050   0.745  -0.004  0.00  0.00     0.173 A 
ATOM      2  C   UNL d   1       0.715  -0.576   0.029  0.00  0.00     0.088 A 
ATOM      3  C   UNL d   1      -0.686  -0.672   0.015  0.00  0.00     0.051 A 
ATOM      4  C   UNL d   1       2.398   1.222  -0.009  0.00  0.00     0.285 A 
ATOM      5  C   UNL d   1      -1.134   0.656  -0.004  0.00  0.00     0.162 A 
ATOM      6  N   UNL d   1       3.307   0.156   0.038  0.00  0.00    -0.304 N 
ATOM      7  O   UNL d   1      -0.065   1.521  -0.022  0.00  0.00    -0.285 OA
ATOM      8  N   UNL d   1       1.659  -1.603   0.081  0.00  0.00    -0.349 N 
ATOM      9  HN  UNL d   1       1.413  -2.593   0.115  1.00  0.00     0.166 HD
ATOM     10  N   UNL d   1      -2.413   1.079  -0.001  0.00  0.00    -0.335 N 
ATOM     11  HN  UNL d   1      -2.670   2.066  -0.011  1.00  0.00     0.168 HD
ATOM     12  C   UNL d   1       2.881  -1.167   0.082  0.00  0.00     0.187 A 
ATOM     13  C   UNL d   1      -1.644  -1.698   0.027  0.00  0.00    -0.043 A 
ATOM     14  C   UNL d   1      -3.329   0.079   0.017  0.00  0.00     0.044 A 
ATOM     15  C   UNL d   1      -2.983  -1.279   0.037  0.00  0.00     0.038 A 
ATOM     16  O   UNL d   1       2.733   2.402  -0.044  0.00  0.00    -0.265 OA
ATOM     17  C   UNL d   1      -1.335  -3.166   0.034  0.00  0.00     0.049 C 
ENDROOT
BRANCH   6  18
ATOM     18  C   UNL d   1       4.733   0.437  -0.012  0.00  0.00     0.171 C 
BRANCH  18  19
ATOM     19  C   UNL d   1       5.255   0.400  -1.431  0.00  0.00    -0.040 A 
ATOM     20  C   UNL d   1       5.312   1.577  -2.191  0.00  0.00     0.010 A 
ATOM     21  C   UNL d   1       5.748   1.546  -3.518  0.00  0.00     0.024 A 
ATOM     22  C   UNL d   1       6.121   0.336  -4.097  0.00  0.00     0.034 A 
ATOM     23  C   UNL d   1       6.070  -0.843  -3.358  0.00  0.00     0.024 A 
ATOM     24 CL   UNL d   1       6.640   0.295  -5.737  0.00  0.00    -0.084 Cl
ATOM     25  C   UNL d   1       5.641  -0.812  -2.028  0.00  0.00     0.010 A 
ENDBRANCH  18  19
ENDBRANCH   6  18
BRANCH  14  26
ATOM     26  C   UNL d   1      -4.753   0.496   0.059  0.00  0.00    -0.009 A 
ATOM     27  C   UNL d   1      -5.769  -0.279  -0.537  0.00  0.00     0.013 A 
ATOM     28  C   UNL d   1      -7.119   0.070  -0.424  0.00  0.00     0.001 A 
ATOM     29  C   UNL d   1      -7.484   1.215   0.275  0.00  0.00     0.000 A 
ATOM     30  C   UNL d   1      -6.500   2.019   0.844  0.00  0.00     0.001 A 
ATOM     31  C   UNL d   1      -5.150   1.665   0.732  0.00  0.00     0.013 A 
ENDBRANCH  14  26
TORSDOF 3
