REMARK  6 active torsions:
REMARK  status: ('A' for Active; 'I' for Inactive)
REMARK    1  A    between atoms: C_2  and  S_1 
REMARK    2  A    between atoms: N_3  and  S_1 
REMARK       I    between atoms: C_6  and  N_5 
REMARK    3  A    between atoms: C_18  and  C_6 
REMARK       I    between atoms: C_8  and  N_15 
REMARK    4  A    between atoms: C_22  and  C_8 
REMARK    5  A    between atoms: C_23  and  C_9 
REMARK    6  A    between atoms: N_15  and  C_23 
ROOT
ATOM      1  C   UNL d   1       0.555   1.486   0.780  0.00  0.00     0.115 A 
ATOM      2  S   UNL d   1       0.657   2.970  -0.062  0.00  0.00    -0.080 SA
ATOM      3  C   UNL d   1      -0.069   1.641   2.004  0.00  0.00     0.033 A 
ATOM      4  C   UNL d   1      -0.128   3.828   1.204  0.00  0.00     0.002 A 
ATOM      5  C   UNL d   1      -0.469   2.986   2.245  0.00  0.00     0.018 A 
ENDROOT
BRANCH   1   6
ATOM      6  S   UNL d   1       1.225   0.042  -0.024  0.00  0.00     0.250 S 
ATOM      7  O   UNL d   1       0.866  -1.046   0.863  0.00  0.00    -0.205 OA
ATOM      8  O   UNL d   1       2.608   0.342  -0.304  0.00  0.00    -0.205 OA
BRANCH   6   9
ATOM      9  N   UNL d   1       0.424  -0.214  -1.504  0.00  0.00    -0.203 NA
ATOM     10  C   UNL d   1      -1.068  -0.201  -1.490  0.00  0.00     0.127 C 
ATOM     11  C   UNL d   1      -1.660  -1.514  -0.975  0.00  0.00     0.141 C 
ATOM     12  N   UNL d   1      -1.146  -2.664  -1.720  0.00  0.00    -0.348 N 
ATOM     13  C   UNL d   1       0.321  -2.733  -1.823  0.00  0.00     0.141 C 
ATOM     14  C   UNL d   1      -2.027  -3.701  -2.009  0.00  0.00     0.248 C 
ATOM     15  C   UNL d   1       0.933  -1.391  -2.286  0.00  0.00     0.127 C 
ATOM     16  O   UNL d   1      -3.241  -3.570  -1.823  0.00  0.00    -0.270 OA
BRANCH  14  17
ATOM     17  C   UNL d   1      -1.465  -4.988  -2.650  0.00  0.00     0.213 C 
ATOM     18  O   UNL d   1      -0.545  -5.710  -1.822  0.00  0.00    -0.376 OA
ATOM     19  C   UNL d   1      -0.763  -7.118  -2.008  0.00  0.00     0.168 C 
ATOM     20  C   UNL d   1      -1.809  -7.279  -3.091  0.00  0.00     0.029 C 
ATOM     21  C   UNL d   1      -2.566  -5.982  -3.001  0.00  0.00     0.043 C 
ENDBRANCH  14  17
ENDBRANCH   6   9
ENDBRANCH   1   6
BRANCH   4  22
ATOM     22  C   UNL d   1      -0.349   5.305   1.100  0.00  0.00     0.169 C 
BRANCH  22  23
ATOM     23  N   UNL d   1      -1.635   5.550   0.489  0.00  0.00    -0.352 N 
ATOM     24  C   UNL d   1      -2.060   6.845   0.277  0.00  0.00     0.251 C 
ATOM     25  O   UNL d   1      -1.403   7.827   0.602  0.00  0.00    -0.268 OA
ATOM     26  H   UNL d   1      -2.080   4.795  -0.014  0.00  0.00     0.163 HD
BRANCH  24  27
ATOM     27  C   UNL d   1      -3.376   7.012  -0.406  0.00  0.00     0.032 A 
ATOM     28  C   UNL d   1      -4.394   6.058  -0.284  0.00  0.00     0.017 A 
ATOM     29  C   UNL d   1      -5.628   6.270  -0.906  0.00  0.00     0.001 A 
ATOM     30  C   UNL d   1      -5.849   7.432  -1.645  0.00  0.00     0.000 A 
ATOM     31  C   UNL d   1      -4.840   8.387  -1.766  0.00  0.00     0.001 A 
ATOM     32  C   UNL d   1      -3.606   8.180  -1.144  0.00  0.00     0.017 A 
ENDBRANCH  24  27
ENDBRANCH  22  23
ENDBRANCH   4  22
TORSDOF 6
