REMARK  6 active torsions:
REMARK  status: ('A' for Active; 'I' for Inactive)
REMARK    1  A    between atoms: C_4  and  C_1 
REMARK    2  A    between atoms: C_7  and  N_2 
REMARK    3  A    between atoms: N_3  and  C_6 
REMARK       I    between atoms: C_5  and  N_12 
REMARK    4  A    between atoms: C_14  and  C_5 
REMARK    5  A    between atoms: N_12  and  C_26 
REMARK    6  A    between atoms: O_34  and  C_30 
ROOT
ATOM      1  C   UNL d   1      -1.889   0.721  -9.079  0.00  0.00     0.103 A 
ATOM      2  N   UNL d   1      -1.156   0.400 -10.166  0.00  0.00    -0.350 N 
ATOM      3  HN  UNL d   1      -0.214   0.021 -10.065  1.00  0.00     0.166 HD
ATOM      4  C   UNL d   1      -3.179   1.226  -9.253  0.00  0.00     0.051 A 
ATOM      5  C   UNL d   1      -2.967   1.109 -11.653  0.00  0.00     0.050 A 
ATOM      6  C   UNL d   1      -1.700   0.594 -11.403  0.00  0.00     0.119 A 
ATOM      7  C   UNL d   1      -3.721   1.417 -10.533  0.00  0.00     0.035 A 
ENDROOT
BRANCH   1   8
ATOM      8  N   UNL d   1      -1.321   0.636  -7.819  0.00  0.00    -0.364 N 
ATOM      9  C   UNL d   1       0.128   0.410  -7.686  0.00  0.00     0.144 C 
ATOM     10  C   UNL d   1       0.468  -1.029  -7.230  0.00  0.00     0.144 C 
ATOM     11  N   UNL d   1      -0.330  -1.452  -6.061  0.00  0.00    -0.364 N 
ATOM     12  C   UNL d   1      -1.778  -1.220  -6.213  0.00  0.00     0.144 C 
ATOM     13  C   UNL d   1      -2.102   0.230  -6.634  0.00  0.00     0.144 C 
BRANCH  11  14
ATOM     14  C   UNL d   1       0.205  -1.457  -4.782  0.00  0.00     0.103 A 
ATOM     15  C   UNL d   1       1.475  -1.984  -4.541  0.00  0.00     0.049 A 
ATOM     16  C   UNL d   1       1.955  -2.118  -3.234  0.00  0.00     0.021 A 
ATOM     17  C   UNL d   1       1.161  -1.719  -2.163  0.00  0.00     0.063 A 
ATOM     18  C   UNL d   1      -0.077  -1.186  -2.476  0.00  0.00     0.106 A 
ATOM     19  N   UNL d   1      -0.557  -1.053  -3.740  0.00  0.00    -0.352 N 
ATOM     20  HN  UNL d   1      -1.482  -0.654  -3.902  1.00  0.00     0.166 HD
BRANCH  17  21
ATOM     21  C   UNL d   1       1.601  -1.899  -0.744  0.00  0.00     0.418 C 
ATOM     22  F   UNL d   1       0.742  -1.369   0.169  0.00  0.00    -0.166 F 
ATOM     23  F   UNL d   1       2.811  -1.326  -0.493  0.00  0.00    -0.166 F 
ATOM     24  F   UNL d   1       1.738  -3.212  -0.405  0.00  0.00    -0.166 F 
ENDBRANCH  17  21
ENDBRANCH  11  14
ENDBRANCH   1   8
BRANCH   5  25
ATOM     25  N   UNL d   1      -3.391   1.318 -12.991  0.00  0.00    -0.322 N 
ATOM     26  C   UNL d   1      -4.588   1.889 -13.399  0.00  0.00     0.256 C 
ATOM     27  O   UNL d   1      -5.494   2.278 -12.665  0.00  0.00    -0.267 OA
ATOM     28  H   UNL d   1      -2.704   1.115 -13.705  0.00  0.00     0.169 HD
BRANCH  26  29
ATOM     29  C   UNL d   1      -4.753   2.086 -14.871  0.00  0.00     0.032 A 
ATOM     30  C   UNL d   1      -4.217   1.203 -15.817  0.00  0.00     0.020 A 
ATOM     31  C   UNL d   1      -4.395   1.444 -17.188  0.00  0.00     0.038 A 
ATOM     32  C   UNL d   1      -5.110   2.564 -17.618  0.00  0.00     0.068 A 
ATOM     33  C   UNL d   1      -5.685   3.417 -16.675  0.00  0.00     0.038 A 
ATOM     34  C   UNL d   1      -5.505   3.183 -15.310  0.00  0.00     0.020 A 
BRANCH  32  35
ATOM     35  O   UNL d   1      -5.351   2.888 -18.924  0.00  0.00    -0.356 OA
ATOM     36  C   UNL d   1      -4.336   2.506 -19.846  0.00  0.00     0.210 C 
ENDBRANCH  32  35
ENDBRANCH  26  29
ENDBRANCH   5  25
TORSDOF 6
