REMARK  6 active torsions:
REMARK  status: ('A' for Active; 'I' for Inactive)
REMARK    1  A    between atoms: C_10  and  N_1 
REMARK    2  A    between atoms: C_11  and  N_5 
REMARK    3  A    between atoms: C_15  and  C_9 
REMARK    4  A    between atoms: C_14  and  C_10 
REMARK    5  A    between atoms: O_22  and  C_14 
REMARK    6  A    between atoms: C_26  and  O_22 
ROOT
ATOM      1  N   UNL d   1       1.099  -1.353  -0.009  0.00  0.00    -0.283 N 
ATOM      2  C   UNL d   1      -0.109  -0.685  -0.004  0.00  0.00     0.097 A 
ATOM      3  C   UNL d   1      -0.250   0.669   0.056  0.00  0.00     0.068 A 
ATOM      4  C   UNL d   1       2.266  -0.587   0.098  0.00  0.00     0.337 C 
ATOM      5  N   UNL d   1       2.139   0.820   0.066  0.00  0.00    -0.229 N 
ATOM      6  C   UNL d   1       0.920   1.516   0.099  0.00  0.00     0.269 C 
ATOM      7  S   UNL d   1      -1.585  -1.501  -0.064  0.00  0.00    -0.070 SA
ATOM      8  C   UNL d   1      -1.628   1.051   0.052  0.00  0.00     0.039 A 
ATOM      9  C   UNL d   1      -2.488  -0.036   0.006  0.00  0.00     0.018 A 
ATOM     10  O   UNL d   1       3.354  -1.156   0.246  0.00  0.00    -0.246 OA
ATOM     11  O   UNL d   1       0.791   2.739   0.119  0.00  0.00    -0.266 OA
ENDROOT
BRANCH   5  12
ATOM     12  C   UNL d   1       3.355   1.585   0.059  0.00  0.00     0.047 A 
ATOM     13  C   UNL d   1       4.384   1.265  -0.843  0.00  0.00     0.032 A 
ATOM     14  C   UNL d   1       5.592   1.967  -0.827  0.00  0.00     0.026 A 
ATOM     15  C   UNL d   1       5.787   2.982   0.105  0.00  0.00     0.034 A 
ATOM     16  C   UNL d   1       4.774   3.321   0.998  0.00  0.00     0.026 A 
ATOM     17 CL   UNL d   1       7.292   3.811   0.161  0.00  0.00    -0.084 Cl
ATOM     18  C   UNL d   1       3.554   2.636   0.964  0.00  0.00     0.032 A 
ENDBRANCH   5  12
BRANCH   1  19
ATOM     19  C   UNL d   1       1.266  -2.811  -0.030  0.00  0.00     0.245 C 
BRANCH  19  20
ATOM     20  C   UNL d   1       1.316  -3.496   1.330  0.00  0.00     0.277 C 
ATOM     21  O   UNL d   1       1.470  -4.710   1.447  0.00  0.00    -0.263 OA
BRANCH  20  22
ATOM     22  O   UNL d   1       1.155  -2.637   2.373  0.00  0.00    -0.321 OA
BRANCH  22  23
ATOM     23  C   UNL d   1       1.240  -3.227   3.681  0.00  0.00     0.174 C 
ATOM     24  C   UNL d   1      -0.095  -3.820   4.089  0.00  0.00     0.034 C 
ENDBRANCH  22  23
ENDBRANCH  20  22
ENDBRANCH  19  20
ENDBRANCH   1  19
BRANCH   9  25
ATOM     25  C   UNL d   1      -3.963  -0.048  -0.007  0.00  0.00    -0.019 A 
ATOM     26  C   UNL d   1      -4.705  -1.116   0.524  0.00  0.00     0.013 A 
ATOM     27  C   UNL d   1      -6.103  -1.097   0.519  0.00  0.00     0.001 A 
ATOM     28  C   UNL d   1      -6.784  -0.005  -0.011  0.00  0.00     0.000 A 
ATOM     29  C   UNL d   1      -6.070   1.065  -0.539  0.00  0.00     0.001 A 
ATOM     30  C   UNL d   1      -4.672   1.043  -0.539  0.00  0.00     0.013 A 
ENDBRANCH   9  25
TORSDOF 6
