REMARK  7 active torsions:
REMARK  status: ('A' for Active; 'I' for Inactive)
REMARK    1  A    between atoms: C_2  and  C_1 
REMARK    2  A    between atoms: O_6  and  C_2 
REMARK    3  A    between atoms: C_12  and  C_3 
REMARK    4  A    between atoms: N_13  and  C_3 
REMARK    5  A    between atoms: N_4  and  O_6 
REMARK    6  A    between atoms: O_14  and  C_12 
REMARK    7  A    between atoms: C_15  and  O_14 
ROOT
ATOM      1  C   UNL d   1       5.107  -0.955   0.061  0.00  0.00     0.120 C 
ATOM      2  N   UNL d   1       3.899  -0.471  -0.012  0.00  0.00    -0.243 N 
ATOM      3  HN  UNL d   1       3.055  -1.045  -0.010  1.00  0.00     0.196 HD
ENDROOT
BRANCH   1   4
ATOM      4  C   UNL d   1       6.388  -0.103   0.026  0.00  0.00     0.253 C 
BRANCH   4   5
ATOM      5  O   UNL d   1       6.518   0.827   1.090  0.00  0.00    -0.344 OA
BRANCH   5   6
ATOM      6  C   UNL d   1       7.160   0.406   2.220  0.00  0.00     0.069 A 
ATOM      7  C   UNL d   1       7.733   1.425   2.987  0.00  0.00     0.038 A 
ATOM      8  C   UNL d   1       8.407   1.129   4.174  0.00  0.00     0.026 A 
ATOM      9  C   UNL d   1       8.498  -0.191   4.604  0.00  0.00     0.034 A 
ATOM     10  C   UNL d   1       7.917  -1.213   3.858  0.00  0.00     0.026 A 
ATOM     11 CL   UNL d   1       9.321  -0.563   6.068  0.00  0.00    -0.084 Cl
ATOM     12  C   UNL d   1       7.245  -0.913   2.668  0.00  0.00     0.038 A 
ENDBRANCH   5   6
ENDBRANCH   4   5
ENDBRANCH   1   4
BRANCH   1  13
ATOM     13  N   UNL d   1       5.237  -2.320   0.155  0.00  0.00    -0.386 N 
ATOM     14  H   UNL d   1       4.382  -2.824  -0.061  0.00  0.00     0.157 HD
ATOM     15  H   UNL d   1       6.084  -2.756  -0.185  0.00  0.00     0.157 HD
ENDBRANCH   1  13
BRANCH   2  16
ATOM     16  O   UNL d   1       3.890   0.934  -0.096  0.00  0.00    -0.193 OA
BRANCH  16  17
ATOM     17  C   UNL d   1       2.591   1.404  -0.105  0.00  0.00     0.315 C 
ATOM     18  O   UNL d   1       1.579   0.707  -0.090  0.00  0.00    -0.257 OA
BRANCH  17  19
ATOM     19  C   UNL d   1       2.517   2.866  -0.153  0.00  0.00     0.048 A 
ATOM     20  C   UNL d   1       3.607   3.720  -0.163  0.00  0.00     0.067 A 
ATOM     21  S   UNL d   1       3.164   5.372  -0.228  0.00  0.00    -0.113 SA
ATOM     22  C   UNL d   1       1.500   4.985  -0.236  0.00  0.00     0.050 A 
ATOM     23  C   UNL d   1       1.292   3.624  -0.192  0.00  0.00     0.025 A 
ENDBRANCH  17  19
ENDBRANCH  16  17
ENDBRANCH   2  16
TORSDOF 7
