REMARK  4 active torsions:
REMARK  status: ('A' for Active; 'I' for Inactive)
REMARK    1  A    between atoms: C_8  and  N_1 
REMARK    2  A    between atoms: C_7  and  C_2 
REMARK    3  A    between atoms: C_10  and  C_5 
REMARK    4  A    between atoms: O_11  and  C_6 
ROOT
ATOM      1  N   UNL d   1      -0.657   1.243   0.081  0.00  0.00    -0.277 N 
ATOM      2  C   UNL d   1      -0.698  -1.220   0.111  0.00  0.00     0.111 C 
ATOM      3  C   UNL d   1      -1.421   0.076   0.241  0.00  0.00     0.269 C 
ATOM      4  C   UNL d   1       1.409   0.037  -0.018  0.00  0.00     0.001 C 
ATOM      5  C   UNL d   1       0.739   1.214   0.008  0.00  0.00     0.062 C 
ATOM      6  C   UNL d   1       0.637  -1.204  -0.052  0.00  0.00     0.093 C 
ATOM      7  O   UNL d   1      -2.632   0.072   0.461  0.00  0.00    -0.266 OA
ATOM      8  C   UNL d   1       2.918  -0.079  -0.002  0.00  0.00     0.054 C 
ENDROOT
BRANCH   1   9
ATOM      9  C   UNL d   1      -1.389   2.466   0.057  0.00  0.00     0.043 A 
ATOM     10  C   UNL d   1      -1.758   3.089   1.252  0.00  0.00     0.030 A 
ATOM     11  C   UNL d   1      -2.498   4.271   1.220  0.00  0.00     0.002 A 
ATOM     12  C   UNL d   1      -2.882   4.822  -0.004  0.00  0.00     0.000 A 
ATOM     13  C   UNL d   1      -2.523   4.196  -1.198  0.00  0.00     0.002 A 
ATOM     14  C   UNL d   1      -1.775   3.018  -1.171  0.00  0.00     0.030 A 
ENDBRANCH   1   9
BRANCH   5  15
ATOM     15  C   UNL d   1       1.490   2.490   0.017  0.00  0.00    -0.008 A 
ATOM     16  C   UNL d   1       1.896   3.083  -1.187  0.00  0.00     0.014 A 
ATOM     17  C   UNL d   1       2.667   4.246  -1.171  0.00  0.00     0.001 A 
ATOM     18  C   UNL d   1       3.038   4.823   0.043  0.00  0.00     0.000 A 
ATOM     19  C   UNL d   1       2.634   4.243   1.245  0.00  0.00     0.001 A 
ATOM     20  C   UNL d   1       1.864   3.080   1.233  0.00  0.00     0.014 A 
ENDBRANCH   5  15
BRANCH   2  21
ATOM     21  C   UNL d   1      -1.423  -2.530   0.171  0.00  0.00     0.164 C 
ATOM     22  O   UNL d   1      -0.924  -3.504   0.736  0.00  0.00    -0.292 OA
ATOM     23  C   UNL d   1      -2.795  -2.652  -0.442  0.00  0.00     0.097 C 
ENDBRANCH   2  21
BRANCH   6  24
ATOM     24  O   UNL d   1       1.342  -2.361  -0.324  0.00  0.00    -0.359 OA
ATOM     25  H   UNL d   1       2.176  -2.366   0.170  0.00  0.00     0.217 HD
ENDBRANCH   6  24
TORSDOF 4
