REMARK  7 active torsions:
REMARK  status: ('A' for Active; 'I' for Inactive)
REMARK       I    between atoms: N_2  and  C_1 
REMARK    1  A    between atoms: C_4  and  C_1 
REMARK    2  A    between atoms: C_5  and  N_2 
REMARK    3  A    between atoms: O_8  and  C_3 
REMARK    4  A    between atoms: O_22  and  C_7 
REMARK    5  A    between atoms: C_19  and  O_8 
REMARK    6  A    between atoms: C_11  and  C_12 
REMARK    7  A    between atoms: O_23  and  C_13 
ROOT
ATOM      1  C   UNL d   1       0.280  -3.264   1.571  0.00  0.00     0.169 A 
ATOM      2  C   UNL d   1       0.835  -1.977   1.623  0.00  0.00     0.067 A 
ATOM      3  N   UNL d   1       0.822  -4.330   2.221  0.00  0.00    -0.345 N 
ATOM      4  HN  UNL d   1       0.384  -5.250   2.188  1.00  0.00     0.167 HD
ATOM      5  C   UNL d   1       2.036  -1.811   2.315  0.00  0.00     0.029 A 
ATOM      6  C   UNL d   1       1.960  -4.121   2.908  0.00  0.00     0.090 A 
ATOM      7  C   UNL d   1       2.604  -2.897   2.977  0.00  0.00     0.019 A 
ENDROOT
BRANCH   2   8
ATOM      8  N   UNL d   1       0.268  -0.853   0.966  0.00  0.00    -0.221 NA
ATOM      9  C   UNL d   1      -0.608  -0.035   1.681  0.00  0.00     0.235 C 
ATOM     10  O   UNL d   1      -1.042  -0.278   2.801  0.00  0.00    -0.274 OA
ATOM     11  H   UNL d   1       0.937  -0.302   0.439  0.00  0.00     0.137 HD
BRANCH   9  12
ATOM     12  C   UNL d   1      -0.943   1.274   1.034  0.00  0.00     0.029 A 
ATOM     13  C   UNL d   1      -1.228   2.393   1.837  0.00  0.00     0.056 A 
ATOM     14  C   UNL d   1      -1.544   3.642   1.266  0.00  0.00     0.102 A 
ATOM     15  C   UNL d   1      -1.604   3.750  -0.135  0.00  0.00     0.101 A 
ATOM     16  C   UNL d   1      -1.337   2.621  -0.926  0.00  0.00     0.040 A 
ATOM     17  C   UNL d   1      -1.004   1.392  -0.354  0.00  0.00     0.019 A 
BRANCH  14  18
ATOM     18  O   UNL d   1      -1.797   4.766   2.006  0.00  0.00    -0.353 OA
ATOM     19  C   UNL d   1      -1.708   4.696   3.421  0.00  0.00     0.210 C 
ENDBRANCH  14  18
BRANCH  15  20
ATOM     20  O   UNL d   1      -1.908   4.845  -0.903  0.00  0.00    -0.353 OA
ATOM     21  C   UNL d   1      -2.147   6.096  -0.277  0.00  0.00     0.210 C 
ENDBRANCH  15  20
ENDBRANCH   9  12
ENDBRANCH   2   8
BRANCH   1  22
ATOM     22  O   UNL d   1      -0.846  -3.469   0.782  0.00  0.00    -0.292 OA
BRANCH  22  23
ATOM     23  C   UNL d   1      -1.034  -4.712   0.210  0.00  0.00     0.077 A 
ATOM     24  C   UNL d   1      -2.353  -5.148   0.092  0.00  0.00     0.038 A 
ATOM     25  C   UNL d   1      -2.649  -6.356  -0.558  0.00  0.00     0.011 A 
ATOM     26  C   UNL d   1      -1.639  -7.159  -1.127  0.00  0.00    -0.050 A 
ATOM     27  C   UNL d   1      -0.316  -6.708  -0.985  0.00  0.00     0.011 A 
ATOM     28  C   UNL d   1      -0.020  -5.494  -0.342  0.00  0.00     0.038 A 
BRANCH  26  29
ATOM     29  C   UNL d   1      -2.007  -8.439  -1.902  0.00  0.00    -0.024 C 
ATOM     30  C   UNL d   1      -0.789  -9.179  -2.504  0.00  0.00     0.019 C 
ATOM     31  C   UNL d   1      -2.737  -9.441  -0.981  0.00  0.00     0.019 C 
ATOM     32  C   UNL d   1      -2.934  -8.073  -3.085  0.00  0.00     0.019 C 
ENDBRANCH  26  29
ENDBRANCH  22  23
ENDBRANCH   1  22
TORSDOF 7
