REMARK  3 active torsions:
REMARK  status: ('A' for Active; 'I' for Inactive)
REMARK    1  A    between atoms: C_3  and  C_1 
REMARK       I    between atoms: N_8  and  C_3 
REMARK    2  A    between atoms: N_7  and  C_9 
REMARK    3  A    between atoms: C_16  and  N_8 
ROOT
ATOM      1  C   UNL d   1       6.547  -0.567  -1.021  0.00  0.00     0.272 C 
ATOM      2  N   UNL d   1       5.663   0.102  -0.193  0.00  0.00    -0.322 N 
ATOM      3  O   UNL d   1       7.421  -0.035  -1.696  0.00  0.00    -0.266 OA
ATOM      4  H   UNL d   1       5.094  -0.463   0.420  0.00  0.00     0.169 HD
ENDROOT
BRANCH   2   5
ATOM      5  C   UNL d   1       5.443   1.497  -0.134  0.00  0.00     0.035 A 
ATOM      6  C   UNL d   1       5.978   2.398  -1.048  0.00  0.00     0.032 A 
ATOM      7  C   UNL d   1       5.641   3.754  -0.988  0.00  0.00     0.031 A 
ATOM      8  C   UNL d   1       4.772   4.265  -0.013  0.00  0.00     0.030 A 
ATOM      9  C   UNL d   1       4.280   3.362   0.932  0.00  0.00     0.031 A 
ATOM     10  C   UNL d   1       4.598   1.993   0.866  0.00  0.00     0.032 A 
BRANCH   8  11
ATOM     11  N   UNL d   1       4.473   5.624  -0.032  0.00  0.00    -0.377 N 
ATOM     12  C   UNL d   1       4.015   6.312   1.187  0.00  0.00     0.149 C 
ATOM     13  C   UNL d   1       4.173   7.832   0.977  0.00  0.00     0.187 C 
ATOM     14  O   UNL d   1       3.446   8.289  -0.179  0.00  0.00    -0.388 OA
ATOM     15  C   UNL d   1       3.904   7.606  -1.360  0.00  0.00     0.187 C 
ATOM     16  C   UNL d   1       3.731   6.085  -1.228  0.00  0.00     0.149 C 
ENDBRANCH   8  11
ENDBRANCH   2   5
BRANCH   1  17
ATOM     17  C   UNL d   1       6.381  -2.009  -1.066  0.00  0.00     0.102 A 
ATOM     18  N   UNL d   1       7.184  -2.779  -1.889  0.00  0.00    -0.351 N 
ATOM     19  C   UNL d   1       6.782  -4.091  -1.890  0.00  0.00     0.043 A 
ATOM     20  H   UNL d   1       7.933  -2.392  -2.446  0.00  0.00     0.166 HD
ATOM     21  C   UNL d   1       7.247  -5.178  -2.642  0.00  0.00     0.032 A 
ATOM     22  C   UNL d   1       5.754  -4.200  -0.958  0.00  0.00    -0.005 A 
ATOM     23  C   UNL d   1       6.650  -6.422  -2.412  0.00  0.00     0.026 A 
ATOM     24  C   UNL d   1       5.644  -6.562  -1.458  0.00  0.00     0.035 A 
ATOM     25  C   UNL d   1       5.179  -5.465  -0.727  0.00  0.00     0.037 A 
ATOM     26 CL   UNL d   1       4.954  -8.116  -1.177  0.00  0.00    -0.084 Cl
ATOM     27  C   UNL d   1       5.508  -2.891  -0.452  0.00  0.00     0.049 A 
ENDBRANCH   1  17
TORSDOF 3
