REMARK  2 active torsions:
REMARK  status: ('A' for Active; 'I' for Inactive)
REMARK    1  A    between atoms: C_9  and  C_3 
REMARK    2  A    between atoms: S_12  and  C_4 
ROOT
ATOM      1  N   UNL d   1      -0.658   1.239  -0.038  0.00  0.00    -0.334 N 
ATOM      2  HN  UNL d   1      -1.179   2.116  -0.054  1.00  0.00     0.168 HD
ATOM      3  C   UNL d   1      -1.288   0.052  -0.014  0.00  0.00     0.133 A 
ATOM      4  C   UNL d   1       0.691   1.223  -0.039  0.00  0.00     0.092 A 
ATOM      5  N   UNL d   1      -0.639  -1.133   0.005  0.00  0.00    -0.343 N 
ATOM      6  HN  UNL d   1      -1.156  -2.012   0.022  1.00  0.00     0.167 HD
ATOM      7  C   UNL d   1       1.446   0.056  -0.022  0.00  0.00     0.089 A 
ATOM      8  C   UNL d   1       0.717  -1.123  -0.000  0.00  0.00     0.031 A 
ATOM      9 CL   UNL d   1       3.172   0.068  -0.024  0.00  0.00    -0.079 Cl
ATOM     10  C   UNL d   1       1.336  -2.490   0.016  0.00  0.00     0.070 C 
ENDROOT
BRANCH   3  11
ATOM     11  C   UNL d   1      -2.773   0.025   0.002  0.00  0.00     0.076 A 
ATOM     12  N   UNL d   1      -3.427   1.222  -0.001  0.00  0.00    -0.363 N 
ATOM     13  C   UNL d   1      -4.778   1.210   0.021  0.00  0.00     0.088 A 
ATOM     14  HN  UNL d   1      -2.911   2.101  -0.019  1.00  0.00     0.165 HD
ATOM     15  C   UNL d   1      -5.539   0.055   0.048  0.00  0.00     0.017 A 
ATOM     16  C   UNL d   1      -4.875  -1.164   0.049  0.00  0.00     0.004 A 
ATOM     17  C   UNL d   1      -3.483  -1.181   0.025  0.00  0.00     0.033 A 
ENDBRANCH   3  11
BRANCH   4  18
ATOM     18  S   UNL d   1       1.411   2.855  -0.057  0.00  0.00    -0.124 SA
ATOM     19  H   UNL d   1       0.226   3.481  -0.032  0.00  0.00     0.108 HD
ENDBRANCH   4  18
TORSDOF 2
