REMARK  4 active torsions:
REMARK  status: ('A' for Active; 'I' for Inactive)
REMARK    1  A    between atoms: C_10  and  C_1 
REMARK    2  A    between atoms: N_11  and  C_9 
REMARK    3  A    between atoms: O_15  and  C_10 
REMARK    4  A    between atoms: C_18  and  O_15 
ROOT
ATOM      1  C   UNL d   1      -2.254  -0.226  -0.045  0.00  0.00     0.127 A 
ATOM      2  N   UNL d   1      -0.097  -0.642  -0.002  0.00  0.00    -0.247 N 
ATOM      3  N   UNL d   1      -1.609   0.999   0.057  0.00  0.00    -0.335 N 
ATOM      4  HN  UNL d   1      -2.040   1.921   0.111  1.00  0.00     0.168 HD
ATOM      5  N   UNL d   1       1.098  -1.287  -0.040  0.00  0.00    -0.278 N 
ATOM      6  HN  UNL d   1       1.173  -2.302  -0.108  1.00  0.00     0.189 HD
ATOM      7  C   UNL d   1      -0.326   0.717   0.070  0.00  0.00     0.127 A 
ATOM      8  C   UNL d   1      -1.322  -1.247  -0.054  0.00  0.00     0.154 A 
ATOM      9  C   UNL d   1       2.149  -0.505   0.019  0.00  0.00     0.118 A 
ATOM     10  C   UNL d   1       0.802   1.552   0.104  0.00  0.00     0.054 A 
ATOM     11  C   UNL d   1       2.018   0.995   0.078  0.00  0.00     0.053 A 
ENDROOT
BRANCH   9  12
ATOM     12  N   UNL d   1       3.414  -1.080  -0.003  0.00  0.00    -0.366 N 
ATOM     13  C   UNL d   1       4.574  -0.515   0.684  0.00  0.00     0.124 C 
ATOM     14  C   UNL d   1       5.081  -1.494   1.743  0.00  0.00     0.020 C 
ATOM     15  C   UNL d   1       5.380  -2.860   1.133  0.00  0.00     0.003 C 
ATOM     16  C   UNL d   1       4.156  -3.394   0.393  0.00  0.00     0.020 C 
ATOM     17  C   UNL d   1       3.647  -2.385  -0.632  0.00  0.00     0.124 C 
ENDBRANCH   9  12
BRANCH   1  18
ATOM     18  C   UNL d   1      -3.700  -0.374  -0.187  0.00  0.00     0.311 C 
ATOM     19  O   UNL d   1      -4.257  -1.457  -0.331  0.00  0.00    -0.258 OA
BRANCH  18  20
ATOM     20  O   UNL d   1      -4.335   0.834  -0.217  0.00  0.00    -0.317 OA
BRANCH  20  21
ATOM     21  C   UNL d   1      -5.693   0.821  -0.668  0.00  0.00     0.175 C 
ATOM     22  C   UNL d   1      -5.705   0.962  -2.179  0.00  0.00     0.034 C 
ENDBRANCH  20  21
ENDBRANCH  18  20
ENDBRANCH   1  18
TORSDOF 4
