REMARK  7 active torsions:
REMARK  status: ('A' for Active; 'I' for Inactive)
REMARK    1  A    between atoms: C_3  and  O_12 
REMARK    2  A    between atoms: C_4  and  C_10 
REMARK    3  A    between atoms: S_6  and  O_11 
REMARK    4  A    between atoms: O_11  and  C_10 
REMARK    5  A    between atoms: C_17  and  C_10 
REMARK    6  A    between atoms: C_18  and  O_12 
REMARK    7  A    between atoms: C_22  and  C_18 
ROOT
ATOM      1  N   UNL d   1       6.427   0.408  -2.924  0.00  0.00    -0.197 NA
ATOM      2  C   UNL d   1       5.281   0.438  -2.736  0.00  0.00     0.061 C 
ATOM      3  C   UNL d   1       3.834   0.496  -2.491  0.00  0.00     0.160 C 
ENDROOT
BRANCH   3   4
ATOM      4  C   UNL d   1       3.442  -0.462  -1.359  0.00  0.00     0.187 C 
BRANCH   4   5
ATOM      5  C   UNL d   1       2.064  -0.105  -0.782  0.00  0.00     0.187 C 
ATOM      6  C   UNL d   1       1.903   1.242  -0.058  0.00  0.00     0.187 C 
ATOM      7  C   UNL d   1       0.630   0.985   0.754  0.00  0.00     0.211 C 
ATOM      8  C   UNL d   1       0.598  -0.523   0.932  0.00  0.00     0.295 C 
ATOM      9  O   UNL d   1      -0.541   1.326   0.002  0.00  0.00    -0.343 OA
ATOM     10  O   UNL d   1       1.713  -1.062   0.230  0.00  0.00    -0.348 OA
ATOM     11  O   UNL d   1      -0.603  -0.985   0.329  0.00  0.00    -0.323 OA
ATOM     12  C   UNL d   1      -1.375   0.163   0.010  0.00  0.00     0.160 C 
ATOM     13  C   UNL d   1      -1.982  -0.006  -1.377  0.00  0.00     0.078 C 
ATOM     14  C   UNL d   1      -2.469   0.301   1.065  0.00  0.00     0.078 C 
BRANCH   6  15
ATOM     15  O   UNL d   1       2.991   1.481   0.850  0.00  0.00    -0.376 OA
BRANCH  15  16
ATOM     16  C   UNL d   1       3.820   2.577   0.472  0.00  0.00     0.207 C 
BRANCH  16  17
ATOM     17  C   UNL d   1       4.908   2.807   1.486  0.00  0.00    -0.035 A 
ATOM     18  C   UNL d   1       6.060   2.006   1.496  0.00  0.00     0.009 A 
ATOM     19  C   UNL d   1       7.105   2.277   2.382  0.00  0.00     0.001 A 
ATOM     20  C   UNL d   1       7.006   3.343   3.274  0.00  0.00     0.000 A 
ATOM     21  C   UNL d   1       5.856   4.129   3.292  0.00  0.00     0.001 A 
ATOM     22  C   UNL d   1       4.810   3.860   2.407  0.00  0.00     0.009 A 
ENDBRANCH  16  17
ENDBRANCH  15  16
ENDBRANCH   6  15
ENDBRANCH   4   5
BRANCH   4  23
ATOM     23  O   UNL d   1       3.392  -1.762  -1.981  0.00  0.00    -0.267 OA
BRANCH  23  24
ATOM     24  S   UNL d   1       3.384  -3.117  -1.071  0.00  0.00     0.261 S 
ATOM     25  O   UNL d   1       4.217  -2.925   0.098  0.00  0.00    -0.199 OA
ATOM     26  O   UNL d   1       2.038  -3.640  -1.013  0.00  0.00    -0.199 OA
ATOM     27  C   UNL d   1       4.284  -4.129  -2.214  0.00  0.00     0.194 C 
ENDBRANCH  23  24
ENDBRANCH   4  23
ENDBRANCH   3   4
TORSDOF 7
