REMARK  5 active torsions:
REMARK  status: ('A' for Active; 'I' for Inactive)
REMARK    1  A    between atoms: C_2  and  C_1 
REMARK    2  A    between atoms: C_3  and  C_6 
REMARK    3  A    between atoms: C_4  and  C_7 
REMARK       I    between atoms: C_5  and  N_9 
REMARK    4  A    between atoms: C_8  and  C_5 
REMARK    5  A    between atoms: N_9  and  C_15 
ROOT
ATOM      1  C   UNL d   1       5.277  -1.248  -0.084  0.00  0.00     0.256 C 
ATOM      2  N   UNL d   1       4.367  -0.229   0.121  0.00  0.00    -0.323 N 
ATOM      3  O   UNL d   1       6.481  -1.110  -0.280  0.00  0.00    -0.267 OA
ATOM      4  H   UNL d   1       3.385  -0.462   0.062  0.00  0.00     0.169 HD
ENDROOT
BRANCH   1   5
ATOM      5  C   UNL d   1       4.737  -2.639  -0.083  0.00  0.00     0.034 A 
ATOM      6  C   UNL d   1       5.439  -3.616  -0.805  0.00  0.00     0.033 A 
ATOM      7  C   UNL d   1       5.054  -4.966  -0.762  0.00  0.00     0.049 A 
ATOM      8  C   UNL d   1       3.942  -5.326   0.015  0.00  0.00     0.032 A 
ATOM      9  C   UNL d   1       3.233  -4.365   0.757  0.00  0.00     0.049 A 
ATOM     10  C   UNL d   1       3.638  -3.017   0.698  0.00  0.00     0.033 A 
BRANCH   7  11
ATOM     11  C   UNL d   1       5.853  -5.998  -1.525  0.00  0.00     0.417 C 
ATOM     12  F   UNL d   1       5.424  -7.273  -1.313  0.00  0.00    -0.166 F 
ATOM     13  F   UNL d   1       5.799  -5.802  -2.869  0.00  0.00    -0.166 F 
ATOM     14  F   UNL d   1       7.171  -5.986  -1.190  0.00  0.00    -0.166 F 
ENDBRANCH   7  11
BRANCH   9  15
ATOM     15  C   UNL d   1       2.071  -4.770   1.636  0.00  0.00     0.417 C 
ATOM     16  F   UNL d   1       1.862  -6.114   1.681  0.00  0.00    -0.166 F 
ATOM     17  F   UNL d   1       2.240  -4.372   2.927  0.00  0.00    -0.166 F 
ATOM     18  F   UNL d   1       0.899  -4.217   1.223  0.00  0.00    -0.166 F 
ENDBRANCH   9  15
ENDBRANCH   1   5
BRANCH   2  19
ATOM     19  C   UNL d   1       4.668   1.129   0.371  0.00  0.00     0.035 A 
ATOM     20  C   UNL d   1       5.964   1.619   0.566  0.00  0.00     0.047 A 
ATOM     21  C   UNL d   1       6.218   2.972   0.900  0.00  0.00     0.067 A 
ATOM     22  C   UNL d   1       5.128   3.843   0.993  0.00  0.00     0.026 A 
ATOM     23  C   UNL d   1       3.829   3.364   0.785  0.00  0.00     0.022 A 
ATOM     24 BR   UNL d   1       5.280   5.692   1.394  0.00  0.00    -0.050 Br
ATOM     25  C   UNL d   1       3.600   2.018   0.484  0.00  0.00     0.031 A 
BRANCH  21  26
ATOM     26  C   UNL d   1       7.662   3.353   1.123  0.00  0.00     0.418 C 
ATOM     27  F   UNL d   1       7.881   4.561   1.706  0.00  0.00    -0.166 F 
ATOM     28  F   UNL d   1       8.303   2.456   1.931  0.00  0.00    -0.166 F 
ATOM     29  F   UNL d   1       8.374   3.369  -0.039  0.00  0.00    -0.166 F 
ENDBRANCH  21  26
ENDBRANCH   2  19
TORSDOF 5
