REMARK  4 active torsions:
REMARK  status: ('A' for Active; 'I' for Inactive)
REMARK    1  A    between atoms: C_8  and  N_2 
REMARK    2  A    between atoms: C_7  and  C_9 
REMARK    3  A    between atoms: O_15  and  C_7 
REMARK    4  A    between atoms: C_18  and  O_15 
ROOT
ATOM      1  C   UNL d   1      -0.419  -0.556   0.480  0.00  0.00     0.184 A 
ATOM      2  N   UNL d   1      -1.661  -1.128   0.056  0.00  0.00    -0.286 N 
ATOM      3  N   UNL d   1      -0.569   0.839   0.404  0.00  0.00    -0.331 N 
ATOM      4  C   UNL d   1      -2.540  -0.057  -0.262  0.00  0.00     0.069 A 
ATOM      5  C   UNL d   1      -1.844   1.137  -0.052  0.00  0.00     0.061 A 
ATOM      6  S   UNL d   1       1.032  -1.239   0.912  0.00  0.00    -0.040 SA
ATOM      7  C   UNL d   1      -3.869  -0.017  -0.642  0.00  0.00     0.032 A 
ATOM      8  C   UNL d   1      -2.394   2.384  -0.259  0.00  0.00     0.032 A 
ATOM      9  C   UNL d   1      -4.454   1.239  -0.868  0.00  0.00     0.002 A 
ATOM     10  C   UNL d   1      -3.721   2.427  -0.685  0.00  0.00     0.002 A 
ATOM     11  H   UNL d   1       0.157   1.502   0.631  0.00  0.00     0.168 HD
ENDROOT
BRANCH   2  12
ATOM     12  C   UNL d   1      -2.018  -2.493  -0.022  0.00  0.00     0.042 A 
ATOM     13  C   UNL d   1      -1.584  -3.398   0.955  0.00  0.00     0.031 A 
ATOM     14  C   UNL d   1      -1.933  -4.752   0.899  0.00  0.00     0.020 A 
ATOM     15  C   UNL d   1      -2.739  -5.231  -0.140  0.00  0.00     0.039 A 
ATOM     16  C   UNL d   1      -3.164  -4.343  -1.133  0.00  0.00     0.020 A 
ATOM     17  C   UNL d   1      -2.799  -2.992  -1.075  0.00  0.00     0.031 A 
BRANCH  15  18
ATOM     18  C   UNL d   1      -3.222  -6.635  -0.182  0.00  0.00     0.293 C 
ATOM     19  O   UNL d   1      -4.010  -7.056  -1.014  0.00  0.00    -0.259 OA
BRANCH  18  20
ATOM     20  O   UNL d   1      -2.737  -7.320   0.883  0.00  0.00    -0.318 OA
BRANCH  20  21
ATOM     21  C   UNL d   1      -3.395  -8.556   1.188  0.00  0.00     0.174 C 
ATOM     22  C   UNL d   1      -4.560  -8.257   2.114  0.00  0.00     0.034 C 
ENDBRANCH  20  21
ENDBRANCH  18  20
ENDBRANCH  15  18
ENDBRANCH   2  12
TORSDOF 4
