REMARK  4 active torsions:
REMARK  status: ('A' for Active; 'I' for Inactive)
REMARK    1  A    between atoms: O_13  and  C_1 
REMARK    2  A    between atoms: O_14  and  C_2 
REMARK    3  A    between atoms: C_5  and  C_3 
REMARK    4  A    between atoms: O_15  and  C_10 
ROOT
ATOM      1  C   UNL d   1      -2.666  -2.589  -0.936  0.00  0.00     0.125 C 
ATOM      2  C   UNL d   1      -2.015  -2.075   0.125  0.00  0.00     0.048 C 
ATOM      3  N   UNL d   1      -2.106  -1.955  -3.376  0.00  0.00    -0.191 NA
ATOM      4  N   UNL d   1      -4.501  -4.350  -0.478  0.00  0.00    -0.191 NA
ATOM      5  C   UNL d   1      -2.353  -2.235  -2.274  0.00  0.00     0.111 C 
ATOM      6  C   UNL d   1      -3.690  -3.552  -0.705  0.00  0.00     0.111 C 
ENDROOT
BRANCH   2   7
ATOM      7  C   UNL d   1      -0.906  -1.109   0.059  0.00  0.00     0.002 A 
ATOM      8  C   UNL d   1       0.455  -1.437  -0.158  0.00  0.00     0.114 A 
ATOM      9  C   UNL d   1       1.432  -0.400  -0.204  0.00  0.00     0.136 A 
ATOM     10  C   UNL d   1       1.017   0.947  -0.102  0.00  0.00     0.104 A 
ATOM     11  C   UNL d   1      -0.337   1.242   0.084  0.00  0.00     0.040 A 
ATOM     12  C   UNL d   1      -1.285   0.232   0.181  0.00  0.00     0.017 A 
BRANCH   8  13
ATOM     13  O   UNL d   1       0.881  -2.703  -0.497  0.00  0.00    -0.352 OA
ATOM     14  C   UNL d   1       0.345  -3.815   0.211  0.00  0.00     0.210 C 
ENDBRANCH   8  13
BRANCH   9  15
ATOM     15  O   UNL d   1       2.770  -0.601  -0.423  0.00  0.00    -0.351 OA
ATOM     16  C   UNL d   1       3.407  -1.783   0.039  0.00  0.00     0.210 C 
ENDBRANCH   9  15
BRANCH  10  17
ATOM     17  O   UNL d   1       1.760   2.097  -0.174  0.00  0.00    -0.353 OA
ATOM     18  C   UNL d   1       3.169   2.032  -0.312  0.00  0.00     0.210 C 
ENDBRANCH  10  17
ENDBRANCH   2   7
TORSDOF 4
