REMARK  5 active torsions:
REMARK  status: ('A' for Active; 'I' for Inactive)
REMARK    1  A    between atoms: C_8  and  C_3 
REMARK    2  A    between atoms: C_17  and  N_4 
REMARK    3  A    between atoms: C_9  and  C_8 
REMARK    4  A    between atoms: O_24  and  C_13 
REMARK    5  A    between atoms: O_25  and  C_16 
ROOT
ATOM      1  C   UNL d   1      -0.547   2.281   0.345  0.00  0.00     0.138 C 
ATOM      2  N   UNL d   1      -1.839   1.954   0.953  0.00  0.00    -0.232 NA
ATOM      3  C   UNL d   1      -2.620   3.060   0.560  0.00  0.00     0.152 C 
ATOM      4  N   UNL d   1      -0.936   3.138  -0.807  0.00  0.00    -0.262 N 
ATOM      5  N   UNL d   1      -2.183   3.705  -0.504  0.00  0.00    -0.282 N 
ATOM      6  HN  UNL d   1      -2.655   4.459  -1.003  1.00  0.00     0.188 HD
ATOM      7  C   UNL d   1       0.392   1.127   0.080  0.00  0.00    -0.004 C 
ATOM      8  C   UNL d   1       0.004  -0.201   0.271  0.00  0.00    -0.044 C 
ATOM      9  C   UNL d   1       1.736   1.406  -0.234  0.00  0.00     0.051 C 
ATOM     10  C   UNL d   1      -2.416   0.640   0.654  0.00  0.00     0.105 C 
ATOM     11  C   UNL d   1       2.709   0.413  -0.191  0.00  0.00     0.102 C 
ATOM     12  C   UNL d   1       0.975  -1.224   0.184  0.00  0.00     0.047 C 
ATOM     13  C   UNL d   1       2.329  -0.920  -0.022  0.00  0.00     0.102 C 
ATOM     14  C   UNL d   1      -1.418  -0.531   0.644  0.00  0.00     0.054 C 
ATOM     15  C   UNL d   1       0.152   3.204   1.405  0.00  0.00     0.064 C 
ENDROOT
BRANCH   3  16
ATOM     16  C   UNL d   1      -3.774   3.596   1.405  0.00  0.00     0.228 C 
ATOM     17  O   UNL d   1      -4.069   2.988   2.431  0.00  0.00    -0.283 OA
BRANCH  16  18
ATOM     18  C   UNL d   1      -4.309   4.887   1.038  0.00  0.00     0.058 A 
ATOM     19  S   UNL d   1      -5.377   5.012  -0.289  0.00  0.00    -0.098 SA
ATOM     20  C   UNL d   1      -5.596   6.690  -0.030  0.00  0.00     0.050 A 
ATOM     21  C   UNL d   1      -4.865   7.149   1.044  0.00  0.00     0.009 A 
ATOM     22  C   UNL d   1      -4.128   6.101   1.673  0.00  0.00     0.023 A 
ENDBRANCH  16  18
ENDBRANCH   3  16
BRANCH   4  23
ATOM     23  C   UNL d   1      -0.796   2.725  -2.142  0.00  0.00     0.053 A 
ATOM     24  C   UNL d   1      -1.237   1.488  -2.638  0.00  0.00     0.031 A 
ATOM     25  C   UNL d   1      -1.036   1.116  -3.972  0.00  0.00     0.002 A 
ATOM     26  C   UNL d   1      -0.396   1.980  -4.847  0.00  0.00     0.000 A 
ATOM     27  C   UNL d   1       0.025   3.232  -4.388  0.00  0.00     0.002 A 
ATOM     28  C   UNL d   1      -0.179   3.595  -3.054  0.00  0.00     0.031 A 
ENDBRANCH   4  23
BRANCH  11  29
ATOM     29  O   UNL d   1       4.045   0.716  -0.306  0.00  0.00    -0.353 OA
ATOM     30  C   UNL d   1       4.430   1.878   0.436  0.00  0.00     0.210 C 
ENDBRANCH  11  29
BRANCH  13  31
ATOM     31  O   UNL d   1       3.356  -1.830  -0.001  0.00  0.00    -0.353 OA
ATOM     32  C   UNL d   1       3.020  -3.196  -0.177  0.00  0.00     0.210 C 
ENDBRANCH  13  31
TORSDOF 5
