REMARK  1 active torsions:
REMARK  status: ('A' for Active; 'I' for Inactive)
REMARK    1  A    between atoms: C_9  and  N_8 
ROOT
ATOM      1  C   UNL d   1       2.225   0.991  -1.208  0.00  0.00     0.165 A 
ATOM      2  S   UNL d   1       0.613   1.604  -1.110  0.00  0.00    -0.038 SA
ATOM      3  N   UNL d   1       2.698   1.008  -2.442  0.00  0.00    -0.279 N 
ATOM      4  HN  UNL d   1       3.643   0.711  -2.683  1.00  0.00     0.189 HD
ATOM      5  N   UNL d   1       1.790   1.466  -3.370  0.00  0.00    -0.296 N 
ATOM      6  HN  UNL d   1       1.984   1.546  -4.368  1.00  0.00     0.187 HD
ATOM      7  C   UNL d   1       0.644   1.786  -2.816  0.00  0.00     0.066 A 
ATOM      8  N   UNL d   1       2.877   0.582  -0.094  0.00  0.00    -0.336 N 
ATOM      9  C   UNL d   1      -0.540   2.262  -3.573  0.00  0.00     0.078 C 
ATOM     10  H   UNL d   1       2.443   0.754   0.803  0.00  0.00     0.168 HD
ENDROOT
BRANCH   8  11
ATOM     11  C   UNL d   1       3.958  -0.319  -0.054  0.00  0.00     0.034 A 
ATOM     12  C   UNL d   1       4.845  -0.270   1.031  0.00  0.00     0.031 A 
ATOM     13  C   UNL d   1       5.961  -1.113   1.088  0.00  0.00     0.026 A 
ATOM     14  C   UNL d   1       6.197  -2.020   0.059  0.00  0.00     0.034 A 
ATOM     15  C   UNL d   1       5.336  -2.082  -1.031  0.00  0.00     0.026 A 
ATOM     16 CL   UNL d   1       7.559  -3.067   0.131  0.00  0.00    -0.084 Cl
ATOM     17  C   UNL d   1       4.233  -1.224  -1.090  0.00  0.00     0.031 A 
ENDBRANCH   8  11
TORSDOF 1
