REMARK  6 active torsions:
REMARK  status: ('A' for Active; 'I' for Inactive)
REMARK    1  A    between atoms: C_11  and  CA_3 
REMARK    2  A    between atoms: C_12  and  CA_4 
REMARK    3  A    between atoms: C_7  and  C_14 
REMARK    4  A    between atoms: C_13  and  C_8 
REMARK    5  A    between atoms: OXT_22  and  C_11 
REMARK    6  A    between atoms: OXT_21  and  C_12 
ROOT
ATOM      1  C   UNL d   1      -2.641  -0.466   1.163  0.00  0.00    -0.015 A 
ATOM      2  C   UNL d   1      -4.319  -0.936   3.406  0.00  0.00    -0.015 A 
ATOM      3  C   UNL d   1      -2.996  -0.499   3.564  0.00  0.00     0.011 A 
ATOM      4  C   UNL d   1      -4.788  -1.148   2.099  0.00  0.00     0.011 A 
ATOM      5  C   UNL d   1      -2.172  -0.278   2.469  0.00  0.00     0.011 A 
ATOM      6  C   UNL d   1      -3.958  -0.918   0.992  0.00  0.00     0.011 A 
ENDROOT
BRANCH   1   7
ATOM      7  C   UNL d   1      -1.742  -0.198  -0.028  0.00  0.00     0.317 C 
ATOM      8  S   UNL d   1      -0.764  -1.668  -0.470  0.00  0.00    -0.117 SA
ATOM      9  C   UNL d   1       0.827  -0.780  -0.415  0.00  0.00     0.044 C 
ATOM     10  CA  UNL d   1       0.423   0.704  -0.542  0.00  0.00     0.336 C 
ATOM     11  C   UNL d   1       1.472  -1.071   0.954  0.00  0.00     0.029 C 
ATOM     12  C   UNL d   1       1.759  -1.284  -1.517  0.00  0.00     0.029 C 
ATOM     13  N   UNL d   1      -0.807   0.906   0.255  0.00  0.00     0.118 N 
ATOM     14  H   UNL d   1      -1.271   1.776  -0.006  0.00  0.00     0.319 HD
BRANCH  10  15
ATOM     15  C   UNL d   1       0.213   1.217  -1.984  0.00  0.00     0.175 C 
ATOM     16  O   UNL d   1      -0.853   1.217  -2.578  0.00  0.00    -0.648 OA
BRANCH  15  17
ATOM     17  OXT UNL d   1       1.334   1.737  -2.540  0.00  0.00    -0.775 OA
ATOM     18  HXT UNL d   1       2.118   1.764  -1.961  0.00  0.00     0.167 HD
ENDBRANCH  15  17
ENDBRANCH  10  15
ENDBRANCH   1   7
BRANCH   2  19
ATOM     19  C   UNL d   1      -5.215  -1.167   4.606  0.00  0.00     0.317 C 
ATOM     20  N   UNL d   1      -4.687  -2.245   5.482  0.00  0.00     0.118 N 
ATOM     21  CA  UNL d   1      -5.150  -1.941   6.886  0.00  0.00     0.336 C 
ATOM     22  H   UNL d   1      -3.670  -2.157   5.470  0.00  0.00     0.319 HD
ATOM     23  C   UNL d   1      -4.949  -0.437   7.163  0.00  0.00     0.044 C 
ATOM     24  S   UNL d   1      -5.437   0.342   5.592  0.00  0.00    -0.117 SA
ATOM     25  C   UNL d   1      -3.462  -0.120   7.423  0.00  0.00     0.029 C 
ATOM     26  C   UNL d   1      -5.760   0.151   8.318  0.00  0.00     0.029 C 
BRANCH  21  27
ATOM     27  C   UNL d   1      -6.570  -2.528   7.058  0.00  0.00     0.175 C 
ATOM     28  O   UNL d   1      -7.370  -2.250   7.932  0.00  0.00    -0.648 OA
BRANCH  27  29
ATOM     29  OXT UNL d   1      -6.793  -3.527   6.153  0.00  0.00    -0.775 OA
ATOM     30  HXT UNL d   1      -5.993  -3.578   5.573  0.00  0.00     0.167 HD
ENDBRANCH  27  29
ENDBRANCH  21  27
ENDBRANCH   2  19
TORSDOF 6
