REMARK  6 active torsions:
REMARK  status: ('A' for Active; 'I' for Inactive)
REMARK       I    between atoms: N_2  and  C_1 
REMARK    1  A    between atoms: C_8  and  C_1 
REMARK    2  A    between atoms: C_3  and  N_2 
REMARK    3  A    between atoms: C_6  and  C_8 
REMARK    4  A    between atoms: C_10  and  C_6 
REMARK    5  A    between atoms: C_7  and  C_10 
REMARK    6  A    between atoms: O_15  and  C_7 
ROOT
ATOM      1  C   UNL d   1       0.991  -1.356   0.093  0.00  0.00     0.223 C 
ATOM      2  N   UNL d   1       2.361  -1.312  -0.140  0.00  0.00    -0.325 N 
ATOM      3  O   UNL d   1       0.429  -1.864   1.052  0.00  0.00    -0.273 OA
ATOM      4  H   UNL d   1       2.658  -0.679  -0.873  0.00  0.00     0.169 HD
ENDROOT
BRANCH   1   5
ATOM      5  C   UNL d   1       0.234  -0.585  -0.991  0.00  0.00     0.113 C 
BRANCH   5   6
ATOM      6  C   UNL d   1      -1.325  -0.583  -0.948  0.00  0.00    -0.023 C 
ATOM      7  C   UNL d   1      -1.897  -2.019  -1.136  0.00  0.00     0.010 C 
ATOM      8  C   UNL d   1      -1.700  -2.604  -2.531  0.00  0.00     0.001 C 
ATOM      9  C   UNL d   1      -2.273  -1.683  -3.599  0.00  0.00     0.000 C 
ATOM     10  C   UNL d   1      -1.667  -0.290  -3.508  0.00  0.00     0.001 C 
ATOM     11  C   UNL d   1      -1.848   0.316  -2.114  0.00  0.00     0.010 C 
BRANCH   6  12
ATOM     12  C   UNL d   1      -1.909  -0.056   0.399  0.00  0.00     0.119 C 
BRANCH  12  13
ATOM     13  C   UNL d   1      -1.512   1.334   0.839  0.00  0.00     0.140 C 
ATOM     14  O   UNL d   1      -0.741   2.081   0.257  0.00  0.00    -0.650 OA
BRANCH  13  15
ATOM     15  O   UNL d   1      -2.137   1.701   1.985  0.00  0.00    -0.776 OA
ATOM     16  H   UNL d   1      -2.704   0.998   2.360  0.00  0.00     0.167 HD
ENDBRANCH  13  15
ENDBRANCH  12  13
ENDBRANCH   6  12
ENDBRANCH   5   6
ENDBRANCH   1   5
BRANCH   2  17
ATOM     17  C   UNL d   1       3.394  -1.829   0.679  0.00  0.00     0.073 A 
ATOM     18  C   UNL d   1       3.241  -2.805   1.675  0.00  0.00     0.145 A 
ATOM     19  C   UNL d   1       4.309  -3.173   2.494  0.00  0.00     0.086 A 
ATOM     20  F   UNL d   1       2.094  -3.476   1.838  0.00  0.00    -0.204 F 
ATOM     21  C   UNL d   1       5.548  -2.582   2.305  0.00  0.00     0.119 A 
ATOM     22  C   UNL d   1       5.748  -1.659   1.288  0.00  0.00     0.044 A 
ATOM     23  F   UNL d   1       6.570  -2.913   3.105  0.00  0.00    -0.206 F 
ATOM     24  C   UNL d   1       4.676  -1.292   0.469  0.00  0.00     0.036 A 
ENDBRANCH   2  17
TORSDOF 6
