REMARK  2 active torsions:
REMARK  status: ('A' for Active; 'I' for Inactive)
REMARK    1  A    between atoms: C_5  and  N_1 
REMARK    2  A    between atoms: N_11  and  C_10 
ROOT
ATOM      1  C   UNL d   1      -0.736   2.475   0.011  0.00  0.00     0.039 A 
ATOM      2  C   UNL d   1      -0.293   3.360  -0.980  0.00  0.00     0.032 A 
ATOM      3  C   UNL d   1      -1.627   2.947   0.984  0.00  0.00     0.032 A 
ATOM      4  C   UNL d   1      -1.569   5.178   0.014  0.00  0.00     0.005 A 
ATOM      5  C   UNL d   1      -0.729   4.692  -0.987  0.00  0.00     0.025 A 
ATOM      6  C   UNL d   1      -2.052   4.282   0.967  0.00  0.00     0.025 A 
ENDROOT
BRANCH   1   7
ATOM      7  N   UNL d   1      -0.308   1.115   0.018  0.00  0.00    -0.317 N 
ATOM      8  C   UNL d   1       0.583   0.511  -0.846  0.00  0.00     0.188 A 
ATOM      9  N   UNL d   1       0.763  -0.766  -0.584  0.00  0.00    -0.360 N 
ATOM     10  C   UNL d   1      -0.033  -1.020   0.493  0.00  0.00     0.106 A 
ATOM     11  HN  UNL d   1       1.366  -1.422  -1.080  1.00  0.00     0.166 HD
ATOM     12  C   UNL d   1      -0.696   0.117   0.889  0.00  0.00     0.115 A 
ENDBRANCH   1   7
BRANCH   4  13
ATOM     13  N   UNL d   1      -2.101   6.469  -0.076  0.00  0.00    -0.303 NA
ATOM     14  H   UNL d   1      -2.430   6.841   0.810  0.00  0.00     0.124 HD
ATOM     15  H   UNL d   1      -1.508   7.126  -0.571  0.00  0.00     0.124 HD
ENDBRANCH   4  13
TORSDOF 2
