REMARK  4 active torsions:
REMARK  status: ('A' for Active; 'I' for Inactive)
REMARK    1  A    between atoms: C_11  and  N_1 
REMARK    2  A    between atoms: C_10  and  N_4 
REMARK    3  A    between atoms: C_16  and  C_9 
REMARK    4  A    between atoms: C_15  and  C_11 
REMARK       I    between atoms: N_19  and  C_15 
ROOT
ATOM      1  N   UNL d   1       1.103  -1.370   0.031  0.00  0.00    -0.283 N 
ATOM      2  C   UNL d   1      -0.101  -0.688  -0.003  0.00  0.00     0.097 A 
ATOM      3  C   UNL d   1      -0.234   0.667   0.061  0.00  0.00     0.068 A 
ATOM      4  N   UNL d   1       2.152   0.804   0.072  0.00  0.00    -0.229 N 
ATOM      5  C   UNL d   1       2.277  -0.607   0.102  0.00  0.00     0.337 A 
ATOM      6  C   UNL d   1       0.937   1.510   0.121  0.00  0.00     0.269 A 
ATOM      7  S   UNL d   1      -1.581  -1.493  -0.116  0.00  0.00    -0.070 SA
ATOM      8  C   UNL d   1      -1.610   1.056   0.051  0.00  0.00     0.039 A 
ATOM      9  C   UNL d   1      -2.476  -0.026  -0.007  0.00  0.00     0.018 A 
ATOM     10  O   UNL d   1       3.372  -1.166   0.227  0.00  0.00    -0.246 OA
ATOM     11  O   UNL d   1       0.818   2.729   0.173  0.00  0.00    -0.266 OA
ENDROOT
BRANCH   4  12
ATOM     12  C   UNL d   1       3.370   1.565   0.057  0.00  0.00     0.049 A 
ATOM     13  C   UNL d   1       4.369   1.281  -0.888  0.00  0.00     0.054 A 
ATOM     14  C   UNL d   1       5.572   1.987  -0.874  0.00  0.00     0.036 A 
ATOM     15 CL   UNL d   1       6.776   1.649  -2.055  0.00  0.00    -0.084 Cl
ATOM     16  C   UNL d   1       5.806   2.966   0.089  0.00  0.00     0.024 A 
ATOM     17  C   UNL d   1       4.816   3.262   1.026  0.00  0.00     0.004 A 
ATOM     18  C   UNL d   1       3.598   2.579   0.997  0.00  0.00     0.030 A 
ENDBRANCH   4  12
BRANCH   1  19
ATOM     19  C   UNL d   1       1.238  -2.836  -0.052  0.00  0.00     0.237 C 
BRANCH  19  20
ATOM     20  C   UNL d   1       0.724  -3.645   1.143  0.00  0.00     0.233 C 
ATOM     21  O   UNL d   1       0.507  -4.853   1.072  0.00  0.00    -0.272 OA
ATOM     22  N   UNL d   1       0.617  -3.008   2.343  0.00  0.00    -0.369 N 
ATOM     23  H   UNL d   1       0.675  -2.005   2.432  0.00  0.00     0.159 HD
ATOM     24  H   UNL d   1       0.255  -3.547   3.121  0.00  0.00     0.159 HD
ENDBRANCH  19  20
ENDBRANCH   1  19
BRANCH   9  25
ATOM     25  C   UNL d   1      -3.950  -0.035  -0.014  0.00  0.00    -0.019 A 
ATOM     26  C   UNL d   1      -4.690  -1.091   0.544  0.00  0.00     0.013 A 
ATOM     27  C   UNL d   1      -6.088  -1.070   0.543  0.00  0.00     0.001 A 
ATOM     28  C   UNL d   1      -6.770   0.008  -0.008  0.00  0.00     0.000 A 
ATOM     29  C   UNL d   1      -6.057   1.068  -0.562  0.00  0.00     0.001 A 
ATOM     30  C   UNL d   1      -4.658   1.046  -0.565  0.00  0.00     0.013 A 
ENDBRANCH   9  25
TORSDOF 4
