REMARK  1 active torsions:
REMARK  status: ('A' for Active; 'I' for Inactive)
REMARK    1  A    between atoms: C_11  and  C_4 
ROOT
ATOM      1  C   UNL d   1       0.719   0.559  -0.023  0.00  0.00     0.015 A 
ATOM      2  C   UNL d   1       1.103  -0.843  -0.031  0.00  0.00     0.088 A 
ATOM      3  C   UNL d   1       1.670   1.522  -0.021  0.00  0.00    -0.039 A 
ATOM      4  C   UNL d   1       3.102   1.095  -0.019  0.00  0.00    -0.022 A 
ATOM      5  O   UNL d   1       2.416  -1.218  -0.051  0.00  0.00    -0.314 OA
ATOM      6  C   UNL d   1       3.398  -0.232  -0.030  0.00  0.00     0.056 A 
ATOM      7  C   UNL d   1       0.048  -1.663  -0.015  0.00  0.00     0.050 A 
ATOM      8  C   UNL d   1      -0.760   0.557  -0.009  0.00  0.00    -0.012 A 
ATOM      9  C   UNL d   1      -1.132  -0.807  -0.003  0.00  0.00    -0.022 A 
ATOM     10  C   UNL d   1       1.381   2.997  -0.007  0.00  0.00     0.050 C 
ATOM     11  C   UNL d   1       4.766  -0.851  -0.019  0.00  0.00     0.077 C 
ATOM     12  C   UNL d   1      -1.747   1.530  -0.002  0.00  0.00     0.013 A 
ATOM     13  C   UNL d   1      -2.460  -1.209   0.009  0.00  0.00     0.012 A 
ATOM     14  C   UNL d   1      -3.091   1.133   0.009  0.00  0.00     0.001 A 
ATOM     15  C   UNL d   1      -3.446  -0.224   0.014  0.00  0.00     0.001 A 
ENDROOT
BRANCH   4  16
ATOM     16  C   UNL d   1       4.183   2.163   0.063  0.00  0.00     0.037 C 
ATOM     17  C   UNL d   1       4.616   2.708  -1.294  0.00  0.00     0.010 C 
ENDBRANCH   4  16
TORSDOF 1
