REMARK  3 active torsions:
REMARK  status: ('A' for Active; 'I' for Inactive)
REMARK       I    between atoms: N_5  and  C_1 
REMARK       I    between atoms: N_7  and  C_1 
REMARK    1  A    between atoms: C_8  and  N_5 
REMARK    2  A    between atoms: C_15  and  N_7 
REMARK    3  A    between atoms: C_16  and  C_15 
ROOT
ATOM      1  N   UNL d   1      -1.899   1.514   7.860  0.00  0.00    -0.191 NA
ATOM      2  C   UNL d   1      -1.493   1.572   6.772  0.00  0.00     0.099 C 
ATOM      3  C   UNL d   1      -0.997   1.651   5.430  0.00  0.00     0.044 A 
ATOM      4  C   UNL d   1      -0.005   1.824   2.801  0.00  0.00    -0.040 A 
ATOM      5  C   UNL d   1      -0.175   0.640   4.921  0.00  0.00     0.023 A 
ATOM      6  C   UNL d   1      -1.325   2.746   4.625  0.00  0.00     0.023 A 
ATOM      7  C   UNL d   1       0.320   0.728   3.615  0.00  0.00     0.010 A 
ATOM      8  C   UNL d   1      -0.832   2.831   3.320  0.00  0.00     0.010 A 
ENDROOT
BRANCH   4   9
ATOM      9  C   UNL d   1       0.579   1.956   1.416  0.00  0.00     0.162 C 
BRANCH   9  10
ATOM     10  N   UNL d   1       0.174   0.875   0.541  0.00  0.00    -0.339 N 
ATOM     11  C   UNL d   1       1.105   0.017   0.006  0.00  0.00     0.320 C 
ATOM     12  N   UNL d   1       0.530  -0.907  -0.841  0.00  0.00    -0.309 N 
ATOM     13  O   UNL d   1       2.298   0.118   0.261  0.00  0.00    -0.247 OA
ATOM     14  H   UNL d   1      -0.400  -0.692  -1.165  0.00  0.00     0.170 HD
ATOM     15  H   UNL d   1      -0.803   0.631   0.510  0.00  0.00     0.164 HD
BRANCH  12  16
ATOM     16  C   UNL d   1       1.205  -1.966  -1.493  0.00  0.00     0.037 A 
ATOM     17  C   UNL d   1       2.485  -2.392  -1.133  0.00  0.00     0.054 A 
ATOM     18  C   UNL d   1       3.116  -3.430  -1.826  0.00  0.00     0.042 A 
ATOM     19 CL   UNL d   1       4.704  -3.890  -1.317  0.00  0.00    -0.084 Cl
ATOM     20  C   UNL d   1       2.478  -4.072  -2.894  0.00  0.00    -0.040 A 
ATOM     21  C   UNL d   1       1.182  -3.661  -3.238  0.00  0.00     0.011 A 
ATOM     22  C   UNL d   1       3.145  -5.177  -3.663  0.00  0.00     0.050 C 
ATOM     23  C   UNL d   1       0.550  -2.623  -2.539  0.00  0.00     0.030 A 
ENDBRANCH  12  16
ENDBRANCH   9  10
ENDBRANCH   4   9
TORSDOF 3
