REMARK  4 active torsions:
REMARK  status: ('A' for Active; 'I' for Inactive)
REMARK    1  A    between atoms: N_2  and  S_1 
REMARK    2  A    between atoms: C_6  and  S_1 
REMARK    3  A    between atoms: C_3  and  N_2 
REMARK    4  A    between atoms: N_4  and  C_5 
ROOT
ATOM      1  C   UNL d   1      -1.854  -0.356   0.433  0.00  0.00     0.074 A 
ATOM      2  N   UNL d   1      -7.184  -0.170   1.201  0.00  0.00    -0.191 NA
ATOM      3  C   UNL d   1      -6.040  -0.216   1.026  0.00  0.00     0.099 C 
ATOM      4  C   UNL d   1      -2.605   0.669  -0.155  0.00  0.00     0.026 A 
ATOM      5  C   UNL d   1      -2.478  -1.353   1.187  0.00  0.00     0.026 A 
ATOM      6  C   UNL d   1      -4.619  -0.268   0.817  0.00  0.00     0.044 A 
ATOM      7  C   UNL d   1      -3.862  -1.301   1.385  0.00  0.00     0.024 A 
ATOM      8  C   UNL d   1      -3.989   0.714   0.043  0.00  0.00     0.024 A 
ENDROOT
BRANCH   1   9
ATOM      9  S   UNL d   1      -0.088  -0.418   0.157  0.00  0.00     0.245 S 
ATOM     10  O   UNL d   1       0.339  -1.786   0.350  0.00  0.00    -0.206 OA
ATOM     11  O   UNL d   1       0.142   0.279  -1.092  0.00  0.00    -0.206 OA
BRANCH   9  12
ATOM     12  N   UNL d   1       0.477   0.594   1.391  0.00  0.00    -0.179 NA
ATOM     13  H   UNL d   1      -0.110   1.418   1.496  0.00  0.00     0.146 HD
BRANCH  12  14
ATOM     14  C   UNL d   1       0.828  -0.011   2.646  0.00  0.00     0.049 A 
ATOM     15  C   UNL d   1       2.123  -0.540   2.874  0.00  0.00     0.052 A 
ATOM     16  C   UNL d   1       2.347  -1.116   4.143  0.00  0.00     0.031 A 
ATOM     17  C   UNL d   1       1.356  -1.182   5.126  0.00  0.00     0.002 A 
ATOM     18  C   UNL d   1       0.092  -0.674   4.866  0.00  0.00     0.002 A 
ATOM     19  C   UNL d   1      -0.173  -0.091   3.629  0.00  0.00     0.027 A 
BRANCH  15  20
ATOM     20  N   UNL d   1       3.202  -0.454   1.998  0.00  0.00    -0.379 N 
ATOM     21  C   UNL d   1       3.326   0.593   0.985  0.00  0.00     0.123 C 
ATOM     22  C   UNL d   1       4.789   1.042   0.918  0.00  0.00     0.020 C 
ATOM     23  C   UNL d   1       5.744  -0.133   0.714  0.00  0.00     0.003 C 
ATOM     24  C   UNL d   1       5.492  -1.233   1.745  0.00  0.00     0.020 C 
ATOM     25  C   UNL d   1       4.020  -1.648   1.749  0.00  0.00     0.123 C 
ENDBRANCH  15  20
ENDBRANCH  12  14
ENDBRANCH   9  12
ENDBRANCH   1   9
TORSDOF 4
