REMARK  10 active torsions:
REMARK  status: ('A' for Active; 'I' for Inactive)
REMARK    1  A    between atoms: N_2  and  C_1 
REMARK    2  A    between atoms: O_22  and  C_4 
REMARK    3  A    between atoms: C_5  and  N_15 
REMARK    4  A    between atoms: N_9  and  C_5 
REMARK    5  A    between atoms: C_8  and  N_9 
REMARK    6  A    between atoms: S_14  and  C_10 
REMARK    7  A    between atoms: C_11  and  C_21 
REMARK       I    between atoms: N_16  and  C_11 
REMARK    8  A    between atoms: O_24  and  C_12 
REMARK    9  A    between atoms: C_21  and  S_14 
REMARK   10  A    between atoms: N_15  and  N_16 
ROOT
ATOM      1  C   UNL d   1      -5.218  -0.760  -1.164  0.00  0.00     0.245 C 
ATOM      2  N   UNL d   1      -5.730   0.505  -1.371  0.00  0.00    -0.267 N 
ATOM      3  O   UNL d   1      -5.828  -1.784  -1.501  0.00  0.00    -0.271 OA
ATOM      4  H   UNL d   1      -5.147   1.321  -1.251  0.00  0.00     0.190 HD
ENDROOT
BRANCH   1   5
ATOM      5  C   UNL d   1      -3.820  -0.886  -0.584  0.00  0.00     0.184 C 
BRANCH   5   6
ATOM      6  S   UNL d   1      -3.131   0.554   0.282  0.00  0.00    -0.118 SA
BRANCH   6   7
ATOM      7  C   UNL d   1      -2.799   1.753  -1.011  0.00  0.00     0.037 A 
ATOM      8  C   UNL d   1      -3.285   3.045  -0.728  0.00  0.00     0.060 A 
ATOM      9  C   UNL d   1      -3.142   4.111  -1.616  0.00  0.00     0.102 A 
ATOM     10  C   UNL d   1      -2.439   3.871  -2.791  0.00  0.00     0.138 A 
ATOM     11  C   UNL d   1      -1.929   2.589  -3.102  0.00  0.00     0.077 A 
ATOM     12  C   UNL d   1      -2.105   1.523  -2.212  0.00  0.00     0.087 A 
BRANCH   9  13
ATOM     13  O   UNL d   1      -3.693   5.266  -1.146  0.00  0.00    -0.353 OA
ATOM     14  C   UNL d   1      -4.309   6.161  -2.064  0.00  0.00     0.210 C 
ENDBRANCH   9  13
BRANCH  10  15
ATOM     15  N   UNL d   1      -2.123   4.927  -3.728  0.00  0.00    -0.113 N 
ATOM     16  O   UNL d   1      -2.515   4.769  -4.893  0.00  0.00    -0.532 OA
ATOM     17  O   UNL d   1      -1.468   5.884  -3.310  0.00  0.00    -0.532 OA
ENDBRANCH  10  15
BRANCH  12  18
ATOM     18  O   UNL d   1      -1.623   0.263  -2.432  0.00  0.00    -0.355 OA
ATOM     19  C   UNL d   1      -0.813   0.041  -3.584  0.00  0.00     0.210 C 
ENDBRANCH  12  18
ENDBRANCH   6   7
ENDBRANCH   5   6
ENDBRANCH   1   5
BRANCH   2  20
ATOM     20  N   UNL d   1      -6.869   0.663  -2.168  0.00  0.00    -0.274 N 
ATOM     21  H   UNL d   1      -6.733   0.970  -3.125  0.00  0.00     0.189 HD
BRANCH  20  22
ATOM     22  C   UNL d   1      -8.142   0.360  -1.741  0.00  0.00     0.191 C 
ATOM     23  S   UNL d   1      -8.628   0.208  -0.147  0.00  0.00    -0.039 SA
BRANCH  22  24
ATOM     24  N   UNL d   1      -9.096   0.288  -2.729  0.00  0.00    -0.332 N 
ATOM     25  H   UNL d   1     -10.047   0.323  -2.375  0.00  0.00     0.168 HD
BRANCH  24  26
ATOM     26  C   UNL d   1      -8.951  -0.068  -4.092  0.00  0.00     0.042 A 
ATOM     27  C   UNL d   1      -9.940   0.307  -5.027  0.00  0.00    -0.013 A 
ATOM     28  C   UNL d   1      -9.808  -0.148  -6.359  0.00  0.00     0.042 A 
ATOM     29  C   UNL d   1     -11.092   1.210  -4.666  0.00  0.00     0.052 C 
ATOM     30 CL   UNL d   1     -10.974   0.252  -7.575  0.00  0.00    -0.084 Cl
ATOM     31  C   UNL d   1      -8.728  -0.940  -6.753  0.00  0.00     0.024 A 
ATOM     32  C   UNL d   1      -7.759  -1.301  -5.826  0.00  0.00     0.004 A 
ATOM     33  C   UNL d   1      -7.877  -0.874  -4.505  0.00  0.00     0.030 A 
ENDBRANCH  24  26
ENDBRANCH  22  24
ENDBRANCH  20  22
ENDBRANCH   2  20
TORSDOF 10
