REMARK  4 active torsions:
REMARK  status: ('A' for Active; 'I' for Inactive)
REMARK    1  A    between atoms: N_3  and  S_1 
REMARK    2  A    between atoms: C_5  and  S_1 
REMARK       I    between atoms: C_2  and  N_4 
REMARK    3  A    between atoms: O_6  and  C_2 
REMARK    4  A    between atoms: C_12  and  O_6 
ROOT
ATOM      1  C   UNL d   1      -0.534   5.306  -0.896  0.00  0.00     0.363 C 
ATOM      2  N   UNL d   1       0.630   1.604   0.224  0.00  0.00    -0.205 NA
ATOM      3  N   UNL d   1      -0.096   4.546   0.184  0.00  0.00    -0.327 N 
ATOM      4  C   UNL d   1       1.491   2.683  -0.353  0.00  0.00     0.127 C 
ATOM      5  C   UNL d   1       1.270   4.044   0.314  0.00  0.00     0.143 C 
ATOM      6  O   UNL d   1      -1.676   5.736  -0.999  0.00  0.00    -0.238 OA
ATOM      7  C   UNL d   1      -1.423   2.638   1.163  0.00  0.00     0.035 C 
ATOM      8  C   UNL d   1      -0.831   1.818   0.026  0.00  0.00     0.109 C 
ATOM      9  C   UNL d   1      -1.034   4.119   1.213  0.00  0.00     0.129 C 
ENDROOT
BRANCH   2  10
ATOM     10  S   UNL d   1       1.186   0.005  -0.107  0.00  0.00     0.243 S 
ATOM     11  O   UNL d   1       0.306  -0.924   0.574  0.00  0.00    -0.206 OA
ATOM     12  O   UNL d   1       2.612  -0.026   0.107  0.00  0.00    -0.206 OA
BRANCH  10  13
ATOM     13  C   UNL d   1       0.895  -0.168  -1.860  0.00  0.00     0.074 A 
ATOM     14  C   UNL d   1       1.916   0.125  -2.768  0.00  0.00     0.025 A 
ATOM     15  C   UNL d   1       1.691  -0.040  -4.135  0.00  0.00     0.008 A 
ATOM     16  C   UNL d   1       0.457  -0.515  -4.603  0.00  0.00    -0.062 A 
ATOM     17  C   UNL d   1      -0.552  -0.824  -3.682  0.00  0.00     0.008 A 
ATOM     18  C   UNL d   1       0.238  -0.705  -6.075  0.00  0.00     0.048 C 
ATOM     19  C   UNL d   1      -0.332  -0.663  -2.313  0.00  0.00     0.025 A 
ENDBRANCH  10  13
ENDBRANCH   2  10
BRANCH   1  20
ATOM     20  O   UNL d   1       0.442   5.517  -1.821  0.00  0.00    -0.294 OA
BRANCH  20  21
ATOM     21  C   UNL d   1       0.247   6.425  -2.948  0.00  0.00     0.061 C 
ATOM     22  C   UNL d   1      -0.030   7.857  -2.462  0.00  0.00     0.046 C 
ATOM     23  C   UNL d   1       1.579   6.390  -3.723  0.00  0.00     0.046 C 
ATOM     24  C   UNL d   1      -0.860   5.957  -3.902  0.00  0.00     0.046 C 
ENDBRANCH  20  21
ENDBRANCH   1  20
TORSDOF 4
