REMARK  13 active torsions:
REMARK  status: ('A' for Active; 'I' for Inactive)
REMARK    1  A    between atoms: C_5  and  N_1 
REMARK    2  A    between atoms: S_13  and  C_6 
REMARK    3  A    between atoms: C_17  and  S_13 
REMARK    4  A    between atoms: C_18  and  C_17 
REMARK    5  A    between atoms: C_26  and  C_18 
REMARK    6  A    between atoms: C_19  and  C_20 
REMARK    7  A    between atoms: C_20  and  C_25 
REMARK    8  A    between atoms: C_21  and  C_27 
REMARK    9  A    between atoms: C_22  and  C_21 
REMARK   10  A    between atoms: C_23  and  C_22 
REMARK   11  A    between atoms: C_24  and  C_23 
REMARK   12  A    between atoms: C_25  and  C_24 
REMARK   13  A    between atoms: C_27  and  C_26 
ROOT
ATOM      1  C   UNL d   1       3.180  -3.821   4.294  0.00  0.00     0.046 A 
ATOM      2  C   UNL d   1       4.753  -2.108   7.209  0.00  0.00    -0.078 C 
ATOM      3  C   UNL d   1       5.108  -1.221   7.952  0.00  0.00     0.018 C 
ATOM      4  C   UNL d   1       3.595  -2.823   5.184  0.00  0.00     0.050 A 
ATOM      5  C   UNL d   1       4.348  -3.141   6.316  0.00  0.00     0.019 A 
ATOM      6  C   UNL d   1       3.557  -5.147   4.553  0.00  0.00     0.030 A 
ATOM      7  C   UNL d   1       4.316  -5.469   5.676  0.00  0.00     0.004 A 
ATOM      8  C   UNL d   1       4.703  -4.467   6.562  0.00  0.00     0.021 A 
ENDROOT
BRANCH   1   9
ATOM      9  N   UNL d   1       2.412  -3.506   3.147  0.00  0.00    -0.251 N 
ATOM     10  C   UNL d   1       2.347  -2.263   2.573  0.00  0.00     0.232 A 
ATOM     11  C   UNL d   1       1.479  -2.322   1.354  0.00  0.00     0.128 A 
ATOM     12  O   UNL d   1       2.889  -1.224   2.926  0.00  0.00    -0.273 OA
ATOM     13  C   UNL d   1       1.012  -3.759   1.278  0.00  0.00     0.149 A 
ATOM     14  C   UNL d   1       1.595  -4.410   2.511  0.00  0.00     0.245 A 
ATOM     15  O   UNL d   1       1.317  -5.551   2.865  0.00  0.00    -0.271 OA
BRANCH  13  16
ATOM     16  S   UNL d   1       1.667  -4.659  -0.155  0.00  0.00    -0.154 SA
BRANCH  16  17
ATOM     17  C   UNL d   1       0.869  -3.800  -1.554  0.00  0.00     0.075 C 
BRANCH  17  18
ATOM     18  C   UNL d   1       1.328  -4.485  -2.843  0.00  0.00     0.010 C 
BRANCH  18  19
ATOM     19  C   UNL d   1       0.922  -5.956  -2.882  0.00  0.00     0.001 C 
BRANCH  19  20
ATOM     20  C   UNL d   1       1.404  -6.611  -4.164  0.00  0.00     0.000 C 
BRANCH  20  21
ATOM     21  C   UNL d   1       0.997  -8.075  -4.189  0.00  0.00     0.000 C 
BRANCH  21  22
ATOM     22  C   UNL d   1       1.477  -8.731  -5.473  0.00  0.00     0.000 C 
BRANCH  22  23
ATOM     23  C   UNL d   1       1.068 -10.194  -5.496  0.00  0.00     0.000 C 
BRANCH  23  24
ATOM     24  C   UNL d   1       1.544 -10.851  -6.781  0.00  0.00     0.000 C 
BRANCH  24  25
ATOM     25  C   UNL d   1       1.137 -12.316  -6.802  0.00  0.00     0.000 C 
BRANCH  25  26
ATOM     26  C   UNL d   1       1.613 -12.975  -8.088  0.00  0.00    -0.000 C 
BRANCH  26  27
ATOM     27  C   UNL d   1       1.211 -14.443  -8.118  0.00  0.00    -0.005 C 
ATOM     28  C   UNL d   1       1.688 -15.097  -9.400  0.00  0.00     0.005 C 
ENDBRANCH  26  27
ENDBRANCH  25  26
ENDBRANCH  24  25
ENDBRANCH  23  24
ENDBRANCH  22  23
ENDBRANCH  21  22
ENDBRANCH  20  21
ENDBRANCH  19  20
ENDBRANCH  18  19
ENDBRANCH  17  18
ENDBRANCH  16  17
ENDBRANCH  13  16
ENDBRANCH   1   9
TORSDOF 13
