REMARK  4 active torsions:
REMARK  status: ('A' for Active; 'I' for Inactive)
REMARK    1  A    between atoms: C_13  and  N_1 
REMARK    2  A    between atoms: C_6  and  C_4 
REMARK    3  A    between atoms: C_9  and  C_5 
REMARK    4  A    between atoms: O_17  and  C_8 
ROOT
ATOM      1  N   UNL d   1       0.130  -1.093   0.160  0.00  0.00    -0.283 N 
ATOM      2  N   UNL d   1       1.123  -0.172   0.270  0.00  0.00    -0.301 N 
ATOM      3  HN  UNL d   1       2.108  -0.366   0.451  1.00  0.00     0.187 HD
ATOM      4  C   UNL d   1      -1.198  -0.503  -0.009  0.00  0.00     0.150 A 
ATOM      5  C   UNL d   1       0.589   0.999   0.101  0.00  0.00     0.040 A 
ATOM      6  C   UNL d   1      -0.913   1.000  -0.020  0.00  0.00     0.091 A 
ENDROOT
BRANCH   4   7
ATOM      7  C   UNL d   1      -2.128  -0.901   1.127  0.00  0.00     0.003 A 
ATOM      8  C   UNL d   1      -1.698  -1.122   2.451  0.00  0.00     0.096 A 
ATOM      9  C   UNL d   1      -2.597  -1.572   3.429  0.00  0.00     0.069 A 
ATOM     10 CL   UNL d   1      -2.075  -1.935   5.036  0.00  0.00    -0.081 Cl
ATOM     11  C   UNL d   1      -3.942  -1.756   3.118  0.00  0.00     0.050 A 
ATOM     12  C   UNL d   1      -4.387  -1.481   1.830  0.00  0.00     0.036 A 
ATOM     13  C   UNL d   1      -3.495  -1.063   0.840  0.00  0.00     0.036 A 
ATOM     14 CL   UNL d   1      -6.055  -1.658   1.446  0.00  0.00    -0.084 Cl
BRANCH   8  15
ATOM     15  O   UNL d   1      -0.399  -0.891   2.827  0.00  0.00    -0.358 OA
ATOM     16  H   UNL d   1       0.177  -0.875   2.030  0.00  0.00     0.217 HD
ENDBRANCH   8  15
ENDBRANCH   4   7
BRANCH   1  17
ATOM     17  C   UNL d   1       0.422  -2.456   0.073  0.00  0.00     0.051 A 
ATOM     18  C   UNL d   1       1.593  -2.969   0.657  0.00  0.00     0.031 A 
ATOM     19  C   UNL d   1       1.870  -4.339   0.664  0.00  0.00     0.002 A 
ATOM     20  C   UNL d   1       0.993  -5.227   0.051  0.00  0.00     0.000 A 
ATOM     21  C   UNL d   1      -0.158  -4.746  -0.562  0.00  0.00     0.002 A 
ATOM     22  C   UNL d   1      -0.442  -3.374  -0.544  0.00  0.00     0.031 A 
ENDBRANCH   1  17
BRANCH   5  23
ATOM     23  C   UNL d   1       1.359   2.264   0.026  0.00  0.00     0.010 A 
ATOM     24  C   UNL d   1       2.633   2.338  -0.558  0.00  0.00     0.046 A 
ATOM     25 CL   UNL d   1       3.416   1.004  -1.331  0.00  0.00    -0.083 Cl
ATOM     26  C   UNL d   1       3.314   3.562  -0.596  0.00  0.00     0.025 A 
ATOM     27  C   UNL d   1       2.732   4.715  -0.064  0.00  0.00     0.002 A 
ATOM     28  C   UNL d   1       1.463   4.648   0.502  0.00  0.00     0.001 A 
ATOM     29  C   UNL d   1       0.778   3.432   0.548  0.00  0.00     0.015 A 
ENDBRANCH   5  23
TORSDOF 4
