REMARK  9 active torsions:
REMARK  status: ('A' for Active; 'I' for Inactive)
REMARK    1  A    between atoms: O_9  and  C_1 
REMARK    2  A    between atoms: O_20  and  C_2 
REMARK    3  A    between atoms: C_3  and  C_6 
REMARK    4  A    between atoms: O_21  and  C_4 
REMARK    5  A    between atoms: O_22  and  C_5 
REMARK    6  A    between atoms: C_6  and  O_16 
REMARK    7  A    between atoms: C_10  and  O_9 
REMARK    8  A    between atoms: O_16  and  N_11 
REMARK    9  A    between atoms: C_15  and  C_13 
ROOT
ATOM      1  O   UNL d   1       4.036   0.827  -1.159  0.00  0.00    -0.195 OA
ENDROOT
BRANCH   1   2
ATOM      2  C   UNL d   1       3.478   0.076  -2.155  0.00  0.00     0.315 C 
ATOM      3  O   UNL d   1       4.039  -0.778  -2.835  0.00  0.00    -0.257 OA
BRANCH   2   4
ATOM      4  C   UNL d   1       2.060   0.477  -2.373  0.00  0.00     0.046 A 
ATOM      5  C   UNL d   1       1.316  -0.222  -3.320  0.00  0.00     0.057 A 
ATOM      6  C   UNL d   1       0.000   0.157  -3.614  0.00  0.00     0.105 A 
ATOM      7  C   UNL d   1      -0.613   1.222  -2.923  0.00  0.00     0.135 A 
ATOM      8  C   UNL d   1       0.141   1.926  -1.958  0.00  0.00     0.105 A 
ATOM      9  C   UNL d   1       1.477   1.565  -1.712  0.00  0.00     0.057 A 
BRANCH   6  10
ATOM     10  O   UNL d   1      -0.603  -0.642  -4.555  0.00  0.00    -0.353 OA
ATOM     11  C   UNL d   1      -1.380   0.047  -5.529  0.00  0.00     0.210 C 
ENDBRANCH   6  10
BRANCH   7  12
ATOM     12  O   UNL d   1      -1.959   1.383  -3.135  0.00  0.00    -0.351 OA
ATOM     13  C   UNL d   1      -2.492   2.701  -3.145  0.00  0.00     0.210 C 
ENDBRANCH   7  12
BRANCH   8  14
ATOM     14  O   UNL d   1      -0.456   2.961  -1.286  0.00  0.00    -0.353 OA
ATOM     15  C   UNL d   1       0.028   3.248   0.021  0.00  0.00     0.210 C 
ENDBRANCH   8  14
ENDBRANCH   2   4
ENDBRANCH   1   2
BRANCH   1  16
ATOM     16  N   UNL d   1       5.386   1.060  -1.465  0.00  0.00    -0.268 N 
ATOM     17  C   UNL d   1       5.919   1.834  -0.577  0.00  0.00     0.128 C 
ATOM     18  HN  UNL d   1       5.876   0.674  -2.272  1.00  0.00     0.194 HD
BRANCH  17  19
ATOM     19  C   UNL d   1       7.251   2.440  -0.808  0.00  0.00     0.015 A 
ATOM     20  C   UNL d   1       7.730   3.455   0.038  0.00  0.00     0.089 A 
ATOM     21  C   UNL d   1       8.865   4.174  -0.360  0.00  0.00     0.038 A 
ATOM     22  C   UNL d   1       9.556   3.825  -1.526  0.00  0.00     0.003 A 
ATOM     23  C   UNL d   1       9.122   2.763  -2.310  0.00  0.00     0.001 A 
ATOM     24  C   UNL d   1       7.962   2.077  -1.960  0.00  0.00     0.015 A 
BRANCH  20  25
ATOM     25  O   UNL d   1       7.031   3.693   1.188  0.00  0.00    -0.254 OA
BRANCH  25  26
ATOM     26  C   UNL d   1       7.695   4.379   2.241  0.00  0.00     0.530 C 
ATOM     27  F   UNL d   1       8.987   4.009   2.363  0.00  0.00    -0.144 F 
ATOM     28  F   UNL d   1       7.069   4.088   3.402  0.00  0.00    -0.144 F 
ATOM     29  F   UNL d   1       7.624   5.712   2.042  0.00  0.00    -0.144 F 
ENDBRANCH  25  26
ENDBRANCH  20  25
ENDBRANCH  17  19
ENDBRANCH   1  16
TORSDOF 9
