REMARK  10 active torsions:
REMARK  status: ('A' for Active; 'I' for Inactive)
REMARK    1  A    between atoms: C_1  and  O_8 
REMARK    2  A    between atoms: C_2  and  O_9 
REMARK    3  A    between atoms: C_3  and  N_7 
REMARK    4  A    between atoms: C_5  and  O_10 
REMARK    5  A    between atoms: C_6  and  C_15 
REMARK    6  A    between atoms: C_11  and  O_8 
REMARK    7  A    between atoms: C_12  and  O_9 
REMARK    8  A    between atoms: C_13  and  O_10 
REMARK    9  A    between atoms: C_14  and  O_16 
REMARK   10  A    between atoms: O_16  and  C_15 
ROOT
ATOM      1  C   UNL d   1       1.092  -1.069   0.139  0.00  0.00     0.223 C 
ATOM      2  C   UNL d   1       1.803   0.278   0.420  0.00  0.00     0.198 C 
ATOM      3  C   UNL d   1      -0.460  -1.062   0.379  0.00  0.00     0.392 C 
ATOM      4  O   UNL d   1      -1.031   0.175  -0.054  0.00  0.00    -0.345 OA
ATOM      5  C   UNL d   1       0.967   1.507   0.017  0.00  0.00     0.195 C 
ATOM      6  C   UNL d   1      -0.479   1.364   0.500  0.00  0.00     0.181 C 
ENDROOT
BRANCH   3   7
ATOM      7  N   UNL d   1      -1.282  -2.153  -0.212  0.00  0.00     0.124 N 
ATOM      8  C   UNL d   1      -0.659  -3.470  -0.397  0.00  0.00     0.302 C 
ATOM      9  C   UNL d   1       0.245  -3.610  -1.642  0.00  0.00     0.198 C 
ATOM     10  O   UNL d   1      -0.307  -3.044  -2.838  0.00  0.00    -0.388 OA
ATOM     11  C   UNL d   1      -0.915  -1.759  -2.649  0.00  0.00     0.198 C 
ATOM     12  C   UNL d   1      -1.923  -1.799  -1.499  0.00  0.00     0.302 C 
ENDBRANCH   3   7
BRANCH   1  13
ATOM     13  O   UNL d   1       1.795  -2.167   0.789  0.00  0.00    -0.309 OA
BRANCH  13  14
ATOM     14  C   UNL d   1       1.781  -2.247   2.146  0.00  0.00     0.255 C 
ATOM     15  O   UNL d   1       1.185  -1.488   2.886  0.00  0.00    -0.266 OA
ATOM     16  C   UNL d   1       2.603  -3.413   2.612  0.00  0.00     0.126 C 
ENDBRANCH  13  14
ENDBRANCH   1  13
BRANCH   2  17
ATOM     17  O   UNL d   1       3.137   0.334  -0.197  0.00  0.00    -0.311 OA
BRANCH  17  18
ATOM     18  C   UNL d   1       3.250   0.329  -1.555  0.00  0.00     0.255 C 
ATOM     19  O   UNL d   1       2.321   0.207  -2.344  0.00  0.00    -0.266 OA
ATOM     20  C   UNL d   1       4.662   0.573  -1.982  0.00  0.00     0.126 C 
ENDBRANCH  17  18
ENDBRANCH   2  17
BRANCH   6  21
ATOM     21  C   UNL d   1      -1.360   2.531   0.018  0.00  0.00     0.213 C 
BRANCH  21  22
ATOM     22  O   UNL d   1      -1.367   2.592  -1.427  0.00  0.00    -0.319 OA
BRANCH  22  23
ATOM     23  C   UNL d   1      -2.542   2.297  -2.045  0.00  0.00     0.254 C 
ATOM     24  O   UNL d   1      -3.613   2.089  -1.491  0.00  0.00    -0.266 OA
ATOM     25  C   UNL d   1      -2.377   2.299  -3.536  0.00  0.00     0.126 C 
ENDBRANCH  22  23
ENDBRANCH  21  22
ENDBRANCH   6  21
BRANCH   5  26
ATOM     26  O   UNL d   1       1.611   2.755   0.395  0.00  0.00    -0.311 OA
BRANCH  26  27
ATOM     27  C   UNL d   1       1.731   3.075   1.707  0.00  0.00     0.255 C 
ATOM     28  O   UNL d   1       1.314   2.398   2.634  0.00  0.00    -0.266 OA
ATOM     29  C   UNL d   1       2.434   4.385   1.877  0.00  0.00     0.126 C 
ENDBRANCH  26  27
ENDBRANCH   5  26
TORSDOF 10
