REMARK  4 active torsions:
REMARK  status: ('A' for Active; 'I' for Inactive)
REMARK    1  A    between atoms: C_6  and  C_3 
REMARK    2  A    between atoms: C_7  and  C_6 
REMARK    3  A    between atoms: C_8  and  C_7 
REMARK    4  A    between atoms: O_18  and  C_13 
ROOT
ATOM      1  C   UNL d   1       0.937  -2.646   1.155  0.00  0.00     0.121 C 
ENDROOT
BRANCH   1   2
ATOM      2  C   UNL d   1       0.721  -1.763  -0.067  0.00  0.00     0.173 A 
ATOM      3  O   UNL d   1       0.427  -2.572  -1.229  0.00  0.00    -0.307 OA
ATOM      4  C   UNL d   1       1.258  -2.288  -2.277  0.00  0.00     0.294 A 
ATOM      5  C   UNL d   1       2.157  -1.235  -1.824  0.00  0.00     0.048 A 
ATOM      6  O   UNL d   1       1.237  -2.810  -3.374  0.00  0.00    -0.259 OA
ATOM      7  C   UNL d   1       1.855  -0.922  -0.514  0.00  0.00    -0.012 A 
ATOM      8  C   UNL d   1       3.159  -0.598  -2.535  0.00  0.00     0.018 A 
ATOM      9  C   UNL d   1       2.555   0.074   0.145  0.00  0.00     0.011 A 
ATOM     10  C   UNL d   1       3.571   0.741  -0.550  0.00  0.00     0.001 A 
ATOM     11  C   UNL d   1       3.874   0.406  -1.882  0.00  0.00     0.001 A 
ENDBRANCH   1   2
BRANCH   1  12
ATOM     12  C   UNL d   1       2.128  -3.576   1.025  0.00  0.00     0.162 C 
ATOM     13  O   UNL d   1       3.248  -3.193   1.363  0.00  0.00    -0.292 OA
BRANCH  12  14
ATOM     14  C   UNL d   1       1.952  -4.977   0.523  0.00  0.00     0.010 A 
ATOM     15  C   UNL d   1       0.722  -5.479   0.086  0.00  0.00     0.018 A 
ATOM     16  C   UNL d   1       0.596  -6.820  -0.302  0.00  0.00     0.037 A 
ATOM     17  C   UNL d   1       1.698  -7.672  -0.268  0.00  0.00     0.068 A 
ATOM     18  C   UNL d   1       2.936  -7.164   0.125  0.00  0.00     0.037 A 
ATOM     19  C   UNL d   1       3.065  -5.828   0.520  0.00  0.00     0.018 A 
BRANCH  17  20
ATOM     20  O   UNL d   1       1.690  -9.001  -0.592  0.00  0.00    -0.356 OA
ATOM     21  C   UNL d   1       0.427  -9.573  -0.913  0.00  0.00     0.210 C 
ENDBRANCH  17  20
ENDBRANCH  12  14
ENDBRANCH   1  12
TORSDOF 4
