REMARK  1 active torsions:
REMARK  status: ('A' for Active; 'I' for Inactive)
REMARK    1  A    between atoms: C_6  and  C_3 
ROOT
ATOM      1  N   UNL d   1      -0.965   0.110   0.595  0.00  0.00    -0.300 N 
ATOM      2  HN  UNL d   1      -1.851   0.141   1.099  1.00  0.00     0.187 HD
ATOM      3  C   UNL d   1      -0.323   1.130  -0.001  0.00  0.00     0.059 A 
ATOM      4  N   UNL d   1      -0.182  -0.957   0.378  0.00  0.00    -0.311 N 
ATOM      5  C   UNL d   1       0.897   0.678  -0.576  0.00  0.00     0.050 A 
ATOM      6  C   UNL d   1       0.956  -0.668  -0.311  0.00  0.00     0.109 A 
ATOM      7  H   UNL d   1      -0.487  -1.856   0.737  0.00  0.00     0.186 HD
ENDROOT
BRANCH   3   8
ATOM      8  C   UNL d   1      -0.862   2.491   0.004  0.00  0.00    -0.008 A 
ATOM      9  C   UNL d   1      -1.700   2.921   1.044  0.00  0.00     0.015 A 
ATOM     10  C   UNL d   1      -2.190   4.231   1.070  0.00  0.00     0.024 A 
ATOM     11  C   UNL d   1      -1.853   5.115   0.048  0.00  0.00     0.034 A 
ATOM     12  C   UNL d   1      -1.038   4.700  -1.002  0.00  0.00     0.024 A 
ATOM     13 CL   UNL d   1      -2.446   6.729   0.081  0.00  0.00    -0.084 Cl
ATOM     14  C   UNL d   1      -0.543   3.392  -1.024  0.00  0.00     0.015 A 
ENDBRANCH   3   8
TORSDOF 1
