REMARK  3 active torsions:
REMARK  status: ('A' for Active; 'I' for Inactive)
REMARK    1  A    between atoms: C_3  and  N_1 
REMARK    2  A    between atoms: C_2  and  C_5 
REMARK       I    between atoms: N_4  and  C_2 
REMARK    3  A    between atoms: C_9  and  N_4 
ROOT
ATOM      1  C   UNL d   1       0.268  -4.463  -1.931  0.00  0.00     0.256 C 
ATOM      2  N   UNL d   1      -0.134  -5.189  -3.039  0.00  0.00    -0.323 N 
ATOM      3  O   UNL d   1       0.969  -4.890  -1.018  0.00  0.00    -0.267 OA
ATOM      4  H   UNL d   1      -0.609  -4.701  -3.785  0.00  0.00     0.169 HD
ENDROOT
BRANCH   1   5
ATOM      5  C   UNL d   1      -0.149  -3.027  -1.853  0.00  0.00     0.034 A 
ATOM      6  C   UNL d   1       0.514  -2.217  -0.915  0.00  0.00     0.053 A 
ATOM      7  C   UNL d   1       0.158  -0.871  -0.769  0.00  0.00     0.103 A 
ATOM      8  C   UNL d   1      -0.854  -0.316  -1.559  0.00  0.00     0.036 A 
ATOM      9  C   UNL d   1      -1.516  -1.118  -2.489  0.00  0.00     0.003 A 
ATOM     10  C   UNL d   1      -1.173  -2.469  -2.634  0.00  0.00     0.017 A 
BRANCH   7  11
ATOM     11  N   UNL d   1       0.847  -0.041   0.230  0.00  0.00    -0.116 N 
ATOM     12  O   UNL d   1       1.718  -0.577   0.927  0.00  0.00    -0.532 OA
ATOM     13  O   UNL d   1       0.514   1.151   0.310  0.00  0.00    -0.532 OA
ENDBRANCH   7  11
ENDBRANCH   1   5
BRANCH   2  14
ATOM     14  C   UNL d   1       0.182  -6.544  -3.310  0.00  0.00     0.037 A 
ATOM     15  C   UNL d   1       0.818  -7.391  -2.401  0.00  0.00     0.071 A 
ATOM     16  C   UNL d   1       1.141  -8.694  -2.771  0.00  0.00     0.118 A 
ATOM     17  F   UNL d   1       1.765  -9.492  -1.894  0.00  0.00    -0.206 F 
ATOM     18  C   UNL d   1       0.834  -9.182  -4.034  0.00  0.00     0.042 A 
ATOM     19  C   UNL d   1       0.174  -8.357  -4.939  0.00  0.00     0.005 A 
ATOM     20  C   UNL d   1      -0.157  -7.046  -4.576  0.00  0.00     0.029 A 
ENDBRANCH   2  14
TORSDOF 3
