REMARK  4 active torsions:
REMARK  status: ('A' for Active; 'I' for Inactive)
REMARK    1  A    between atoms: C_2  and  C_1 
REMARK       I    between atoms: N_11  and  C_2 
REMARK       I    between atoms: C_9  and  N_8 
REMARK    2  A    between atoms: O_19  and  C_9 
REMARK    3  A    between atoms: C_16  and  N_11 
REMARK    4  A    between atoms: C_21  and  O_19 
ROOT
ATOM      1  C   UNL d   1      -0.187  -2.434   0.617  0.00  0.00     0.262 C 
ATOM      2  N   UNL d   1       0.685  -3.220  -0.118  0.00  0.00    -0.352 N 
ATOM      3  O   UNL d   1       0.181  -1.420   1.195  0.00  0.00    -0.267 OA
ATOM      4  H   UNL d   1       0.303  -4.107  -0.419  0.00  0.00     0.163 HD
ENDROOT
BRANCH   2   5
ATOM      5  C   UNL d   1       2.149  -3.151  -0.075  0.00  0.00     0.087 C 
ATOM      6  C   UNL d   1       2.773  -1.748  -0.110  0.00  0.00     0.045 C 
ATOM      7  C   UNL d   1       2.562  -1.070  -1.452  0.00  0.00     0.130 C 
ATOM      8  N   UNL d   1       3.078  -1.911  -2.523  0.00  0.00    -0.328 N 
ATOM      9  C   UNL d   1       2.547  -3.268  -2.582  0.00  0.00     0.130 C 
ATOM     10  C   UNL d   1       3.796  -1.329  -3.550  0.00  0.00     0.362 C 
ATOM     11  C   UNL d   1       2.724  -3.981  -1.240  0.00  0.00     0.045 C 
ATOM     12  O   UNL d   1       4.094  -0.141  -3.591  0.00  0.00    -0.238 OA
BRANCH  10  13
ATOM     13  O   UNL d   1       4.117  -2.221  -4.525  0.00  0.00    -0.304 OA
BRANCH  13  14
ATOM     14  C   UNL d   1       4.659  -1.659  -5.727  0.00  0.00     0.176 C 
ATOM     15  C   UNL d   1       3.507  -1.291  -6.643  0.00  0.00     0.034 C 
ENDBRANCH  13  14
ENDBRANCH  10  13
ENDBRANCH   2   5
BRANCH   1  16
ATOM     16  C   UNL d   1      -1.562  -2.893   0.647  0.00  0.00     0.114 A 
ATOM     17  C   UNL d   1      -2.720  -2.259   1.088  0.00  0.00     0.046 A 
ATOM     18  N   UNL d   1      -3.874  -3.035   0.995  0.00  0.00    -0.298 N 
ATOM     19  C   UNL d   1      -2.885  -0.883   1.620  0.00  0.00     0.071 C 
ATOM     20  N   UNL d   1      -3.632  -4.233   0.499  0.00  0.00    -0.269 N 
ATOM     21  HN  UNL d   1      -4.800  -2.713   1.279  1.00  0.00     0.187 HD
ATOM     22  S   UNL d   1      -2.028  -4.462   0.126  0.00  0.00     0.009 SA
ATOM     23  HN  UNL d   1      -4.352  -4.943   0.359  1.00  0.00     0.195 HD
ENDBRANCH   1  16
TORSDOF 4
