REMARK  7 active torsions:
REMARK  status: ('A' for Active; 'I' for Inactive)
REMARK       I    between atoms: N_3  and  C_1 
REMARK    1  A    between atoms: C_9  and  C_1 
REMARK    2  A    between atoms: O_6  and  C_2 
REMARK    3  A    between atoms: C_5  and  N_3 
REMARK    4  A    between atoms: C_4  and  O_12 
REMARK    5  A    between atoms: C_21  and  O_6 
REMARK    6  A    between atoms: C_10  and  C_11 
REMARK    7  A    between atoms: O_12  and  C_22 
ROOT
ATOM      1  C   UNL d   1       0.708   1.736  -3.039  0.00  0.00     0.175 A 
ATOM      2  C   UNL d   1       1.127   0.629  -2.295  0.00  0.00     0.087 A 
ATOM      3  N   UNL d   1       1.443   2.264  -4.056  0.00  0.00    -0.345 N 
ATOM      4  HN  UNL d   1       1.147   3.111  -4.541  1.00  0.00     0.167 HD
ATOM      5  C   UNL d   1       2.325   0.010  -2.661  0.00  0.00     0.035 A 
ATOM      6  C   UNL d   1       2.578   1.622  -4.398  0.00  0.00     0.090 A 
ATOM      7  C   UNL d   1       3.049   0.497  -3.747  0.00  0.00     0.019 A 
ENDROOT
BRANCH   2   8
ATOM      8  N   UNL d   1       0.435   0.124  -1.168  0.00  0.00    -0.319 N 
ATOM      9  C   UNL d   1      -0.670  -0.699  -1.358  0.00  0.00     0.256 C 
ATOM     10  O   UNL d   1      -1.197  -0.947  -2.434  0.00  0.00    -0.267 OA
ATOM     11  H   UNL d   1       1.033  -0.206  -0.420  0.00  0.00     0.169 HD
BRANCH   9  12
ATOM     12  C   UNL d   1      -1.111  -1.418  -0.127  0.00  0.00     0.032 A 
ATOM     13  C   UNL d   1      -1.135  -0.779   1.121  0.00  0.00     0.020 A 
ATOM     14  C   UNL d   1      -1.499  -1.491   2.272  0.00  0.00     0.038 A 
ATOM     15  C   UNL d   1      -1.815  -2.846   2.196  0.00  0.00     0.078 A 
ATOM     16  C   UNL d   1      -1.832  -3.469   0.940  0.00  0.00     0.038 A 
ATOM     17  C   UNL d   1      -1.484  -2.762  -0.216  0.00  0.00     0.020 A 
BRANCH  15  18
ATOM     18  O   UNL d   1      -2.125  -3.675   3.234  0.00  0.00    -0.255 OA
BRANCH  18  19
ATOM     19  C   UNL d   1      -1.850  -3.234   4.554  0.00  0.00     0.530 C 
ATOM     20  F   UNL d   1      -0.650  -2.618   4.647  0.00  0.00    -0.144 F 
ATOM     21  F   UNL d   1      -2.817  -2.398   4.987  0.00  0.00    -0.144 F 
ATOM     22  F   UNL d   1      -1.823  -4.312   5.369  0.00  0.00    -0.144 F 
ENDBRANCH  18  19
ENDBRANCH  15  18
ENDBRANCH   9  12
ENDBRANCH   2   8
BRANCH   1  23
ATOM     23  O   UNL d   1      -0.441   2.413  -2.644  0.00  0.00    -0.292 OA
BRANCH  23  24
ATOM     24  C   UNL d   1      -1.163   3.054  -3.629  0.00  0.00     0.077 A 
ATOM     25  C   UNL d   1      -1.387   2.497  -4.885  0.00  0.00     0.038 A 
ATOM     26  C   UNL d   1      -2.165   3.173  -5.828  0.00  0.00     0.011 A 
ATOM     27  C   UNL d   1      -2.783   4.403  -5.532  0.00  0.00    -0.050 A 
ATOM     28  C   UNL d   1      -2.555   4.944  -4.254  0.00  0.00     0.011 A 
ATOM     29  C   UNL d   1      -1.758   4.274  -3.311  0.00  0.00     0.038 A 
BRANCH  27  30
ATOM     30  C   UNL d   1      -3.689   5.067  -6.584  0.00  0.00    -0.024 C 
ATOM     31  C   UNL d   1      -4.380   6.359  -6.095  0.00  0.00     0.019 C 
ATOM     32  C   UNL d   1      -2.863   5.434  -7.836  0.00  0.00     0.019 C 
ATOM     33  C   UNL d   1      -4.809   4.080  -6.987  0.00  0.00     0.019 C 
ENDBRANCH  27  30
ENDBRANCH  23  24
ENDBRANCH   1  23
TORSDOF 7
