REMARK  6 active torsions:
REMARK  status: ('A' for Active; 'I' for Inactive)
REMARK    1  A    between atoms: C_2  and  S_1 
REMARK    2  A    between atoms: N_7  and  S_1 
REMARK    3  A    between atoms: C_10  and  C_4 
REMARK    4  A    between atoms: C_8  and  N_7 
REMARK    5  A    between atoms: O_17  and  C_10 
REMARK    6  A    between atoms: C_21  and  O_17 
ROOT
ATOM      1  S   UNL d   1       1.007   0.041  -0.047  0.00  0.00     0.244 S 
ATOM      2  O   UNL d   1       2.446   0.041  -0.133  0.00  0.00    -0.206 OA
ATOM      3  O   UNL d   1       0.176  -0.434  -1.131  0.00  0.00    -0.206 OA
ENDROOT
BRANCH   1   4
ATOM      4  C   UNL d   1       0.537   1.713   0.145  0.00  0.00     0.105 A 
ATOM      5  C   UNL d   1       1.381   2.881   0.192  0.00  0.00    -0.004 A 
ATOM      6  C   UNL d   1       0.533   3.988   0.267  0.00  0.00     0.116 A 
ATOM      7  C   UNL d   1       2.869   2.979   0.140  0.00  0.00     0.052 C 
ATOM      8  N   UNL d   1      -0.758   3.514   0.287  0.00  0.00    -0.353 N 
ATOM      9  C   UNL d   1      -0.779   2.147   0.246  0.00  0.00     0.029 A 
ATOM     10  H   UNL d   1      -1.570   4.117   0.325  0.00  0.00     0.166 HD
ATOM     11  C   UNL d   1      -2.062   1.397   0.272  0.00  0.00     0.070 C 
BRANCH   6  12
ATOM     12  C   UNL d   1       0.868   5.395   0.336  0.00  0.00     0.310 C 
ATOM     13  O   UNL d   1       1.996   5.866   0.352  0.00  0.00    -0.258 OA
BRANCH  12  14
ATOM     14  O   UNL d   1      -0.282   6.124   0.444  0.00  0.00    -0.317 OA
BRANCH  14  15
ATOM     15  C   UNL d   1      -0.098   7.511   0.765  0.00  0.00     0.175 C 
ATOM     16  C   UNL d   1      -0.071   7.660   2.276  0.00  0.00     0.034 C 
ENDBRANCH  14  15
ENDBRANCH  12  14
ENDBRANCH   6  12
ENDBRANCH   1   4
BRANCH   1  17
ATOM     17  N   UNL d   1       0.530  -0.824   1.337  0.00  0.00    -0.202 NA
ATOM     18  H   UNL d   1       0.431  -1.800   1.032  0.00  0.00     0.141 HD
BRANCH  17  19
ATOM     19  C   UNL d   1       1.453  -0.747   2.512  0.00  0.00     0.163 C 
ATOM     20  C   UNL d   1       2.695  -1.602   2.222  0.00  0.00     0.236 C 
ATOM     21  N   UNL d   1       3.789  -1.426   3.022  0.00  0.00    -0.360 N 
ATOM     22  O   UNL d   1       2.702  -2.481   1.362  0.00  0.00    -0.272 OA
ATOM     23  C   UNL d   1       3.788  -0.740   4.290  0.00  0.00     0.122 C 
ATOM     24  H   UNL d   1       4.555  -2.048   2.797  0.00  0.00     0.162 HD
ATOM     25  C   UNL d   1       2.832  -1.401   5.276  0.00  0.00     0.020 C 
ATOM     26  C   UNL d   1       1.369  -0.988   5.080  0.00  0.00     0.004 C 
ATOM     27  C   UNL d   1       0.738  -1.346   3.729  0.00  0.00     0.030 C 
ENDBRANCH  17  19
ENDBRANCH   1  17
TORSDOF 6
