REMARK  5 active torsions:
REMARK  status: ('A' for Active; 'I' for Inactive)
REMARK    1  A    between atoms: C_8  and  N_1 
REMARK    2  A    between atoms: S_10  and  C_2 
REMARK    3  A    between atoms: C_21  and  S_10 
REMARK    4  A    between atoms: C_13  and  C_21 
REMARK    5  A    between atoms: O_20  and  C_16 
ROOT
ATOM      1  N   UNL d   1       2.445  -0.680  -0.056  0.00  0.00    -0.258 N 
ATOM      2  C   UNL d   1       2.391   0.714  -0.021  0.00  0.00     0.155 A 
ATOM      3  C   UNL d   1       1.258  -1.428   0.000  0.00  0.00     0.266 A 
ATOM      4  N   UNL d   1       1.286   1.392   0.016  0.00  0.00    -0.335 N 
ATOM      5  HN  UNL d   1       1.307   2.411   0.051  1.00  0.00     0.168 HD
ATOM      6  C   UNL d   1      -0.003  -0.677   0.003  0.00  0.00     0.059 A 
ATOM      7  C   UNL d   1       0.068   0.710   0.009  0.00  0.00     0.049 A 
ATOM      8  O   UNL d   1       1.182  -2.652   0.088  0.00  0.00    -0.267 OA
ATOM      9  C   UNL d   1      -1.234  -1.344   0.001  0.00  0.00     0.019 A 
ATOM     10  C   UNL d   1      -1.122   1.437  -0.012  0.00  0.00     0.030 A 
ATOM     11  C   UNL d   1      -2.416  -0.609  -0.017  0.00  0.00     0.001 A 
ATOM     12  C   UNL d   1      -2.359   0.784  -0.028  0.00  0.00     0.002 A 
ENDROOT
BRANCH   1  13
ATOM     13  C   UNL d   1       3.650  -1.452  -0.052  0.00  0.00     0.045 A 
ATOM     14  C   UNL d   1       3.813  -2.470  -1.003  0.00  0.00     0.033 A 
ATOM     15  C   UNL d   1       4.862  -3.384  -0.898  0.00  0.00     0.039 A 
ATOM     16  C   UNL d   1       5.759  -3.308   0.164  0.00  0.00     0.068 A 
ATOM     17  C   UNL d   1       5.639  -2.267   1.087  0.00  0.00     0.039 A 
ATOM     18  C   UNL d   1       4.590  -1.341   0.980  0.00  0.00     0.033 A 
BRANCH  16  19
ATOM     19  O   UNL d   1       6.686  -4.312   0.196  0.00  0.00    -0.356 OA
ATOM     20  C   UNL d   1       7.433  -4.455   1.396  0.00  0.00     0.210 C 
ENDBRANCH  16  19
ENDBRANCH   1  13
BRANCH   2  21
ATOM     21  S   UNL d   1       3.882   1.649  -0.146  0.00  0.00    -0.089 SA
BRANCH  21  22
ATOM     22  C   UNL d   1       3.320   3.248   0.508  0.00  0.00     0.108 C 
BRANCH  22  23
ATOM     23  C   UNL d   1       4.434   4.250   0.430  0.00  0.00    -0.026 C 
ATOM     24  C   UNL d   1       5.020   4.823   1.491  0.00  0.00     0.007 C 
ENDBRANCH  22  23
ENDBRANCH  21  22
ENDBRANCH   2  21
TORSDOF 5
