REMARK  6 active torsions:
REMARK  status: ('A' for Active; 'I' for Inactive)
REMARK    1  A    between atoms: C_9  and  C_1 
REMARK    2  A    between atoms: C_5  and  C_4 
REMARK    3  A    between atoms: O_17  and  C_5 
REMARK    4  A    between atoms: S_10  and  C_9 
REMARK    5  A    between atoms: C_14  and  S_10 
REMARK    6  A    between atoms: C_23  and  O_17 
ROOT
ATOM      1  C   UNL d   1       1.180  -1.400   0.014  0.00  0.00    -0.013 A 
ATOM      2  C   UNL d   1       0.011   0.749   0.112  0.00  0.00     0.001 A 
ATOM      3  C   UNL d   1      -0.013  -0.654   0.081  0.00  0.00     0.087 A 
ATOM      4  C   UNL d   1       2.432   0.711   0.023  0.00  0.00     0.040 A 
ATOM      5  C   UNL d   1       1.236   1.424   0.115  0.00  0.00     0.029 A 
ATOM      6  C   UNL d   1       2.396  -0.690  -0.049  0.00  0.00     0.028 A 
ATOM      7  O   UNL d   1      -1.200  -1.341   0.076  0.00  0.00    -0.325 OA
ATOM      8  O   UNL d   1      -2.351   0.716  -0.296  0.00  0.00    -0.362 OA
ATOM      9  C   UNL d   1      -2.331  -0.526   0.392  0.00  0.00     0.345 C 
ATOM     10  C   UNL d   1      -1.272   1.524   0.152  0.00  0.00     0.212 C 
ENDROOT
BRANCH   1  11
ATOM     11  C   UNL d   1       1.152  -2.920  -0.077  0.00  0.00     0.121 C 
BRANCH  11  12
ATOM     12  S   UNL d   1       2.534  -3.721   0.834  0.00  0.00    -0.125 SA
BRANCH  12  13
ATOM     13  C   UNL d   1       2.362  -5.450   0.431  0.00  0.00     0.001 A 
ATOM     14  C   UNL d   1       3.537  -6.191   0.232  0.00  0.00     0.020 A 
ATOM     15  C   UNL d   1       3.491  -7.577   0.053  0.00  0.00     0.025 A 
ATOM     16  C   UNL d   1       2.263  -8.232   0.075  0.00  0.00     0.034 A 
ATOM     17  C   UNL d   1       1.086  -7.509   0.253  0.00  0.00     0.025 A 
ATOM     18 CL   UNL d   1       2.204  -9.943  -0.083  0.00  0.00    -0.084 Cl
ATOM     19  C   UNL d   1       1.135  -6.120   0.432  0.00  0.00     0.020 A 
ENDBRANCH  12  13
ENDBRANCH  11  12
ENDBRANCH   1  11
BRANCH   4  20
ATOM     20  C   UNL d   1       3.700   1.482  -0.064  0.00  0.00     0.293 C 
ATOM     21  O   UNL d   1       3.744   2.702  -0.055  0.00  0.00    -0.259 OA
BRANCH  20  22
ATOM     22  O   UNL d   1       4.750   0.644  -0.236  0.00  0.00    -0.318 OA
BRANCH  22  23
ATOM     23  C   UNL d   1       5.970   1.261  -0.663  0.00  0.00     0.174 C 
ATOM     24  C   UNL d   1       5.973   1.297  -2.180  0.00  0.00     0.034 C 
ENDBRANCH  22  23
ENDBRANCH  20  22
ENDBRANCH   4  20
TORSDOF 6
