REMARK  4 active torsions:
REMARK  status: ('A' for Active; 'I' for Inactive)
REMARK    1  A    between atoms: N_5  and  C_1 
REMARK       I    between atoms: C_2  and  N_5 
REMARK       I    between atoms: N_7  and  C_2 
REMARK    2  A    between atoms: C_4  and  C_8 
REMARK    3  A    between atoms: C_16  and  C_6 
REMARK    4  A    between atoms: C_13  and  N_7 
ROOT
ATOM      1  C   UNL d   1       0.955   3.483  -0.277  0.00  0.00     0.326 C 
ATOM      2  N   UNL d   1       0.015   2.477  -0.223  0.00  0.00    -0.303 N 
ATOM      3  N   UNL d   1       2.174   3.214   0.263  0.00  0.00    -0.294 N 
ATOM      4  O   UNL d   1       0.602   4.551  -0.771  0.00  0.00    -0.247 OA
ATOM      5  H   UNL d   1      -0.889   2.816  -0.530  0.00  0.00     0.171 HD
ATOM      6  H   UNL d   1       2.353   2.247   0.460  0.00  0.00     0.172 HD
ENDROOT
BRANCH   2   7
ATOM      7  C   UNL d   1       0.040   1.240   0.393  0.00  0.00     0.078 C 
ATOM      8  S   UNL d   1       1.483   0.464   0.828  0.00  0.00    -0.072 SA
ATOM      9  C   UNL d   1       0.679  -0.778   1.681  0.00  0.00     0.017 C 
ATOM     10  C   UNL d   1      -0.687  -0.686   1.478  0.00  0.00     0.022 C 
ATOM     11  C   UNL d   1      -1.054   0.465   0.709  0.00  0.00     0.039 C 
BRANCH   9  12
ATOM     12  C   UNL d   1       1.440  -1.714   2.526  0.00  0.00    -0.019 A 
ATOM     13  C   UNL d   1       0.870  -2.179   3.721  0.00  0.00     0.013 A 
ATOM     14  C   UNL d   1       1.575  -3.039   4.566  0.00  0.00     0.001 A 
ATOM     15  C   UNL d   1       2.863  -3.445   4.231  0.00  0.00     0.000 A 
ATOM     16  C   UNL d   1       3.449  -2.991   3.053  0.00  0.00     0.001 A 
ATOM     17  C   UNL d   1       2.741  -2.134   2.205  0.00  0.00     0.013 A 
ENDBRANCH   9  12
ENDBRANCH   2   7
BRANCH   3  18
ATOM     18  C   UNL d   1       3.137   4.125   0.690  0.00  0.00     0.108 A 
ATOM     19  N   UNL d   1       2.914   5.448   0.646  0.00  0.00    -0.351 N 
ATOM     20  C   UNL d   1       3.809   6.263   1.250  0.00  0.00     0.106 A 
ATOM     21  HN  UNL d   1       2.094   5.827   0.173  1.00  0.00     0.166 HD
ATOM     22  C   UNL d   1       4.940   5.814   1.913  0.00  0.00     0.063 A 
ATOM     23  C   UNL d   1       5.194   4.443   1.891  0.00  0.00     0.021 A 
ATOM     24  C   UNL d   1       4.283   3.588   1.275  0.00  0.00     0.049 A 
BRANCH  22  25
ATOM     25  C   UNL d   1       5.815   6.763   2.669  0.00  0.00     0.418 C 
ATOM     26  F   UNL d   1       5.362   8.046   2.670  0.00  0.00    -0.166 F 
ATOM     27  F   UNL d   1       5.935   6.412   3.980  0.00  0.00    -0.166 F 
ATOM     28  F   UNL d   1       7.084   6.811   2.180  0.00  0.00    -0.166 F 
ENDBRANCH  22  25
ENDBRANCH   3  18
TORSDOF 4
