REMARK  4 active torsions:
REMARK  status: ('A' for Active; 'I' for Inactive)
REMARK    1  A    between atoms: C_11  and  C_1 
REMARK    2  A    between atoms: O_7  and  C_3 
REMARK    3  A    between atoms: C_8  and  O_7 
REMARK    4  A    between atoms: C_9  and  C_8 
ROOT
ATOM      1  C   UNL d   1      -1.213   2.532   0.041  0.00  0.00     0.077 C 
ATOM      2  C   UNL d   1       0.269   2.394   0.237  0.00  0.00     0.262 C 
ATOM      3  C   UNL d   1      -1.972   1.427  -0.122  0.00  0.00     0.108 C 
ATOM      4  N   UNL d   1       0.822   1.126   0.117  0.00  0.00    -0.312 N 
ATOM      5  C   UNL d   1      -1.373   0.084  -0.095  0.00  0.00     0.026 A 
ATOM      6  C   UNL d   1       0.025  -0.040   0.018  0.00  0.00     0.057 A 
ATOM      7  O   UNL d   1       0.955   3.394   0.455  0.00  0.00    -0.267 OA
ATOM      8  C   UNL d   1       0.620  -1.315   0.047  0.00  0.00    -0.030 A 
ATOM      9  C   UNL d   1       2.264   1.016   0.284  0.00  0.00     0.133 C 
ATOM     10  C   UNL d   1      -2.162  -1.075  -0.151  0.00  0.00     0.017 A 
ATOM     11  C   UNL d   1       2.863  -0.265  -0.271  0.00  0.00     0.025 C 
ATOM     12  C   UNL d   1      -1.573  -2.338  -0.104  0.00  0.00     0.002 A 
ATOM     13  C   UNL d   1      -0.190  -2.459  -0.005  0.00  0.00     0.009 A 
ATOM     14  C   UNL d   1       2.104  -1.481   0.225  0.00  0.00     0.042 C 
ENDROOT
BRANCH   3  15
ATOM     15  O   UNL d   1      -3.332   1.495  -0.490  0.00  0.00    -0.271 OA
BRANCH  15  16
ATOM     16  C   UNL d   1      -4.199   1.883   0.503  0.00  0.00     0.322 C 
ATOM     17  O   UNL d   1      -3.973   1.809   1.706  0.00  0.00    -0.257 OA
BRANCH  16  18
ATOM     18  C   UNL d   1      -5.393   2.415  -0.117  0.00  0.00     0.150 A 
ATOM     19  O   UNL d   1      -6.299   3.083   0.665  0.00  0.00    -0.317 OA
ATOM     20  C   UNL d   1      -7.270   3.559  -0.155  0.00  0.00     0.143 A 
ATOM     21  C   UNL d   1      -7.030   3.187  -1.455  0.00  0.00     0.027 A 
ATOM     22  C   UNL d   1      -5.827   2.442  -1.433  0.00  0.00     0.045 A 
ENDBRANCH  16  18
ENDBRANCH  15  16
ENDBRANCH   3  15
BRANCH   1  23
ATOM     23  C   UNL d   1      -1.780   3.890  -0.008  0.00  0.00    -0.018 A 
ATOM     24  C   UNL d   1      -2.218   4.512   1.171  0.00  0.00     0.012 A 
ATOM     25  C   UNL d   1      -2.690   5.824   1.143  0.00  0.00     0.001 A 
ATOM     26  C   UNL d   1      -2.722   6.526  -0.061  0.00  0.00     0.000 A 
ATOM     27  C   UNL d   1      -2.299   5.912  -1.239  0.00  0.00     0.001 A 
ATOM     28  C   UNL d   1      -1.831   4.596  -1.215  0.00  0.00     0.012 A 
ENDBRANCH   1  23
TORSDOF 4
