REMARK  6 active torsions:
REMARK  status: ('A' for Active; 'I' for Inactive)
REMARK    1  A    between atoms: C_4  and  C_1 
REMARK    2  A    between atoms: C_2  and  C_3 
REMARK    3  A    between atoms: C_7  and  C_6 
REMARK    4  A    between atoms: C_11  and  C_7 
REMARK    5  A    between atoms: C_8  and  N_14 
REMARK    6  A    between atoms: N_14  and  C_12 
ROOT
ATOM      1  C   UNL d   1       0.927   1.123  -1.111  0.00  0.00     0.050 A 
ATOM      2  C   UNL d   1       0.300   3.456  -0.796  0.00  0.00     0.050 A 
ATOM      3  C   UNL d   1       1.083   2.346  -0.446  0.00  0.00     0.032 A 
ATOM      4  C   UNL d   1      -0.643   3.325  -1.833  0.00  0.00     0.045 A 
ATOM      5  C   UNL d   1      -0.035   1.021  -2.132  0.00  0.00     0.045 A 
ATOM      6  C   UNL d   1      -0.821   2.113  -2.519  0.00  0.00     0.033 A 
ENDROOT
BRANCH   6   7
ATOM      7  N   UNL d   1      -1.826   2.020  -3.500  0.00  0.00    -0.366 N 
ATOM      8  H   UNL d   1      -2.118   2.896  -3.919  0.00  0.00     0.165 HD
BRANCH   7   9
ATOM      9  C   UNL d   1      -2.458   0.883  -3.943  0.00  0.00     0.092 C 
ATOM     10  C   UNL d   1      -3.341   0.774  -4.947  0.00  0.00     0.072 C 
BRANCH  10  11
ATOM     11  C   UNL d   1      -3.973  -0.551  -5.204  0.00  0.00     0.183 C 
ATOM     12  O   UNL d   1      -3.744  -1.524  -4.491  0.00  0.00    -0.288 OA
BRANCH  11  13
ATOM     13  C   UNL d   1      -4.948  -0.684  -6.321  0.00  0.00     0.014 A 
ATOM     14  C   UNL d   1      -4.874   0.077  -7.494  0.00  0.00     0.017 A 
ATOM     15  C   UNL d   1      -5.813  -0.119  -8.515  0.00  0.00     0.025 A 
ATOM     16  C   UNL d   1      -6.818  -1.074  -8.368  0.00  0.00     0.034 A 
ATOM     17  C   UNL d   1      -6.894  -1.845  -7.211  0.00  0.00     0.025 A 
ATOM     18 CL   UNL d   1      -7.965  -1.310  -9.628  0.00  0.00    -0.084 Cl
ATOM     19  C   UNL d   1      -5.956  -1.653  -6.192  0.00  0.00     0.017 A 
ENDBRANCH  11  13
ENDBRANCH  10  11
ENDBRANCH   7   9
ENDBRANCH   6   7
BRANCH   1  20
ATOM     20  C   UNL d   1       1.771  -0.077  -0.757  0.00  0.00     0.417 C 
ATOM     21  F   UNL d   1       2.666   0.166   0.241  0.00  0.00    -0.166 F 
ATOM     22  F   UNL d   1       1.026  -1.136  -0.341  0.00  0.00    -0.166 F 
ATOM     23  F   UNL d   1       2.506  -0.524  -1.813  0.00  0.00    -0.166 F 
ENDBRANCH   1  20
BRANCH   2  24
ATOM     24  C   UNL d   1       0.453   4.774  -0.073  0.00  0.00     0.417 C 
ATOM     25  F   UNL d   1       1.417   4.759   0.888  0.00  0.00    -0.166 F 
ATOM     26  F   UNL d   1      -0.693   5.159   0.553  0.00  0.00    -0.166 F 
ATOM     27  F   UNL d   1       0.781   5.792  -0.915  0.00  0.00    -0.166 F 
ENDBRANCH   2  24
TORSDOF 6
