REMARK  2 active torsions:
REMARK  status: ('A' for Active; 'I' for Inactive)
REMARK    1  A    between atoms: C_10  and  N_2 
REMARK    2  A    between atoms: C_13  and  C_9 
ROOT
ATOM      1  C   UNL d   1      -0.225   0.665   0.082  0.00  0.00     0.068 A 
ATOM      2  N   UNL d   1       2.177   0.724   0.012  0.00  0.00    -0.229 N 
ATOM      3  C   UNL d   1      -0.121  -0.684  -0.012  0.00  0.00     0.094 A 
ATOM      4  C   UNL d   1       0.981   1.466   0.133  0.00  0.00     0.269 A 
ATOM      5  C   UNL d   1       2.239  -0.679  -0.126  0.00  0.00     0.335 A 
ATOM      6  N   UNL d   1       1.048  -1.365  -0.101  0.00  0.00    -0.301 N 
ATOM      7  C   UNL d   1      -1.598   1.056   0.089  0.00  0.00     0.039 A 
ATOM      8  S   UNL d   1      -1.574  -1.512  -0.024  0.00  0.00    -0.071 SA
ATOM      9  C   UNL d   1      -2.469  -0.027   0.022  0.00  0.00     0.018 A 
ATOM     10  O   UNL d   1       3.278  -1.335  -0.228  0.00  0.00    -0.246 OA
ATOM     11  O   UNL d   1       0.907   2.688   0.235  0.00  0.00    -0.266 OA
ATOM     12  H   UNL d   1       1.066  -2.374  -0.169  0.00  0.00     0.171 HD
ENDROOT
BRANCH   2  13
ATOM     13  C   UNL d   1       3.410   1.448   0.034  0.00  0.00     0.047 A 
ATOM     14  C   UNL d   1       4.350   1.288  -0.994  0.00  0.00     0.032 A 
ATOM     15  C   UNL d   1       5.544   2.014  -0.980  0.00  0.00     0.026 A 
ATOM     16  C   UNL d   1       5.821   2.873   0.081  0.00  0.00     0.034 A 
ATOM     17  C   UNL d   1       4.905   3.026   1.120  0.00  0.00     0.026 A 
ATOM     18 CL   UNL d   1       7.300   3.750   0.110  0.00  0.00    -0.084 Cl
ATOM     19  C   UNL d   1       3.695   2.329   1.088  0.00  0.00     0.032 A 
ENDBRANCH   2  13
BRANCH   9  20
ATOM     20  C   UNL d   1      -3.944  -0.031   0.011  0.00  0.00    -0.019 A 
ATOM     21  C   UNL d   1      -4.683  -1.050  -0.614  0.00  0.00     0.013 A 
ATOM     22  C   UNL d   1      -6.081  -1.030  -0.619  0.00  0.00     0.001 A 
ATOM     23  C   UNL d   1      -6.768   0.014  -0.009  0.00  0.00     0.000 A 
ATOM     24  C   UNL d   1      -6.053   1.040   0.609  0.00  0.00     0.001 A 
ATOM     25  C   UNL d   1      -4.656   1.017   0.619  0.00  0.00     0.013 A 
ENDBRANCH   9  20
TORSDOF 2
