REMARK  4 active torsions:
REMARK  status: ('A' for Active; 'I' for Inactive)
REMARK    1  A    between atoms: C_2  and  S_1 
REMARK    2  A    between atoms: N_7  and  S_1 
REMARK    3  A    between atoms: C_18  and  N_7 
REMARK    4  A    between atoms: C_13  and  C_18 
ROOT
ATOM      1  S   UNL d   1       0.988  -0.010  -0.014  0.00  0.00     0.248 S 
ATOM      2  O   UNL d   1       0.326  -1.119  -0.667  0.00  0.00    -0.205 OA
ATOM      3  O   UNL d   1       2.427   0.077   0.081  0.00  0.00    -0.205 OA
ENDROOT
BRANCH   1   4
ATOM      4  C   UNL d   1       0.435  -0.148   1.672  0.00  0.00     0.116 A 
ATOM      5  S   UNL d   1      -0.651   1.026   2.271  0.00  0.00    -0.074 SA
ATOM      6  C   UNL d   1      -0.754   0.269   3.809  0.00  0.00     0.042 A 
ATOM      7  C   UNL d   1      -1.574   0.802   4.866  0.00  0.00     0.117 A 
ATOM      8  C   UNL d   1       0.023  -0.873   3.852  0.00  0.00     0.024 A 
ATOM      9  O   UNL d   1      -2.314   1.952   4.747  0.00  0.00    -0.237 OA
ATOM     10  C   UNL d   1      -1.784   0.305   6.139  0.00  0.00     0.059 A 
ATOM     11  N   UNL d   1      -3.005   2.202   5.921  0.00  0.00    -0.272 N 
ATOM     12  C   UNL d   1      -2.678   1.205   6.741  0.00  0.00     0.117 A 
ATOM     13  HN  UNL d   1      -3.630   2.983   6.116  1.00  0.00     0.194 HD
ATOM     14  C   UNL d   1       0.705  -1.112   2.625  0.00  0.00     0.034 A 
ENDBRANCH   1   4
BRANCH   1  15
ATOM     15  N   UNL d   1       0.398   1.399  -0.736  0.00  0.00    -0.211 NA
ATOM     16  H   UNL d   1      -0.598   1.514  -0.553  0.00  0.00     0.140 HD
BRANCH  15  17
ATOM     17  C   UNL d   1       1.203   2.611  -0.523  0.00  0.00     0.146 C 
BRANCH  17  18
ATOM     18  C   UNL d   1       0.618   3.839  -1.179  0.00  0.00    -0.006 A 
ATOM     19  C   UNL d   1       0.896   5.095  -0.623  0.00  0.00     0.126 A 
ATOM     20  C   UNL d   1       0.430   6.271  -1.198  0.00  0.00     0.085 A 
ATOM     21  F   UNL d   1       1.638   5.175   0.491  0.00  0.00    -0.205 F 
ATOM     22  C   UNL d   1      -0.321   6.194  -2.360  0.00  0.00     0.119 A 
ATOM     23  C   UNL d   1      -0.599   4.967  -2.955  0.00  0.00     0.043 A 
ATOM     24  F   UNL d   1      -0.776   7.319  -2.926  0.00  0.00    -0.206 F 
ATOM     25  C   UNL d   1      -0.122   3.788  -2.372  0.00  0.00     0.014 A 
ENDBRANCH  17  18
ENDBRANCH  15  17
ENDBRANCH   1  15
TORSDOF 4
