REMARK  5 active torsions:
REMARK  status: ('A' for Active; 'I' for Inactive)
REMARK    1  A    between atoms: C_6  and  N_13 
REMARK    2  A    between atoms: N_11  and  C_6 
REMARK    3  A    between atoms: N_9  and  C_8 
REMARK    4  A    between atoms: N_13  and  N_9 
REMARK    5  A    between atoms: C_15  and  N_11 
ROOT
ATOM      1  N   UNL d   1       0.821   4.062  -0.119  0.00  0.00    -0.276 N 
ATOM      2  H   UNL d   1       0.544   3.124   0.153  0.00  0.00     0.189 HD
ENDROOT
BRANCH   1   3
ATOM      3  C   UNL d   1       2.151   4.404  -0.010  0.00  0.00     0.191 C 
ATOM      4  S   UNL d   1       2.756   5.965   0.013  0.00  0.00    -0.039 SA
BRANCH   3   5
ATOM      5  N   UNL d   1       3.025   3.364   0.185  0.00  0.00    -0.332 N 
ATOM      6  H   UNL d   1       3.918   3.641   0.581  0.00  0.00     0.168 HD
BRANCH   5   7
ATOM      7  C   UNL d   1       2.915   2.023  -0.234  0.00  0.00     0.034 A 
ATOM      8  C   UNL d   1       2.091   1.624  -1.292  0.00  0.00     0.029 A 
ATOM      9  C   UNL d   1       2.039   0.283  -1.678  0.00  0.00     0.002 A 
ATOM     10  C   UNL d   1       2.809  -0.666  -1.010  0.00  0.00     0.000 A 
ATOM     11  C   UNL d   1       3.655  -0.270   0.025  0.00  0.00     0.002 A 
ATOM     12  C   UNL d   1       3.723   1.074   0.399  0.00  0.00     0.029 A 
ENDBRANCH   5   7
ENDBRANCH   3   5
ENDBRANCH   1   3
BRANCH   1  13
ATOM     13  N   UNL d   1      -0.125   4.957  -0.513  0.00  0.00    -0.307 N 
ATOM     14  HN  UNL d   1       0.121   5.877  -0.878  1.00  0.00     0.186 HD
BRANCH  13  15
ATOM     15  C   UNL d   1      -1.355   4.574  -0.400  0.00  0.00     0.139 C 
ATOM     16  C   UNL d   1      -2.376   5.437  -0.906  0.00  0.00     0.083 A 
ATOM     17  C   UNL d   1      -3.745   5.336  -0.924  0.00  0.00     0.057 A 
ATOM     18  N   UNL d   1      -2.106   6.620  -1.549  0.00  0.00    -0.298 N 
ATOM     19  C   UNL d   1      -4.206   6.458  -1.629  0.00  0.00     0.128 A 
ATOM     20 BR   UNL d   1      -4.840   4.005  -0.206  0.00  0.00    -0.047 Br
ATOM     21  N   UNL d   1      -3.201   7.248  -2.018  0.00  0.00    -0.310 N 
ATOM     22  HN  UNL d   1      -3.252   8.120  -2.546  1.00  0.00     0.186 HD
ATOM     23  H   UNL d   1      -1.189   7.027  -1.711  0.00  0.00     0.187 HD
ENDBRANCH  13  15
ENDBRANCH   1  13
TORSDOF 5
