REMARK  7 active torsions:
REMARK  status: ('A' for Active; 'I' for Inactive)
REMARK    1  A    between atoms: C_2  and  S_1 
REMARK    2  A    between atoms: C_3  and  S_1 
REMARK    3  A    between atoms: C_9  and  C_2 
REMARK    4  A    between atoms: C_18  and  C_9 
REMARK    5  A    between atoms: O_23  and  C_9 
REMARK    6  A    between atoms: C_12  and  O_14 
REMARK    7  A    between atoms: O_14  and  C_18 
ROOT
ATOM      1  C   UNL d   1       0.988  -0.255  -2.470  0.00  0.00     0.156 C 
ENDROOT
BRANCH   1   2
ATOM      2  C   UNL d   1       0.492  -0.895  -1.175  0.00  0.00     0.179 C 
BRANCH   2   3
ATOM      3  S   UNL d   1       1.069  -0.059   0.276  0.00  0.00     0.178 S 
ATOM      4  O   UNL d   1       0.510   1.280   0.275  0.00  0.00    -0.223 OA
ATOM      5  O   UNL d   1       2.505  -0.258   0.376  0.00  0.00    -0.223 OA
BRANCH   3   6
ATOM      6  C   UNL d   1       0.361  -0.947   1.641  0.00  0.00     0.059 A 
ATOM      7  C   UNL d   1       1.013  -2.095   2.111  0.00  0.00     0.025 A 
ATOM      8  C   UNL d   1       0.557  -2.717   3.274  0.00  0.00     0.025 A 
ATOM      9  C   UNL d   1      -0.532  -2.186   3.964  0.00  0.00     0.034 A 
ATOM     10  C   UNL d   1      -1.188  -1.050   3.487  0.00  0.00     0.025 A 
ATOM     11 CL   UNL d   1      -1.056  -2.924   5.427  0.00  0.00    -0.084 Cl
ATOM     12  C   UNL d   1      -0.740  -0.423   2.321  0.00  0.00     0.025 A 
ENDBRANCH   3   6
ENDBRANCH   2   3
ENDBRANCH   1   2
BRANCH   1  13
ATOM     13  C   UNL d   1       2.522  -0.184  -2.572  0.00  0.00     0.208 C 
BRANCH  13  14
ATOM     14  O   UNL d   1       2.908   0.326  -3.856  0.00  0.00    -0.349 OA
BRANCH  14  15
ATOM     15  C   UNL d   1       4.258   0.459  -4.055  0.00  0.00     0.070 A 
ATOM     16  C   UNL d   1       5.256   0.021  -3.172  0.00  0.00     0.062 A 
ATOM     17  C   UNL d   1       6.605   0.167  -3.498  0.00  0.00     0.058 A 
ATOM     18 CL   UNL d   1       7.772  -0.428  -2.367  0.00  0.00    -0.082 Cl
ATOM     19  C   UNL d   1       6.978   0.769  -4.704  0.00  0.00     0.056 A 
ATOM     20  C   UNL d   1       5.984   1.230  -5.576  0.00  0.00     0.028 A 
ATOM     21 CL   UNL d   1       8.623   0.966  -5.179  0.00  0.00    -0.083 Cl
ATOM     22  C   UNL d   1       4.635   1.075  -5.249  0.00  0.00     0.038 A 
ENDBRANCH  14  15
ENDBRANCH  13  14
ENDBRANCH   1  13
BRANCH   1  23
ATOM     23  O   UNL d   1       0.490  -1.072  -3.546  0.00  0.00    -0.392 OA
ATOM     24  H   UNL d   1       1.057  -0.894  -4.323  0.00  0.00     0.210 HD
ENDBRANCH   1  23
TORSDOF 7
