REMARK  3 active torsions:
REMARK  status: ('A' for Active; 'I' for Inactive)
REMARK    1  A    between atoms: C_2  and  N_1 
REMARK    2  A    between atoms: O_14  and  C_8 
REMARK    3  A    between atoms: O_15  and  C_10 
ROOT
ATOM      1  C   UNL d   1       0.044   2.302  -0.006  0.00  0.00     0.048 A 
ATOM      2  C   UNL d   1      -0.657   2.993   0.996  0.00  0.00     0.069 A 
ATOM      3  C   UNL d   1      -0.606   4.394   1.124  0.00  0.00     0.103 A 
ATOM      4  C   UNL d   1       0.776   3.058  -0.924  0.00  0.00     0.033 A 
ATOM      5  C   UNL d   1       0.119   5.135   0.178  0.00  0.00     0.101 A 
ATOM      6  C   UNL d   1       0.798   4.453  -0.840  0.00  0.00     0.042 A 
ENDROOT
BRANCH   1   7
ATOM      7  N   UNL d   1       0.030   0.881  -0.062  0.00  0.00    -0.245 N 
ATOM      8  C   UNL d   1      -0.910   0.069   0.515  0.00  0.00     0.255 A 
ATOM      9  C   UNL d   1      -0.510  -1.320   0.262  0.00  0.00     0.080 A 
ATOM     10  O   UNL d   1      -1.937   0.330   1.117  0.00  0.00    -0.268 OA
ATOM     11  C   UNL d   1       0.623  -1.298  -0.432  0.00  0.00     0.080 A 
ATOM     12  C   UNL d   1       0.990   0.105  -0.657  0.00  0.00     0.255 A 
ATOM     13  O   UNL d   1       2.022   0.404  -1.232  0.00  0.00    -0.268 OA
ENDBRANCH   1   7
BRANCH   3  14
ATOM     14  O   UNL d   1      -1.221   5.066   2.147  0.00  0.00    -0.353 OA
ATOM     15  C   UNL d   1      -1.898   4.313   3.146  0.00  0.00     0.210 C 
ENDBRANCH   3  14
BRANCH   5  16
ATOM     16  O   UNL d   1       0.283   6.491   0.086  0.00  0.00    -0.353 OA
ATOM     17  C   UNL d   1      -0.319   7.325   1.064  0.00  0.00     0.210 C 
ENDBRANCH   5  16
TORSDOF 3
