REMARK  4 active torsions:
REMARK  status: ('A' for Active; 'I' for Inactive)
REMARK    1  A    between atoms: C_6  and  N_1 
REMARK    2  A    between atoms: C_7  and  C_6 
REMARK    3  A    between atoms: O_9  and  C_7 
REMARK    4  A    between atoms: C_14  and  O_9 
ROOT
ATOM      1  N   UNL d   1       0.184  -1.567   0.077  0.00  0.00    -0.336 N 
ATOM      2  C   UNL d   1      -1.014  -0.871   0.060  0.00  0.00     0.046 A 
ATOM      3  C   UNL d   1       1.257  -0.694   0.088  0.00  0.00     0.046 A 
ATOM      4  C   UNL d   1      -0.695   0.488   0.054  0.00  0.00     0.003 A 
ATOM      5  C   UNL d   1       0.729   0.599   0.062  0.00  0.00     0.003 A 
ATOM      6  C   UNL d   1       2.645  -0.921   0.098  0.00  0.00     0.030 A 
ATOM      7  C   UNL d   1      -2.349  -1.315   0.042  0.00  0.00     0.030 A 
ATOM      8  C   UNL d   1      -1.740   1.436   0.024  0.00  0.00     0.014 A 
ATOM      9  C   UNL d   1       1.612   1.700   0.035  0.00  0.00     0.014 A 
ATOM     10  C   UNL d   1       3.498   0.188   0.066  0.00  0.00     0.002 A 
ATOM     11  C   UNL d   1      -3.068   1.004   0.003  0.00  0.00     0.001 A 
ATOM     12  C   UNL d   1       2.992   1.482   0.032  0.00  0.00     0.001 A 
ATOM     13  C   UNL d   1      -3.365  -0.354   0.012  0.00  0.00     0.002 A 
ENDROOT
BRANCH   1  14
ATOM     14  C   UNL d   1       0.295  -3.014  -0.063  0.00  0.00     0.240 C 
BRANCH  14  15
ATOM     15  C   UNL d   1       0.135  -3.816   1.201  0.00  0.00     0.277 C 
ATOM     16  O   UNL d   1       0.307  -5.034   1.221  0.00  0.00    -0.263 OA
BRANCH  15  17
ATOM     17  O   UNL d   1      -0.321  -3.093   2.253  0.00  0.00    -0.321 OA
BRANCH  17  18
ATOM     18  C   UNL d   1      -0.877  -3.852   3.339  0.00  0.00     0.174 C 
ATOM     19  C   UNL d   1      -2.308  -4.216   2.985  0.00  0.00     0.034 C 
ENDBRANCH  17  18
ENDBRANCH  15  17
ENDBRANCH  14  15
ENDBRANCH   1  14
TORSDOF 4
