REMARK  8 active torsions:
REMARK  status: ('A' for Active; 'I' for Inactive)
REMARK    1  A    between atoms: C_2  and  S_1 
REMARK    2  A    between atoms: N_3  and  S_1 
REMARK    3  A    between atoms: C_7  and  N_3 
REMARK    4  A    between atoms: C_4  and  C_9 
REMARK    5  A    between atoms: C_5  and  C_10 
REMARK    6  A    between atoms: C_8  and  C_20 
REMARK    7  A    between atoms: O_16  and  C_14 
REMARK    8  A    between atoms: C_20  and  O_16 
ROOT
ATOM      1  C   UNL d   1       0.569   0.471   1.661  0.00  0.00     0.108 A 
ATOM      2  C   UNL d   1       0.384  -0.595   2.562  0.00  0.00     0.044 A 
ATOM      3  C   UNL d   1       0.146  -0.356   3.921  0.00  0.00     0.049 A 
ATOM      4  C   UNL d   1       0.497   1.797   2.105  0.00  0.00     0.092 A 
ATOM      5  C   UNL d   1       0.134   0.969   4.371  0.00  0.00     0.019 A 
ATOM      6  C   UNL d   1       0.316   2.030   3.476  0.00  0.00     0.039 A 
ENDROOT
BRANCH   1   7
ATOM      7  S   UNL d   1       0.765   0.030  -0.053  0.00  0.00     0.248 S 
ATOM      8  O   UNL d   1       0.921   1.198  -0.885  0.00  0.00    -0.205 OA
ATOM      9  O   UNL d   1      -0.268  -0.946  -0.336  0.00  0.00    -0.205 OA
BRANCH   7  10
ATOM     10  N   UNL d   1       2.216  -0.862  -0.058  0.00  0.00    -0.180 NA
ATOM     11  H   UNL d   1       2.057  -1.763  -0.511  0.00  0.00     0.146 HD
BRANCH  10  12
ATOM     12  C   UNL d   1       3.407  -0.167  -0.448  0.00  0.00     0.044 A 
ATOM     13  C   UNL d   1       4.362   0.247   0.488  0.00  0.00     0.057 A 
ATOM     14  C   UNL d   1       5.491   0.964   0.071  0.00  0.00     0.041 A 
ATOM     15 CL   UNL d   1       4.205  -0.128   2.167  0.00  0.00    -0.082 Cl
ATOM     16  C   UNL d   1       5.668   1.292  -1.283  0.00  0.00     0.049 A 
ATOM     17  C   UNL d   1       4.721   0.846  -2.217  0.00  0.00     0.018 A 
ATOM     18  C   UNL d   1       3.605   0.114  -1.803  0.00  0.00     0.027 A 
BRANCH  16  19
ATOM     19  C   UNL d   1       6.843   2.122  -1.744  0.00  0.00     0.417 C 
ATOM     20  F   UNL d   1       7.608   2.594  -0.722  0.00  0.00    -0.166 F 
ATOM     21  F   UNL d   1       7.685   1.424  -2.554  0.00  0.00    -0.166 F 
ATOM     22  F   UNL d   1       6.457   3.216  -2.458  0.00  0.00    -0.166 F 
ENDBRANCH  16  19
ENDBRANCH  10  12
ENDBRANCH   7  10
ENDBRANCH   1   7
BRANCH   4  23
ATOM     23  O   UNL d   1       0.606   2.809   1.195  0.00  0.00    -0.341 OA
BRANCH  23  24
ATOM     24  C   UNL d   1       0.090   4.096   1.565  0.00  0.00     0.293 C 
BRANCH  24  25
ATOM     25  C   UNL d   1      -0.228   4.946   0.343  0.00  0.00     0.408 C 
ATOM     26  F   UNL d   1      -1.193   4.389  -0.420  0.00  0.00    -0.169 F 
ATOM     27  F   UNL d   1      -0.686   6.160   0.740  0.00  0.00    -0.169 F 
ATOM     28  F   UNL d   1       0.858   5.163  -0.427  0.00  0.00    -0.169 F 
ENDBRANCH  24  25
ENDBRANCH  23  24
ENDBRANCH   4  23
BRANCH   3  29
ATOM     29  C   UNL d   1      -0.104  -1.486   4.891  0.00  0.00     0.417 C 
ATOM     30  F   UNL d   1      -0.169  -2.707   4.295  0.00  0.00    -0.166 F 
ATOM     31  F   UNL d   1       0.868  -1.582   5.837  0.00  0.00    -0.166 F 
ATOM     32  F   UNL d   1      -1.274  -1.336   5.569  0.00  0.00    -0.166 F 
ENDBRANCH   3  29
TORSDOF 8
