REMARK  7 active torsions:
REMARK  status: ('A' for Active; 'I' for Inactive)
REMARK    1  A    between atoms: C_8  and  N_1 
REMARK    2  A    between atoms: S_10  and  C_2 
REMARK    3  A    between atoms: C_9  and  C_7 
REMARK    4  A    between atoms: C_11  and  C_8 
REMARK    5  A    between atoms: C_14  and  C_9 
REMARK    6  A    between atoms: C_12  and  C_14 
REMARK    7  A    between atoms: O_19  and  C_13 
ROOT
ATOM      1  N   UNL d   1      -0.261  -1.189  -0.045  0.00  0.00    -0.306 N 
ATOM      2  C   UNL d   1       0.962  -0.547  -0.118  0.00  0.00     0.160 A 
ATOM      3  N   UNL d   1       0.790   0.750  -0.156  0.00  0.00    -0.278 N 
ATOM      4  HN  UNL d   1       1.527   1.452  -0.217  1.00  0.00     0.189 HD
ATOM      5  N   UNL d   1      -0.548   0.993  -0.099  0.00  0.00    -0.287 N 
ATOM      6  HN  UNL d   1      -0.983   1.915  -0.091  1.00  0.00     0.188 HD
ATOM      7  C   UNL d   1      -1.191  -0.159  -0.055  0.00  0.00     0.101 A 
ENDROOT
BRANCH   7   8
ATOM      8  C   UNL d   1      -2.683  -0.254   0.016  0.00  0.00     0.083 C 
BRANCH   8   9
ATOM      9  C   UNL d   1      -3.367   1.016  -0.516  0.00  0.00     0.046 C 
BRANCH   9  10
ATOM     10  C   UNL d   1      -4.874   0.959  -0.403  0.00  0.00    -0.058 A 
ATOM     11  C   UNL d   1      -5.493   0.945   0.856  0.00  0.00     0.010 A 
ATOM     12  C   UNL d   1      -6.884   0.916   0.962  0.00  0.00     0.037 A 
ATOM     13  C   UNL d   1      -7.662   0.914  -0.189  0.00  0.00     0.065 A 
ATOM     14  C   UNL d   1      -7.071   0.935  -1.447  0.00  0.00     0.037 A 
ATOM     15  C   UNL d   1      -5.677   0.955  -1.553  0.00  0.00     0.010 A 
BRANCH  13  16
ATOM     16  O   UNL d   1      -9.017   0.900  -0.039  0.00  0.00    -0.361 OA
ATOM     17  H   UNL d   1      -9.426   0.952  -0.918  0.00  0.00     0.217 HD
ENDBRANCH  13  16
ENDBRANCH   9  10
ENDBRANCH   8   9
ENDBRANCH   7   8
BRANCH   1  18
ATOM     18  C   UNL d   1      -0.456  -2.641  -0.031  0.00  0.00     0.122 C 
ATOM     19  C   UNL d   1      -1.599  -3.197  -0.886  0.00  0.00     0.038 C 
BRANCH  18  20
ATOM     20  C   UNL d   1      -0.486  -3.217   1.379  0.00  0.00    -0.035 A 
ATOM     21  C   UNL d   1      -1.445  -2.831   2.325  0.00  0.00     0.009 A 
ATOM     22  C   UNL d   1      -1.486  -3.410   3.595  0.00  0.00     0.001 A 
ATOM     23  C   UNL d   1      -0.567  -4.397   3.940  0.00  0.00     0.000 A 
ATOM     24  C   UNL d   1       0.389  -4.803   3.014  0.00  0.00     0.001 A 
ATOM     25  C   UNL d   1       0.429  -4.221   1.744  0.00  0.00     0.009 A 
ENDBRANCH  18  20
ENDBRANCH   1  18
BRANCH   2  26
ATOM     26  S   UNL d   1       2.522  -1.294  -0.202  0.00  0.00    -0.105 SA
ATOM     27  H   UNL d   1       2.275  -2.430   0.457  0.00  0.00     0.110 HD
ENDBRANCH   2  26
TORSDOF 7
