REMARK  6 active torsions:
REMARK  status: ('A' for Active; 'I' for Inactive)
REMARK    1  A    between atoms: C_4  and  N_1 
REMARK    2  A    between atoms: C_2  and  C_4 
REMARK    3  A    between atoms: C_5  and  C_2 
REMARK    4  A    between atoms: C_3  and  C_6 
REMARK    5  A    between atoms: O_15  and  C_3 
REMARK    6  A    between atoms: C_19  and  O_15 
ROOT
ATOM      1  N   UNL d   1       1.309   0.034   0.275  0.00  0.00     0.095 N 
ATOM      2  C   UNL d   1      -1.599   0.212  -0.206  0.00  0.00     0.089 C 
ATOM      3  C   UNL d   1      -0.743   1.427   0.164  0.00  0.00     0.045 C 
ATOM      4  C   UNL d   1      -0.940  -1.038   0.385  0.00  0.00     0.045 C 
ATOM      5  C   UNL d   1       0.711   1.256  -0.288  0.00  0.00     0.273 C 
ATOM      6  C   UNL d   1       0.520  -1.165  -0.057  0.00  0.00     0.273 C 
ENDROOT
BRANCH   1   7
ATOM      7  C   UNL d   1       2.701  -0.162  -0.204  0.00  0.00     0.356 C 
BRANCH   7   8
ATOM      8  C   UNL d   1       3.644   0.983   0.154  0.00  0.00     0.187 C 
ATOM      9  O   UNL d   1       4.289   1.559  -0.724  0.00  0.00    -0.290 OA
BRANCH   8  10
ATOM     10  C   UNL d   1       3.815   1.409   1.578  0.00  0.00     0.011 A 
ATOM     11  C   UNL d   1       3.230   0.724   2.646  0.00  0.00     0.015 A 
ATOM     12  C   UNL d   1       3.324   1.233   3.944  0.00  0.00     0.007 A 
ATOM     13  C   UNL d   1       4.021   2.420   4.196  0.00  0.00    -0.062 A 
ATOM     14  C   UNL d   1       4.655   3.075   3.136  0.00  0.00     0.007 A 
ATOM     15  C   UNL d   1       4.009   3.018   5.571  0.00  0.00     0.048 C 
ATOM     16  C   UNL d   1       4.557   2.571   1.837  0.00  0.00     0.015 A 
ENDBRANCH   8  10
ENDBRANCH   7   8
ENDBRANCH   1   7
BRANCH   2  17
ATOM     17  C   UNL d   1      -1.807   0.040  -1.707  0.00  0.00     0.263 C 
ATOM     18  O   UNL d   1      -2.011  -1.039  -2.248  0.00  0.00    -0.265 OA
BRANCH  17  19
ATOM     19  O   UNL d   1      -1.772   1.234  -2.361  0.00  0.00    -0.322 OA
BRANCH  19  20
ATOM     20  C   UNL d   1      -1.911   1.174  -3.788  0.00  0.00     0.174 C 
ATOM     21  C   UNL d   1      -0.577   0.844  -4.435  0.00  0.00     0.034 C 
ENDBRANCH  19  20
ENDBRANCH  17  19
ENDBRANCH   2  17
TORSDOF 6
