REMARK  5 active torsions:
REMARK  status: ('A' for Active; 'I' for Inactive)
REMARK    1  A    between atoms: C_3  and  N_1 
REMARK    2  A    between atoms: C_2  and  C_10 
REMARK       I    between atoms: N_8  and  C_2 
REMARK    3  A    between atoms: N_4  and  C_5 
REMARK    4  A    between atoms: C_19  and  N_8 
REMARK    5  A    between atoms: C_10  and  N_9 
ROOT
ATOM      1  N   UNL d   1      -1.785  -3.110  -3.577  0.00  0.00    -0.364 N 
ATOM      2  N   UNL d   1      -1.681  -5.634  -5.172  0.00  0.00     0.100 N 
ATOM      3  C   UNL d   1      -2.350  -4.360  -3.045  0.00  0.00     0.154 C 
ATOM      4  C   UNL d   1      -1.637  -3.055  -5.039  0.00  0.00     0.154 C 
ATOM      5  C   UNL d   1      -1.717  -5.613  -3.687  0.00  0.00     0.293 C 
ATOM      6  C   UNL d   1      -1.044  -4.368  -5.620  0.00  0.00     0.293 C 
ENDROOT
BRANCH   2   7
ATOM      7  C   UNL d   1      -3.018  -5.783  -5.798  0.00  0.00     0.375 C 
BRANCH   7   8
ATOM      8  C   UNL d   1      -3.806  -7.024  -5.342  0.00  0.00     0.252 C 
ATOM      9  N   UNL d   1      -3.294  -8.292  -5.622  0.00  0.00    -0.321 N 
ATOM     10  C   UNL d   1      -2.002  -8.539  -6.258  0.00  0.00     0.159 C 
ATOM     11  O   UNL d   1      -4.874  -6.843  -4.744  0.00  0.00    -0.271 OA
BRANCH   9  12
ATOM     12  C   UNL d   1      -4.026  -9.456  -5.236  0.00  0.00     0.036 A 
ATOM     13  C   UNL d   1      -5.348  -9.630  -5.660  0.00  0.00     0.029 A 
ATOM     14  C   UNL d   1      -6.036 -10.810  -5.364  0.00  0.00     0.002 A 
ATOM     15  C   UNL d   1      -5.422 -11.806  -4.606  0.00  0.00     0.000 A 
ATOM     16  C   UNL d   1      -4.116 -11.627  -4.152  0.00  0.00     0.002 A 
ATOM     17  C   UNL d   1      -3.413 -10.466  -4.484  0.00  0.00     0.029 A 
ENDBRANCH   9  12
ENDBRANCH   7   8
ENDBRANCH   2   7
BRANCH   1  18
ATOM     18  C   UNL d   1      -0.888  -2.399  -2.790  0.00  0.00     0.103 A 
ATOM     19  C   UNL d   1      -0.704  -1.030  -3.018  0.00  0.00     0.051 A 
ATOM     20  C   UNL d   1       0.128  -0.273  -2.189  0.00  0.00     0.041 A 
ATOM     21  C   UNL d   1       0.772  -0.914  -1.138  0.00  0.00     0.118 A 
ATOM     22  C   UNL d   1       0.558  -2.270  -0.957  0.00  0.00     0.125 A 
ATOM     23  N   UNL d   1      -0.260  -3.009  -1.758  0.00  0.00    -0.350 N 
ATOM     24  HN  UNL d   1      -0.397  -4.004  -1.583  1.00  0.00     0.166 HD
BRANCH  21  25
ATOM     25  N   UNL d   1       1.644  -0.180  -0.232  0.00  0.00    -0.114 N 
ATOM     26  O   UNL d   1       2.192  -0.815   0.678  0.00  0.00    -0.532 OA
ATOM     27  O   UNL d   1       1.789   1.032  -0.430  0.00  0.00    -0.532 OA
ENDBRANCH  21  25
ENDBRANCH   1  18
TORSDOF 5
