REMARK  7 active torsions:
REMARK  status: ('A' for Active; 'I' for Inactive)
REMARK    1  A    between atoms: C_12  and  N_1 
REMARK    2  A    between atoms: S_13  and  C_2 
REMARK    3  A    between atoms: O_23  and  C_3 
REMARK    4  A    between atoms: C_4  and  C_14 
REMARK    5  A    between atoms: C_15  and  C_12 
REMARK    6  A    between atoms: C_18  and  S_13 
REMARK    7  A    between atoms: C_14  and  C_18 
ROOT
ATOM      1  N   UNL d   1       1.688  -0.007   3.170  0.00  0.00    -0.285 N 
ATOM      2  C   UNL d   1       2.096  -0.909   2.228  0.00  0.00     0.165 C 
ATOM      3  C   UNL d   1       0.866  -0.712   4.005  0.00  0.00     0.240 C 
ATOM      4  N   UNL d   1       1.459  -2.045   2.402  0.00  0.00    -0.277 N 
ATOM      5  HN  UNL d   1       1.535  -2.873   1.812  1.00  0.00     0.189 HD
ATOM      6  N   UNL d   1       0.668  -1.915   3.524  0.00  0.00    -0.263 N 
ATOM      7  HN  UNL d   1       0.045  -2.625   3.909  1.00  0.00     0.190 HD
ENDROOT
BRANCH   2   8
ATOM      8  S   UNL d   1       3.321  -0.581   1.053  0.00  0.00    -0.085 SA
BRANCH   8   9
ATOM      9  C   UNL d   1       3.505  -2.217   0.297  0.00  0.00     0.166 C 
BRANCH   9  10
ATOM     10  C   UNL d   1       4.946  -2.526  -0.102  0.00  0.00     0.170 C 
ATOM     11  O   UNL d   1       5.922  -1.940   0.359  0.00  0.00    -0.291 OA
BRANCH  10  12
ATOM     12  C   UNL d   1       5.109  -3.691  -0.980  0.00  0.00     0.029 A 
ATOM     13  C   UNL d   1       4.381  -3.860  -2.142  0.00  0.00     0.066 A 
ATOM     14  S   UNL d   1       4.636  -5.378  -2.865  0.00  0.00    -0.100 SA
ATOM     15  C   UNL d   1       5.759  -5.847  -1.650  0.00  0.00     0.016 A 
ATOM     16  C   UNL d   1       5.985  -4.816  -0.731  0.00  0.00    -0.005 A 
ATOM     17  C   UNL d   1       6.401  -7.095  -1.538  0.00  0.00     0.019 A 
ATOM     18  C   UNL d   1       6.935  -5.049   0.297  0.00  0.00     0.014 A 
ATOM     19  C   UNL d   1       7.591  -6.280   0.398  0.00  0.00     0.001 A 
ATOM     20  C   UNL d   1       7.311  -7.298  -0.501  0.00  0.00     0.001 A 
ENDBRANCH  10  12
ENDBRANCH   9  10
ENDBRANCH   8   9
ENDBRANCH   2   8
BRANCH   1  21
ATOM     21  C   UNL d   1       1.968   1.407   3.238  0.00  0.00     0.200 C 
BRANCH  21  22
ATOM     22  C   UNL d   1       3.143   1.648   4.104  0.00  0.00     0.070 A 
ATOM     23  O   UNL d   1       2.904   1.706   5.447  0.00  0.00    -0.325 OA
ATOM     24  C   UNL d   1       4.105   1.916   6.047  0.00  0.00     0.142 A 
ATOM     25  C   UNL d   1       5.108   1.989   5.110  0.00  0.00     0.027 A 
ATOM     26  C   UNL d   1       4.488   1.816   3.851  0.00  0.00     0.036 A 
ENDBRANCH  21  22
ENDBRANCH   1  21
BRANCH   3  27
ATOM     27  O   UNL d   1       0.340  -0.265   5.135  0.00  0.00    -0.331 OA
ATOM     28  H   UNL d   1       0.951   0.393   5.512  0.00  0.00     0.221 HD
ENDBRANCH   3  27
TORSDOF 7
