REMARK  6 active torsions:
REMARK  status: ('A' for Active; 'I' for Inactive)
REMARK    1  A    between atoms: C_2  and  N_1 
REMARK    2  A    between atoms: C_3  and  C_5 
REMARK    3  A    between atoms: N_14  and  C_6 
REMARK    4  A    between atoms: C_15  and  N_14 
REMARK    5  A    between atoms: C_17  and  C_15 
REMARK    6  A    between atoms: C_16  and  C_17 
ROOT
ATOM      1  C   UNL d   1      -1.316   1.314   2.240  0.00  0.00     0.124 A 
ATOM      2  C   UNL d   1      -0.880   2.657   2.216  0.00  0.00     0.054 A 
ATOM      3  C   UNL d   1       0.226   3.021   1.440  0.00  0.00     0.050 A 
ATOM      4  C   UNL d   1      -0.660   0.290   1.521  0.00  0.00     0.041 A 
ATOM      5  C   UNL d   1       0.859   2.032   0.682  0.00  0.00     0.018 A 
ATOM      6  C   UNL d   1       0.412   0.705   0.712  0.00  0.00     0.027 A 
ENDROOT
BRANCH   4   7
ATOM      7  N   UNL d   1      -1.136  -1.040   1.479  0.00  0.00    -0.291 NA
ATOM      8  H   UNL d   1      -1.647  -1.276   2.337  0.00  0.00     0.127 HD
BRANCH   7   9
ATOM      9  C   UNL d   1      -0.178  -2.092   1.115  0.00  0.00     0.097 C 
BRANCH   9  10
ATOM     10  C   UNL d   1      -0.816  -3.484   1.148  0.00  0.00     0.053 C 
BRANCH  10  11
ATOM     11  C   UNL d   1       0.221  -4.524   0.790  0.00  0.00    -0.057 A 
ATOM     12  C   UNL d   1       0.998  -5.124   1.790  0.00  0.00     0.007 A 
ATOM     13  C   UNL d   1       2.017  -6.016   1.453  0.00  0.00     0.001 A 
ATOM     14  C   UNL d   1       2.271  -6.316   0.117  0.00  0.00     0.000 A 
ATOM     15  C   UNL d   1       1.504  -5.727  -0.886  0.00  0.00     0.001 A 
ATOM     16  C   UNL d   1       0.483  -4.835  -0.553  0.00  0.00     0.007 A 
ENDBRANCH  10  11
ENDBRANCH   9  10
ENDBRANCH   7   9
ENDBRANCH   4   7
BRANCH   1  17
ATOM     17  N   UNL d   1      -2.474   1.011   3.077  0.00  0.00    -0.114 N 
ATOM     18  O   UNL d   1      -3.402   1.831   3.084  0.00  0.00    -0.532 OA
ATOM     19  O   UNL d   1      -2.436  -0.031   3.751  0.00  0.00    -0.532 OA
ENDBRANCH   1  17
BRANCH   3  20
ATOM     20  C   UNL d   1       0.742   4.440   1.399  0.00  0.00     0.417 C 
ATOM     21  F   UNL d   1       0.029   5.300   2.173  0.00  0.00    -0.166 F 
ATOM     22  F   UNL d   1       2.032   4.528   1.829  0.00  0.00    -0.166 F 
ATOM     23  F   UNL d   1       0.730   4.960   0.142  0.00  0.00    -0.166 F 
ENDBRANCH   3  20
TORSDOF 6
