REMARK  6 active torsions:
REMARK  status: ('A' for Active; 'I' for Inactive)
REMARK    1  A    between atoms: C_9  and  N_1 
REMARK    2  A    between atoms: C_4  and  C_11 
REMARK       I    between atoms: N_8  and  C_4 
REMARK       I    between atoms: C_7  and  N_10 
REMARK    3  A    between atoms: C_18  and  C_7 
REMARK    4  A    between atoms: N_10  and  N_8 
REMARK    5  A    between atoms: O_19  and  C_18 
REMARK    6  A    between atoms: C_20  and  O_19 
ROOT
ATOM      1  C   UNL d   1       5.944  -3.392  -0.144  0.00  0.00     0.270 C 
ATOM      2  N   UNL d   1       6.370  -3.962   1.046  0.00  0.00    -0.263 N 
ATOM      3  O   UNL d   1       6.599  -3.342  -1.179  0.00  0.00    -0.266 OA
ATOM      4  H   UNL d   1       5.678  -4.247   1.733  0.00  0.00     0.190 HD
ENDROOT
BRANCH   1   5
ATOM      5  C   UNL d   1       4.591  -2.779  -0.086  0.00  0.00     0.033 A 
ATOM      6  C   UNL d   1       4.245  -1.953   0.988  0.00  0.00     0.019 A 
ATOM      7  C   UNL d   1       3.015  -1.286   0.991  0.00  0.00     0.031 A 
ATOM      8  C   UNL d   1       2.125  -1.433  -0.085  0.00  0.00     0.039 A 
ATOM      9  C   UNL d   1       2.463  -2.292  -1.141  0.00  0.00     0.031 A 
ATOM     10  C   UNL d   1       3.698  -2.956  -1.146  0.00  0.00     0.019 A 
BRANCH   8  11
ATOM     11  N   UNL d   1       0.916  -0.670  -0.120  0.00  0.00    -0.320 N 
ATOM     12  C   UNL d   1      -0.340  -1.112  -0.545  0.00  0.00     0.013 A 
ATOM     13  C   UNL d   1      -1.235  -0.063  -0.427  0.00  0.00     0.027 A 
ATOM     14  C   UNL d   1      -0.678  -2.502  -0.964  0.00  0.00     0.068 C 
ATOM     15  C   UNL d   1      -0.537   1.042   0.081  0.00  0.00     0.027 A 
ATOM     16  C   UNL d   1       0.781   0.672   0.250  0.00  0.00     0.013 A 
ATOM     17  C   UNL d   1       1.896   1.579   0.659  0.00  0.00     0.068 C 
ENDBRANCH   8  11
ENDBRANCH   1   5
BRANCH   2  18
ATOM     18  N   UNL d   1       7.584  -4.661   1.068  0.00  0.00    -0.265 N 
ATOM     19  C   UNL d   1       7.686  -5.893   0.440  0.00  0.00     0.260 C 
ATOM     20  O   UNL d   1       6.733  -6.476  -0.077  0.00  0.00    -0.269 OA
ATOM     21  H   UNL d   1       8.384  -4.192   1.479  0.00  0.00     0.190 HD
BRANCH  19  22
ATOM     22  C   UNL d   1       9.078  -6.504   0.527  0.00  0.00     0.280 C 
BRANCH  22  23
ATOM     23  O   UNL d   1       9.026  -7.409   1.624  0.00  0.00    -0.342 OA
BRANCH  23  24
ATOM     24  C   UNL d   1      10.140  -8.147   1.898  0.00  0.00     0.069 A 
ATOM     25  C   UNL d   1      11.398  -7.991   1.319  0.00  0.00     0.037 A 
ATOM     26  C   UNL d   1      12.460  -8.805   1.730  0.00  0.00     0.003 A 
ATOM     27  C   UNL d   1      12.265  -9.777   2.712  0.00  0.00     0.000 A 
ATOM     28  C   UNL d   1      11.007  -9.940   3.284  0.00  0.00     0.003 A 
ATOM     29  C   UNL d   1       9.951  -9.126   2.877  0.00  0.00     0.037 A 
ENDBRANCH  23  24
ENDBRANCH  22  23
ENDBRANCH  19  22
ENDBRANCH   2  18
TORSDOF 6
