REMARK  3 active torsions:
REMARK  status: ('A' for Active; 'I' for Inactive)
REMARK    1  A    between atoms: C_12  and  C_3 
REMARK    2  A    between atoms: O_9  and  C_4 
REMARK    3  A    between atoms: C_8  and  O_9 
ROOT
ATOM      1  N   UNL d   1       1.444  -0.515  -0.017  0.00  0.00    -0.315 N 
ATOM      2  HN  UNL d   1       2.393  -0.872  -0.126  1.00  0.00     0.170 HD
ATOM      3  C   UNL d   1       1.090   0.833   0.090  0.00  0.00     0.124 A 
ATOM      4  C   UNL d   1       0.354  -1.247   0.045  0.00  0.00     0.210 A 
ATOM      5  N   UNL d   1      -0.208   1.135   0.252  0.00  0.00    -0.308 N 
ATOM      6  HN  UNL d   1      -0.606   2.070   0.334  1.00  0.00     0.176 HD
ATOM      7  S   UNL d   1      -1.048  -0.307   0.296  0.00  0.00     0.032 SA
ENDROOT
BRANCH   4   8
ATOM      8  O   UNL d   1       0.324  -2.574  -0.089  0.00  0.00    -0.286 OA
BRANCH   8   9
ATOM      9  C   UNL d   1       1.274  -3.213  -0.857  0.00  0.00     0.081 A 
ATOM     10  C   UNL d   1       1.665  -4.491  -0.458  0.00  0.00     0.061 A 
ATOM     11  C   UNL d   1       2.607  -5.186  -1.218  0.00  0.00     0.038 A 
ATOM     12 CL   UNL d   1       3.100  -6.761  -0.729  0.00  0.00    -0.084 Cl
ATOM     13  C   UNL d   1       3.155  -4.625  -2.369  0.00  0.00     0.048 A 
ATOM     14  C   UNL d   1       2.739  -3.357  -2.769  0.00  0.00     0.038 A 
ATOM     15  C   UNL d   1       1.792  -2.656  -2.030  0.00  0.00     0.061 A 
ATOM     16 CL   UNL d   1       3.401  -2.648  -4.191  0.00  0.00    -0.084 Cl
ENDBRANCH   8   9
ENDBRANCH   4   8
BRANCH   3  17
ATOM     17  C   UNL d   1       2.130   1.865   0.006  0.00  0.00     0.009 A 
ATOM     18  C   UNL d   1       3.474   1.505  -0.186  0.00  0.00     0.015 A 
ATOM     19  C   UNL d   1       4.471   2.482  -0.267  0.00  0.00     0.001 A 
ATOM     20  C   UNL d   1       4.137   3.830  -0.157  0.00  0.00     0.000 A 
ATOM     21  C   UNL d   1       2.808   4.203   0.032  0.00  0.00     0.001 A 
ATOM     22  C   UNL d   1       1.810   3.227   0.113  0.00  0.00     0.015 A 
ENDBRANCH   3  17
TORSDOF 3
