REMARK  1 active torsions:
REMARK  status: ('A' for Active; 'I' for Inactive)
REMARK    1  A    between atoms: C_15  and  C_5 
ROOT
ATOM      1  N   UNL d   1      -0.821  -2.497  -0.375  0.00  0.00    -0.238 N 
ATOM      2  C   UNL d   1      -1.155  -0.365   0.584  0.00  0.00     0.060 A 
ATOM      3  C   UNL d   1      -0.344  -1.250  -0.008  0.00  0.00     0.085 A 
ATOM      4  C   UNL d   1      -2.149  -2.857  -0.060  0.00  0.00     0.140 A 
ATOM      5  C   UNL d   1      -2.271  -4.191  -0.431  0.00  0.00     0.037 A 
ATOM      6  N   UNL d   1      -0.163  -3.488  -1.019  0.00  0.00    -0.302 N 
ATOM      7  HN  UNL d   1       0.785  -3.470  -1.395  1.00  0.00     0.186 HD
ATOM      8  N   UNL d   1      -3.012  -1.962   0.546  0.00  0.00    -0.349 N 
ATOM      9  HN  UNL d   1      -3.978  -2.212   0.757  1.00  0.00     0.167 HD
ATOM     10  C   UNL d   1      -0.411   0.861   0.882  0.00  0.00     0.197 A 
ATOM     11  C   UNL d   1       0.990  -0.686  -0.104  0.00  0.00     0.008 A 
ATOM     12  C   UNL d   1      -2.535  -0.784   0.836  0.00  0.00     0.107 A 
ATOM     13  C   UNL d   1       0.961   0.602   0.435  0.00  0.00     0.028 A 
ATOM     14  C   UNL d   1      -1.035  -4.491  -1.050  0.00  0.00     0.124 A 
ATOM     15  O   UNL d   1      -0.842   1.869   1.400  0.00  0.00    -0.286 OA
ATOM     16  C   UNL d   1       2.183  -1.217  -0.559  0.00  0.00     0.015 A 
ATOM     17  C   UNL d   1       2.083   1.403   0.532  0.00  0.00     0.016 A 
ATOM     18  C   UNL d   1       3.338  -0.432  -0.465  0.00  0.00     0.001 A 
ATOM     19  C   UNL d   1       3.289   0.868   0.073  0.00  0.00     0.001 A 
ENDROOT
BRANCH   5  20
ATOM     20  C   UNL d   1      -3.404  -5.079  -0.192  0.00  0.00    -0.021 A 
ATOM     21  C   UNL d   1      -4.702  -4.606   0.039  0.00  0.00     0.012 A 
ATOM     22  C   UNL d   1      -5.754  -5.497   0.284  0.00  0.00     0.001 A 
ATOM     23  C   UNL d   1      -5.527  -6.871   0.296  0.00  0.00     0.000 A 
ATOM     24  C   UNL d   1      -4.246  -7.359   0.064  0.00  0.00     0.001 A 
ATOM     25  C   UNL d   1      -3.194  -6.470  -0.176  0.00  0.00     0.012 A 
ENDBRANCH   5  20
TORSDOF 1
