REMARK  6 active torsions:
REMARK  status: ('A' for Active; 'I' for Inactive)
REMARK    1  A    between atoms: C_9  and  N_1 
REMARK       I    between atoms: N_2  and  C_4 
REMARK    2  A    between atoms: C_3  and  N_2 
REMARK    3  A    between atoms: C_4  and  C_6 
REMARK    4  A    between atoms: C_8  and  C_13 
REMARK    5  A    between atoms: C_10  and  C_22 
REMARK    6  A    between atoms: O_28  and  C_14 
ROOT
ATOM      1  C   UNL d   1       2.385  -0.022   1.469  0.00  0.00     0.030 A 
ATOM      2  C   UNL d   1       3.446  -0.740   0.895  0.00  0.00     0.030 A 
ATOM      3  C   UNL d   1       2.700   0.792   2.568  0.00  0.00     0.030 A 
ATOM      4  C   UNL d   1       5.047   0.134   2.512  0.00  0.00    -0.036 A 
ATOM      5  C   UNL d   1       4.759  -0.659   1.399  0.00  0.00     0.013 A 
ATOM      6  C   UNL d   1       4.004   0.879   3.072  0.00  0.00     0.013 A 
ENDROOT
BRANCH   1   7
ATOM      7  N   UNL d   1       1.047  -0.092   1.034  0.00  0.00    -0.381 N 
ATOM      8  C   UNL d   1       0.657  -1.243   0.204  0.00  0.00     0.123 C 
ATOM      9  C   UNL d   1      -0.867  -1.340   0.139  0.00  0.00     0.029 C 
ATOM     10  C   UNL d   1      -1.522  -0.065  -0.413  0.00  0.00     0.024 C 
ATOM     11  C   UNL d   1      -0.977   1.169   0.338  0.00  0.00     0.029 C 
ATOM     12  C   UNL d   1       0.539   1.201   0.555  0.00  0.00     0.123 C 
BRANCH  10  13
ATOM     13  C   UNL d   1      -1.520   0.001  -1.946  0.00  0.00    -0.021 A 
ATOM     14  C   UNL d   1      -2.480  -0.716  -2.701  0.00  0.00     0.074 A 
ATOM     15  C   UNL d   1      -2.462  -0.662  -4.104  0.00  0.00     0.037 A 
ATOM     16  C   UNL d   1      -1.534   0.131  -4.772  0.00  0.00     0.003 A 
ATOM     17  C   UNL d   1      -0.609   0.865  -4.047  0.00  0.00     0.001 A 
ATOM     18  C   UNL d   1      -0.600   0.792  -2.652  0.00  0.00     0.010 A 
BRANCH  14  19
ATOM     19  O   UNL d   1      -3.403  -1.458  -2.004  0.00  0.00    -0.355 OA
ATOM     20  C   UNL d   1      -4.625  -1.731  -2.684  0.00  0.00     0.210 C 
ENDBRANCH  14  19
ENDBRANCH  10  13
ENDBRANCH   1   7
BRANCH   4  21
ATOM     21  C   UNL d   1       6.355   0.208   3.179  0.00  0.00     0.017 C 
ATOM     22  C   UNL d   1       7.324  -0.723   3.154  0.00  0.00     0.075 C 
BRANCH  22  23
ATOM     23  C   UNL d   1       8.419  -0.595   4.154  0.00  0.00     0.245 C 
ATOM     24  N   UNL d   1       9.529  -1.359   3.856  0.00  0.00    -0.322 N 
ATOM     25  H   UNL d   1       9.662  -1.638   2.892  0.00  0.00     0.169 HD
ATOM     26  O   UNL d   1       8.312   0.152   5.122  0.00  0.00    -0.268 OA
BRANCH  24  27
ATOM     27  C   UNL d   1      10.661  -1.445   4.704  0.00  0.00     0.052 A 
ATOM     28  C   UNL d   1      11.945  -1.573   4.152  0.00  0.00     0.040 A 
ATOM     29  C   UNL d   1      13.073  -1.583   4.976  0.00  0.00     0.063 A 
ATOM     30 BR   UNL d   1      12.212  -1.647   2.273  0.00  0.00    -0.049 Br
ATOM     31  C   UNL d   1      12.911  -1.517   6.356  0.00  0.00     0.117 A 
ATOM     32  C   UNL d   1      11.647  -1.452   6.925  0.00  0.00     0.044 A 
ATOM     33  F   UNL d   1      13.990  -1.516   7.147  0.00  0.00    -0.206 F 
ATOM     34  C   UNL d   1      10.523  -1.410   6.100  0.00  0.00     0.034 A 
ENDBRANCH  24  27
ENDBRANCH  22  23
ENDBRANCH   4  21
TORSDOF 6
