REMARK  5 active torsions:
REMARK  status: ('A' for Active; 'I' for Inactive)
REMARK    1  A    between atoms: N_4  and  N_1 
REMARK       I    between atoms: C_3  and  N_4 
REMARK    2  A    between atoms: O_12  and  C_3 
REMARK    3  A    between atoms: C_6  and  C_5 
REMARK    4  A    between atoms: O_8  and  C_11 
REMARK    5  A    between atoms: C_15  and  O_8 
ROOT
ATOM      1  C   UNL d   1       3.010  -0.663   0.978  0.00  0.00    -0.012 A 
ATOM      2  C   UNL d   1       2.558  -1.873   1.525  0.00  0.00     0.016 A 
ATOM      3  C   UNL d   1       4.210  -0.115   1.454  0.00  0.00     0.016 A 
ATOM      4  C   UNL d   1       4.481  -1.968   2.991  0.00  0.00     0.076 A 
ATOM      5  C   UNL d   1       4.943  -0.769   2.450  0.00  0.00     0.038 A 
ATOM      6  C   UNL d   1       3.302  -2.535   2.505  0.00  0.00     0.038 A 
ENDROOT
BRANCH   1   7
ATOM      7  C   UNL d   1       2.216  -0.015  -0.130  0.00  0.00     0.032 C 
ATOM      8  N   UNL d   1       1.099  -0.586  -0.493  0.00  0.00    -0.300 N 
ATOM      9  HN  UNL d   1       0.785  -1.434  -0.020  1.00  0.00     0.186 HD
ATOM     10  C   UNL d   1       2.796   1.247  -0.742  0.00  0.00     0.070 C 
BRANCH   8  11
ATOM     11  N   UNL d   1       0.352  -0.054  -1.501  0.00  0.00    -0.246 N 
ATOM     12  C   UNL d   1      -0.799  -0.665  -1.929  0.00  0.00     0.269 C 
ATOM     13  O   UNL d   1      -1.508  -0.264  -2.833  0.00  0.00    -0.631 OA
ATOM     14  H   UNL d   1       0.612   0.785  -2.001  0.00  0.00     0.193 HD
BRANCH  12  15
ATOM     15  O   UNL d   1      -1.033  -1.772  -1.201  0.00  0.00    -0.759 OA
ATOM     16  H   UNL d   1      -0.256  -1.750  -0.600  0.00  0.00     0.169 HD
ENDBRANCH  12  15
ENDBRANCH   8  11
ENDBRANCH   1   7
BRANCH   4  17
ATOM     17  O   UNL d   1       5.277  -2.552   3.950  0.00  0.00    -0.311 OA
BRANCH  17  18
ATOM     18  C   UNL d   1       4.687  -3.197   5.014  0.00  0.00     0.076 A 
ATOM     19  C   UNL d   1       5.407  -4.256   5.571  0.00  0.00     0.037 A 
ATOM     20  C   UNL d   1       4.880  -4.971   6.647  0.00  0.00     0.003 A 
ATOM     21  C   UNL d   1       3.632  -4.627   7.169  0.00  0.00     0.000 A 
ATOM     22  C   UNL d   1       2.928  -3.548   6.638  0.00  0.00     0.003 A 
ATOM     23  C   UNL d   1       3.467  -2.816   5.581  0.00  0.00     0.037 A 
ENDBRANCH  17  18
ENDBRANCH   4  17
TORSDOF 5
