REMARK  3 active torsions:
REMARK  status: ('A' for Active; 'I' for Inactive)
REMARK    1  A    between atoms: C_12  and  N_1 
REMARK    2  A    between atoms: S_14  and  C_7 
REMARK    3  A    between atoms: C_15  and  C_12 
ROOT
ATOM      1  N   UNL d   1       1.449   1.054  -0.062  0.00  0.00    -0.254 N 
ATOM      2  N   UNL d   1       2.330   0.029  -0.000  0.00  0.00    -0.018 NA
ATOM      3  C   UNL d   1       0.160   0.600  -0.090  0.00  0.00     0.153 A 
ATOM      4  C   UNL d   1       0.295  -0.778  -0.058  0.00  0.00     0.125 A 
ATOM      5  N   UNL d   1       1.629  -1.101  -0.011  0.00  0.00    -0.278 N 
ATOM      6  HN  UNL d   1       2.015  -2.045   0.011  1.00  0.00     0.184 HD
ATOM      7  C   UNL d   1      -0.888  -1.515  -0.062  0.00  0.00     0.102 A 
ATOM      8  N   UNL d   1      -0.986   1.307  -0.124  0.00  0.00    -0.336 N 
ATOM      9  HN  UNL d   1      -1.036   2.325  -0.140  1.00  0.00     0.168 HD
ATOM     10  N   UNL d   1      -2.078  -0.859  -0.102  0.00  0.00    -0.345 N 
ATOM     11  HN  UNL d   1      -2.960  -1.371  -0.108  1.00  0.00     0.167 HD
ATOM     12  C   UNL d   1      -2.057   0.490  -0.134  0.00  0.00     0.183 A 
ENDROOT
BRANCH   1  13
ATOM     13  C   UNL d   1       1.904   2.426   0.027  0.00  0.00     0.187 C 
BRANCH  13  14
ATOM     14  C   UNL d   1       2.234   2.993  -1.330  0.00  0.00    -0.039 A 
ATOM     15  C   UNL d   1       1.269   3.700  -2.061  0.00  0.00     0.009 A 
ATOM     16  C   UNL d   1       1.566   4.194  -3.332  0.00  0.00     0.001 A 
ATOM     17  C   UNL d   1       2.828   3.986  -3.886  0.00  0.00     0.000 A 
ATOM     18  C   UNL d   1       3.797   3.290  -3.167  0.00  0.00     0.001 A 
ATOM     19  C   UNL d   1       3.503   2.795  -1.895  0.00  0.00     0.009 A 
ENDBRANCH  13  14
ENDBRANCH   1  13
BRANCH   7  20
ATOM     20  S   UNL d   1      -0.819  -3.280   0.004  0.00  0.00    -0.114 SA
ATOM     21  C   UNL d   1      -2.582  -3.688   0.027  0.00  0.00     0.097 C 
ENDBRANCH   7  20
TORSDOF 3
