REMARK  4 active torsions:
REMARK  status: ('A' for Active; 'I' for Inactive)
REMARK    1  A    between atoms: C_14  and  N_5 
REMARK    2  A    between atoms: N_6  and  C_13 
REMARK    3  A    between atoms: C_13  and  C_16 
REMARK    4  A    between atoms: C_15  and  C_14 
ROOT
ATOM      1  C   UNL d   1      -2.790  -2.407  -0.294  0.00  0.00    -0.032 A 
ATOM      2  C   UNL d   1      -3.355  -1.721  -1.399  0.00  0.00    -0.032 A 
ATOM      3  C   UNL d   1      -4.758  -1.625  -1.508  0.00  0.00     0.009 A 
ATOM      4  C   UNL d   1      -3.658  -2.946   0.676  0.00  0.00     0.009 A 
ATOM      5  C   UNL d   1      -5.042  -2.815   0.565  0.00  0.00     0.001 A 
ATOM      6  C   UNL d   1      -5.593  -2.158  -0.528  0.00  0.00     0.001 A 
ENDROOT
BRANCH   1   7
ATOM      7  C   UNL d   1      -1.296  -2.472  -0.029  0.00  0.00     0.172 C 
BRANCH   7   8
ATOM      8  N   UNL d   1      -0.719  -3.814  -0.046  0.00  0.00    -0.305 N 
ATOM      9  C   UNL d   1      -0.477  -4.452   1.161  0.00  0.00     0.329 C 
ATOM     10  N   UNL d   1       0.189  -5.644   1.074  0.00  0.00    -0.275 N 
ATOM     11  O   UNL d   1      -0.791  -4.002   2.261  0.00  0.00    -0.246 OA
ATOM     12  C   UNL d   1       0.772  -6.151  -0.051  0.00  0.00     0.256 C 
ATOM     13  H   UNL d   1       0.446  -6.073   1.949  0.00  0.00     0.173 HD
ATOM     14  C   UNL d   1       0.409  -5.484  -1.323  0.00  0.00     0.022 C 
ATOM     15  O   UNL d   1       1.562  -7.088  -0.003  0.00  0.00    -0.267 OA
ATOM     16  C   UNL d   1      -0.302  -4.351  -1.249  0.00  0.00     0.108 C 
ATOM     17  C   UNL d   1       0.899  -6.058  -2.612  0.00  0.00     0.056 C 
ENDBRANCH   7   8
ENDBRANCH   1   7
BRANCH   2  18
ATOM     18  C   UNL d   1      -2.519  -0.997  -2.443  0.00  0.00     0.172 C 
BRANCH  18  19
ATOM     19  N   UNL d   1      -1.667   0.074  -1.907  0.00  0.00    -0.305 N 
ATOM     20  C   UNL d   1      -0.432   0.286  -2.511  0.00  0.00     0.329 C 
ATOM     21  N   UNL d   1       0.359   1.226  -1.915  0.00  0.00    -0.275 N 
ATOM     22  O   UNL d   1      -0.028  -0.346  -3.485  0.00  0.00    -0.246 OA
ATOM     23  C   UNL d   1       0.135   1.792  -0.692  0.00  0.00     0.256 C 
ATOM     24  H   UNL d   1       1.293   1.316  -2.284  0.00  0.00     0.173 HD
ATOM     25  C   UNL d   1      -1.232   1.629  -0.151  0.00  0.00     0.022 C 
ATOM     26  O   UNL d   1       1.018   2.380  -0.078  0.00  0.00    -0.267 OA
ATOM     27  C   UNL d   1      -2.062   0.807  -0.804  0.00  0.00     0.108 C 
ATOM     28  C   UNL d   1      -1.606   2.287   1.136  0.00  0.00     0.056 C 
ENDBRANCH  18  19
ENDBRANCH   2  18
TORSDOF 4
