REMARK  6 active torsions:
REMARK  status: ('A' for Active; 'I' for Inactive)
REMARK    1  A    between atoms: C_11  and  N_1 
REMARK    2  A    between atoms: C_2  and  C_4 
REMARK    3  A    between atoms: C_3  and  C_5 
REMARK    4  A    between atoms: N_17  and  N_12 
REMARK    5  A    between atoms: C_16  and  N_17 
REMARK    6  A    between atoms: C_26  and  C_27 
ROOT
ATOM      1  N   UNL d   1       6.612  -3.810   0.684  0.00  0.00    -0.311 N 
ATOM      2  HN  UNL d   1       6.470  -3.268   1.537  1.00  0.00     0.186 HD
ATOM      3  C   UNL d   1       5.730  -3.856  -0.259  0.00  0.00     0.118 C 
ENDROOT
BRANCH   1   4
ATOM      4  N   UNL d   1       7.748  -4.537   0.460  0.00  0.00    -0.301 N 
ATOM      5  H   UNL d   1       8.119  -4.533  -0.487  0.00  0.00     0.187 HD
BRANCH   4   6
ATOM      6  C   UNL d   1       8.748  -4.422   1.449  0.00  0.00     0.049 A 
ATOM      7  C   UNL d   1       8.434  -4.158   2.790  0.00  0.00     0.047 A 
ATOM      8  C   UNL d   1       9.426  -4.099   3.781  0.00  0.00     0.050 A 
ATOM      9  C   UNL d   1      10.763  -4.308   3.413  0.00  0.00     0.032 A 
ATOM     10  C   UNL d   1      11.103  -4.603   2.083  0.00  0.00     0.050 A 
ATOM     11  C   UNL d   1      10.085  -4.676   1.117  0.00  0.00     0.047 A 
BRANCH   8  12
ATOM     12  C   UNL d   1       9.037  -3.835   5.215  0.00  0.00     0.417 C 
ATOM     13  F   UNL d   1      10.097  -3.841   6.071  0.00  0.00    -0.166 F 
ATOM     14  F   UNL d   1       8.431  -2.628   5.384  0.00  0.00    -0.166 F 
ATOM     15  F   UNL d   1       8.167  -4.764   5.699  0.00  0.00    -0.166 F 
ENDBRANCH   8  12
BRANCH  10  16
ATOM     16  C   UNL d   1      12.535  -4.854   1.679  0.00  0.00     0.417 C 
ATOM     17  F   UNL d   1      13.419  -4.742   2.707  0.00  0.00    -0.166 F 
ATOM     18  F   UNL d   1      12.716  -6.101   1.163  0.00  0.00    -0.166 F 
ATOM     19  F   UNL d   1      12.963  -3.987   0.720  0.00  0.00    -0.166 F 
ENDBRANCH  10  16
ENDBRANCH   4   6
ENDBRANCH   1   4
BRANCH   3  20
ATOM     20  C   UNL d   1       4.488  -3.067  -0.172  0.00  0.00    -0.019 A 
ATOM     21  C   UNL d   1       4.258  -2.231   0.921  0.00  0.00     0.015 A 
ATOM     22  C   UNL d   1       3.089  -1.467   0.988  0.00  0.00     0.031 A 
ATOM     23  C   UNL d   1       2.161  -1.502  -0.057  0.00  0.00     0.039 A 
ATOM     24  C   UNL d   1       2.399  -2.342  -1.156  0.00  0.00     0.031 A 
ATOM     25  C   UNL d   1       3.554  -3.135  -1.210  0.00  0.00     0.015 A 
BRANCH  23  26
ATOM     26  N   UNL d   1       0.987  -0.679  -0.012  0.00  0.00    -0.320 N 
ATOM     27  C   UNL d   1      -0.293  -1.033  -0.448  0.00  0.00     0.013 A 
ATOM     28  C   UNL d   1      -1.132   0.049  -0.261  0.00  0.00     0.027 A 
ATOM     29  C   UNL d   1      -0.726  -2.374  -0.939  0.00  0.00     0.068 C 
ATOM     30  C   UNL d   1      -0.386   1.076   0.330  0.00  0.00     0.027 A 
ATOM     31  C   UNL d   1       0.915   0.633   0.472  0.00  0.00     0.013 A 
ATOM     32  C   UNL d   1       2.049   1.469   0.968  0.00  0.00     0.068 C 
ENDBRANCH  23  26
ENDBRANCH   3  20
TORSDOF 6
