REMARK  5 active torsions:
REMARK  status: ('A' for Active; 'I' for Inactive)
REMARK    1  A    between atoms: C_2  and  N_1 
REMARK    2  A    between atoms: C_8  and  C_3 
REMARK    3  A    between atoms: C_9  and  C_3 
REMARK    4  A    between atoms: N_4  and  N_7 
REMARK    5  A    between atoms: N_7  and  C_6 
ROOT
ATOM      1  N   UNL d   1      -1.177   1.545   0.376  0.00  0.00    -0.298 N 
ATOM      2  H   UNL d   1      -2.179   1.304   0.353  0.00  0.00     0.187 HD
ENDROOT
BRANCH   1   3
ATOM      3  N   UNL d   1      -0.442   1.285   1.487  0.00  0.00    -0.294 N 
ATOM      4  C   UNL d   1      -1.026   1.125   2.640  0.00  0.00     0.139 C 
ATOM      5  HN  UNL d   1       0.573   1.214   1.418  1.00  0.00     0.187 HD
BRANCH   4   6
ATOM      6  C   UNL d   1      -2.505   1.258   2.870  0.00  0.00     0.177 C 
ATOM      7  O   UNL d   1      -3.112   0.283   3.290  0.00  0.00    -0.291 OA
ATOM      8  C   UNL d   1      -3.142   2.588   2.590  0.00  0.00     0.098 C 
ENDBRANCH   4   6
BRANCH   4   9
ATOM      9  C   UNL d   1      -0.112   0.723   3.771  0.00  0.00     0.177 C 
ATOM     10  O   UNL d   1      -0.236   1.281   4.854  0.00  0.00    -0.291 OA
ATOM     11  C   UNL d   1       0.917  -0.330   3.472  0.00  0.00     0.098 C 
ENDBRANCH   4   9
ENDBRANCH   1   3
BRANCH   1  12
ATOM     12  C   UNL d   1      -0.562   1.247  -0.870  0.00  0.00     0.081 A 
ATOM     13  C   UNL d   1      -1.272   1.279  -2.087  0.00  0.00     0.131 A 
ATOM     14  C   UNL d   1      -0.660   0.960  -3.311  0.00  0.00     0.045 A 
ATOM     15  C   UNL d   1       0.695   0.622  -3.345  0.00  0.00    -0.059 A 
ATOM     16  C   UNL d   1       1.435   0.670  -2.159  0.00  0.00     0.009 A 
ATOM     17  C   UNL d   1       1.363   0.208  -4.622  0.00  0.00     0.048 C 
ATOM     18  C   UNL d   1       0.818   0.994  -0.948  0.00  0.00     0.034 A 
BRANCH  13  19
ATOM     19  N   UNL d   1      -2.689   1.638  -2.102  0.00  0.00    -0.113 N 
ATOM     20  O   UNL d   1      -3.374   1.311  -1.121  0.00  0.00    -0.532 OA
ATOM     21  O   UNL d   1      -3.114   2.251  -3.091  0.00  0.00    -0.532 OA
ENDBRANCH  13  19
ENDBRANCH   1  12
TORSDOF 5
