REMARK  6 active torsions:
REMARK  status: ('A' for Active; 'I' for Inactive)
REMARK    1  A    between atoms: C_14  and  N_2 
REMARK    2  A    between atoms: C_11  and  C_4 
REMARK    3  A    between atoms: C_13  and  N_5 
REMARK    4  A    between atoms: O_20  and  C_11 
REMARK    5  A    between atoms: C_19  and  C_12 
REMARK    6  A    between atoms: C_26  and  O_20 
ROOT
ATOM      1  C   UNL d   1       0.783  -1.189   0.208  0.00  0.00     0.247 C 
ATOM      2  N   UNL d   1      -0.019  -0.027   0.492  0.00  0.00    -0.265 N 
ATOM      3  S   UNL d   1       0.711  -1.558  -1.614  0.00  0.00    -0.037 SA
ATOM      4  C   UNL d   1       0.815  -3.216  -1.189  0.00  0.00     0.166 C 
ATOM      5  N   UNL d   1       0.474  -2.486   0.851  0.00  0.00    -0.241 N 
ATOM      6  N   UNL d   1       0.660  -3.599   0.035  0.00  0.00    -0.283 N 
ATOM      7  HN  UNL d   1       0.672  -4.568   0.354  1.00  0.00     0.188 HD
ATOM      8  S   UNL d   1       2.529  -0.674   0.564  0.00  0.00    -0.056 SA
ATOM      9  C   UNL d   1       0.650   1.153   0.153  0.00  0.00     0.268 C 
ATOM     10  C   UNL d   1       2.124   1.004   0.362  0.00  0.00     0.074 C 
ATOM     11  C   UNL d   1       3.053   1.972   0.445  0.00  0.00     0.035 C 
ATOM     12  O   UNL d   1       0.113   2.172  -0.258  0.00  0.00    -0.266 OA
ENDROOT
BRANCH   2  13
ATOM     13  C   UNL d   1      -1.395   0.019   0.855  0.00  0.00     0.041 A 
ATOM     14  C   UNL d   1      -2.303  -1.010   0.610  0.00  0.00     0.030 A 
ATOM     15  C   UNL d   1      -3.635  -0.893   1.033  0.00  0.00     0.002 A 
ATOM     16  C   UNL d   1      -4.069   0.235   1.729  0.00  0.00     0.000 A 
ATOM     17  C   UNL d   1      -3.173   1.258   2.005  0.00  0.00     0.002 A 
ATOM     18  C   UNL d   1      -1.855   1.149   1.567  0.00  0.00     0.030 A 
ENDBRANCH   2  13
BRANCH   5  19
ATOM     19  C   UNL d   1       0.200  -2.743   2.202  0.00  0.00     0.055 A 
ATOM     20  C   UNL d   1       0.191  -1.765   3.203  0.00  0.00     0.032 A 
ATOM     21  C   UNL d   1      -0.204  -2.059   4.519  0.00  0.00     0.009 A 
ATOM     22  C   UNL d   1      -0.592  -3.351   4.881  0.00  0.00    -0.062 A 
ATOM     23  C   UNL d   1      -0.520  -4.356   3.923  0.00  0.00     0.009 A 
ATOM     24  C   UNL d   1      -1.042  -3.655   6.278  0.00  0.00     0.048 C 
ATOM     25  C   UNL d   1      -0.136  -4.051   2.613  0.00  0.00     0.032 A 
ENDBRANCH   5  19
BRANCH   4  26
ATOM     26  C   UNL d   1       1.038  -4.060  -2.412  0.00  0.00     0.318 C 
ATOM     27  O   UNL d   1       1.773  -3.753  -3.331  0.00  0.00    -0.257 OA
BRANCH  26  28
ATOM     28  O   UNL d   1       0.267  -5.164  -2.304  0.00  0.00    -0.316 OA
BRANCH  28  29
ATOM     29  C   UNL d   1       0.156  -5.976  -3.481  0.00  0.00     0.175 C 
ATOM     30  C   UNL d   1      -1.215  -5.718  -4.075  0.00  0.00     0.034 C 
ENDBRANCH  28  29
ENDBRANCH  26  28
ENDBRANCH   4  26
BRANCH  11  31
ATOM     31  C   UNL d   1       2.904   3.439   0.346  0.00  0.00    -0.035 A 
ATOM     32  C   UNL d   1       1.795   4.145   0.829  0.00  0.00     0.011 A 
ATOM     33  C   UNL d   1       1.690   5.529   0.666  0.00  0.00     0.001 A 
ATOM     34  C   UNL d   1       2.732   6.242   0.085  0.00  0.00     0.000 A 
ATOM     35  C   UNL d   1       3.879   5.570  -0.328  0.00  0.00     0.001 A 
ATOM     36  C   UNL d   1       3.962   4.179  -0.202  0.00  0.00     0.011 A 
ENDBRANCH  11  31
TORSDOF 6
