REMARK  5 active torsions:
REMARK  status: ('A' for Active; 'I' for Inactive)
REMARK    1  A    between atoms: C_14  and  C_1 
REMARK    2  A    between atoms: C_6  and  C_3 
REMARK    3  A    between atoms: C_4  and  N_12 
REMARK    4  A    between atoms: N_12  and  N_7 
REMARK    5  A    between atoms: O_23  and  C_14 
ROOT
ATOM      1  C   UNL d   1      -1.725   1.311   0.034  0.00  0.00     0.074 A 
ATOM      2  C   UNL d   1      -0.384   0.830   0.143  0.00  0.00     0.036 A 
ATOM      3  C   UNL d   1       0.938   1.431   0.194  0.00  0.00     0.040 C 
ATOM      4  N   UNL d   1       1.036   2.691  -0.132  0.00  0.00    -0.301 N 
ATOM      5  HN  UNL d   1       0.217   3.269  -0.319  1.00  0.00     0.187 HD
ATOM      6  C   UNL d   1      -2.506   0.168  -0.066  0.00  0.00     0.161 A 
ATOM      7  C   UNL d   1      -0.483  -0.546   0.173  0.00  0.00     0.066 A 
ATOM      8  O   UNL d   1      -1.760  -0.960   0.035  0.00  0.00    -0.325 OA
ATOM      9  C   UNL d   1       2.082   0.503   0.626  0.00  0.00     0.060 C 
ATOM     10  C   UNL d   1       0.588  -1.556   0.328  0.00  0.00     0.066 C 
ATOM     11  C   UNL d   1       1.944  -0.904   0.025  0.00  0.00     0.013 C 
ENDROOT
BRANCH   4  12
ATOM     12  N   UNL d   1       2.314   3.187  -0.207  0.00  0.00    -0.280 N 
ATOM     13  C   UNL d   1       2.927   3.705   1.020  0.00  0.00     0.179 C 
BRANCH  12  14
ATOM     14  C   UNL d   1       2.705   3.929  -1.344  0.00  0.00     0.137 A 
ATOM     15  C   UNL d   1       1.862   4.763  -2.080  0.00  0.00     0.095 A 
ATOM     16  C   UNL d   1       2.342   5.342  -3.277  0.00  0.00     0.045 A 
ATOM     17  C   UNL d   1       3.648   5.121  -3.681  0.00  0.00     0.050 A 
ATOM     18  C   UNL d   1       4.440   4.339  -2.870  0.00  0.00     0.113 A 
ATOM     19 CL   UNL d   1       4.254   5.819  -5.122  0.00  0.00    -0.083 Cl
ATOM     20  N   UNL d   1       4.001   3.751  -1.729  0.00  0.00    -0.349 N 
ATOM     21  HN  UNL d   1       4.633   3.182  -1.166  1.00  0.00     0.167 HD
BRANCH  15  22
ATOM     22  C   UNL d   1       0.478   5.120  -1.630  0.00  0.00     0.421 C 
ATOM     23  F   UNL d   1       0.370   5.293  -0.284  0.00  0.00    -0.166 F 
ATOM     24  F   UNL d   1       0.058   6.309  -2.160  0.00  0.00    -0.166 F 
ATOM     25  F   UNL d   1      -0.454   4.207  -2.006  0.00  0.00    -0.166 F 
ENDBRANCH  15  22
ENDBRANCH  12  14
ENDBRANCH   4  12
BRANCH   1  26
ATOM     26  C   UNL d   1      -2.318   2.636   0.050  0.00  0.00     0.179 C 
ATOM     27  O   UNL d   1      -3.504   2.833  -0.179  0.00  0.00    -0.646 OA
BRANCH  26  28
ATOM     28  O   UNL d   1      -1.503   3.644   0.433  0.00  0.00    -0.773 OA
ATOM     29  H   UNL d   1      -0.550   3.410   0.417  0.00  0.00     0.167 HD
ENDBRANCH  26  28
ENDBRANCH   1  26
TORSDOF 5
