REMARK  2 active torsions:
REMARK  status: ('A' for Active; 'I' for Inactive)
REMARK    1  A    between atoms: C_3  and  C_1 
REMARK    2  A    between atoms: O_9  and  C_3 
ROOT
ATOM      1  C   UNL d   1       0.948   1.023  -0.028  0.00  0.00     0.095 A 
ATOM      2  C   UNL d   1       0.110  -0.074  -0.019  0.00  0.00     0.035 A 
ATOM      3  S   UNL d   1       2.594   0.505  -0.013  0.00  0.00    -0.094 SA
ATOM      4  C   UNL d   1       0.795  -1.319  -0.003  0.00  0.00     0.028 A 
ATOM      5  C   UNL d   1       2.160  -1.147   0.003  0.00  0.00     0.052 A 
ATOM      6 BR   UNL d   1      -1.784  -0.057  -0.026  0.00  0.00    -0.049 Br
ENDROOT
BRANCH   1   7
ATOM      7  C   UNL d   1       0.609   2.436  -0.048  0.00  0.00     0.184 C 
ATOM      8  O   UNL d   1      -0.519   2.909  -0.062  0.00  0.00    -0.646 OA
BRANCH   7   9
ATOM      9  O   UNL d   1       1.701   3.249  -0.050  0.00  0.00    -0.772 OA
ATOM     10  H   UNL d   1       2.534   2.740  -0.037  0.00  0.00     0.167 HD
ENDBRANCH   7   9
ENDBRANCH   1   7
TORSDOF 2
