REMARK  3 active torsions:
REMARK  status: ('A' for Active; 'I' for Inactive)
REMARK    1  A    between atoms: C_8  and  C_2 
REMARK    2  A    between atoms: C_6  and  C_9 
REMARK    3  A    between atoms: N_15  and  C_6 
ROOT
ATOM      1  C   UNL d   1       2.453  -1.655  -0.009  0.00  0.00    -0.008 A 
ATOM      2  C   UNL d   1       4.736  -3.329  -0.070  0.00  0.00     0.001 A 
ATOM      3  C   UNL d   1       2.611  -2.616  -1.017  0.00  0.00     0.014 A 
ATOM      4  C   UNL d   1       3.446  -1.546   0.974  0.00  0.00     0.014 A 
ATOM      5  C   UNL d   1       3.741  -3.445  -1.049  0.00  0.00     0.015 A 
ATOM      6  C   UNL d   1       4.576  -2.373   0.943  0.00  0.00     0.015 A 
ENDROOT
BRANCH   1   7
ATOM      7  C   UNL d   1       1.260  -0.816   0.009  0.00  0.00     0.063 A 
ATOM      8  N   UNL d   1       0.066  -1.252  -0.556  0.00  0.00    -0.292 N 
ATOM      9  N   UNL d   1      -0.898  -0.354  -0.436  0.00  0.00    -0.061 NA
ATOM     10  HN  UNL d   1      -0.053  -2.158  -1.011  1.00  0.00     0.183 HD
ATOM     11  S   UNL d   1      -0.395   1.038   0.339  0.00  0.00    -0.010 SA
ATOM     12  C   UNL d   1       1.206   0.457   0.552  0.00  0.00     0.096 A 
ENDBRANCH   1   7
BRANCH   2  13
ATOM     13  C   UNL d   1       5.931  -4.221  -0.101  0.00  0.00     0.104 C 
ATOM     14  S   UNL d   1       6.767  -4.773   1.239  0.00  0.00    -0.060 SA
BRANCH  13  15
ATOM     15  N   UNL d   1       6.380  -4.612  -1.337  0.00  0.00    -0.390 N 
ATOM     16  H   UNL d   1       6.012  -4.256  -2.209  0.00  0.00     0.157 HD
ATOM     17  H   UNL d   1       7.211  -5.189  -1.386  0.00  0.00     0.157 HD
ENDBRANCH  13  15
ENDBRANCH   2  13
TORSDOF 3
