REMARK  10 active torsions:
REMARK  status: ('A' for Active; 'I' for Inactive)
REMARK    1  A    between atoms: C_5  and  C_1 
REMARK    2  A    between atoms: O_12  and  C_1 
REMARK    3  A    between atoms: C_2  and  C_11 
REMARK    4  A    between atoms: O_14  and  C_2 
REMARK    5  A    between atoms: C_3  and  C_10 
REMARK    6  A    between atoms: O_13  and  C_3 
REMARK    7  A    between atoms: C_8  and  C_5 
REMARK    8  A    between atoms: C_9  and  C_5 
REMARK    9  A    between atoms: C_11  and  C_8 
REMARK   10  A    between atoms: C_10  and  C_9 
ROOT
ATOM      1  C   UNL d   1       0.201   0.838   0.840  0.00  0.00     0.084 C 
ENDROOT
BRANCH   1   2
ATOM      2  C   UNL d   1       0.916  -0.114  -0.105  0.00  0.00     0.143 C 
ATOM      3  O   UNL d   1       0.747  -0.131  -1.315  0.00  0.00    -0.650 OA
BRANCH   2   4
ATOM      4  O   UNL d   1       1.735  -0.989   0.519  0.00  0.00    -0.776 OA
ATOM      5  H   UNL d   1       1.827  -0.850   1.482  0.00  0.00     0.167 HD
ENDBRANCH   2   4
ENDBRANCH   1   2
BRANCH   1   6
ATOM      6  C   UNL d   1       0.693   2.269   0.537  0.00  0.00     0.025 C 
BRANCH   6   7
ATOM      7  C   UNL d   1       0.128   3.369   1.441  0.00  0.00     0.111 C 
BRANCH   7   8
ATOM      8  C   UNL d   1       0.532   3.214   2.889  0.00  0.00     0.139 C 
ATOM      9  O   UNL d   1       1.280   2.350   3.318  0.00  0.00    -0.650 OA
BRANCH   8  10
ATOM     10  O   UNL d   1      -0.031   4.151   3.685  0.00  0.00    -0.776 OA
ATOM     11  H   UNL d   1      -0.608   4.780   3.216  0.00  0.00     0.167 HD
ENDBRANCH   8  10
ENDBRANCH   7   8
ENDBRANCH   6   7
ENDBRANCH   1   6
BRANCH   1  12
ATOM     12  C   UNL d   1      -1.319   0.680   0.684  0.00  0.00     0.025 C 
BRANCH  12  13
ATOM     13  C   UNL d   1      -1.813  -0.730   1.026  0.00  0.00     0.111 C 
BRANCH  13  14
ATOM     14  C   UNL d   1      -3.319  -0.814   0.920  0.00  0.00     0.139 C 
ATOM     15  O   UNL d   1      -4.079   0.121   1.117  0.00  0.00    -0.650 OA
BRANCH  14  16
ATOM     16  O   UNL d   1      -3.760  -2.057   0.630  0.00  0.00    -0.776 OA
ATOM     17  H   UNL d   1      -3.053  -2.716   0.490  0.00  0.00     0.167 HD
ENDBRANCH  14  16
ENDBRANCH  13  14
ENDBRANCH  12  13
ENDBRANCH   1  12
TORSDOF 10
