REMARK  6 active torsions:
REMARK  status: ('A' for Active; 'I' for Inactive)
REMARK    1  A    between atoms: C_2  and  C_1 
REMARK       I    between atoms: N_4  and  C_2 
REMARK    2  A    between atoms: C_12  and  C_3 
REMARK    3  A    between atoms: C_9  and  N_4 
REMARK    4  A    between atoms: C_10  and  N_4 
REMARK    5  A    between atoms: C_17  and  C_9 
REMARK    6  A    between atoms: C_18  and  C_10 
ROOT
ATOM      1  C   UNL d   1      -1.418  -2.126   0.175  0.00  0.00     0.274 C 
ATOM      2  N   UNL d   1      -1.110  -3.501   0.218  0.00  0.00    -0.336 N 
ATOM      3  O   UNL d   1      -2.523  -1.751  -0.215  0.00  0.00    -0.266 OA
ENDROOT
BRANCH   2   4
ATOM      4  C   UNL d   1      -2.193  -4.436  -0.112  0.00  0.00     0.183 C 
BRANCH   4   5
ATOM      5  C   UNL d   1      -2.149  -5.848   0.460  0.00  0.00     0.027 A 
ATOM      6  N   UNL d   1      -1.572  -6.066   1.670  0.00  0.00    -0.368 N 
ATOM      7  C   UNL d   1      -1.579  -7.333   2.151  0.00  0.00     0.088 A 
ATOM      8  HN  UNL d   1      -1.148  -5.303   2.198  1.00  0.00     0.165 HD
ATOM      9  C   UNL d   1      -2.153  -8.407   1.494  0.00  0.00     0.017 A 
ATOM     10  C   UNL d   1      -2.774  -8.170   0.276  0.00  0.00     0.003 A 
ATOM     11  C   UNL d   1      -2.782  -6.877  -0.244  0.00  0.00     0.027 A 
ENDBRANCH   4   5
ENDBRANCH   2   4
BRANCH   2  12
ATOM     12  C   UNL d   1       0.252  -4.012   0.409  0.00  0.00     0.183 C 
BRANCH  12  13
ATOM     13  C   UNL d   1       0.841  -4.936  -0.646  0.00  0.00     0.027 A 
ATOM     14  N   UNL d   1       0.461  -4.812  -1.944  0.00  0.00    -0.368 N 
ATOM     15  C   UNL d   1       1.204  -5.468  -2.867  0.00  0.00     0.088 A 
ATOM     16  HN  UNL d   1      -0.348  -4.251  -2.211  1.00  0.00     0.165 HD
ATOM     17  C   UNL d   1       2.328  -6.224  -2.569  0.00  0.00     0.017 A 
ATOM     18  C   UNL d   1       2.697  -6.353  -1.238  0.00  0.00     0.003 A 
ATOM     19  C   UNL d   1       1.942  -5.710  -0.264  0.00  0.00     0.027 A 
ENDBRANCH  12  13
ENDBRANCH   2  12
BRANCH   1  20
ATOM     20  C   UNL d   1      -0.414  -1.146   0.629  0.00  0.00     0.137 A 
ATOM     21  C   UNL d   1      -0.301   0.197   0.273  0.00  0.00     0.119 A 
ATOM     22  O   UNL d   1       0.773   0.710   0.969  0.00  0.00    -0.303 OA
ATOM     23  C   UNL d   1       1.219  -0.313   1.729  0.00  0.00     0.234 A 
ATOM     24  N   UNL d   1       0.550  -1.429   1.601  0.00  0.00    -0.340 N 
ATOM     25  HN  UNL d   1       0.698  -2.308   2.099  1.00  0.00     0.167 HD
BRANCH  21  26
ATOM     26  C   UNL d   1      -0.968   1.166  -0.595  0.00  0.00     0.000 A 
ATOM     27  C   UNL d   1      -0.902   2.541  -0.292  0.00  0.00     0.014 A 
ATOM     28  C   UNL d   1      -1.566   3.491  -1.074  0.00  0.00     0.001 A 
ATOM     29  C   UNL d   1      -2.302   3.084  -2.182  0.00  0.00     0.000 A 
ATOM     30  C   UNL d   1      -2.354   1.732  -2.515  0.00  0.00     0.001 A 
ATOM     31  C   UNL d   1      -1.686   0.783  -1.732  0.00  0.00     0.014 A 
ENDBRANCH  21  26
ENDBRANCH   1  20
TORSDOF 6
