REMARK  3 active torsions:
REMARK  status: ('A' for Active; 'I' for Inactive)
REMARK       I    between atoms: N_2  and  C_1 
REMARK       I    between atoms: N_5  and  C_1 
REMARK    1  A    between atoms: C_3  and  N_2 
REMARK    2  A    between atoms: C_13  and  N_5 
REMARK       I    between atoms: C_6  and  N_7 
REMARK    3  A    between atoms: N_7  and  C_14 
ROOT
ATOM      1  C   UNL d   1      -1.199   0.473   0.981  0.00  0.00     0.036 A 
ATOM      2  C   UNL d   1      -4.009   0.379   1.259  0.00  0.00     0.034 A 
ATOM      3  C   UNL d   1      -3.287   1.479   1.720  0.00  0.00     0.032 A 
ATOM      4  C   UNL d   1      -1.917  -0.638   0.540  0.00  0.00     0.032 A 
ATOM      5  C   UNL d   1      -3.310  -0.684   0.678  0.00  0.00     0.032 A 
ATOM      6  C   UNL d   1      -1.894   1.524   1.585  0.00  0.00     0.032 A 
ENDROOT
BRANCH   1   7
ATOM      7  N   UNL d   1       0.201   0.582   0.903  0.00  0.00    -0.309 N 
ATOM      8  C   UNL d   1       1.062  -0.235   0.187  0.00  0.00     0.325 C 
ATOM      9  N   UNL d   1       2.364  -0.053   0.625  0.00  0.00    -0.303 N 
ATOM     10  O   UNL d   1       0.716  -1.029  -0.681  0.00  0.00    -0.247 OA
ATOM     11  H   UNL d   1       2.493   0.311   1.557  0.00  0.00     0.171 HD
ATOM     12  H   UNL d   1       0.613   1.422   1.279  0.00  0.00     0.170 HD
BRANCH   9  13
ATOM     13  C   UNL d   1       3.399  -0.814   0.137  0.00  0.00     0.077 A 
ATOM     14  S   UNL d   1       4.696  -0.998   1.219  0.00  0.00    -0.084 SA
ATOM     15  C   UNL d   1       5.476  -2.102   0.167  0.00  0.00     0.052 A 
ATOM     16  C   UNL d   1       4.800  -2.240  -1.027  0.00  0.00     0.010 A 
ATOM     17  C   UNL d   1       3.592  -1.481  -1.047  0.00  0.00     0.038 A 
ENDBRANCH   9  13
ENDBRANCH   1   7
BRANCH   2  18
ATOM     18  N   UNL d   1      -5.412   0.270   1.331  0.00  0.00    -0.328 N 
ATOM     19  C   UNL d   1      -6.303   1.204   1.833  0.00  0.00     0.218 C 
ATOM     20  O   UNL d   1      -6.024   2.282   2.345  0.00  0.00    -0.274 OA
ATOM     21  C   UNL d   1      -7.744   0.784   1.689  0.00  0.00     0.117 C 
ATOM     22  H   UNL d   1      -5.806  -0.581   0.948  0.00  0.00     0.169 HD
ENDBRANCH   2  18
TORSDOF 3
