REMARK  8 active torsions:
REMARK  status: ('A' for Active; 'I' for Inactive)
REMARK    1  A    between atoms: C_3  and  S_1 
REMARK    2  A    between atoms: N_11  and  S_1 
REMARK    3  A    between atoms: S_2  and  C_4 
REMARK    4  A    between atoms: N_12  and  S_2 
REMARK    5  A    between atoms: N_7  and  C_21 
REMARK    6  A    between atoms: N_8  and  C_22 
REMARK    7  A    between atoms: C_27  and  N_11 
REMARK    8  A    between atoms: C_28  and  N_12 
ROOT
ATOM      1  C   UNL d   1       0.980  -0.564  -2.143  0.00  0.00     0.116 A 
ATOM      2  C   UNL d   1      -1.454   1.118  -7.700  0.00  0.00     0.116 A 
ATOM      3  S   UNL d   1       1.272  -0.153  -3.777  0.00  0.00    -0.076 SA
ATOM      4  S   UNL d   1      -0.224   1.331  -6.534  0.00  0.00    -0.076 SA
ATOM      5  C   UNL d   1      -0.403  -0.101  -4.148  0.00  0.00     0.023 A 
ATOM      6  C   UNL d   1      -0.926   0.187  -5.464  0.00  0.00     0.023 A 
ATOM      7  C   UNL d   1      -0.370  -0.656  -1.879  0.00  0.00     0.034 A 
ATOM      8  C   UNL d   1      -2.372   0.168  -7.298  0.00  0.00     0.034 A 
ATOM      9  C   UNL d   1      -1.163  -0.387  -3.028  0.00  0.00     0.022 A 
ATOM     10  C   UNL d   1      -2.075  -0.356  -6.011  0.00  0.00     0.022 A 
ENDROOT
BRANCH   1  11
ATOM     11  S   UNL d   1       2.392  -0.739  -1.076  0.00  0.00     0.252 S 
ATOM     12  O   UNL d   1       3.470  -1.275  -1.877  0.00  0.00    -0.205 OA
ATOM     13  O   UNL d   1       1.899  -1.449   0.087  0.00  0.00    -0.205 OA
BRANCH  11  14
ATOM     14  N   UNL d   1       2.861   0.818  -0.593  0.00  0.00    -0.181 NA
ATOM     15  H   UNL d   1       3.831   0.784  -0.276  0.00  0.00     0.146 HD
BRANCH  14  16
ATOM     16  C   UNL d   1       1.978   1.542   0.260  0.00  0.00     0.023 A 
ATOM     17  C   UNL d   1       1.992   1.359   1.647  0.00  0.00     0.027 A 
ATOM     18  C   UNL d   1       1.157   2.139   2.462  0.00  0.00     0.038 A 
ATOM     19  C   UNL d   1       0.307   3.085   1.878  0.00  0.00     0.102 A 
ATOM     20  C   UNL d   1       0.263   3.235   0.484  0.00  0.00     0.038 A 
ATOM     21  C   UNL d   1       1.094   2.454  -0.319  0.00  0.00     0.027 A 
BRANCH  19  22
ATOM     22  N   UNL d   1      -0.533   3.943   2.726  0.00  0.00    -0.116 N 
ATOM     23  O   UNL d   1      -0.456   3.789   3.952  0.00  0.00    -0.532 OA
ATOM     24  O   UNL d   1      -1.258   4.775   2.162  0.00  0.00    -0.532 OA
ENDBRANCH  19  22
ENDBRANCH  14  16
ENDBRANCH  11  14
ENDBRANCH   1  11
BRANCH   2  25
ATOM     25  S   UNL d   1      -1.405   2.143  -9.154  0.00  0.00     0.252 S 
ATOM     26  O   UNL d   1      -0.025   2.512  -9.383  0.00  0.00    -0.205 OA
ATOM     27  O   UNL d   1      -2.158   1.413 -10.153  0.00  0.00    -0.205 OA
BRANCH  25  28
ATOM     28  N   UNL d   1      -2.251   3.585  -8.810  0.00  0.00    -0.181 NA
ATOM     29  H   UNL d   1      -2.065   4.231  -9.580  0.00  0.00     0.146 HD
BRANCH  28  30
ATOM     30  C   UNL d   1      -3.639   3.439  -8.509  0.00  0.00     0.023 A 
ATOM     31  C   UNL d   1      -4.030   3.343  -7.172  0.00  0.00     0.027 A 
ATOM     32  C   UNL d   1      -5.373   3.137  -6.846  0.00  0.00     0.038 A 
ATOM     33  C   UNL d   1      -6.322   3.021  -7.871  0.00  0.00     0.102 A 
ATOM     34  C   UNL d   1      -5.933   3.112  -9.215  0.00  0.00     0.038 A 
ATOM     35  C   UNL d   1      -4.585   3.319  -9.530  0.00  0.00     0.027 A 
BRANCH  33  36
ATOM     36  N   UNL d   1      -7.733   2.787  -7.533  0.00  0.00    -0.116 N 
ATOM     37  O   UNL d   1      -8.026   2.676  -6.334  0.00  0.00    -0.532 OA
ATOM     38  O   UNL d   1      -8.543   2.710  -8.466  0.00  0.00    -0.532 OA
ENDBRANCH  33  36
ENDBRANCH  28  30
ENDBRANCH  25  28
ENDBRANCH   2  25
TORSDOF 8
