REMARK  7 active torsions:
REMARK  status: ('A' for Active; 'I' for Inactive)
REMARK    1  A    between atoms: N_7  and  C_2 
REMARK    2  A    between atoms: C_10  and  C_5 
REMARK       I    between atoms: C_8  and  N_7 
REMARK    3  A    between atoms: C_15  and  C_8 
REMARK    4  A    between atoms: C_9  and  C_16 
REMARK    5  A    between atoms: O_14  and  C_9 
REMARK    6  A    between atoms: S_13  and  C_15 
REMARK    7  A    between atoms: C_16  and  S_13 
ROOT
ATOM      1  C   UNL d   1       1.047   0.815   0.004  0.00  0.00     0.081 A 
ATOM      2  C   UNL d   1       1.185  -0.550   0.041  0.00  0.00     0.124 A 
ATOM      3  N   UNL d   1      -1.038  -0.073   0.113  0.00  0.00    -0.298 N 
ATOM      4  HN  UNL d   1      -2.049  -0.191   0.178  1.00  0.00     0.187 HD
ATOM      5  C   UNL d   1      -0.349   1.076   0.020  0.00  0.00     0.062 A 
ATOM      6  N   UNL d   1      -0.096  -1.030   0.102  0.00  0.00    -0.285 N 
ATOM      7  H   UNL d   1      -0.407  -1.994   0.138  0.00  0.00     0.188 HD
ENDROOT
BRANCH   2   8
ATOM      8  N   UNL d   1       2.348  -1.309   0.002  0.00  0.00    -0.311 N 
ATOM      9  C   UNL d   1       3.674  -0.735  -0.049  0.00  0.00     0.232 C 
ATOM     10  O   UNL d   1       3.852   0.472   0.029  0.00  0.00    -0.272 OA
ATOM     11  H   UNL d   1       2.275  -2.320  -0.035  0.00  0.00     0.170 HD
BRANCH   9  12
ATOM     12  C   UNL d   1       4.807  -1.730  -0.143  0.00  0.00     0.177 C 
BRANCH  12  13
ATOM     13  S   UNL d   1       4.598  -2.771  -1.630  0.00  0.00    -0.149 SA
BRANCH  13  14
ATOM     14  C   UNL d   1       6.132  -3.759  -1.525  0.00  0.00     0.184 C 
BRANCH  14  15
ATOM     15  C   UNL d   1       6.168  -4.660  -0.306  0.00  0.00     0.149 C 
ATOM     16  O   UNL d   1       5.336  -4.669   0.592  0.00  0.00    -0.649 OA
BRANCH  15  17
ATOM     17  O   UNL d   1       7.258  -5.460  -0.271  0.00  0.00    -0.776 OA
ATOM     18  H   UNL d   1       7.863  -5.391  -1.035  0.00  0.00     0.167 HD
ENDBRANCH  15  17
ENDBRANCH  14  15
ENDBRANCH  13  14
ENDBRANCH  12  13
ENDBRANCH   9  12
ENDBRANCH   2   8
BRANCH   5  19
ATOM     19  C   UNL d   1      -0.992   2.388  -0.057  0.00  0.00    -0.008 A 
ATOM     20  C   UNL d   1      -2.222   2.627   0.569  0.00  0.00     0.014 A 
ATOM     21  C   UNL d   1      -2.810   3.894   0.509  0.00  0.00     0.001 A 
ATOM     22  C   UNL d   1      -2.181   4.929  -0.182  0.00  0.00     0.000 A 
ATOM     23  C   UNL d   1      -0.963   4.700  -0.817  0.00  0.00     0.001 A 
ATOM     24  C   UNL d   1      -0.371   3.437  -0.753  0.00  0.00     0.014 A 
ENDBRANCH   5  19
TORSDOF 7
