REMARK  6 active torsions:
REMARK  status: ('A' for Active; 'I' for Inactive)
REMARK    1  A    between atoms: C_2  and  C_1 
REMARK    2  A    between atoms: C_3  and  C_1 
REMARK    3  A    between atoms: C_7  and  C_1 
REMARK    4  A    between atoms: C_4  and  C_2 
REMARK    5  A    between atoms: C_5  and  C_3 
REMARK    6  A    between atoms: C_6  and  C_5 
ROOT
ATOM      1  C   UNL d   1       1.180   0.037  -0.292  0.00  0.00     0.102 C 
ENDROOT
BRANCH   1   2
ATOM      2  C   UNL d   1       0.922   0.268  -1.798  0.00  0.00     0.175 C 
ATOM      3  O   UNL d   1       0.375  -0.612  -2.469  0.00  0.00    -0.291 OA
BRANCH   2   4
ATOM      4  C   UNL d   1       1.443   1.488  -2.428  0.00  0.00     0.051 A 
ATOM      5  S   UNL d   1       1.799   2.914  -1.548  0.00  0.00    -0.098 SA
ATOM      6  C   UNL d   1       2.396   3.715  -2.933  0.00  0.00     0.050 A 
ATOM      7  C   UNL d   1       2.282   2.939  -4.063  0.00  0.00     0.009 A 
ATOM      8  C   UNL d   1       1.713   1.664  -3.775  0.00  0.00     0.023 A 
ENDBRANCH   2   4
ENDBRANCH   1   2
BRANCH   1   9
ATOM      9  C   UNL d   1       0.474  -1.228   0.232  0.00  0.00     0.101 C 
BRANCH   9  10
ATOM     10  C   UNL d   1      -1.041  -1.105   0.298  0.00  0.00     0.167 C 
ATOM     11  O   UNL d   1      -1.585  -0.029   0.032  0.00  0.00    -0.292 OA
BRANCH  10  12
ATOM     12  C   UNL d   1      -1.810  -2.274   0.740  0.00  0.00     0.050 A 
ATOM     13  S   UNL d   1      -1.064  -3.755   1.181  0.00  0.00    -0.098 SA
ATOM     14  C   UNL d   1      -2.556  -4.492   1.560  0.00  0.00     0.050 A 
ATOM     15  C   UNL d   1      -3.615  -3.637   1.359  0.00  0.00     0.009 A 
ATOM     16  C   UNL d   1      -3.185  -2.361   0.885  0.00  0.00     0.023 A 
ENDBRANCH  10  12
ENDBRANCH   9  10
ENDBRANCH   1   9
BRANCH   1  17
ATOM     17  C   UNL d   1       2.682  -0.105  -0.062  0.00  0.00    -0.039 A 
ATOM     18  C   UNL d   1       3.421   0.668   0.815  0.00  0.00     0.057 A 
ATOM     19  S   UNL d   1       5.086   0.276   0.804  0.00  0.00    -0.113 SA
ATOM     20  C   UNL d   1       4.847  -0.949  -0.361  0.00  0.00     0.050 A 
ATOM     21  C   UNL d   1       3.527  -1.054  -0.735  0.00  0.00     0.015 A 
ENDBRANCH   1  17
TORSDOF 6
