REMARK  3 active torsions:
REMARK  status: ('A' for Active; 'I' for Inactive)
REMARK    1  A    between atoms: C_7  and  C_2 
REMARK       I    between atoms: N_10  and  C_7 
REMARK    2  A    between atoms: C_9  and  C_12 
REMARK    3  A    between atoms: C_21  and  N_10 
ROOT
ATOM      1  C   UNL d   1       3.608  -0.871   0.301  0.00  0.00     0.263 C 
ATOM      2  N   UNL d   1       3.785  -2.183  -0.083  0.00  0.00    -0.323 N 
ATOM      3  O   UNL d   1       4.479  -0.144   0.776  0.00  0.00    -0.267 OA
ATOM      4  H   UNL d   1       2.975  -2.667  -0.470  0.00  0.00     0.169 HD
ENDROOT
BRANCH   1   5
ATOM      5  C   UNL d   1       2.231  -0.321   0.119  0.00  0.00     0.115 A 
ATOM      6  C   UNL d   1       1.102  -1.026  -0.533  0.00  0.00     0.266 A 
ATOM      7  N   UNL d   1      -0.063  -0.301  -0.640  0.00  0.00    -0.293 N 
ATOM      8  O   UNL d   1       1.230  -2.175  -0.955  0.00  0.00    -0.267 OA
ATOM      9  C   UNL d   1      -0.140   0.981  -0.176  0.00  0.00     0.149 A 
ATOM     10  C   UNL d   1      -1.212  -0.770  -1.380  0.00  0.00     0.145 C 
ATOM     11  N   UNL d   1       0.807   1.613   0.422  0.00  0.00    -0.345 N 
ATOM     12  S   UNL d   1      -1.687   1.694  -0.502  0.00  0.00    -0.092 SA
ATOM     13  C   UNL d   1       1.990   0.928   0.553  0.00  0.00     0.113 A 
ATOM     14  HN  UNL d   1       0.688   2.562   0.776  1.00  0.00     0.167 HD
ATOM     15  C   UNL d   1      -2.395   0.146  -1.116  0.00  0.00     0.103 C 
ENDBRANCH   1   5
BRANCH   2  16
ATOM     16  C   UNL d   1       4.972  -2.947   0.033  0.00  0.00     0.035 A 
ATOM     17  C   UNL d   1       6.178  -2.440   0.523  0.00  0.00     0.030 A 
ATOM     18  C   UNL d   1       7.304  -3.259   0.656  0.00  0.00     0.018 A 
ATOM     19  C   UNL d   1       7.250  -4.610   0.298  0.00  0.00     0.048 A 
ATOM     20  C   UNL d   1       6.051  -5.116  -0.221  0.00  0.00     0.018 A 
ATOM     21  C   UNL d   1       4.924  -4.291  -0.355  0.00  0.00     0.030 A 
BRANCH  19  22
ATOM     22  C   UNL d   1       8.451  -5.507   0.476  0.00  0.00     0.417 C 
ATOM     23  F   UNL d   1       9.521  -4.882   1.044  0.00  0.00    -0.166 F 
ATOM     24  F   UNL d   1       8.185  -6.580   1.272  0.00  0.00    -0.166 F 
ATOM     25  F   UNL d   1       8.901  -6.019  -0.702  0.00  0.00    -0.166 F 
ENDBRANCH  19  22
ENDBRANCH   2  16
TORSDOF 3
