REMARK  1 active torsions:
REMARK  status: ('A' for Active; 'I' for Inactive)
REMARK    1  A    between atoms: C_6  and  C_4 
ROOT
ATOM      1  S   UNL d   1      -0.435  -1.823   0.519  0.00  0.00    -0.116 SA
ATOM      2  N   UNL d   1      -0.679   1.349   0.476  0.00  0.00    -0.326 N 
ATOM      3  C   UNL d   1      -1.881   0.928  -0.029  0.00  0.00     0.223 C 
ATOM      4  C   UNL d   1      -1.658  -1.493  -0.803  0.00  0.00     0.118 C 
ATOM      5  C   UNL d   1      -1.851  -0.035  -1.187  0.00  0.00     0.125 C 
ATOM      6  C   UNL d   1       0.812  -0.600   0.142  0.00  0.00     0.028 A 
ATOM      7  C   UNL d   1       0.589   0.786   0.239  0.00  0.00     0.051 A 
ATOM      8  O   UNL d   1      -2.931   1.432   0.368  0.00  0.00    -0.273 OA
ATOM      9  C   UNL d   1       2.111  -1.071  -0.094  0.00  0.00     0.021 A 
ATOM     10  C   UNL d   1       1.669   1.670   0.141  0.00  0.00     0.031 A 
ATOM     11  C   UNL d   1       2.952   1.189  -0.126  0.00  0.00     0.002 A 
ATOM     12  C   UNL d   1       3.172  -0.179  -0.249  0.00  0.00     0.002 A 
ATOM     13  H   UNL d   1      -0.734   2.224   0.985  0.00  0.00     0.169 HD
ENDROOT
BRANCH   4  14
ATOM     14  C   UNL d   1      -1.313  -2.296  -2.023  0.00  0.00     0.067 A 
ATOM     15  O   UNL d   1      -2.249  -3.195  -2.447  0.00  0.00    -0.326 OA
ATOM     16  C   UNL d   1      -1.758  -3.783  -3.567  0.00  0.00     0.142 A 
ATOM     17  C   UNL d   1      -0.520  -3.272  -3.878  0.00  0.00     0.027 A 
ATOM     18  C   UNL d   1      -0.231  -2.311  -2.883  0.00  0.00     0.036 A 
ENDBRANCH   4  14
TORSDOF 1
