REMARK  4 active torsions:
REMARK  status: ('A' for Active; 'I' for Inactive)
REMARK    1  A    between atoms: C_7  and  N_2 
REMARK    2  A    between atoms: C_9  and  C_4 
REMARK    3  A    between atoms: O_8  and  C_9 
REMARK    4  A    between atoms: C_10  and  O_8 
ROOT
ATOM      1  C   UNL d   1      -0.629   0.017  -0.000  0.00  0.00     0.363 C 
ATOM      2  N   UNL d   1       0.155  -1.103  -0.137  0.00  0.00    -0.322 N 
ATOM      3  O   UNL d   1       0.171   1.119   0.151  0.00  0.00    -0.295 OA
ATOM      4  C   UNL d   1       1.535   0.729  -0.074  0.00  0.00     0.176 C 
ATOM      5  C   UNL d   1       1.532  -0.778   0.096  0.00  0.00     0.163 C 
ATOM      6  O   UNL d   1      -1.846   0.064  -0.011  0.00  0.00    -0.238 OA
ENDROOT
BRANCH   4   7
ATOM      7  C   UNL d   1       1.979   1.151  -1.477  0.00  0.00     0.210 C 
BRANCH   7   8
ATOM      8  O   UNL d   1       3.346   0.771  -1.650  0.00  0.00    -0.349 OA
BRANCH   8   9
ATOM      9  C   UNL d   1       3.930   1.121  -2.835  0.00  0.00     0.069 A 
ATOM     10  C   UNL d   1       5.323   1.244  -2.793  0.00  0.00     0.040 A 
ATOM     11  C   UNL d   1       6.036   1.594  -3.941  0.00  0.00     0.045 A 
ATOM     12  C   UNL d   1       5.352   1.800  -5.131  0.00  0.00     0.116 A 
ATOM     13  C   UNL d   1       3.971   1.657  -5.194  0.00  0.00     0.045 A 
ATOM     14  F   UNL d   1       6.032   2.137  -6.235  0.00  0.00    -0.206 F 
ATOM     15  C   UNL d   1       3.256   1.314  -4.043  0.00  0.00     0.040 A 
ENDBRANCH   8   9
ENDBRANCH   7   8
ENDBRANCH   4   7
BRANCH   2  16
ATOM     16  C   UNL d   1      -0.355  -2.465  -0.267  0.00  0.00     0.081 C 
ATOM     17  C   UNL d   1       0.137  -3.102  -1.565  0.00  0.00     0.032 C 
ATOM     18  C   UNL d   1       0.001  -3.333   0.939  0.00  0.00     0.032 C 
ENDBRANCH   2  16
TORSDOF 4
