REMARK  3 active torsions:
REMARK  status: ('A' for Active; 'I' for Inactive)
REMARK       I    between atoms: N_2  and  C_1 
REMARK       I    between atoms: N_4  and  C_1 
REMARK    1  A    between atoms: C_5  and  N_2 
REMARK    2  A    between atoms: N_3  and  C_6 
REMARK    3  A    between atoms: C_7  and  N_4 
ROOT
ATOM      1  C   UNL d   1       0.126  -1.017   1.507  0.00  0.00     0.325 C 
ATOM      2  N   UNL d   1       0.487   0.296   1.228  0.00  0.00    -0.307 N 
ATOM      3  N   UNL d   1      -0.312  -1.676   0.369  0.00  0.00    -0.308 N 
ATOM      4  O   UNL d   1       0.239  -1.549   2.606  0.00  0.00    -0.247 OA
ATOM      5  H   UNL d   1       0.565   0.577   0.269  0.00  0.00     0.170 HD
ATOM      6  H   UNL d   1      -0.031  -1.279  -0.509  0.00  0.00     0.170 HD
ENDROOT
BRANCH   2   7
ATOM      7  C   UNL d   1       1.120   1.145   2.168  0.00  0.00     0.063 A 
ATOM      8  C   UNL d   1       2.140   2.054   1.772  0.00  0.00     0.057 A 
ATOM      9  C   UNL d   1       2.677   2.866   2.802  0.00  0.00     0.031 A 
ATOM     10  C   UNL d   1       2.215   2.829   4.122  0.00  0.00     0.002 A 
ATOM     11  C   UNL d   1       1.197   1.962   4.469  0.00  0.00     0.002 A 
ATOM     12  C   UNL d   1       0.664   1.120   3.501  0.00  0.00     0.032 A 
BRANCH   8  13
ATOM     13  N   UNL d   1       2.705   2.152   0.495  0.00  0.00    -0.379 N 
ATOM     14  C   UNL d   1       2.781   1.038  -0.451  0.00  0.00     0.123 C 
ATOM     15  C   UNL d   1       4.136   1.014  -1.157  0.00  0.00     0.020 C 
ATOM     16  C   UNL d   1       4.484   2.363  -1.771  0.00  0.00     0.003 C 
ATOM     17  C   UNL d   1       4.392   3.465  -0.721  0.00  0.00     0.020 C 
ATOM     18  C   UNL d   1       3.013   3.479  -0.058  0.00  0.00     0.123 C 
ENDBRANCH   8  13
ENDBRANCH   2   7
BRANCH   3  19
ATOM     19  C   UNL d   1      -0.776  -3.013   0.357  0.00  0.00     0.042 A 
ATOM     20  C   UNL d   1      -0.560  -3.834  -0.768  0.00  0.00    -0.035 A 
ATOM     21  C   UNL d   1       0.280  -3.432  -1.950  0.00  0.00     0.050 C 
ATOM     22  C   UNL d   1      -1.107  -5.129  -0.783  0.00  0.00     0.009 A 
ATOM     23  C   UNL d   1      -1.832  -5.618   0.302  0.00  0.00     0.001 A 
ATOM     24  C   UNL d   1      -2.019  -4.822   1.420  0.00  0.00     0.002 A 
ATOM     25  C   UNL d   1      -1.497  -3.526   1.446  0.00  0.00     0.030 A 
ENDBRANCH   3  19
TORSDOF 3
