REMARK  2 active torsions:
REMARK  status: ('A' for Active; 'I' for Inactive)
REMARK    1  A    between atoms: O_11  and  C_3 
REMARK    2  A    between atoms: C_13  and  O_11 
ROOT
ATOM      1  C   UNL d   1       0.619  -0.582   0.068  0.00  0.00     0.057 A 
ATOM      2  C   UNL d   1       1.232   0.662   0.001  0.00  0.00     0.090 A 
ATOM      3  C   UNL d   1       1.506  -1.673   0.001  0.00  0.00     0.162 A 
ATOM      4  S   UNL d   1       0.122   1.953  -0.035  0.00  0.00    -0.075 SA
ATOM      5  C   UNL d   1      -0.815  -0.435   0.186  0.00  0.00    -0.028 A 
ATOM      6  C   UNL d   1      -1.198   0.893   0.092  0.00  0.00    -0.008 A 
ATOM      7  N   UNL d   1       2.551   0.912  -0.049  0.00  0.00    -0.346 N 
ATOM      8  HN  UNL d   1       2.947   1.851  -0.103  1.00  0.00     0.167 HD
ATOM      9  N   UNL d   1       2.843  -1.462  -0.000  0.00  0.00    -0.332 N 
ATOM     10  HN  UNL d   1       3.496  -2.246   0.015  1.00  0.00     0.168 HD
ATOM     11  C   UNL d   1       3.286  -0.201  -0.021  0.00  0.00     0.183 A 
ATOM     12  C   UNL d   1      -1.830  -1.516   0.419  0.00  0.00     0.041 C 
ATOM     13  C   UNL d   1      -2.609   1.397   0.069  0.00  0.00     0.047 C 
ATOM     14  C   UNL d   1      -3.247  -1.067   0.025  0.00  0.00     0.005 C 
ATOM     15  C   UNL d   1      -3.582   0.326   0.576  0.00  0.00     0.005 C 
ENDROOT
BRANCH   3  16
ATOM     16  O   UNL d   1       1.033  -2.977  -0.052  0.00  0.00    -0.293 OA
BRANCH  16  17
ATOM     17  C   UNL d   1       1.779  -3.900  -0.761  0.00  0.00     0.077 A 
ATOM     18  C   UNL d   1       1.829  -5.197  -0.245  0.00  0.00     0.039 A 
ATOM     19  C   UNL d   1       2.539  -6.197  -0.918  0.00  0.00     0.026 A 
ATOM     20  C   UNL d   1       3.190  -5.898  -2.114  0.00  0.00     0.034 A 
ATOM     21  C   UNL d   1       3.127  -4.613  -2.649  0.00  0.00     0.026 A 
ATOM     22 CL   UNL d   1       4.070  -7.125  -2.939  0.00  0.00    -0.084 Cl
ATOM     23  C   UNL d   1       2.408  -3.618  -1.980  0.00  0.00     0.039 A 
ENDBRANCH  16  17
ENDBRANCH   3  16
TORSDOF 2
