REMARK  4 active torsions:
REMARK  status: ('A' for Active; 'I' for Inactive)
REMARK    1  A    between atoms: C_6  and  C_1 
REMARK    2  A    between atoms: C_8  and  C_3 
REMARK    3  A    between atoms: O_16  and  C_6 
REMARK    4  A    between atoms: C_18  and  C_11 
ROOT
ATOM      1  C   UNL d   1       1.427   0.993   0.056  0.00  0.00     0.048 C 
ATOM      2  C   UNL d   1       1.326  -0.354  -0.019  0.00  0.00     0.021 C 
ATOM      3  C   UNL d   1       0.198   1.860  -0.167  0.00  0.00     0.068 C 
ATOM      4  N   UNL d   1       0.095  -0.932  -0.246  0.00  0.00    -0.330 N 
ATOM      5  C   UNL d   1      -1.112  -0.296  -0.244  0.00  0.00     0.222 C 
ATOM      6  C   UNL d   1      -1.102   1.134   0.210  0.00  0.00     0.117 C 
ATOM      7  O   UNL d   1      -2.152  -0.906  -0.486  0.00  0.00    -0.273 OA
ATOM      8  C   UNL d   1       2.452  -1.356   0.050  0.00  0.00     0.069 C 
ATOM      9  H   UNL d   1       0.035  -1.933  -0.413  0.00  0.00     0.168 HD
ENDROOT
BRANCH   3  10
ATOM     10  C   UNL d   1       0.178   3.212   0.538  0.00  0.00    -0.049 A 
ATOM     11  C   UNL d   1       0.035   4.386  -0.216  0.00  0.00     0.008 A 
ATOM     12  C   UNL d   1      -0.069   5.628   0.413  0.00  0.00     0.008 A 
ATOM     13  C   UNL d   1      -0.037   5.728   1.811  0.00  0.00    -0.055 A 
ATOM     14  C   UNL d   1       0.130   4.556   2.562  0.00  0.00     0.008 A 
ATOM     15  C   UNL d   1       0.242   3.314   1.934  0.00  0.00     0.008 A 
BRANCH  13  16
ATOM     16  C   UNL d   1      -0.188   7.062   2.517  0.00  0.00     0.010 C 
ATOM     17  C   UNL d   1       0.950   8.019   2.157  0.00  0.00     0.015 C 
ATOM     18  C   UNL d   1      -1.553   7.697   2.234  0.00  0.00     0.015 C 
ENDBRANCH  13  16
ENDBRANCH   3  10
BRANCH   1  19
ATOM     19  C   UNL d   1       2.744   1.629   0.321  0.00  0.00     0.291 C 
ATOM     20  O   UNL d   1       3.574   1.171   1.093  0.00  0.00    -0.260 OA
BRANCH  19  21
ATOM     21  O   UNL d   1       2.879   2.770  -0.398  0.00  0.00    -0.323 OA
ATOM     22  C   UNL d   1       4.026   3.567  -0.080  0.00  0.00     0.213 C 
ENDBRANCH  19  21
ENDBRANCH   1  19
TORSDOF 4
