REMARK  2 active torsions:
REMARK  status: ('A' for Active; 'I' for Inactive)
REMARK       I    between atoms: N_3  and  C_1 
REMARK    1  A    between atoms: C_5  and  C_1 
REMARK       I    between atoms: C_2  and  N_4 
REMARK    2  A    between atoms: C_6  and  C_2 
ROOT
ATOM      1  C   UNL d   1       0.848   0.008   0.028  0.00  0.00     0.260 C 
ATOM      2  C   UNL d   1      -0.991  -2.467   4.516  0.00  0.00     0.277 C 
ATOM      3  N   UNL d   1       0.145  -0.459   1.147  0.00  0.00    -0.344 N 
ATOM      4  N   UNL d   1      -0.230  -2.189   3.378  0.00  0.00    -0.343 N 
ATOM      5  C   UNL d   1      -0.492  -2.676   2.026  0.00  0.00     0.146 C 
ATOM      6  C   UNL d   1       0.555  -0.016   2.494  0.00  0.00     0.146 C 
ATOM      7  C   UNL d   1       0.852  -1.201   3.438  0.00  0.00     0.146 C 
ATOM      8  C   UNL d   1      -0.900  -1.501   1.131  0.00  0.00     0.146 C 
ATOM      9  O   UNL d   1      -0.604  -2.098   5.628  0.00  0.00    -0.265 OA
ATOM     10  O   UNL d   1       1.846   0.715   0.175  0.00  0.00    -0.267 OA
ENDROOT
BRANCH   1  11
ATOM     11  C   UNL d   1       0.370  -0.374  -1.297  0.00  0.00     0.072 A 
ATOM     12  S   UNL d   1       1.515  -0.826  -2.492  0.00  0.00    -0.097 SA
ATOM     13  C   UNL d   1       0.291  -1.197  -3.627  0.00  0.00     0.050 A 
ATOM     14  C   UNL d   1      -0.967  -0.937  -3.132  0.00  0.00     0.009 A 
ATOM     15  C   UNL d   1      -0.917  -0.409  -1.809  0.00  0.00     0.025 A 
ENDBRANCH   1  11
BRANCH   2  16
ATOM     16  C   UNL d   1      -2.231  -3.216   4.372  0.00  0.00     0.142 A 
ATOM     17  O   UNL d   1      -3.024  -3.053   3.264  0.00  0.00    -0.317 OA
ATOM     18  C   UNL d   1      -4.104  -3.863   3.416  0.00  0.00     0.143 A 
ATOM     19  C   UNL d   1      -4.048  -4.519   4.616  0.00  0.00     0.027 A 
ATOM     20  C   UNL d   1      -2.861  -4.080   5.250  0.00  0.00     0.045 A 
ENDBRANCH   2  16
TORSDOF 2
