REMARK  1 active torsions:
REMARK  status: ('A' for Active; 'I' for Inactive)
REMARK    1  A    between atoms: C_3  and  N_1 
ROOT
ATOM      1  N   UNL d   1      -0.371   1.129  -0.029  0.00  0.00    -0.262 N 
ATOM      2  C   UNL d   1      -1.283   0.128   0.169  0.00  0.00     0.147 A 
ATOM      3  C   UNL d   1       0.958   0.724  -0.083  0.00  0.00     0.240 A 
ATOM      4  S   UNL d   1      -0.532  -1.410   0.450  0.00  0.00    -0.084 SA
ATOM      5  N   UNL d   1      -2.565   0.201   0.109  0.00  0.00    -0.379 N 
ATOM      6  HN  UNL d   1      -3.193  -0.580   0.298  1.00  0.00     0.158 HD
ATOM      7  C   UNL d   1       1.117  -0.754   0.168  0.00  0.00     0.186 A 
ATOM      8  O   UNL d   1       1.935   1.446  -0.265  0.00  0.00    -0.272 OA
ATOM      9  H   UNL d   1      -2.874   1.136  -0.153  0.00  0.00     0.158 HD
ENDROOT
BRANCH   1  10
ATOM     10  C   UNL d   1      -0.716   2.510  -0.105  0.00  0.00     0.046 A 
ATOM     11  C   UNL d   1      -0.110   3.356  -1.046  0.00  0.00     0.057 A 
ATOM     12  C   UNL d   1      -0.458   4.708  -1.109  0.00  0.00     0.074 A 
ATOM     13 CL   UNL d   1       0.259   5.712  -2.310  0.00  0.00    -0.081 Cl
ATOM     14  C   UNL d   1      -1.387   5.230  -0.213  0.00  0.00     0.138 A 
ATOM     15  C   UNL d   1      -1.980   4.413   0.742  0.00  0.00     0.046 A 
ATOM     16  F   UNL d   1      -1.725   6.527  -0.250  0.00  0.00    -0.204 F 
ATOM     17  C   UNL d   1      -1.651   3.056   0.792  0.00  0.00     0.033 A 
ENDBRANCH   1  10
TORSDOF 1
