REMARK  3 active torsions:
REMARK  status: ('A' for Active; 'I' for Inactive)
REMARK    1  A    between atoms: C_2  and  S_1 
REMARK    2  A    between atoms: O_11  and  S_1 
REMARK    3  A    between atoms: C_18  and  O_11 
ROOT
ATOM      1  C   UNL d   1       0.468  -1.641   0.865  0.00  0.00     0.132 A 
ATOM      2  C   UNL d   1       0.915  -2.960   0.523  0.00  0.00     0.069 A 
ATOM      3  C   UNL d   1       0.292  -3.810   1.435  0.00  0.00     0.132 A 
ATOM      4  C   UNL d   1      -0.387  -1.782   1.946  0.00  0.00     0.074 A 
ATOM      5  C   UNL d   1       1.750  -3.566  -0.438  0.00  0.00     0.172 A 
ATOM      6  O   UNL d   1      -0.472  -3.097   2.299  0.00  0.00    -0.310 OA
ATOM      7  C   UNL d   1       0.439  -5.197   1.445  0.00  0.00     0.192 A 
ATOM      8  C   UNL d   1       1.893  -4.960  -0.464  0.00  0.00     0.197 A 
ATOM      9  C   UNL d   1       1.247  -5.761   0.466  0.00  0.00     0.199 A 
ATOM     10  F   UNL d   1       2.421  -2.830  -1.331  0.00  0.00    -0.202 F 
ATOM     11  F   UNL d   1      -0.179  -5.962   2.353  0.00  0.00    -0.200 F 
ATOM     12  F   UNL d   1       2.667  -5.526  -1.400  0.00  0.00    -0.199 F 
ATOM     13  F   UNL d   1       1.407  -7.092   0.424  0.00  0.00    -0.199 F 
ATOM     14  C   UNL d   1      -1.218  -0.884   2.780  0.00  0.00     0.078 C 
ENDROOT
BRANCH   1  15
ATOM     15  S   UNL d   1       0.883  -0.176   0.054  0.00  0.00     0.306 S 
ATOM     16  O   UNL d   1      -0.137   0.779   0.435  0.00  0.00    -0.193 OA
ATOM     17  O   UNL d   1       1.093  -0.558  -1.323  0.00  0.00    -0.193 OA
BRANCH  15  18
ATOM     18  O   UNL d   1       2.293   0.208   0.777  0.00  0.00    -0.229 OA
BRANCH  18  19
ATOM     19  C   UNL d   1       3.065   1.266   0.357  0.00  0.00     0.089 A 
ATOM     20  C   UNL d   1       2.754   2.125  -0.703  0.00  0.00     0.041 A 
ATOM     21  C   UNL d   1       3.652   3.130  -1.079  0.00  0.00     0.045 A 
ATOM     22  C   UNL d   1       4.849   3.281  -0.390  0.00  0.00     0.116 A 
ATOM     23  C   UNL d   1       5.158   2.458   0.684  0.00  0.00     0.045 A 
ATOM     24  F   UNL d   1       5.715   4.229  -0.769  0.00  0.00    -0.206 F 
ATOM     25  C   UNL d   1       4.263   1.452   1.060  0.00  0.00     0.041 A 
ENDBRANCH  18  19
ENDBRANCH  15  18
ENDBRANCH   1  15
TORSDOF 3
