REMARK  4 active torsions:
REMARK  status: ('A' for Active; 'I' for Inactive)
REMARK    1  A    between atoms: C_10  and  C_2 
REMARK    2  A    between atoms: N_6  and  C_4 
REMARK    3  A    between atoms: C_12  and  C_11 
REMARK    4  A    between atoms: O_18  and  C_13 
ROOT
ATOM      1  C   UNL d   1      -0.477  -0.192  -0.001  0.00  0.00     0.112 A 
ATOM      2  C   UNL d   1       2.010   0.026   0.004  0.00  0.00    -0.006 A 
ATOM      3  S   UNL d   1       0.655   1.091   0.010  0.00  0.00    -0.081 SA
ATOM      4  C   UNL d   1       0.151  -1.417   0.054  0.00  0.00     0.061 A 
ATOM      5  C   UNL d   1       1.573  -1.289   0.035  0.00  0.00     0.047 A 
ATOM      6  C   UNL d   1      -1.877   0.069  -0.056  0.00  0.00     0.109 C 
ATOM      7  N   UNL d   1      -3.017   0.276  -0.055  0.00  0.00    -0.191 NA
ENDROOT
BRANCH   4   8
ATOM      8  N   UNL d   1      -0.390  -2.716   0.004  0.00  0.00    -0.363 N 
ATOM      9  C   UNL d   1      -1.467  -2.935   0.688  0.00  0.00     0.099 C 
ATOM     10  HN  UNL d   1       0.048  -3.454  -0.548  1.00  0.00     0.165 HD
BRANCH   9  11
ATOM     11  C   UNL d   1      -2.090  -4.279   0.728  0.00  0.00    -0.021 A 
ATOM     12  C   UNL d   1      -1.439  -5.385   0.173  0.00  0.00     0.015 A 
ATOM     13  C   UNL d   1      -2.027  -6.649   0.252  0.00  0.00     0.037 A 
ATOM     14  C   UNL d   1      -3.260  -6.797   0.877  0.00  0.00     0.065 A 
ATOM     15  C   UNL d   1      -3.923  -5.701   1.424  0.00  0.00     0.037 A 
ATOM     16  C   UNL d   1      -3.333  -4.434   1.351  0.00  0.00     0.015 A 
BRANCH  14  17
ATOM     17  O   UNL d   1      -3.792  -8.051   0.938  0.00  0.00    -0.361 OA
ATOM     18  H   UNL d   1      -4.633  -8.013   1.421  0.00  0.00     0.217 HD
ENDBRANCH  14  17
ENDBRANCH   9  11
ENDBRANCH   4   8
BRANCH   2  19
ATOM     19  C   UNL d   1       3.439   0.584  -0.041  0.00  0.00    -0.018 C 
ATOM     20  C   UNL d   1       3.717   1.449   1.205  0.00  0.00     0.020 C 
ATOM     21  C   UNL d   1       4.480  -0.556  -0.069  0.00  0.00     0.020 C 
ATOM     22  C   UNL d   1       3.649   1.437  -1.309  0.00  0.00     0.020 C 
ENDBRANCH   2  19
TORSDOF 4
