REMARK  1 active torsions:
REMARK  status: ('A' for Active; 'I' for Inactive)
REMARK    1  A    between atoms: C_2  and  C_8 
ROOT
ATOM      1  N   UNL d   1      -2.296  -0.030   0.001  0.00  0.00    -0.022 NA
ATOM      2  N   UNL d   1      -1.538   1.059   0.001  0.00  0.00    -0.282 N 
ATOM      3  HN  UNL d   1      -1.874   2.022   0.001  1.00  0.00     0.184 HD
ATOM      4  C   UNL d   1      -0.228   0.665  -0.000  0.00  0.00     0.074 A 
ATOM      5  N   UNL d   1      -1.475  -1.092  -0.000  0.00  0.00    -0.282 N 
ATOM      6  C   UNL d   1      -0.160  -0.721  -0.002  0.00  0.00     0.074 A 
ATOM      7  C   UNL d   1       2.190   0.736   0.002  0.00  0.00     0.050 A 
ATOM      8  C   UNL d   1       0.956   1.415   0.001  0.00  0.00     0.049 A 
ATOM      9  C   UNL d   1       1.038  -1.435  -0.004  0.00  0.00     0.034 A 
ATOM     10  C   UNL d   1       2.214  -0.672  -0.002  0.00  0.00     0.018 A 
ATOM     11  H   UNL d   1      -1.879  -2.021   0.001  0.00  0.00     0.184 HD
ENDROOT
BRANCH   7  12
ATOM     12  C   UNL d   1       3.487   1.510   0.009  0.00  0.00     0.417 C 
ATOM     13  F   UNL d   1       3.318   2.861   0.013  0.00  0.00    -0.166 F 
ATOM     14  F   UNL d   1       4.252   1.227   1.099  0.00  0.00    -0.166 F 
ATOM     15  F   UNL d   1       4.263   1.233  -1.074  0.00  0.00    -0.166 F 
ENDBRANCH   7  12
TORSDOF 1
