REMARK  4 active torsions:
REMARK  status: ('A' for Active; 'I' for Inactive)
REMARK    1  A    between atoms: C_2  and  C_1 
REMARK    2  A    between atoms: N_3  and  C_1 
REMARK    3  A    between atoms: C_6  and  N_3 
REMARK    4  A    between atoms: O_8  and  N_4 
ROOT
ATOM      1  C   UNL d   1       0.862  -1.468  -2.004  0.00  0.00     0.063 C 
ATOM      2  C   UNL d   1       2.380  -1.684  -2.180  0.00  0.00     0.044 C 
ATOM      3  C   UNL d   1       0.473  -0.283  -2.905  0.00  0.00     0.044 C 
ENDROOT
BRANCH   1   4
ATOM      4  C   UNL d   1       0.598  -1.207  -0.495  0.00  0.00     0.033 C 
ATOM      5  N   UNL d   1       0.129  -0.048  -0.117  0.00  0.00    -0.275 N 
ATOM      6  HN  UNL d   1      -0.057   0.730  -0.750  1.00  0.00     0.193 HD
ATOM      7  C   UNL d   1       0.895  -2.324   0.490  0.00  0.00     0.068 C 
BRANCH   5   8
ATOM      8  O   UNL d   1      -0.087  -0.008   1.264  0.00  0.00    -0.290 OA
ATOM      9  H   UNL d   1      -0.534   0.851   1.383  0.00  0.00     0.244 HD
ENDBRANCH   5   8
ENDBRANCH   1   4
BRANCH   1  10
ATOM     10  N   UNL d   1       0.167  -2.692  -2.479  0.00  0.00    -0.376 N 
ATOM     11  H   UNL d   1       0.793  -3.488  -2.579  0.00  0.00     0.160 HD
BRANCH  10  12
ATOM     12  C   UNL d   1      -1.109  -3.076  -2.065  0.00  0.00     0.029 A 
ATOM     13  C   UNL d   1      -2.097  -2.183  -1.634  0.00  0.00     0.032 A 
ATOM     14  C   UNL d   1      -3.354  -2.631  -1.215  0.00  0.00     0.044 A 
ATOM     15  C   UNL d   1      -3.645  -3.986  -1.259  0.00  0.00     0.116 A 
ATOM     16  C   UNL d   1      -2.712  -4.892  -1.732  0.00  0.00     0.044 A 
ATOM     17  F   UNL d   1      -4.843  -4.418  -0.846  0.00  0.00    -0.206 F 
ATOM     18  C   UNL d   1      -1.457  -4.436  -2.147  0.00  0.00     0.032 A 
ENDBRANCH  10  12
ENDBRANCH   1  10
TORSDOF 4
