REMARK  3 active torsions:
REMARK  status: ('A' for Active; 'I' for Inactive)
REMARK    1  A    between atoms: N_2  and  C_9 
REMARK    2  A    between atoms: C_14  and  N_5 
REMARK    3  A    between atoms: C_19  and  C_14 
ROOT
ATOM      1  C   UNL d   1      -4.248  -3.574   3.413  0.00  0.00     0.030 A 
ATOM      2  C   UNL d   1      -3.033  -3.665   2.723  0.00  0.00     0.030 A 
ATOM      3  C   UNL d   1      -4.813  -2.294   3.531  0.00  0.00     0.030 A 
ATOM      4  C   UNL d   1      -2.988  -1.269   2.308  0.00  0.00    -0.030 A 
ATOM      5  C   UNL d   1      -4.200  -1.159   2.991  0.00  0.00     0.011 A 
ATOM      6  C   UNL d   1      -2.410  -2.536   2.176  0.00  0.00     0.011 A 
ENDROOT
BRANCH   4   7
ATOM      7  C   UNL d   1      -2.324  -0.051   1.717  0.00  0.00     0.311 C 
BRANCH   7   8
ATOM      8  N   UNL d   1      -1.908   0.955   2.712  0.00  0.00     0.094 N 
ATOM      9  C   UNL d   1      -0.936   0.473   3.706  0.00  0.00     0.287 C 
ATOM     10  C   UNL d   1       0.417   0.077   3.147  0.00  0.00     0.170 C 
ATOM     11  S   UNL d   1       1.154   1.424   2.258  0.00  0.00     0.147 S 
ATOM     12  C   UNL d   1      -0.171   2.051   1.259  0.00  0.00     0.170 C 
ATOM     13  O   UNL d   1       2.152   0.867   1.364  0.00  0.00    -0.228 OA
ATOM     14  O   UNL d   1       1.521   2.452   3.214  0.00  0.00    -0.228 OA
ATOM     15  C   UNL d   1      -1.439   2.199   2.080  0.00  0.00     0.287 C 
ENDBRANCH   7   8
ENDBRANCH   4   7
BRANCH   1  16
ATOM     16  N   UNL d   1      -4.846  -4.659   4.032  0.00  0.00    -0.378 N 
ATOM     17  C   UNL d   1      -4.099  -5.896   4.310  0.00  0.00     0.153 C 
ATOM     18  C   UNL d   1      -4.702  -6.590   5.556  0.00  0.00     0.291 C 
ATOM     19  N   UNL d   1      -6.151  -6.861   5.420  0.00  0.00     0.087 N 
ATOM     20  C   UNL d   1      -6.855  -5.592   5.118  0.00  0.00     0.291 C 
ATOM     21  C   UNL d   1      -6.676  -7.459   6.645  0.00  0.00     0.310 C 
ATOM     22  C   UNL d   1      -6.294  -4.888   3.861  0.00  0.00     0.153 C 
ENDBRANCH   1  16
TORSDOF 3
