REMARK  6 active torsions:
REMARK  status: ('A' for Active; 'I' for Inactive)
REMARK    1  A    between atoms: C_3  and  C_1 
REMARK    2  A    between atoms: N_2  and  C_9 
REMARK       I    between atoms: N_7  and  C_3 
REMARK    3  A    between atoms: O_21  and  C_4 
REMARK       I    between atoms: C_6  and  N_8 
REMARK    4  A    between atoms: C_14  and  C_6 
REMARK    5  A    between atoms: N_8  and  N_7 
REMARK    6  A    between atoms: C_22  and  O_21 
ROOT
ATOM      1  C   UNL d   1      -4.022   2.986  -0.459  0.00  0.00     0.270 C 
ATOM      2  N   UNL d   1      -2.821   2.351  -0.235  0.00  0.00    -0.263 N 
ATOM      3  O   UNL d   1      -4.192   4.182  -0.236  0.00  0.00    -0.266 OA
ATOM      4  H   UNL d   1      -2.653   1.354  -0.356  0.00  0.00     0.190 HD
ENDROOT
BRANCH   2   5
ATOM      5  N   UNL d   1      -1.737   3.108   0.220  0.00  0.00    -0.262 N 
ATOM      6  C   UNL d   1      -0.455   2.626   0.018  0.00  0.00     0.279 C 
ATOM      7  O   UNL d   1      -0.309   1.528  -0.528  0.00  0.00    -0.265 OA
ATOM      8  H   UNL d   1      -1.927   4.060   0.528  0.00  0.00     0.190 HD
BRANCH   6   9
ATOM      9  C   UNL d   1       0.633   3.462   0.514  0.00  0.00     0.107 A 
ATOM     10  C   UNL d   1       1.959   3.163   0.812  0.00  0.00     0.091 A 
ATOM     11  C   UNL d   1       2.699   4.321   1.205  0.00  0.00     0.045 A 
ATOM     12  C   UNL d   1       1.934   5.461   1.236  0.00  0.00     0.053 A 
ATOM     13  S   UNL d   1       0.325   5.147   0.782  0.00  0.00    -0.094 SA
BRANCH  10  14
ATOM     14  O   UNL d   1       2.613   1.975   0.715  0.00  0.00    -0.350 OA
BRANCH  14  15
ATOM     15  C   UNL d   1       1.888   0.810   1.093  0.00  0.00     0.171 C 
ATOM     16  C   UNL d   1       2.840  -0.159   1.774  0.00  0.00     0.034 C 
ENDBRANCH  14  15
ENDBRANCH  10  14
ENDBRANCH   6   9
ENDBRANCH   2   5
BRANCH   1  17
ATOM     17  C   UNL d   1      -5.141   2.140  -0.955  0.00  0.00     0.033 A 
ATOM     18  C   UNL d   1      -6.451   2.551  -0.668  0.00  0.00     0.019 A 
ATOM     19  C   UNL d   1      -7.545   1.802  -1.112  0.00  0.00     0.037 A 
ATOM     20  C   UNL d   1      -7.324   0.637  -1.858  0.00  0.00     0.102 A 
ATOM     21  C   UNL d   1      -6.019   0.221  -2.159  0.00  0.00     0.037 A 
ATOM     22  C   UNL d   1      -4.929   0.975  -1.708  0.00  0.00     0.019 A 
BRANCH  20  23
ATOM     23  N   UNL d   1      -8.470  -0.146  -2.338  0.00  0.00    -0.116 N 
ATOM     24  O   UNL d   1      -9.605   0.243  -2.029  0.00  0.00    -0.532 OA
ATOM     25  O   UNL d   1      -8.232  -1.153  -3.021  0.00  0.00    -0.532 OA
ENDBRANCH  20  23
ENDBRANCH   1  17
TORSDOF 6
