REMARK  5 active torsions:
REMARK  status: ('A' for Active; 'I' for Inactive)
REMARK    1  A    between atoms: C_6  and  C_1 
REMARK    2  A    between atoms: C_2  and  C_4 
REMARK    3  A    between atoms: C_9  and  N_3 
REMARK    4  A    between atoms: C_5  and  C_10 
REMARK    5  A    between atoms: O_22  and  C_6 
ROOT
ATOM      1  C   UNL d   1      -0.792  -1.448   0.083  0.00  0.00     0.121 C 
ATOM      2  C   UNL d   1       0.295  -1.046  -0.603  0.00  0.00     0.059 C 
ATOM      3  C   UNL d   1      -1.402  -2.720  -0.087  0.00  0.00     0.105 C 
ATOM      4  N   UNL d   1      -1.899  -3.761  -0.230  0.00  0.00    -0.191 NA
ENDROOT
BRANCH   1   5
ATOM      5  C   UNL d   1      -1.355  -0.487   1.069  0.00  0.00     0.303 C 
ATOM      6  O   UNL d   1      -0.896   0.626   1.281  0.00  0.00    -0.258 OA
BRANCH   5   7
ATOM      7  O   UNL d   1      -2.427  -1.022   1.706  0.00  0.00    -0.322 OA
ATOM      8  C   UNL d   1      -3.019  -0.178   2.698  0.00  0.00     0.213 C 
ENDBRANCH   5   7
ENDBRANCH   1   5
BRANCH   2   9
ATOM      9  C   UNL d   1       0.951  -1.853  -1.573  0.00  0.00     0.040 A 
ATOM     10  N   UNL d   1       2.008  -2.718  -1.264  0.00  0.00    -0.322 N 
ATOM     11  C   UNL d   1       2.387  -3.329  -2.452  0.00  0.00     0.097 A 
ATOM     12  C   UNL d   1       1.593  -2.887  -3.481  0.00  0.00     0.020 A 
ATOM     13  C   UNL d   1       0.680  -1.972  -2.927  0.00  0.00     0.031 A 
BRANCH  10  14
ATOM     14  C   UNL d   1       2.672  -2.964  -0.018  0.00  0.00     0.039 A 
ATOM     15  C   UNL d   1       3.290  -4.208   0.193  0.00  0.00     0.031 A 
ATOM     16  C   UNL d   1       4.044  -4.445   1.345  0.00  0.00     0.018 A 
ATOM     17  C   UNL d   1       4.198  -3.444   2.310  0.00  0.00     0.048 A 
ATOM     18  C   UNL d   1       3.546  -2.218   2.118  0.00  0.00     0.018 A 
ATOM     19  C   UNL d   1       2.786  -1.978   0.966  0.00  0.00     0.031 A 
BRANCH  17  20
ATOM     20  C   UNL d   1       5.081  -3.650   3.517  0.00  0.00     0.417 C 
ATOM     21  F   UNL d   1       5.625  -4.896   3.591  0.00  0.00    -0.166 F 
ATOM     22  F   UNL d   1       6.132  -2.783   3.538  0.00  0.00    -0.166 F 
ATOM     23  F   UNL d   1       4.417  -3.460   4.690  0.00  0.00    -0.166 F 
ENDBRANCH  17  20
ENDBRANCH  10  14
ENDBRANCH   2   9
TORSDOF 5
