REMARK  1 active torsions:
REMARK  status: ('A' for Active; 'I' for Inactive)
REMARK    1  A    between atoms: C_7  and  C_2 
ROOT
ATOM      1  N   UNL d   1       0.741   0.968  -0.724  0.00  0.00    -0.061 NA
ATOM      2  C   UNL d   1      -0.024  -1.293  -0.059  0.00  0.00     0.046 A 
ATOM      3  N   UNL d   1       0.713   0.844   0.590  0.00  0.00    -0.303 N 
ATOM      4  HN  UNL d   1       0.970   1.585   1.243  1.00  0.00     0.182 HD
ATOM      5  S   UNL d   1       0.272  -0.425  -1.519  0.00  0.00     0.002 SA
ATOM      6  C   UNL d   1       0.292  -0.420   0.971  0.00  0.00     0.124 A 
ENDROOT
BRANCH   2   7
ATOM      7  C   UNL d   1      -0.496  -2.681  -0.035  0.00  0.00    -0.017 A 
ATOM      8  C   UNL d   1      -0.121  -3.534   1.016  0.00  0.00     0.013 A 
ATOM      9  C   UNL d   1      -0.582  -4.853   1.071  0.00  0.00     0.001 A 
ATOM     10  C   UNL d   1      -1.427  -5.339   0.077  0.00  0.00     0.000 A 
ATOM     11  C   UNL d   1      -1.808  -4.509  -0.973  0.00  0.00     0.001 A 
ATOM     12  C   UNL d   1      -1.348  -3.191  -1.028  0.00  0.00     0.013 A 
ENDBRANCH   2   7
TORSDOF 1
