REMARK  4 active torsions:
REMARK  status: ('A' for Active; 'I' for Inactive)
REMARK    1  A    between atoms: N_2  and  C_1 
REMARK    2  A    between atoms: C_5  and  C_1 
REMARK    3  A    between atoms: N_4  and  N_2 
REMARK    4  A    between atoms: C_6  and  N_4 
ROOT
ATOM      1  N   UNL d   1       0.345  -1.403  -0.317  0.00  0.00    -0.289 N 
ATOM      2  H   UNL d   1      -0.645  -1.295  -0.535  0.00  0.00     0.188 HD
ENDROOT
BRANCH   1   3
ATOM      3  C   UNL d   1       1.052  -0.215  -0.257  0.00  0.00     0.125 C 
ATOM      4  S   UNL d   1       0.239   1.166  -0.781  0.00  0.00    -0.058 SA
BRANCH   3   5
ATOM      5  C   UNL d   1       2.476  -0.201   0.189  0.00  0.00     0.003 A 
ATOM      6  C   UNL d   1       3.353  -1.213  -0.222  0.00  0.00     0.014 A 
ATOM      7  C   UNL d   1       4.700  -1.171   0.148  0.00  0.00     0.001 A 
ATOM      8  C   UNL d   1       5.184  -0.111   0.915  0.00  0.00     0.000 A 
ATOM      9  C   UNL d   1       4.321   0.905   1.322  0.00  0.00     0.001 A 
ATOM     10  C   UNL d   1       2.971   0.859   0.965  0.00  0.00     0.014 A 
ENDBRANCH   3   5
ENDBRANCH   1   3
BRANCH   1  11
ATOM     11  N   UNL d   1       0.606  -2.481   0.528  0.00  0.00    -0.300 N 
ATOM     12  H   UNL d   1       1.398  -2.403   1.165  0.00  0.00     0.187 HD
BRANCH  11  13
ATOM     13  C   UNL d   1       0.434  -3.766  -0.037  0.00  0.00     0.048 A 
ATOM     14  C   UNL d   1      -0.073  -3.984  -1.327  0.00  0.00     0.031 A 
ATOM     15  C   UNL d   1      -0.325  -5.277  -1.799  0.00  0.00     0.002 A 
ATOM     16  C   UNL d   1      -0.099  -6.375  -0.978  0.00  0.00     0.000 A 
ATOM     17  C   UNL d   1       0.383  -6.183   0.314  0.00  0.00     0.002 A 
ATOM     18  C   UNL d   1       0.644  -4.888   0.778  0.00  0.00     0.031 A 
ENDBRANCH  11  13
ENDBRANCH   1  11
TORSDOF 4
