REMARK  7 active torsions:
REMARK  status: ('A' for Active; 'I' for Inactive)
REMARK    1  A    between atoms: C_4  and  C_1 
REMARK    2  A    between atoms: N_5  and  C_2 
REMARK    3  A    between atoms: C_10  and  C_4 
REMARK       I    between atoms: C_8  and  N_5 
REMARK    4  A    between atoms: C_21  and  C_7 
REMARK    5  A    between atoms: C_12  and  C_8 
REMARK    6  A    between atoms: N_9  and  C_12 
REMARK    7  A    between atoms: O_20  and  C_17 
ROOT
ATOM      1  C   UNL d   1       1.499   0.446   1.275  0.00  0.00     0.050 A 
ATOM      2  C   UNL d   1       0.301   1.088   0.957  0.00  0.00     0.091 A 
ATOM      3  S   UNL d   1      -0.928  -0.030   0.542  0.00  0.00    -0.076 SA
ATOM      4  C   UNL d   1       1.360  -0.984   1.108  0.00  0.00     0.033 A 
ATOM      5  C   UNL d   1       0.118  -1.363   0.650  0.00  0.00    -0.015 A 
ENDROOT
BRANCH   2   6
ATOM      6  N   UNL d   1      -0.002   2.446   0.828  0.00  0.00    -0.319 N 
ATOM      7  C   UNL d   1      -1.266   2.953   1.085  0.00  0.00     0.251 C 
ATOM      8  O   UNL d   1      -2.124   2.357   1.746  0.00  0.00    -0.271 OA
ATOM      9  H   UNL d   1       0.768   3.108   0.754  0.00  0.00     0.169 HD
BRANCH   7  10
ATOM     10  C   UNL d   1      -1.630   4.358   0.579  0.00  0.00     0.375 C 
BRANCH  10  11
ATOM     11  N   UNL d   1      -0.614   5.098  -0.196  0.00  0.00     0.101 N 
ATOM     12  C   UNL d   1      -0.433   4.610  -1.586  0.00  0.00     0.299 C 
ATOM     13  C   UNL d   1      -1.391   5.144  -2.680  0.00  0.00     0.198 C 
ATOM     14  O   UNL d   1      -1.625   6.551  -2.587  0.00  0.00    -0.388 OA
ATOM     15  C   UNL d   1      -2.083   6.883  -1.276  0.00  0.00     0.198 C 
ATOM     16  C   UNL d   1      -0.991   6.540  -0.249  0.00  0.00     0.299 C 
ENDBRANCH  10  11
ENDBRANCH   7  10
ENDBRANCH   2   6
BRANCH   1  17
ATOM     17  C   UNL d   1       2.730   1.141   1.665  0.00  0.00     0.195 C 
ATOM     18  O   UNL d   1       2.916   2.328   1.375  0.00  0.00    -0.287 OA
BRANCH  17  19
ATOM     19  C   UNL d   1       3.821   0.423   2.399  0.00  0.00     0.015 A 
ATOM     20  C   UNL d   1       3.571  -0.439   3.479  0.00  0.00     0.018 A 
ATOM     21  C   UNL d   1       4.640  -1.021   4.191  0.00  0.00     0.037 A 
ATOM     22  C   UNL d   1       5.961  -0.737   3.834  0.00  0.00     0.068 A 
ATOM     23  C   UNL d   1       6.208   0.097   2.744  0.00  0.00     0.037 A 
ATOM     24  C   UNL d   1       5.147   0.687   2.042  0.00  0.00     0.018 A 
BRANCH  22  25
ATOM     25  O   UNL d   1       7.078  -1.234   4.447  0.00  0.00    -0.356 OA
ATOM     26  C   UNL d   1       6.944  -1.598   5.817  0.00  0.00     0.210 C 
ENDBRANCH  22  25
ENDBRANCH  17  19
ENDBRANCH   1  17
BRANCH   5  27
ATOM     27  C   UNL d   1      -0.349  -2.720   0.218  0.00  0.00     0.042 C 
ATOM     28  C   UNL d   1      -0.127  -2.908  -1.278  0.00  0.00     0.010 C 
ENDBRANCH   5  27
TORSDOF 7
