REMARK  3 active torsions:
REMARK  status: ('A' for Active; 'I' for Inactive)
REMARK    1  A    between atoms: C_13  and  C_5 
REMARK    2  A    between atoms: N_15  and  C_6 
REMARK    3  A    between atoms: O_22  and  C_18 
ROOT
ATOM      1  C   UNL d   1      -0.302   0.929  -0.201  0.00  0.00     0.066 A 
ATOM      2  C   UNL d   1       0.135  -0.330  -0.070  0.00  0.00     0.103 A 
ATOM      3  C   UNL d   1      -2.641  -0.007  -0.089  0.00  0.00     0.081 A 
ATOM      4  C   UNL d   1       0.660   2.041  -0.366  0.00  0.00     0.298 C 
ATOM      5  C   UNL d   1      -1.782   1.245  -0.217  0.00  0.00     0.108 A 
ATOM      6  C   UNL d   1      -2.091  -1.235   0.034  0.00  0.00     0.138 A 
ATOM      7  O   UNL d   1      -0.713  -1.413   0.044  0.00  0.00    -0.296 OA
ATOM      8  C   UNL d   1       1.563  -0.629  -0.029  0.00  0.00     0.033 A 
ATOM      9  O   UNL d   1       1.997   1.762  -0.112  0.00  0.00    -0.274 OA
ATOM     10  C   UNL d   1       2.455   0.439  -0.010  0.00  0.00     0.092 A 
ATOM     11  C   UNL d   1      -4.058   0.145  -0.124  0.00  0.00     0.100 C 
ATOM     12  N   UNL d   1      -5.217   0.235  -0.172  0.00  0.00    -0.191 NA
ATOM     13  O   UNL d   1       0.309   3.161  -0.718  0.00  0.00    -0.259 OA
ATOM     14  C   UNL d   1       2.084  -1.928   0.012  0.00  0.00     0.017 A 
ATOM     15  C   UNL d   1       3.833   0.251   0.073  0.00  0.00     0.038 A 
ATOM     16  C   UNL d   1       3.466  -2.133   0.079  0.00  0.00     0.001 A 
ATOM     17  C   UNL d   1       4.339  -1.045   0.116  0.00  0.00     0.003 A 
ENDROOT
BRANCH   5  18
ATOM     18  C   UNL d   1      -2.138   2.297   0.835  0.00  0.00    -0.044 A 
ATOM     19  C   UNL d   1      -2.044   2.032   2.211  0.00  0.00     0.011 A 
ATOM     20  C   UNL d   1      -2.250   3.052   3.147  0.00  0.00     0.037 A 
ATOM     21  C   UNL d   1      -2.549   4.347   2.723  0.00  0.00     0.068 A 
ATOM     22  C   UNL d   1      -2.663   4.612   1.360  0.00  0.00     0.037 A 
ATOM     23  C   UNL d   1      -2.478   3.595   0.423  0.00  0.00     0.011 A 
BRANCH  21  24
ATOM     24  O   UNL d   1      -2.690   5.439   3.534  0.00  0.00    -0.356 OA
ATOM     25  C   UNL d   1      -3.113   5.174   4.864  0.00  0.00     0.210 C 
ENDBRANCH  21  24
ENDBRANCH   5  18
BRANCH   6  26
ATOM     26  N   UNL d   1      -2.776  -2.421   0.155  0.00  0.00    -0.282 NA
ATOM     27  H   UNL d   1      -3.738  -2.421  -0.178  0.00  0.00     0.126 HD
ATOM     28  H   UNL d   1      -2.237  -3.219  -0.174  0.00  0.00     0.126 HD
ENDBRANCH   6  26
TORSDOF 3
