REMARK  1 active torsions:
REMARK  status: ('A' for Active; 'I' for Inactive)
REMARK    1  A    between atoms: C_12  and  C_6 
ROOT
ATOM      1  C   UNL d   1      -0.305   0.631   0.061  0.00  0.00     0.039 A 
ATOM      2  C   UNL d   1       2.163   0.537   0.357  0.00  0.00     0.003 C 
ATOM      3  C   UNL d   1       0.946   1.381   0.168  0.00  0.00     0.191 C 
ATOM      4  C   UNL d   1      -0.405  -0.749   0.053  0.00  0.00     0.055 A 
ATOM      5  S   UNL d   1       0.945  -1.871   0.096  0.00  0.00    -0.117 SA
ATOM      6  C   UNL d   1       3.072   0.979   1.246  0.00  0.00     0.023 C 
ATOM      7  S   UNL d   1      -2.017  -1.300  -0.001  0.00  0.00    -0.094 SA
ATOM      8  C   UNL d   1      -1.611   1.228  -0.021  0.00  0.00     0.024 A 
ATOM      9  C   UNL d   1       2.232  -0.721  -0.453  0.00  0.00     0.122 C 
ATOM     10  C   UNL d   1      -2.623   0.295  -0.055  0.00  0.00     0.052 A 
ATOM     11  O   UNL d   1       0.999   2.606   0.148  0.00  0.00    -0.287 OA
ENDROOT
BRANCH   6  12
ATOM     12  C   UNL d   1       4.232   0.179   1.636  0.00  0.00    -0.034 A 
ATOM     13  C   UNL d   1       5.444   0.283   0.947  0.00  0.00     0.035 A 
ATOM     14  C   UNL d   1       6.498  -0.567   1.278  0.00  0.00     0.034 A 
ATOM     15 CL   UNL d   1       7.980  -0.465   0.409  0.00  0.00    -0.084 Cl
ATOM     16  C   UNL d   1       6.358  -1.515   2.292  0.00  0.00     0.024 A 
ATOM     17  C   UNL d   1       5.155  -1.610   2.990  0.00  0.00     0.003 A 
ATOM     18  C   UNL d   1       4.094  -0.766   2.662  0.00  0.00     0.011 A 
ENDBRANCH   6  12
TORSDOF 1
