REMARK  3 active torsions:
REMARK  status: ('A' for Active; 'I' for Inactive)
REMARK    1  A    between atoms: C_2  and  S_1 
REMARK    2  A    between atoms: N_5  and  S_1 
REMARK    3  A    between atoms: C_8  and  N_5 
ROOT
ATOM      1  S   UNL d   1       1.178  -0.075  -0.049  0.00  0.00     0.249 S 
ATOM      2  O   UNL d   1       0.689  -1.118   0.820  0.00  0.00    -0.205 OA
ATOM      3  O   UNL d   1       2.592   0.106  -0.309  0.00  0.00    -0.205 OA
ENDROOT
BRANCH   1   4
ATOM      4  C   UNL d   1       0.645   1.509   0.607  0.00  0.00     0.122 A 
ATOM      5  S   UNL d   1      -0.137   1.469   2.122  0.00  0.00    -0.076 SA
ATOM      6  C   UNL d   1      -0.410   3.162   2.132  0.00  0.00     0.017 A 
ATOM      7  C   UNL d   1      -1.072   3.902   3.131  0.00  0.00     0.021 A 
ATOM      8  C   UNL d   1       0.132   3.771   0.999  0.00  0.00    -0.009 A 
ATOM      9  C   UNL d   1      -1.163   5.290   2.999  0.00  0.00     0.025 A 
ATOM     10  C   UNL d   1      -0.619   5.920   1.891  0.00  0.00     0.035 A 
ATOM     11  C   UNL d   1       0.016   5.182   0.888  0.00  0.00     0.037 A 
ATOM     12 CL   UNL d   1      -0.720   7.633   1.750  0.00  0.00    -0.084 Cl
ATOM     13  C   UNL d   1       0.747   2.803   0.111  0.00  0.00    -0.021 A 
ATOM     14  C   UNL d   1       1.416   3.177  -1.175  0.00  0.00     0.051 C 
ENDBRANCH   1   4
BRANCH   1  15
ATOM     15  N   UNL d   1       0.444  -0.251  -1.549  0.00  0.00    -0.202 NA
ATOM     16  H   UNL d   1       1.119  -0.555  -2.260  0.00  0.00     0.141 HD
BRANCH  15  17
ATOM     17  C   UNL d   1      -0.839  -1.007  -1.627  0.00  0.00     0.163 C 
ATOM     18  C   UNL d   1      -1.132  -1.243  -3.121  0.00  0.00     0.236 C 
ATOM     19  N   UNL d   1      -2.254  -1.944  -3.461  0.00  0.00    -0.360 N 
ATOM     20  O   UNL d   1      -0.387  -0.840  -4.019  0.00  0.00    -0.272 OA
ATOM     21  C   UNL d   1      -3.146  -2.639  -2.559  0.00  0.00     0.122 C 
ATOM     22  H   UNL d   1      -2.380  -2.063  -4.460  0.00  0.00     0.162 HD
ATOM     23  C   UNL d   1      -3.957  -1.685  -1.696  0.00  0.00     0.020 C 
ATOM     24  C   UNL d   1      -3.157  -1.082  -0.547  0.00  0.00     0.004 C 
ATOM     25  C   UNL d   1      -1.979  -0.215  -0.986  0.00  0.00     0.030 C 
ENDBRANCH  15  17
ENDBRANCH   1  15
TORSDOF 3
