REMARK  3 active torsions:
REMARK  status: ('A' for Active; 'I' for Inactive)
REMARK    1  A    between atoms: C_3  and  C_1 
REMARK       I    between atoms: N_16  and  C_3 
REMARK    2  A    between atoms: C_4  and  C_19 
REMARK    3  A    between atoms: C_25  and  N_16 
ROOT
ATOM      1  C   UNL d   1      -0.530  -4.854  -0.883  0.00  0.00     0.258 C 
ATOM      2  N   UNL d   1      -0.192  -3.796  -0.060  0.00  0.00    -0.323 N 
ATOM      3  O   UNL d   1       0.265  -5.598  -1.454  0.00  0.00    -0.267 OA
ATOM      4  H   UNL d   1      -0.955  -3.324   0.421  0.00  0.00     0.169 HD
ENDROOT
BRANCH   2   5
ATOM      5  C   UNL d   1       1.102  -3.259   0.136  0.00  0.00     0.035 A 
ATOM      6  C   UNL d   1       2.218  -3.664  -0.596  0.00  0.00     0.030 A 
ATOM      7  C   UNL d   1       3.453  -3.029  -0.429  0.00  0.00     0.017 A 
ATOM      8  C   UNL d   1       3.614  -1.978   0.482  0.00  0.00     0.010 A 
ATOM      9  C   UNL d   1       2.502  -1.588   1.237  0.00  0.00     0.017 A 
ATOM     10  C   UNL d   1       1.259  -2.224   1.065  0.00  0.00     0.030 A 
BRANCH   8  11
ATOM     11  C   UNL d   1       4.904  -1.281   0.514  0.00  0.00     0.133 A 
ATOM     12  N   UNL d   1       5.575  -0.762   1.595  0.00  0.00    -0.331 N 
ATOM     13  C   UNL d   1       6.715  -0.196   1.106  0.00  0.00     0.201 A 
ATOM     14  C   UNL d   1       5.252  -0.828   2.994  0.00  0.00     0.158 C 
ATOM     15  N   UNL d   1       6.778  -0.374  -0.189  0.00  0.00    -0.294 N 
ATOM     16  N   UNL d   1       5.653  -1.065  -0.557  0.00  0.00    -0.284 N 
ATOM     17  HN  UNL d   1       7.524  -0.057  -0.808  1.00  0.00     0.187 HD
ATOM     18  HN  UNL d   1       5.429  -1.367  -1.505  1.00  0.00     0.188 HD
ENDBRANCH   8  11
ENDBRANCH   2   5
BRANCH   1  19
ATOM     19  C   UNL d   1      -1.971  -5.129  -1.100  0.00  0.00     0.061 A 
ATOM     20  C   UNL d   1      -3.033  -4.370  -0.546  0.00  0.00     0.082 A 
ATOM     21  N   UNL d   1      -2.944  -3.307   0.277  0.00  0.00    -0.310 N 
ATOM     22  C   UNL d   1      -4.471  -4.732  -0.866  0.00  0.00     0.068 A 
ATOM     23  S   UNL d   1      -4.499  -2.811   0.592  0.00  0.00     0.068 SA
ATOM     24  HN  UNL d   1      -2.087  -2.887   0.637  1.00  0.00     0.176 HD
ATOM     25  N   UNL d   1      -5.365  -3.925  -0.277  0.00  0.00    -0.310 N 
ATOM     26  HN  UNL d   1      -6.380  -3.985  -0.349  1.00  0.00     0.176 HD
ATOM     27  C   UNL d   1      -4.787  -5.823  -1.711  0.00  0.00     0.032 A 
ATOM     28  C   UNL d   1      -3.700  -6.538  -2.232  0.00  0.00     0.003 A 
ATOM     29  C   UNL d   1      -2.357  -6.206  -1.942  0.00  0.00     0.019 A 
ENDBRANCH   1  19
TORSDOF 3
