REMARK  4 active torsions:
REMARK  status: ('A' for Active; 'I' for Inactive)
REMARK    1  A    between atoms: C_6  and  C_1 
REMARK    2  A    between atoms: C_8  and  C_4 
REMARK       I    between atoms: N_7  and  C_6 
REMARK    3  A    between atoms: C_12  and  N_7 
REMARK    4  A    between atoms: C_14  and  C_12 
ROOT
ATOM      1  C   UNL d   1      -0.219  -1.274  -0.007  0.00  0.00     0.064 A 
ATOM      2  C   UNL d   1      -1.525  -0.691   0.005  0.00  0.00     0.057 A 
ATOM      3  C   UNL d   1       0.651  -0.192  -0.003  0.00  0.00     0.065 A 
ATOM      4  C   UNL d   1      -1.371   0.679   0.059  0.00  0.00     0.087 A 
ATOM      5  O   UNL d   1      -0.043   0.982   0.045  0.00  0.00    -0.314 OA
ATOM      6  C   UNL d   1       2.124  -0.037  -0.021  0.00  0.00     0.077 C 
ENDROOT
BRANCH   1   7
ATOM      7  C   UNL d   1       0.173  -2.680  -0.025  0.00  0.00     0.254 C 
ATOM      8  N   UNL d   1      -0.863  -3.584   0.063  0.00  0.00    -0.353 N 
ATOM      9  H   UNL d   1      -1.806  -3.259   0.201  0.00  0.00     0.163 HD
ATOM     10  O   UNL d   1       1.345  -3.040  -0.112  0.00  0.00    -0.268 OA
BRANCH   8  11
ATOM     11  C   UNL d   1      -0.647  -5.010  -0.038  0.00  0.00     0.161 C 
BRANCH  11  12
ATOM     12  C   UNL d   1      -0.646  -5.706   1.298  0.00  0.00    -0.038 A 
ATOM     13  C   UNL d   1      -1.608  -6.675   1.603  0.00  0.00     0.025 A 
ATOM     14  C   UNL d   1      -1.524  -7.343   2.816  0.00  0.00     0.088 A 
ATOM     15  N   UNL d   1      -0.566  -7.113   3.736  0.00  0.00    -0.375 N 
ATOM     16  C   UNL d   1       0.353  -6.174   3.428  0.00  0.00     0.088 A 
ATOM     17  HN  UNL d   1      -0.538  -7.622   4.620  1.00  0.00     0.164 HD
ATOM     18  C   UNL d   1       0.356  -5.455   2.242  0.00  0.00     0.025 A 
ENDBRANCH  11  12
ENDBRANCH   8  11
ENDBRANCH   1   7
BRANCH   4  19
ATOM     19  C   UNL d   1      -2.304   1.797   0.155  0.00  0.00    -0.002 A 
ATOM     20  C   UNL d   1      -1.911   3.030   0.695  0.00  0.00     0.014 A 
ATOM     21  C   UNL d   1      -2.837   4.063   0.868  0.00  0.00     0.001 A 
ATOM     22  C   UNL d   1      -4.166   3.881   0.490  0.00  0.00     0.000 A 
ATOM     23  C   UNL d   1      -4.566   2.673  -0.074  0.00  0.00     0.001 A 
ATOM     24  C   UNL d   1      -3.641   1.639  -0.241  0.00  0.00     0.014 A 
ENDBRANCH   4  19
TORSDOF 4
