REMARK  3 active torsions:
REMARK  status: ('A' for Active; 'I' for Inactive)
REMARK    1  A    between atoms: C_2  and  C_1 
REMARK    2  A    between atoms: C_9  and  C_3 
REMARK    3  A    between atoms: C_13  and  N_4 
ROOT
ATOM      1  C   UNL d   1      -0.119  -1.290  -0.139  0.00  0.00     0.152 C 
ATOM      2  N   UNL d   1       1.092  -0.667   0.115  0.00  0.00    -0.224 N 
ATOM      3  N   UNL d   1       0.837   0.634   0.389  0.00  0.00     0.001 NA
ATOM      4  N   UNL d   1      -0.432   0.825   0.064  0.00  0.00    -0.007 NA
ATOM      5  N   UNL d   1      -1.035  -0.357  -0.291  0.00  0.00    -0.269 N 
ATOM      6  HN  UNL d   1      -1.996  -0.485  -0.607  1.00  0.00     0.185 HD
ENDROOT
BRANCH   1   7
ATOM      7  C   UNL d   1      -0.412  -2.742  -0.102  0.00  0.00     0.060 A 
ATOM      8  C   UNL d   1      -1.396  -3.421  -0.791  0.00  0.00     0.147 A 
ATOM      9  N   UNL d   1      -1.290  -4.724  -0.390  0.00  0.00    -0.296 N 
ATOM     10  N   UNL d   1      -0.290  -4.941   0.480  0.00  0.00    -0.310 N 
ATOM     11  H   UNL d   1      -1.846  -5.519  -0.690  0.00  0.00     0.187 HD
ATOM     12  C   UNL d   1       0.237  -3.731   0.667  0.00  0.00     0.124 A 
ATOM     13  HN  UNL d   1      -0.001  -5.825   0.899  1.00  0.00     0.186 HD
BRANCH   8  14
ATOM     14  C   UNL d   1      -2.381  -3.063  -1.817  0.00  0.00     0.434 C 
ATOM     15  F   UNL d   1      -2.208  -1.831  -2.340  0.00  0.00    -0.165 F 
ATOM     16  F   UNL d   1      -2.307  -3.938  -2.857  0.00  0.00    -0.165 F 
ATOM     17  F   UNL d   1      -3.648  -3.142  -1.344  0.00  0.00    -0.165 F 
ENDBRANCH   8  14
ENDBRANCH   1   7
BRANCH   2  18
ATOM     18  C   UNL d   1       2.412  -1.155  -0.028  0.00  0.00     0.056 A 
ATOM     19  C   UNL d   1       2.681  -2.213  -0.908  0.00  0.00     0.032 A 
ATOM     20  C   UNL d   1       3.990  -2.663  -1.083  0.00  0.00     0.009 A 
ATOM     21  C   UNL d   1       5.043  -2.069  -0.382  0.00  0.00    -0.062 A 
ATOM     22  C   UNL d   1       4.772  -1.002   0.485  0.00  0.00     0.009 A 
ATOM     23  C   UNL d   1       6.447  -2.542  -0.617  0.00  0.00     0.048 C 
ATOM     24  C   UNL d   1       3.464  -0.535   0.653  0.00  0.00     0.032 A 
ENDBRANCH   2  18
TORSDOF 3
