REMARK  4 active torsions:
REMARK  status: ('A' for Active; 'I' for Inactive)
REMARK    1  A    between atoms: C_9  and  C_1 
REMARK    2  A    between atoms: O_11  and  C_3 
REMARK    3  A    between atoms: C_20  and  N_5 
REMARK    4  A    between atoms: C_14  and  C_20 
ROOT
ATOM      1  N   UNL d   1       0.779   4.223   0.053  0.00  0.00    -0.394 N 
ATOM      2  HN  UNL d   1       1.726   3.849   0.120  1.00  0.00     0.159 HD
ATOM      3  C   UNL d   1      -0.250   3.453   0.016  0.00  0.00     0.097 C 
ENDROOT
BRANCH   3   4
ATOM      4  C   UNL d   1      -0.078   1.984   0.023  0.00  0.00     0.015 A 
ATOM      5  C   UNL d   1      -1.182   1.130   0.021  0.00  0.00     0.099 A 
ATOM      6  C   UNL d   1      -0.981  -0.257   0.015  0.00  0.00     0.069 A 
ATOM      7 CL   UNL d   1      -2.332  -1.331   0.012  0.00  0.00    -0.081 Cl
ATOM      8  C   UNL d   1       0.308  -0.790   0.011  0.00  0.00     0.050 A 
ATOM      9  C   UNL d   1       1.402   0.070   0.012  0.00  0.00     0.036 A 
ATOM     10  C   UNL d   1       1.219   1.450   0.018  0.00  0.00     0.039 A 
ATOM     11 CL   UNL d   1       2.996  -0.577   0.002  0.00  0.00    -0.084 Cl
BRANCH   5  12
ATOM     12  O   UNL d   1      -2.449   1.653   0.022  0.00  0.00    -0.358 OA
ATOM     13  H   UNL d   1      -3.079   0.905   0.017  0.00  0.00     0.217 HD
ENDBRANCH   5  12
ENDBRANCH   3   4
BRANCH   1  14
ATOM     14  C   UNL d   1       0.522   5.663  -0.008  0.00  0.00     0.157 C 
BRANCH  14  15
ATOM     15  C   UNL d   1       1.645   6.397  -0.714  0.00  0.00    -0.041 A 
ATOM     16  C   UNL d   1       1.395   7.618  -1.359  0.00  0.00     0.010 A 
ATOM     17  C   UNL d   1       2.429   8.306  -2.002  0.00  0.00     0.024 A 
ATOM     18  C   UNL d   1       3.720   7.783  -1.996  0.00  0.00     0.034 A 
ATOM     19  C   UNL d   1       3.991   6.584  -1.344  0.00  0.00     0.024 A 
ATOM     20 CL   UNL d   1       4.990   8.626  -2.795  0.00  0.00    -0.084 Cl
ATOM     21  C   UNL d   1       2.959   5.900  -0.700  0.00  0.00     0.010 A 
ENDBRANCH  14  15
ENDBRANCH   1  14
TORSDOF 4
