REMARK  6 active torsions:
REMARK  status: ('A' for Active; 'I' for Inactive)
REMARK    1  A    between atoms: C_4  and  C_1 
REMARK    2  A    between atoms: C_2  and  C_5 
REMARK    3  A    between atoms: C_3  and  N_6 
REMARK       I    between atoms: N_6  and  C_10 
REMARK    4  A    between atoms: C_10  and  C_25 
REMARK    5  A    between atoms: S_16  and  C_13 
REMARK    6  A    between atoms: C_25  and  S_16 
ROOT
ATOM      1  S   UNL d   1      -1.679  -0.861  -4.337  0.00  0.00    -0.121 SA
ENDROOT
BRANCH   1   2
ATOM      2  C   UNL d   1      -0.695  -1.976  -3.339  0.00  0.00     0.002 A 
ATOM      3  C   UNL d   1       0.207  -2.833  -3.975  0.00  0.00     0.034 A 
ATOM      4  C   UNL d   1       0.767  -3.921  -3.293  0.00  0.00     0.050 A 
ATOM      5  C   UNL d   1       0.481  -4.086  -1.930  0.00  0.00     0.032 A 
ATOM      6  C   UNL d   1      -0.371  -3.193  -1.257  0.00  0.00     0.050 A 
ATOM      7  C   UNL d   1      -0.953  -2.132  -1.975  0.00  0.00     0.034 A 
BRANCH   4   8
ATOM      8  C   UNL d   1       1.588  -4.928  -4.063  0.00  0.00     0.417 C 
ATOM      9  F   UNL d   1       1.881  -6.048  -3.349  0.00  0.00    -0.166 F 
ATOM     10  F   UNL d   1       0.941  -5.359  -5.182  0.00  0.00    -0.166 F 
ATOM     11  F   UNL d   1       2.776  -4.422  -4.487  0.00  0.00    -0.166 F 
ENDBRANCH   4   8
BRANCH   6  12
ATOM     12  C   UNL d   1      -0.714  -3.401   0.202  0.00  0.00     0.417 C 
ATOM     13  F   UNL d   1      -0.236  -4.573   0.705  0.00  0.00    -0.166 F 
ATOM     14  F   UNL d   1      -2.057  -3.423   0.420  0.00  0.00    -0.166 F 
ATOM     15  F   UNL d   1      -0.217  -2.419   1.001  0.00  0.00    -0.166 F 
ENDBRANCH   6  12
ENDBRANCH   1   2
BRANCH   1  16
ATOM     16  C   UNL d   1      -2.626  -2.156  -5.205  0.00  0.00     0.182 C 
BRANCH  16  17
ATOM     17  C   UNL d   1      -3.654  -1.688  -6.220  0.00  0.00     0.231 C 
ATOM     18  N   UNL d   1      -3.841  -0.334  -6.346  0.00  0.00    -0.326 N 
ATOM     19  H   UNL d   1      -3.024   0.223  -6.127  0.00  0.00     0.169 HD
ATOM     20  O   UNL d   1      -4.259  -2.540  -6.883  0.00  0.00    -0.272 OA
BRANCH  18  21
ATOM     21  C   UNL d   1      -4.824   0.261  -7.168  0.00  0.00     0.046 A 
ATOM     22  C   UNL d   1      -6.195  -0.056  -7.048  0.00  0.00    -0.034 A 
ATOM     23  C   UNL d   1      -7.138   0.704  -7.773  0.00  0.00     0.015 A 
ATOM     24  C   UNL d   1      -6.782  -1.077  -6.109  0.00  0.00     0.050 C 
ATOM     25  C   UNL d   1      -6.754   1.761  -8.599  0.00  0.00    -0.061 A 
ATOM     26  C   UNL d   1      -5.394   2.020  -8.762  0.00  0.00     0.015 A 
ATOM     27  C   UNL d   1      -7.795   2.608  -9.266  0.00  0.00     0.048 C 
ATOM     28  C   UNL d   1      -4.421   1.278  -8.063  0.00  0.00    -0.034 A 
ATOM     29  C   UNL d   1      -2.981   1.610  -8.359  0.00  0.00     0.050 C 
ENDBRANCH  18  21
ENDBRANCH  16  17
ENDBRANCH   1  16
TORSDOF 6
