REMARK  0 active torsions:
REMARK  status: ('A' for Active; 'I' for Inactive)
ROOT
ATOM      1  C   UNL d   1       1.247  -0.701   0.032  0.00  0.00     0.078 A 
ATOM      2  C   UNL d   1       1.259   0.707  -0.039  0.00  0.00     0.073 A 
ATOM      3  C   UNL d   1       0.021  -1.385   0.066  0.00  0.00     0.057 A 
ATOM      4  C   UNL d   1       0.039   1.408  -0.069  0.00  0.00     0.030 A 
ATOM      5  C   UNL d   1      -1.183  -0.678   0.033  0.00  0.00     0.027 A 
ATOM      6  C   UNL d   1      -1.176   0.713  -0.032  0.00  0.00     0.021 A 
ATOM      7 CL   UNL d   1       2.737  -1.599   0.083  0.00  0.00    -0.081 Cl
ATOM      8 CL   UNL d   1       2.774   1.561  -0.093  0.00  0.00    -0.081 Cl
ATOM      9 CL   UNL d   1      -0.086  -3.111   0.147  0.00  0.00    -0.082 Cl
ATOM     10  I   UNL d   1      -0.103   3.507  -0.166  0.00  0.00    -0.043 I 
ENDROOT
TORSDOF 0
