REMARK  6 active torsions:
REMARK  status: ('A' for Active; 'I' for Inactive)
REMARK    1  A    between atoms: N_4  and  C_1 
REMARK       I    between atoms: C_5  and  N_4 
REMARK       I    between atoms: N_10  and  C_5 
REMARK    2  A    between atoms: C_8  and  C_6 
REMARK    3  A    between atoms: C_12  and  C_8 
REMARK    4  A    between atoms: C_11  and  N_10 
REMARK    5  A    between atoms: O_20  and  C_12 
REMARK    6  A    between atoms: C_23  and  O_20 
ROOT
ATOM      1  N   UNL d   1      -0.141  -1.607  -0.365  0.00  0.00    -0.288 N 
ATOM      2  C   UNL d   1       0.579  -2.732  -0.106  0.00  0.00     0.326 C 
ATOM      3  N   UNL d   1       1.774  -2.885  -0.739  0.00  0.00    -0.309 N 
ATOM      4  O   UNL d   1       0.082  -3.572   0.646  0.00  0.00    -0.247 OA
ATOM      5  H   UNL d   1      -1.074  -1.622   0.032  0.00  0.00     0.172 HD
ATOM      6  H   UNL d   1       1.868  -2.385  -1.613  0.00  0.00     0.170 HD
ENDROOT
BRANCH   1   7
ATOM      7  C   UNL d   1       0.225  -0.360  -0.808  0.00  0.00     0.152 A 
ATOM      8  N   UNL d   1      -0.634   0.632  -0.839  0.00  0.00    -0.339 N 
ATOM      9  C   UNL d   1      -0.014   1.822  -1.225  0.00  0.00     0.027 A 
ATOM     10  HN  UNL d   1      -1.624   0.545  -0.611  1.00  0.00     0.168 HD
ATOM     11  C   UNL d   1       1.331   1.678  -1.496  0.00  0.00     0.078 A 
ATOM     12  S   UNL d   1       1.812   0.045  -1.276  0.00  0.00    -0.064 SA
BRANCH   9  13
ATOM     13  C   UNL d   1      -0.861   3.061  -1.214  0.00  0.00     0.168 C 
BRANCH  13  14
ATOM     14  C   UNL d   1      -0.396   4.228  -2.062  0.00  0.00     0.264 C 
ATOM     15  O   UNL d   1       0.588   4.268  -2.786  0.00  0.00    -0.265 OA
BRANCH  14  16
ATOM     16  O   UNL d   1      -1.290   5.254  -1.910  0.00  0.00    -0.322 OA
BRANCH  16  17
ATOM     17  C   UNL d   1      -1.139   6.398  -2.766  0.00  0.00     0.174 C 
ATOM     18  C   UNL d   1      -0.411   7.518  -2.046  0.00  0.00     0.034 C 
ENDBRANCH  16  17
ENDBRANCH  14  16
ENDBRANCH  13  14
ENDBRANCH   9  13
ENDBRANCH   1   7
BRANCH   3  19
ATOM     19  C   UNL d   1       2.822  -3.761  -0.399  0.00  0.00     0.037 A 
ATOM     20  C   UNL d   1       3.813  -3.983  -1.363  0.00  0.00     0.036 A 
ATOM     21  C   UNL d   1       4.950  -4.746  -1.069  0.00  0.00    -0.059 A 
ATOM     22  C   UNL d   1       6.019  -4.939  -2.104  0.00  0.00     0.048 C 
ATOM     23  C   UNL d   1       5.115  -5.245   0.227  0.00  0.00     0.013 A 
ATOM     24  C   UNL d   1       4.138  -5.029   1.207  0.00  0.00    -0.059 A 
ATOM     25  C   UNL d   1       2.973  -4.317   0.875  0.00  0.00     0.036 A 
ATOM     26  C   UNL d   1       4.380  -5.511   2.608  0.00  0.00     0.048 C 
ENDBRANCH   3  19
TORSDOF 6
