REMARK  5 active torsions:
REMARK  status: ('A' for Active; 'I' for Inactive)
REMARK    1  A    between atoms: C_4  and  C_1 
REMARK    2  A    between atoms: C_14  and  N_3 
REMARK    3  A    between atoms: S_15  and  C_10 
REMARK    4  A    between atoms: C_19  and  S_15 
REMARK    5  A    between atoms: C_18  and  C_19 
ROOT
ATOM      1  C   UNL d   1      -0.311   1.267   0.091  0.00  0.00     0.079 C 
ATOM      2  C   UNL d   1       1.012   0.879   0.048  0.00  0.00     0.137 C 
ATOM      3  N   UNL d   1       0.992  -0.520  -0.060  0.00  0.00    -0.240 N 
ATOM      4  N   UNL d   1      -0.280  -0.978  -0.266  0.00  0.00    -0.302 N 
ATOM      5  HN  UNL d   1      -0.571  -1.927  -0.499  1.00  0.00     0.186 HD
ATOM      6  C   UNL d   1      -1.053   0.095  -0.093  0.00  0.00     0.127 C 
ATOM      7  N   UNL d   1       2.140   1.646   0.063  0.00  0.00    -0.383 N 
ATOM      8  H   UNL d   1       2.029   2.660  -0.028  0.00  0.00     0.157 HD
ATOM      9  H   UNL d   1       2.975   1.319  -0.421  0.00  0.00     0.157 HD
ENDROOT
BRANCH   1  10
ATOM     10  C   UNL d   1      -0.818   2.648   0.243  0.00  0.00     0.180 A 
ATOM     11  O   UNL d   1      -2.148   2.976   0.350  0.00  0.00    -0.267 OA
ATOM     12  C   UNL d   1      -2.103   4.338   0.463  0.00  0.00     0.204 A 
ATOM     13  N   UNL d   1      -0.873   4.808   0.425  0.00  0.00    -0.272 N 
ATOM     14  N   UNL d   1      -0.043   3.719   0.288  0.00  0.00    -0.276 N 
ATOM     15  HN  UNL d   1      -0.591   5.786   0.485  1.00  0.00     0.189 HD
ATOM     16  HN  UNL d   1       0.975   3.735   0.232  1.00  0.00     0.189 HD
BRANCH  12  17
ATOM     17  S   UNL d   1      -3.517   5.324   0.669  0.00  0.00    -0.077 SA
BRANCH  17  18
ATOM     18  C   UNL d   1      -2.880   6.909   0.055  0.00  0.00     0.160 C 
BRANCH  18  19
ATOM     19  C   UNL d   1      -2.532   6.845  -1.423  0.00  0.00     0.132 C 
ATOM     20  O   UNL d   1      -3.124   6.121  -2.226  0.00  0.00    -0.298 OA
ATOM     21  C   UNL d   1      -1.444   7.775  -1.891  0.00  0.00     0.091 C 
ENDBRANCH  18  19
ENDBRANCH  17  18
ENDBRANCH  12  17
ENDBRANCH   1  10
BRANCH   3  22
ATOM     22  C   UNL d   1       2.074  -1.444   0.032  0.00  0.00     0.058 A 
ATOM     23  C   UNL d   1       3.254  -1.116   0.712  0.00  0.00     0.031 A 
ATOM     24  C   UNL d   1       4.300  -2.038   0.788  0.00  0.00     0.002 A 
ATOM     25  C   UNL d   1       4.176  -3.289   0.187  0.00  0.00     0.000 A 
ATOM     26  C   UNL d   1       2.996  -3.631  -0.473  0.00  0.00     0.002 A 
ATOM     27  C   UNL d   1       1.940  -2.718  -0.539  0.00  0.00     0.031 A 
ENDBRANCH   3  22
TORSDOF 5
