REMARK  8 active torsions:
REMARK  status: ('A' for Active; 'I' for Inactive)
REMARK    1  A    between atoms: C_2  and  C_1 
REMARK    2  A    between atoms: N_3  and  C_2 
REMARK    3  A    between atoms: N_5  and  C_2 
REMARK    4  A    between atoms: C_9  and  C_7 
REMARK    5  A    between atoms: C_10  and  C_8 
REMARK    6  A    between atoms: O_14  and  C_11 
REMARK    7  A    between atoms: O_15  and  C_12 
REMARK    8  A    between atoms: O_16  and  C_13 
ROOT
ATOM      1  C   UNL d   1       1.006   2.505  -0.010  0.00  0.00     0.217 C 
ENDROOT
BRANCH   1   2
ATOM      2  C   UNL d   1       0.229   1.201  -0.016  0.00  0.00     0.017 A 
ATOM      3  C   UNL d   1       0.452   0.187   0.926  0.00  0.00     0.075 A 
ATOM      4  C   UNL d   1      -0.250  -1.016   0.875  0.00  0.00     0.037 A 
ATOM      5  C   UNL d   1      -1.202  -1.224  -0.122  0.00  0.00     0.003 A 
ATOM      6  C   UNL d   1      -1.451  -0.226  -1.061  0.00  0.00     0.001 A 
ATOM      7  C   UNL d   1      -0.743   0.978  -1.008  0.00  0.00     0.014 A 
BRANCH   3   8
ATOM      8  O   UNL d   1       1.363   0.320   1.936  0.00  0.00    -0.360 OA
ATOM      9  H   UNL d   1       1.706   1.233   1.897  0.00  0.00     0.217 HD
ENDBRANCH   3   8
ENDBRANCH   1   2
BRANCH   1  10
ATOM     10  N   UNL d   1       0.778   3.221   1.259  0.00  0.00    -0.373 N 
ATOM     11  C   UNL d   1       1.339   4.387   1.293  0.00  0.00     0.099 C 
ATOM     12  HN  UNL d   1       0.233   2.837   2.031  1.00  0.00     0.161 HD
BRANCH  11  13
ATOM     13  C   UNL d   1       1.271   5.249   2.489  0.00  0.00     0.012 A 
ATOM     14  C   UNL d   1       0.474   4.931   3.592  0.00  0.00     0.077 A 
ATOM     15  C   UNL d   1       0.458   5.764   4.708  0.00  0.00     0.037 A 
ATOM     16  C   UNL d   1       1.244   6.918   4.726  0.00  0.00     0.003 A 
ATOM     17  C   UNL d   1       2.039   7.242   3.626  0.00  0.00     0.001 A 
ATOM     18  C   UNL d   1       2.053   6.410   2.505  0.00  0.00     0.015 A 
BRANCH  14  19
ATOM     19  O   UNL d   1      -0.318   3.817   3.642  0.00  0.00    -0.360 OA
ATOM     20  H   UNL d   1      -0.157   3.305   2.817  0.00  0.00     0.217 HD
ENDBRANCH  14  19
ENDBRANCH  11  13
ENDBRANCH   1  10
BRANCH   1  21
ATOM     21  N   UNL d   1       2.461   2.305  -0.105  0.00  0.00    -0.373 N 
ATOM     22  C   UNL d   1       2.876   1.819  -1.227  0.00  0.00     0.099 C 
ATOM     23  HN  UNL d   1       3.095   2.534   0.660  1.00  0.00     0.161 HD
BRANCH  22  24
ATOM     24  C   UNL d   1       4.322   1.669  -1.492  0.00  0.00     0.012 A 
ATOM     25  C   UNL d   1       5.288   2.137  -0.591  0.00  0.00     0.077 A 
ATOM     26  C   UNL d   1       6.642   2.037  -0.895  0.00  0.00     0.037 A 
ATOM     27  C   UNL d   1       7.040   1.464  -2.104  0.00  0.00     0.003 A 
ATOM     28  C   UNL d   1       6.082   0.989  -3.003  0.00  0.00     0.001 A 
ATOM     29  C   UNL d   1       4.722   1.091  -2.700  0.00  0.00     0.015 A 
BRANCH  25  30
ATOM     30  O   UNL d   1       4.967   2.720   0.606  0.00  0.00    -0.360 OA
ATOM     31  H   UNL d   1       3.990   2.650   0.697  0.00  0.00     0.217 HD
ENDBRANCH  25  30
ENDBRANCH  22  24
ENDBRANCH   1  21
TORSDOF 8
