REMARK  5 active torsions:
REMARK  status: ('A' for Active; 'I' for Inactive)
REMARK       I    between atoms: N_2  and  C_1 
REMARK    1  A    between atoms: C_4  and  C_1 
REMARK    2  A    between atoms: C_3  and  N_2 
REMARK    3  A    between atoms: N_7  and  C_3 
REMARK    4  A    between atoms: C_5  and  C_6 
REMARK    5  A    between atoms: C_12  and  N_7 
ROOT
ATOM      1  C   UNL d   1       0.849  -1.394   2.001  0.00  0.00     0.179 C 
ATOM      2  S   UNL d   1       0.173  -2.093   3.361  0.00  0.00    -0.040 SA
ENDROOT
BRANCH   1   3
ATOM      3  N   UNL d   1       0.172  -0.735   1.001  0.00  0.00    -0.299 N 
ATOM      4  C   UNL d   1      -1.154  -0.872   0.601  0.00  0.00     0.259 C 
ATOM      5  O   UNL d   1      -1.859  -1.843   0.859  0.00  0.00    -0.267 OA
ATOM      6  H   UNL d   1       0.680   0.061   0.636  0.00  0.00     0.171 HD
BRANCH   4   7
ATOM      7  C   UNL d   1      -1.656   0.123  -0.385  0.00  0.00     0.054 A 
ATOM      8  C   UNL d   1      -1.347   1.490  -0.372  0.00  0.00     0.049 A 
ATOM      9 CL   UNL d   1      -0.353   2.225   0.835  0.00  0.00    -0.083 Cl
ATOM     10  C   UNL d   1      -1.867   2.336  -1.362  0.00  0.00     0.025 A 
ATOM     11  C   UNL d   1      -2.698   1.830  -2.364  0.00  0.00     0.002 A 
ATOM     12  C   UNL d   1      -3.018   0.474  -2.378  0.00  0.00     0.001 A 
ATOM     13  C   UNL d   1      -2.505  -0.371  -1.394  0.00  0.00     0.019 A 
ENDBRANCH   4   7
ENDBRANCH   1   3
BRANCH   1  14
ATOM     14  N   UNL d   1       2.217  -1.438   1.889  0.00  0.00    -0.333 N 
ATOM     15  H   UNL d   1       2.658  -1.764   2.745  0.00  0.00     0.168 HD
BRANCH  14  16
ATOM     16  C   UNL d   1       3.046  -1.473   0.744  0.00  0.00     0.035 A 
ATOM     17  C   UNL d   1       2.579  -1.427  -0.573  0.00  0.00     0.045 A 
ATOM     18  C   UNL d   1       3.451  -1.584  -1.665  0.00  0.00     0.050 A 
ATOM     19  C   UNL d   1       4.812  -1.800  -1.424  0.00  0.00     0.016 A 
ATOM     20  C   UNL d   1       5.293  -1.843  -0.116  0.00  0.00     0.003 A 
ATOM     21  C   UNL d   1       4.414  -1.677   0.958  0.00  0.00     0.029 A 
BRANCH  18  22
ATOM     22  C   UNL d   1       2.917  -1.568  -3.078  0.00  0.00     0.417 C 
ATOM     23  F   UNL d   1       1.587  -1.274  -3.148  0.00  0.00    -0.166 F 
ATOM     24  F   UNL d   1       3.540  -0.645  -3.861  0.00  0.00    -0.166 F 
ATOM     25  F   UNL d   1       3.069  -2.764  -3.707  0.00  0.00    -0.166 F 
ENDBRANCH  18  22
ENDBRANCH  14  16
ENDBRANCH   1  14
TORSDOF 5
