REMARK  4 active torsions:
REMARK  status: ('A' for Active; 'I' for Inactive)
REMARK    1  A    between atoms: C_3  and  C_1 
REMARK    2  A    between atoms: C_2  and  C_11 
REMARK       I    between atoms: N_15  and  C_3 
REMARK    3  A    between atoms: O_10  and  C_6 
REMARK    4  A    between atoms: C_11  and  O_10 
ROOT
ATOM      1  C   UNL d   1       0.771   1.218   0.036  0.00  0.00     0.047 A 
ATOM      2  N   UNL d   1      -1.264  -0.109   0.015  0.00  0.00    -0.346 N 
ATOM      3  HN  UNL d   1      -2.283  -0.155   0.013  1.00  0.00     0.167 HD
ATOM      4  C   UNL d   1      -0.515  -1.228   0.000  0.00  0.00     0.142 A 
ATOM      5  C   UNL d   1      -0.613   1.084   0.034  0.00  0.00     0.107 A 
ATOM      6  C   UNL d   1       1.523   0.044   0.020  0.00  0.00     0.022 A 
ATOM      7  C   UNL d   1       0.873  -1.194  -0.003  0.00  0.00     0.057 A 
ENDROOT
BRANCH   4   8
ATOM      8  O   UNL d   1      -1.253  -2.373  -0.087  0.00  0.00    -0.327 OA
BRANCH   8   9
ATOM      9  C   UNL d   1      -0.727  -3.497   0.625  0.00  0.00     0.294 C 
BRANCH   9  10
ATOM     10  C   UNL d   1      -1.707  -4.667   0.629  0.00  0.00     0.408 C 
ATOM     11  F   UNL d   1      -2.864  -4.402  -0.010  0.00  0.00    -0.169 F 
ATOM     12  F   UNL d   1      -1.151  -5.748   0.027  0.00  0.00    -0.169 F 
ATOM     13  F   UNL d   1      -2.012  -5.035   1.896  0.00  0.00    -0.169 F 
ENDBRANCH   9  10
ENDBRANCH   8   9
ENDBRANCH   4   8
BRANCH   1  14
ATOM     14  C   UNL d   1       1.349   2.583   0.040  0.00  0.00     0.250 C 
ATOM     15  O   UNL d   1       0.630   3.576   0.049  0.00  0.00    -0.268 OA
ATOM     16  N   UNL d   1       2.707   2.723   0.031  0.00  0.00    -0.366 N 
ATOM     17  H   UNL d   1       3.378   1.972   0.013  0.00  0.00     0.159 HD
ATOM     18  H   UNL d   1       3.065   3.670   0.025  0.00  0.00     0.159 HD
ENDBRANCH   1  14
TORSDOF 4
