REMARK  2 active torsions:
REMARK  status: ('A' for Active; 'I' for Inactive)
REMARK       I    between atoms: C_8  and  N_1 
REMARK       I    between atoms: C_9  and  N_2 
REMARK    1  A    between atoms: C_16  and  C_8 
REMARK    2  A    between atoms: C_17  and  C_9 
ROOT
ATOM      1  N   UNL d   1       1.266  -1.270   0.512  0.00  0.00    -0.250 N 
ATOM      2  N   UNL d   1       0.748   1.470   0.803  0.00  0.00    -0.315 N 
ATOM      3  C   UNL d   1       2.249  -0.889  -0.398  0.00  0.00     0.236 C 
ATOM      4  C   UNL d   1      -0.054  -0.777   0.298  0.00  0.00     0.072 A 
ATOM      5  C   UNL d   1      -0.312   0.588   0.511  0.00  0.00     0.064 A 
ATOM      6  C   UNL d   1       2.811   0.526  -0.217  0.00  0.00     0.093 C 
ATOM      7  C   UNL d   1       1.733   1.602  -0.263  0.00  0.00     0.146 C 
ATOM      8  C   UNL d   1       1.472  -2.358   1.367  0.00  0.00     0.230 C 
ATOM      9  C   UNL d   1       1.010   1.999   2.065  0.00  0.00     0.224 C 
ATOM     10  O   UNL d   1       2.690  -1.666  -1.242  0.00  0.00    -0.272 OA
ATOM     11  O   UNL d   1       0.587  -3.114   1.769  0.00  0.00    -0.273 OA
ATOM     12  O   UNL d   1       1.997   2.709   2.266  0.00  0.00    -0.273 OA
ATOM     13  C   UNL d   1      -1.119  -1.617  -0.054  0.00  0.00     0.032 A 
ATOM     14  C   UNL d   1       3.856   0.839  -1.295  0.00  0.00     0.021 C 
ATOM     15  C   UNL d   1      -1.597   1.109   0.350  0.00  0.00     0.032 A 
ATOM     16  C   UNL d   1      -2.401  -1.087  -0.239  0.00  0.00     0.002 A 
ATOM     17  C   UNL d   1      -2.640   0.272  -0.037  0.00  0.00     0.002 A 
ENDROOT
BRANCH   8  18
ATOM     18  C   UNL d   1       2.905  -2.472   1.882  0.00  0.00     0.099 C 
ATOM     19  C   UNL d   1       3.067  -3.571   2.920  0.00  0.00     0.014 C 
ENDBRANCH   8  18
BRANCH   9  20
ATOM     20  C   UNL d   1       0.071   1.607   3.201  0.00  0.00     0.099 C 
ATOM     21  C   UNL d   1       0.462   2.260   4.519  0.00  0.00     0.014 C 
ENDBRANCH   9  20
TORSDOF 2
