REMARK  5 active torsions:
REMARK  status: ('A' for Active; 'I' for Inactive)
REMARK    1  A    between atoms: C_10  and  N_1 
REMARK    2  A    between atoms: C_11  and  C_6 
REMARK    3  A    between atoms: C_9  and  N_15 
REMARK    4  A    between atoms: C_18  and  C_11 
REMARK    5  A    between atoms: N_15  and  N_13 
ROOT
ATOM      1  N   UNL d   1      -0.575  -0.543   0.032  0.00  0.00    -0.227 N 
ATOM      2  N   UNL d   1       1.165  -1.805   0.136  0.00  0.00    -0.226 N 
ATOM      3  HN  UNL d   1       2.136  -2.113   0.181  1.00  0.00     0.210 HD
ATOM      4  N   UNL d   1       0.779  -0.544   0.148  0.00  0.00    -0.220 N 
ATOM      5  HN  UNL d   1       1.382   0.275   0.229  1.00  0.00     0.210 HD
ATOM      6  C   UNL d   1      -0.986  -1.876   0.001  0.00  0.00     0.125 A 
ATOM      7  N   UNL d   1       0.094  -2.637   0.055  0.00  0.00    -0.271 N 
ATOM      8  HN  UNL d   1       0.119  -3.656   0.039  1.00  0.00     0.190 HD
ENDROOT
BRANCH   6   9
ATOM      9  C   UNL d   1      -2.351  -2.445  -0.089  0.00  0.00     0.126 C 
BRANCH   9  10
ATOM     10  C   UNL d   1      -3.246  -2.037   1.048  0.00  0.00     0.087 C 
ATOM     11  N   UNL d   1      -4.495  -2.380   1.200  0.00  0.00    -0.313 N 
ATOM     12  HN  UNL d   1      -5.046  -2.020   1.979  1.00  0.00     0.185 HD
BRANCH  11  13
ATOM     13  N   UNL d   1      -5.044  -3.234   0.285  0.00  0.00    -0.277 N 
ATOM     14  H   UNL d   1      -4.488  -3.675  -0.441  0.00  0.00     0.189 HD
BRANCH  13  15
ATOM     15  C   UNL d   1      -6.335  -3.672   0.408  0.00  0.00     0.184 C 
ATOM     16  S   UNL d   1      -6.976  -4.811  -0.613  0.00  0.00    -0.040 SA
ATOM     17  N   UNL d   1      -7.054  -3.114   1.407  0.00  0.00    -0.375 N 
ATOM     18  H   UNL d   1      -6.563  -2.502   2.046  0.00  0.00     0.158 HD
ATOM     19  H   UNL d   1      -7.990  -3.426   1.616  0.00  0.00     0.158 HD
ENDBRANCH  13  15
ENDBRANCH  11  13
ENDBRANCH   9  10
ENDBRANCH   6   9
BRANCH   1  20
ATOM     20  C   UNL d   1      -1.273   0.698   0.005  0.00  0.00     0.059 A 
ATOM     21  C   UNL d   1      -2.622   0.807  -0.351  0.00  0.00     0.034 A 
ATOM     22  C   UNL d   1      -3.262   2.054  -0.304  0.00  0.00     0.044 A 
ATOM     23  C   UNL d   1      -2.556   3.187   0.083  0.00  0.00     0.116 A 
ATOM     24  C   UNL d   1      -1.212   3.106   0.407  0.00  0.00     0.044 A 
ATOM     25  F   UNL d   1      -3.181   4.370   0.137  0.00  0.00    -0.206 F 
ATOM     26  C   UNL d   1      -0.568   1.868   0.363  0.00  0.00     0.034 A 
ENDBRANCH   1  20
TORSDOF 5
