REMARK  4 active torsions:
REMARK  status: ('A' for Active; 'I' for Inactive)
REMARK    1  A    between atoms: N_2  and  S_1 
REMARK    2  A    between atoms: C_3  and  S_1 
REMARK    3  A    between atoms: O_25  and  C_14 
REMARK    4  A    between atoms: O_24  and  C_15 
ROOT
ATOM      1  S   UNL d   1       1.020  -0.053  -0.047  0.00  0.00     0.243 S 
ATOM      2  O   UNL d   1       0.345  -1.046  -0.858  0.00  0.00    -0.206 OA
ATOM      3  O   UNL d   1       2.458  -0.007   0.039  0.00  0.00    -0.206 OA
ENDROOT
BRANCH   1   4
ATOM      4  N   UNL d   1       0.400  -0.229   1.540  0.00  0.00    -0.202 NA
ATOM      5  C   UNL d   1      -1.049   0.074   1.704  0.00  0.00     0.146 C 
ATOM      6  C   UNL d   1      -1.722  -0.624   2.864  0.00  0.00    -0.035 A 
ATOM      7  C   UNL d   1      -2.719   0.001   3.621  0.00  0.00     0.048 A 
ATOM      8  C   UNL d   1      -1.396  -1.960   3.116  0.00  0.00    -0.047 A 
ATOM      9  C   UNL d   1      -3.411  -0.694   4.624  0.00  0.00     0.102 A 
ATOM     10  C   UNL d   1      -3.112  -2.053   4.845  0.00  0.00     0.102 A 
ATOM     11  C   UNL d   1      -2.104  -2.673   4.085  0.00  0.00     0.047 A 
ATOM     12  C   UNL d   1      -0.276  -2.551   2.305  0.00  0.00     0.055 C 
ATOM     13  C   UNL d   1       0.847  -1.510   2.193  0.00  0.00     0.112 C 
BRANCH   9  14
ATOM     14  O   UNL d   1      -4.378  -0.108   5.396  0.00  0.00    -0.353 OA
ATOM     15  C   UNL d   1      -4.699   1.258   5.177  0.00  0.00     0.210 C 
ENDBRANCH   9  14
BRANCH  10  16
ATOM     16  O   UNL d   1      -3.693  -2.913   5.746  0.00  0.00    -0.353 OA
ATOM     17  C   UNL d   1      -4.730  -2.420   6.584  0.00  0.00     0.210 C 
ENDBRANCH  10  16
ENDBRANCH   1   4
BRANCH   1  18
ATOM     18  C   UNL d   1       0.455   1.553  -0.570  0.00  0.00     0.075 A 
ATOM     19  C   UNL d   1       0.865   2.691   0.133  0.00  0.00     0.034 A 
ATOM     20  C   UNL d   1       0.338   3.948  -0.204  0.00  0.00    -0.023 A 
ATOM     21  C   UNL d   1       0.723   5.159   0.594  0.00  0.00     0.044 C 
ATOM     22  C   UNL d   1      -0.548   4.054  -1.282  0.00  0.00     0.076 A 
ATOM     23  C   UNL d   1      -0.299   6.269   0.394  0.00  0.00     0.042 C 
ATOM     24  C   UNL d   1      -0.640   6.444  -1.094  0.00  0.00     0.061 C 
ATOM     25  O   UNL d   1      -1.133   5.225  -1.680  0.00  0.00    -0.340 OA
ATOM     26  C   UNL d   1      -1.781   7.464  -1.229  0.00  0.00     0.046 C 
ATOM     27  C   UNL d   1       0.559   6.939  -1.915  0.00  0.00     0.046 C 
ATOM     28  C   UNL d   1      -0.925   2.917  -2.002  0.00  0.00     0.039 A 
ATOM     29  C   UNL d   1      -0.427   1.662  -1.648  0.00  0.00     0.027 A 
ENDBRANCH   1  18
TORSDOF 4
