REMARK  2 active torsions:
REMARK  status: ('A' for Active; 'I' for Inactive)
REMARK    1  A    between atoms: N_7  and  C_1 
REMARK       I    between atoms: C_8  and  N_7 
REMARK    2  A    between atoms: C_12  and  C_8 
ROOT
ATOM      1  C   UNL d   1      -3.022  -1.082   0.179  0.00  0.00     0.152 A 
ATOM      2  C   UNL d   1      -0.932  -0.588   0.051  0.00  0.00     0.058 A 
ATOM      3  C   UNL d   1      -1.437   0.678   0.182  0.00  0.00     0.018 A 
ATOM      4  N   UNL d   1      -1.823  -1.613   0.011  0.00  0.00    -0.335 N 
ATOM      5  HN  UNL d   1      -1.608  -2.601  -0.123  1.00  0.00     0.168 HD
ATOM      6  S   UNL d   1      -3.100   0.638   0.342  0.00  0.00    -0.056 SA
ATOM      7  C   UNL d   1       0.494  -0.492  -0.014  0.00  0.00    -0.002 A 
ATOM      8  C   UNL d   1       0.847   0.884   0.062  0.00  0.00    -0.041 A 
ATOM      9  C   UNL d   1      -0.406   1.750   0.181  0.00  0.00     0.088 A 
ATOM     10  C   UNL d   1       1.441  -1.489  -0.095  0.00  0.00     0.014 A 
ATOM     11  C   UNL d   1       2.173   1.272   0.040  0.00  0.00     0.008 A 
ATOM     12  C   UNL d   1       2.783  -1.097  -0.107  0.00  0.00     0.001 A 
ATOM     13  C   UNL d   1       3.143   0.266  -0.043  0.00  0.00     0.001 A 
ENDROOT
BRANCH   1  14
ATOM     14  N   UNL d   1      -4.139  -1.878   0.149  0.00  0.00    -0.303 N 
ATOM     15  C   UNL d   1      -5.426  -1.510   0.466  0.00  0.00     0.257 C 
ATOM     16  O   UNL d   1      -5.789  -0.427   0.908  0.00  0.00    -0.267 OA
ATOM     17  H   UNL d   1      -3.909  -2.817  -0.134  0.00  0.00     0.171 HD
BRANCH  15  18
ATOM     18  C   UNL d   1      -6.477  -2.550   0.224  0.00  0.00     0.034 A 
ATOM     19  C   UNL d   1      -6.199  -3.922   0.146  0.00  0.00     0.044 A 
ATOM     20  C   UNL d   1      -7.229  -4.826  -0.135  0.00  0.00     0.073 A 
ATOM     21 CL   UNL d   1      -6.863  -6.504  -0.257  0.00  0.00    -0.081 Cl
ATOM     22  C   UNL d   1      -8.533  -4.371  -0.318  0.00  0.00     0.138 A 
ATOM     23  C   UNL d   1      -8.828  -3.017  -0.212  0.00  0.00     0.045 A 
ATOM     24  F   UNL d   1      -9.526  -5.227  -0.597  0.00  0.00    -0.204 F 
ATOM     25  C   UNL d   1      -7.802  -2.108   0.061  0.00  0.00     0.020 A 
ENDBRANCH  15  18
ENDBRANCH   1  14
TORSDOF 2
