REMARK  8 active torsions:
REMARK  status: ('A' for Active; 'I' for Inactive)
REMARK    1  A    between atoms: N_2  and  C_1 
REMARK    2  A    between atoms: C_6  and  C_4 
REMARK    3  A    between atoms: O_16  and  C_6 
REMARK    4  A    between atoms: C_7  and  C_19 
REMARK    5  A    between atoms: N_14  and  O_16 
REMARK    6  A    between atoms: C_24  and  C_17 
REMARK    7  A    between atoms: N_25  and  C_17 
REMARK    8  A    between atoms: C_26  and  C_24 
ROOT
ATOM      1  N   UNL d   1      -4.162  -0.993  -0.979  0.00  0.00    -0.245 N 
ATOM      2  HN  UNL d   1      -4.477  -1.351  -1.881  1.00  0.00     0.196 HD
ATOM      3  C   UNL d   1      -4.218  -1.677   0.121  0.00  0.00     0.100 C 
ENDROOT
BRANCH   3   4
ATOM      4  C   UNL d   1      -4.865  -3.059   0.036  0.00  0.00     0.116 C 
BRANCH   4   5
ATOM      5  C   UNL d   1      -3.904  -4.201  -0.206  0.00  0.00    -0.051 A 
ATOM      6  C   UNL d   1      -3.827  -5.267   0.699  0.00  0.00     0.008 A 
ATOM      7  C   UNL d   1      -3.041  -6.391   0.415  0.00  0.00     0.014 A 
ATOM      8  C   UNL d   1      -2.322  -6.481  -0.784  0.00  0.00    -0.008 A 
ATOM      9  C   UNL d   1      -2.370  -5.398  -1.673  0.00  0.00     0.014 A 
ATOM     10  C   UNL d   1      -3.154  -4.272  -1.388  0.00  0.00     0.008 A 
BRANCH   8  11
ATOM     11  C   UNL d   1      -1.574  -7.697  -1.084  0.00  0.00     0.063 A 
ATOM     12  N   UNL d   1      -1.079  -8.510  -0.068  0.00  0.00    -0.292 N 
ATOM     13  N   UNL d   1      -0.461  -9.579  -0.542  0.00  0.00    -0.061 NA
ATOM     14  HN  UNL d   1      -1.182  -8.305   0.926  1.00  0.00     0.183 HD
ATOM     15  S   UNL d   1      -0.472  -9.648  -2.212  0.00  0.00    -0.010 SA
ATOM     16  C   UNL d   1      -1.340  -8.175  -2.363  0.00  0.00     0.096 A 
ENDBRANCH   8  11
ENDBRANCH   4   5
ENDBRANCH   3   4
BRANCH   3  17
ATOM     17  N   UNL d   1      -3.766  -1.252   1.346  0.00  0.00    -0.387 N 
ATOM     18  H   UNL d   1      -3.139  -0.456   1.313  0.00  0.00     0.157 HD
ATOM     19  H   UNL d   1      -3.481  -1.972   2.002  0.00  0.00     0.157 HD
ENDBRANCH   3  17
BRANCH   1  20
ATOM     20  O   UNL d   1      -3.619   0.303  -0.800  0.00  0.00    -0.192 OA
BRANCH  20  21
ATOM     21  C   UNL d   1      -3.614   0.947  -2.021  0.00  0.00     0.339 C 
ATOM     22  O   UNL d   1      -3.929   0.444  -3.096  0.00  0.00    -0.255 OA
BRANCH  21  23
ATOM     23  C   UNL d   1      -3.185   2.326  -1.898  0.00  0.00     0.155 A 
ATOM     24  O   UNL d   1      -2.834   2.877  -0.687  0.00  0.00    -0.282 OA
ATOM     25  C   UNL d   1      -2.498   4.175  -0.944  0.00  0.00     0.215 A 
ATOM     26  C   UNL d   1      -2.618   4.481  -2.278  0.00  0.00     0.066 A 
ATOM     27  C   UNL d   1      -3.062   3.288  -2.892  0.00  0.00     0.048 A 
BRANCH  25  28
ATOM     28  N   UNL d   1      -2.093   4.976   0.169  0.00  0.00    -0.090 N 
ATOM     29  O   UNL d   1      -1.789   6.149  -0.082  0.00  0.00    -0.530 OA
ATOM     30  O   UNL d   1      -2.073   4.443   1.285  0.00  0.00    -0.530 OA
ENDBRANCH  25  28
ENDBRANCH  21  23
ENDBRANCH  20  21
ENDBRANCH   1  20
TORSDOF 8
