REMARK  3 active torsions:
REMARK  status: ('A' for Active; 'I' for Inactive)
REMARK    1  A    between atoms: C_7  and  C_3 
REMARK    2  A    between atoms: C_10  and  C_4 
REMARK    3  A    between atoms: C_8  and  C_11 
ROOT
ATOM      1  N   UNL d   1       0.539   0.246  -0.931  0.00  0.00    -0.319 N 
ATOM      2  HN  UNL d   1       1.126   0.430  -1.745  1.00  0.00     0.169 HD
ATOM      3  C   UNL d   1      -0.056  -0.877  -0.587  0.00  0.00     0.182 A 
ATOM      4  C   UNL d   1       0.175   1.111   0.078  0.00  0.00     0.138 A 
ATOM      5  N   UNL d   1      -0.571   0.542   1.037  0.00  0.00    -0.242 N 
ATOM      6  HN  UNL d   1      -0.934   0.970   1.889  1.00  0.00     0.196 HD
ATOM      7  O   UNL d   1      -0.732  -0.766   0.598  0.00  0.00    -0.217 OA
ENDROOT
BRANCH   4   8
ATOM      8  C   UNL d   1       0.514   2.531   0.048  0.00  0.00     0.011 A 
ATOM      9  C   UNL d   1       1.257   3.064  -1.017  0.00  0.00     0.031 A 
ATOM     10  C   UNL d   1       1.523   4.442  -1.100  0.00  0.00     0.048 A 
ATOM     11  C   UNL d   1       1.047   5.288  -0.087  0.00  0.00     0.016 A 
ATOM     12  C   UNL d   1       0.325   4.768   0.986  0.00  0.00     0.002 A 
ATOM     13  C   UNL d   1       0.062   3.399   1.053  0.00  0.00     0.015 A 
BRANCH  10  14
ATOM     14  C   UNL d   1       2.284   5.023  -2.266  0.00  0.00     0.417 C 
ATOM     15  F   UNL d   1       2.711   4.090  -3.162  0.00  0.00    -0.166 F 
ATOM     16  F   UNL d   1       1.538   5.911  -2.980  0.00  0.00    -0.166 F 
ATOM     17  F   UNL d   1       3.399   5.702  -1.876  0.00  0.00    -0.166 F 
ENDBRANCH  10  14
ENDBRANCH   4   8
BRANCH   3  18
ATOM     18  C   UNL d   1      -0.029  -2.123  -1.408  0.00  0.00     0.024 A 
ATOM     19  C   UNL d   1      -0.746  -3.250  -1.071  0.00  0.00     0.065 A 
ATOM     20  S   UNL d   1      -0.539  -4.507  -2.216  0.00  0.00    -0.113 SA
ATOM     21  C   UNL d   1       0.517  -3.547  -3.160  0.00  0.00     0.050 A 
ATOM     22  C   UNL d   1       0.703  -2.294  -2.620  0.00  0.00     0.023 A 
ENDBRANCH   3  18
TORSDOF 3
