REMARK  4 active torsions:
REMARK  status: ('A' for Active; 'I' for Inactive)
REMARK    1  A    between atoms: C_2  and  C_1 
REMARK    2  A    between atoms: S_6  and  C_1 
REMARK       I    between atoms: N_3  and  C_2 
REMARK    3  A    between atoms: C_4  and  N_3 
REMARK    4  A    between atoms: C_17  and  S_6 
ROOT
ATOM      1  C   UNL d   1       0.573  -1.313  -0.966  0.00  0.00     0.306 C 
ATOM      2  N   UNL d   1      -0.684  -1.851  -0.685  0.00  0.00    -0.318 N 
ATOM      3  O   UNL d   1       1.244  -1.620  -1.955  0.00  0.00    -0.265 OA
ATOM      4  H   UNL d   1      -1.167  -1.490   0.138  0.00  0.00     0.169 HD
ENDROOT
BRANCH   1   5
ATOM      5  C   UNL d   1       1.075  -0.303   0.102  0.00  0.00     0.375 C 
ATOM      6  F   UNL d   1       1.947  -0.911   0.953  0.00  0.00    -0.182 F 
ATOM      7  F   UNL d   1       0.038   0.137   0.879  0.00  0.00    -0.182 F 
BRANCH   5   8
ATOM      8  S   UNL d   1       1.858   1.120  -0.736  0.00  0.00    -0.043 SA
BRANCH   8   9
ATOM      9  C   UNL d   1       2.455   2.090   0.633  0.00  0.00     0.006 A 
ATOM     10  C   UNL d   1       3.331   1.576   1.594  0.00  0.00     0.018 A 
ATOM     11  C   UNL d   1       3.822   2.394   2.616  0.00  0.00     0.001 A 
ATOM     12  C   UNL d   1       3.455   3.737   2.675  0.00  0.00     0.000 A 
ATOM     13  C   UNL d   1       2.605   4.266   1.706  0.00  0.00     0.001 A 
ATOM     14  C   UNL d   1       2.113   3.447   0.687  0.00  0.00     0.018 A 
ENDBRANCH   8   9
ENDBRANCH   5   8
ENDBRANCH   1   5
BRANCH   2  15
ATOM     15  C   UNL d   1      -1.455  -2.668  -1.548  0.00  0.00     0.076 A 
ATOM     16  C   UNL d   1      -0.962  -3.262  -2.711  0.00  0.00     0.076 A 
ATOM     17  C   UNL d   1      -1.833  -3.913  -3.585  0.00  0.00     0.136 A 
ATOM     18  F   UNL d   1      -1.332  -4.436  -4.713  0.00  0.00    -0.205 F 
ATOM     19  C   UNL d   1      -3.195  -3.996  -3.307  0.00  0.00     0.052 A 
ATOM     20  C   UNL d   1      -3.693  -3.477  -2.112  0.00  0.00     0.067 A 
ATOM     21 BR   UNL d   1      -4.384  -4.775  -4.552  0.00  0.00    -0.048 Br
ATOM     22  C   UNL d   1      -2.815  -2.830  -1.243  0.00  0.00     0.144 A 
ATOM     23  F   UNL d   1      -3.303  -2.306  -0.109  0.00  0.00    -0.204 F 
ENDBRANCH   2  15
TORSDOF 4
