REMARK  6 active torsions:
REMARK  status: ('A' for Active; 'I' for Inactive)
REMARK    1  A    between atoms: N_4  and  C_1 
REMARK       I    between atoms: C_5  and  N_4 
REMARK       I    between atoms: N_11  and  C_5 
REMARK    2  A    between atoms: C_8  and  C_6 
REMARK    3  A    between atoms: C_10  and  C_8 
REMARK    4  A    between atoms: O_16  and  C_10 
REMARK    5  A    between atoms: C_14  and  N_11 
REMARK    6  A    between atoms: C_22  and  O_16 
ROOT
ATOM      1  N   UNL d   1       0.277  -1.970  -0.124  0.00  0.00    -0.288 N 
ATOM      2  C   UNL d   1      -0.666  -2.951  -0.087  0.00  0.00     0.326 C 
ATOM      3  N   UNL d   1      -1.924  -2.655  -0.529  0.00  0.00    -0.309 N 
ATOM      4  O   UNL d   1      -0.311  -4.068   0.285  0.00  0.00    -0.247 OA
ATOM      5  H   UNL d   1       1.213  -2.309   0.053  0.00  0.00     0.172 HD
ATOM      6  H   UNL d   1      -1.985  -1.907  -1.205  0.00  0.00     0.170 HD
ENDROOT
BRANCH   1   7
ATOM      7  C   UNL d   1       0.189  -0.604  -0.043  0.00  0.00     0.152 A 
ATOM      8  N   UNL d   1       1.271   0.136   0.038  0.00  0.00    -0.339 N 
ATOM      9  C   UNL d   1       0.947   1.483   0.220  0.00  0.00     0.027 A 
ATOM     10  HN  UNL d   1       2.223  -0.225  -0.024  1.00  0.00     0.168 HD
ATOM     11  C   UNL d   1      -0.415   1.719   0.241  0.00  0.00     0.078 A 
ATOM     12  S   UNL d   1      -1.280   0.246   0.048  0.00  0.00    -0.064 SA
BRANCH   9  13
ATOM     13  C   UNL d   1       2.092   2.451   0.303  0.00  0.00     0.168 C 
BRANCH  13  14
ATOM     14  C   UNL d   1       1.841   3.764   1.023  0.00  0.00     0.264 C 
ATOM     15  O   UNL d   1       0.804   4.121   1.559  0.00  0.00    -0.265 OA
BRANCH  14  16
ATOM     16  O   UNL d   1       2.995   4.503   0.995  0.00  0.00    -0.322 OA
BRANCH  16  17
ATOM     17  C   UNL d   1       3.023   5.711   1.772  0.00  0.00     0.174 C 
ATOM     18  C   UNL d   1       2.716   6.920   0.905  0.00  0.00     0.034 C 
ENDBRANCH  16  17
ENDBRANCH  14  16
ENDBRANCH  13  14
ENDBRANCH   9  13
ENDBRANCH   1   7
BRANCH   3  19
ATOM     19  C   UNL d   1      -3.094  -3.405  -0.288  0.00  0.00     0.036 A 
ATOM     20  C   UNL d   1      -3.206  -4.313   0.771  0.00  0.00     0.032 A 
ATOM     21  C   UNL d   1      -4.436  -4.914   1.064  0.00  0.00     0.044 A 
ATOM     22  C   UNL d   1      -5.543  -4.626   0.277  0.00  0.00     0.116 A 
ATOM     23  C   UNL d   1      -5.440  -3.767  -0.809  0.00  0.00     0.044 A 
ATOM     24  F   UNL d   1      -6.728  -5.172   0.579  0.00  0.00    -0.206 F 
ATOM     25  C   UNL d   1      -4.218  -3.150  -1.088  0.00  0.00     0.032 A 
ENDBRANCH   3  19
TORSDOF 6
