REMARK  3 active torsions:
REMARK  status: ('A' for Active; 'I' for Inactive)
REMARK    1  A    between atoms: C_3  and  O_7 
REMARK    2  A    between atoms: C_9  and  C_3 
REMARK    3  A    between atoms: O_7  and  C_10 
ROOT
ATOM      1  C   UNL d   1      -0.235   0.391  -0.190  0.00  0.00     0.045 A 
ATOM      2  C   UNL d   1       0.299  -0.864   0.018  0.00  0.00     0.086 A 
ATOM      3  O   UNL d   1      -0.612  -1.860   0.254  0.00  0.00    -0.343 OA
ATOM      4  C   UNL d   1      -1.659   0.238  -0.069  0.00  0.00     0.186 A 
ATOM      5  C   UNL d   1       1.666  -1.053   0.003  0.00  0.00     0.075 A 
ATOM      6  C   UNL d   1       0.537   1.508  -0.443  0.00  0.00     0.021 A 
ATOM      7  C   UNL d   1       2.480   0.065  -0.234  0.00  0.00     0.082 A 
ATOM      8  C   UNL d   1      -1.916  -1.225   0.180  0.00  0.00     0.259 A 
ATOM      9  O   UNL d   1      -2.472   1.139  -0.151  0.00  0.00    -0.290 OA
ATOM     10  C   UNL d   1       1.925   1.335  -0.465  0.00  0.00     0.038 A 
ENDROOT
BRANCH   7  11
ATOM     11  O   UNL d   1       3.874  -0.189  -0.135  0.00  0.00    -0.275 OA
BRANCH  11  12
ATOM     12  C   UNL d   1       4.891   0.722  -0.391  0.00  0.00     0.298 C 
ATOM     13  O   UNL d   1       4.779   1.833  -0.886  0.00  0.00    -0.259 OA
BRANCH  12  14
ATOM     14  C   UNL d   1       6.195   0.174   0.082  0.00  0.00     0.040 A 
ATOM     15  C   UNL d   1       7.317   1.017   0.032  0.00  0.00     0.019 A 
ATOM     16  C   UNL d   1       8.552   0.582   0.521  0.00  0.00     0.025 A 
ATOM     17  C   UNL d   1       8.672  -0.698   1.059  0.00  0.00     0.034 A 
ATOM     18  C   UNL d   1       7.570  -1.552   1.094  0.00  0.00     0.025 A 
ATOM     19 CL   UNL d   1      10.180  -1.222   1.694  0.00  0.00    -0.084 Cl
ATOM     20  C   UNL d   1       6.332  -1.118   0.604  0.00  0.00     0.019 A 
ENDBRANCH  12  14
ENDBRANCH  11  12
ENDBRANCH   7  11
TORSDOF 3
