REMARK  3 active torsions:
REMARK  status: ('A' for Active; 'I' for Inactive)
REMARK    1  A    between atoms: N_2  and  S_1 
REMARK    2  A    between atoms: C_3  and  S_1 
REMARK    3  A    between atoms: C_11  and  C_6 
ROOT
ATOM      1  S   UNL d   1      -0.236   0.084   0.450  0.00  0.00     0.261 S 
ATOM      2  O   UNL d   1      -1.180  -0.036   1.548  0.00  0.00    -0.200 OA
ATOM      3  O   UNL d   1       1.076  -0.516   0.581  0.00  0.00    -0.200 OA
ENDROOT
BRANCH   1   4
ATOM      4  N   UNL d   1      -0.025   1.746   0.205  0.00  0.00    -0.298 N 
ATOM      5  C   UNL d   1       0.691   2.381  -0.946  0.00  0.00     0.129 C 
ATOM      6  C   UNL d   1       1.550   3.504  -0.336  0.00  0.00     0.032 C 
ATOM      7  C   UNL d   1       0.863   3.811   0.981  0.00  0.00     0.023 C 
ATOM      8  C   UNL d   1       0.438   2.434   1.447  0.00  0.00     0.136 C 
BRANCH   5   9
ATOM      9  C   UNL d   1       1.441   1.492  -1.910  0.00  0.00    -0.035 C 
ATOM     10  C   UNL d   1       0.939   1.315  -3.209  0.00  0.00     0.012 C 
ATOM     11  C   UNL d   1       1.444   0.322  -4.045  0.00  0.00     0.043 C 
ATOM     12  C   UNL d   1       2.503  -0.457  -3.609  0.00  0.00     0.116 C 
ATOM     13  C   UNL d   1       3.096  -0.224  -2.375  0.00  0.00     0.043 C 
ATOM     14  F   UNL d   1       2.952  -1.453  -4.383  0.00  0.00    -0.206 F 
ATOM     15  C   UNL d   1       2.573   0.758  -1.531  0.00  0.00     0.012 C 
ENDBRANCH   5   9
ENDBRANCH   1   4
BRANCH   1  16
ATOM     16  C   UNL d   1      -1.044  -0.669  -0.940  0.00  0.00     0.081 A 
ATOM     17  C   UNL d   1      -1.745   0.048  -1.922  0.00  0.00     0.051 A 
ATOM     18  C   UNL d   1      -2.373  -0.623  -2.995  0.00  0.00     0.045 A 
ATOM     19  N   UNL d   1      -3.011   0.066  -4.056  0.00  0.00    -0.283 NA
ATOM     20  C   UNL d   1      -2.394  -2.042  -2.944  0.00  0.00     0.090 A 
ATOM     21  C   UNL d   1      -3.367  -0.839  -5.165  0.00  0.00     0.122 C 
ATOM     22  C   UNL d   1      -2.454   1.338  -4.505  0.00  0.00     0.116 C 
ATOM     23  C   UNL d   1      -4.018  -2.095  -4.612  0.00  0.00     0.190 C 
ATOM     24  O   UNL d   1      -3.070  -2.839  -3.844  0.00  0.00    -0.348 OA
ATOM     25  C   UNL d   1      -1.699  -2.753  -1.966  0.00  0.00     0.040 A 
ATOM     26  C   UNL d   1      -1.005  -2.068  -0.978  0.00  0.00     0.028 A 
ENDBRANCH   1  16
TORSDOF 3
