REMARK  2 active torsions:
REMARK  status: ('A' for Active; 'I' for Inactive)
REMARK       I    between atoms: N_2  and  C_1 
REMARK       I    between atoms: N_4  and  C_1 
REMARK    1  A    between atoms: C_6  and  N_4 
REMARK    2  A    between atoms: O_12  and  C_10 
ROOT
ATOM      1  C   UNL d   1       1.032   0.044  -0.112  0.00  0.00     0.327 C 
ATOM      2  N   UNL d   1       0.444   1.326  -0.161  0.00  0.00    -0.299 N 
ATOM      3  C   UNL d   1      -0.591   1.709   0.777  0.00  0.00     0.045 A 
ATOM      4  N   UNL d   1       1.954  -0.222  -1.114  0.00  0.00    -0.308 N 
ATOM      5  O   UNL d   1       0.731  -0.807   0.720  0.00  0.00    -0.246 OA
ATOM      6  C   UNL d   1      -1.528   2.702   0.415  0.00  0.00    -0.031 A 
ATOM      7  C   UNL d   1       0.773   2.380  -1.136  0.00  0.00     0.134 C 
ATOM      8  C   UNL d   1      -0.702   1.133   2.052  0.00  0.00     0.030 A 
ATOM      9  C   UNL d   1      -0.475   2.822  -1.878  0.00  0.00     0.025 C 
ATOM     10  C   UNL d   1      -1.455   3.443  -0.896  0.00  0.00     0.042 C 
ATOM     11  C   UNL d   1      -2.567   3.045   1.302  0.00  0.00     0.009 A 
ATOM     12  C   UNL d   1      -1.732   1.488   2.927  0.00  0.00     0.002 A 
ATOM     13  C   UNL d   1      -2.674   2.432   2.546  0.00  0.00     0.001 A 
ATOM     14  H   UNL d   1       1.843   0.284  -1.974  0.00  0.00     0.170 HD
ENDROOT
BRANCH   4  15
ATOM     15  C   UNL d   1       2.787  -1.364  -1.212  0.00  0.00     0.039 A 
ATOM     16  C   UNL d   1       3.023  -2.247  -0.151  0.00  0.00     0.066 A 
ATOM     17  C   UNL d   1       3.852  -3.361  -0.315  0.00  0.00     0.070 A 
ATOM     18  C   UNL d   1       4.469  -3.580  -1.547  0.00  0.00     0.037 A 
ATOM     19  C   UNL d   1       4.259  -2.699  -2.607  0.00  0.00     0.005 A 
ATOM     20  C   UNL d   1       3.422  -1.594  -2.438  0.00  0.00     0.030 A 
BRANCH  17  21
ATOM     21  O   UNL d   1       4.136  -4.296   0.644  0.00  0.00    -0.356 OA
ATOM     22  C   UNL d   1       3.487  -4.137   1.901  0.00  0.00     0.210 C 
ENDBRANCH  17  21
ENDBRANCH   4  15
TORSDOF 2
