REMARK  6 active torsions:
REMARK  status: ('A' for Active; 'I' for Inactive)
REMARK    1  A    between atoms: C_9  and  N_1 
REMARK    2  A    between atoms: C_10  and  C_6 
REMARK       I    between atoms: C_8  and  N_12 
REMARK    3  A    between atoms: C_13  and  C_8 
REMARK    4  A    between atoms: N_12  and  C_10 
REMARK    5  A    between atoms: C_11  and  C_13 
REMARK    6  A    between atoms: O_17  and  C_14 
ROOT
ATOM      1  N   UNL d   1      -0.868  -0.508   0.080  0.00  0.00    -0.197 N 
ATOM      2  N   UNL d   1       0.156   0.307  -0.278  0.00  0.00    -0.280 N 
ATOM      3  HN  UNL d   1       0.364   0.698  -1.197  1.00  0.00     0.189 HD
ATOM      4  N   UNL d   1      -0.879  -0.902   1.381  0.00  0.00    -0.282 N 
ATOM      5  HN  UNL d   1      -1.544  -1.511   1.857  1.00  0.00     0.189 HD
ATOM      6  C   UNL d   1       0.827   0.473   0.871  0.00  0.00     0.069 A 
ATOM      7  C   UNL d   1       0.201  -0.291   1.883  0.00  0.00     0.049 A 
ATOM      8  C   UNL d   1       0.543  -0.426   3.315  0.00  0.00     0.072 C 
ENDROOT
BRANCH   6   9
ATOM      9  C   UNL d   1       1.949   1.449   0.958  0.00  0.00     0.183 C 
BRANCH   9  10
ATOM     10  N   UNL d   1       3.204   0.827   1.333  0.00  0.00    -0.355 N 
ATOM     11  C   UNL d   1       4.249   0.755   0.440  0.00  0.00     0.222 C 
ATOM     12  O   UNL d   1       4.126   0.958  -0.768  0.00  0.00    -0.273 OA
ATOM     13  H   UNL d   1       3.377   0.635   2.310  0.00  0.00     0.162 HD
BRANCH  11  14
ATOM     14  C   UNL d   1       5.599   0.467   1.069  0.00  0.00     0.144 C 
BRANCH  14  15
ATOM     15  C   UNL d   1       6.152  -0.926   0.921  0.00  0.00    -0.016 A 
ATOM     16  C   UNL d   1       7.437  -1.218   1.420  0.00  0.00     0.074 A 
ATOM     17  C   UNL d   1       7.907  -2.530   1.475  0.00  0.00     0.037 A 
ATOM     18  C   UNL d   1       7.125  -3.572   0.980  0.00  0.00     0.003 A 
ATOM     19  C   UNL d   1       5.881  -3.295   0.417  0.00  0.00     0.001 A 
ATOM     20  C   UNL d   1       5.398  -1.984   0.385  0.00  0.00     0.010 A 
BRANCH  16  21
ATOM     21  O   UNL d   1       8.204  -0.239   2.002  0.00  0.00    -0.355 OA
ATOM     22  C   UNL d   1       8.979   0.464   1.028  0.00  0.00     0.210 C 
ENDBRANCH  16  21
ENDBRANCH  14  15
ENDBRANCH  11  14
ENDBRANCH   9  10
ENDBRANCH   6   9
BRANCH   1  23
ATOM     23  C   UNL d   1      -1.885  -0.882  -0.837  0.00  0.00     0.074 A 
ATOM     24  C   UNL d   1      -1.782  -0.516  -2.188  0.00  0.00     0.033 A 
ATOM     25  C   UNL d   1      -2.779  -0.890  -3.090  0.00  0.00     0.002 A 
ATOM     26  C   UNL d   1      -3.884  -1.617  -2.649  0.00  0.00     0.000 A 
ATOM     27  C   UNL d   1      -3.998  -1.971  -1.304  0.00  0.00     0.002 A 
ATOM     28  C   UNL d   1      -3.000  -1.610  -0.397  0.00  0.00     0.033 A 
ENDBRANCH   1  23
TORSDOF 6
