REMARK  7 active torsions:
REMARK  status: ('A' for Active; 'I' for Inactive)
REMARK    1  A    between atoms: C_14  and  N_5 
REMARK    2  A    between atoms: C_28  and  N_11 
REMARK    3  A    between atoms: C_24  and  C_12 
REMARK    4  A    between atoms: C_15  and  C_14 
REMARK       I    between atoms: N_18  and  C_15 
REMARK    5  A    between atoms: C_22  and  N_18 
REMARK    6  A    between atoms: C_34  and  C_28 
REMARK    7  A    between atoms: C_35  and  C_34 
ROOT
ATOM      1  N   UNL d   1       1.188  -0.279  -0.363  0.00  0.00    -0.203 N 
ATOM      2  C   UNL d   1       1.202   1.096  -0.583  0.00  0.00     0.136 A 
ATOM      3  C   UNL d   1      -1.207  -0.308  -0.354  0.00  0.00     0.062 A 
ATOM      4  C   UNL d   1      -1.153   0.999  -0.644  0.00  0.00     0.118 A 
ATOM      5  N   UNL d   1       0.002   1.776  -0.764  0.00  0.00    -0.318 N 
ATOM      6  C   UNL d   1       0.028  -1.071  -0.226  0.00  0.00     0.278 A 
ATOM      7  N   UNL d   1       2.429  -0.797  -0.226  0.00  0.00    -0.289 N 
ATOM      8  HN  UNL d   1       2.678  -1.777  -0.086  1.00  0.00     0.188 HD
ATOM      9  C   UNL d   1       2.527   1.452  -0.510  0.00  0.00     0.082 A 
ATOM     10  C   UNL d   1      -2.581   1.438  -0.689  0.00  0.00     0.271 A 
ATOM     11  N   UNL d   1      -3.346   0.344  -0.326  0.00  0.00    -0.342 N 
ATOM     12  C   UNL d   1       3.263   0.248  -0.312  0.00  0.00     0.062 A 
ATOM     13  C   UNL d   1      -2.553  -0.835  -0.073  0.00  0.00     0.173 A 
ATOM     14  O   UNL d   1       0.068  -2.269   0.007  0.00  0.00    -0.265 OA
ATOM     15  O   UNL d   1      -2.978   2.548  -0.989  0.00  0.00    -0.266 OA
ENDROOT
BRANCH   5  16
ATOM     16  C   UNL d   1      -0.079   3.178  -0.293  0.00  0.00     0.234 C 
BRANCH  16  17
ATOM     17  C   UNL d   1       0.885   4.169  -0.892  0.00  0.00     0.240 C 
ATOM     18  N   UNL d   1       1.170   4.080  -2.256  0.00  0.00    -0.326 N 
ATOM     19  H   UNL d   1       0.482   3.604  -2.827  0.00  0.00     0.169 HD
ATOM     20  O   UNL d   1       1.288   5.083  -0.156  0.00  0.00    -0.271 OA
BRANCH  18  21
ATOM     21  C   UNL d   1       1.966   5.092  -2.855  0.00  0.00     0.037 C 
ATOM     22  C   UNL d   1       3.031   5.637  -2.137  0.00  0.00     0.069 C 
ATOM     23  C   UNL d   1       3.437   6.928  -2.414  0.00  0.00     0.104 C 
ATOM     24  O   UNL d   1       4.224   7.543  -1.474  0.00  0.00    -0.346 OA
ATOM     25  C   UNL d   1       2.905   7.621  -3.497  0.00  0.00     0.102 C 
ATOM     26  C   UNL d   1       3.629   8.820  -1.239  0.00  0.00     0.202 C 
ATOM     27  C   UNL d   1       3.657   9.633  -2.530  0.00  0.00     0.202 C 
ATOM     28  O   UNL d   1       3.100   8.964  -3.678  0.00  0.00    -0.346 OA
ATOM     29  C   UNL d   1       2.044   6.964  -4.378  0.00  0.00     0.042 C 
ATOM     30  C   UNL d   1       1.561   5.686  -4.054  0.00  0.00     0.032 C 
ENDBRANCH  18  21
ENDBRANCH  16  17
ENDBRANCH   5  16
BRANCH  12  31
ATOM     31  C   UNL d   1       4.719   0.069  -0.194  0.00  0.00    -0.008 A 
ATOM     32  C   UNL d   1       5.612   1.115  -0.466  0.00  0.00     0.014 A 
ATOM     33  C   UNL d   1       6.994   0.922  -0.356  0.00  0.00     0.001 A 
ATOM     34  C   UNL d   1       7.502  -0.320   0.022  0.00  0.00     0.000 A 
ATOM     35  C   UNL d   1       6.629  -1.369   0.296  0.00  0.00     0.001 A 
ATOM     36  C   UNL d   1       5.249  -1.175   0.188  0.00  0.00     0.014 A 
ENDBRANCH  12  31
BRANCH  11  37
ATOM     37  C   UNL d   1      -4.787   0.377  -0.149  0.00  0.00     0.126 C 
BRANCH  37  38
ATOM     38  C   UNL d   1      -5.195   1.152   1.105  0.00  0.00     0.020 C 
BRANCH  38  39
ATOM     39  C   UNL d   1      -6.710   1.120   1.309  0.00  0.00    -0.003 C 
ATOM     40  C   UNL d   1      -7.130   1.933   2.523  0.00  0.00     0.005 C 
ENDBRANCH  38  39
ENDBRANCH  37  38
ENDBRANCH  11  37
TORSDOF 7
