REMARK  4 active torsions:
REMARK  status: ('A' for Active; 'I' for Inactive)
REMARK    1  A    between atoms: C_8  and  N_2 
REMARK    2  A    between atoms: C_13  and  C_8 
REMARK    3  A    between atoms: C_16  and  C_9 
REMARK    4  A    between atoms: O_24  and  C_20 
ROOT
ATOM      1  N   UNL d   1       0.963  -5.225  -1.009  0.00  0.00    -0.270 N 
ATOM      2  HN  UNL d   1       0.505  -5.804  -1.713  1.00  0.00     0.194 HD
ATOM      3  C   UNL d   1       1.051  -5.485   0.256  0.00  0.00     0.045 C 
ATOM      4  O   UNL d   1       1.618  -3.993  -1.239  0.00  0.00    -0.273 OA
ATOM      5  C   UNL d   1       2.430  -3.693  -0.096  0.00  0.00     0.177 C 
ATOM      6  C   UNL d   1       1.791  -4.462   1.047  0.00  0.00     0.096 C 
ENDROOT
BRANCH   5   7
ATOM      7  C   UNL d   1       2.444  -2.181   0.149  0.00  0.00     0.180 C 
BRANCH   7   8
ATOM      8  N   UNL d   1       3.164  -1.454  -0.908  0.00  0.00    -0.234 N 
ATOM      9  S   UNL d   1       4.812  -1.176  -0.745  0.00  0.00     0.268 S 
ATOM     10  C   UNL d   1       4.918  -0.302  -2.243  0.00  0.00     0.095 A 
ATOM     11  O   UNL d   1       5.025  -0.256   0.348  0.00  0.00    -0.200 OA
ATOM     12  O   UNL d   1       5.519  -2.428  -0.873  0.00  0.00    -0.200 OA
ATOM     13  C   UNL d   1       3.670  -0.214  -2.847  0.00  0.00     0.056 A 
ATOM     14  C   UNL d   1       6.057   0.259  -2.794  0.00  0.00     0.026 A 
ATOM     15  C   UNL d   1       3.522   0.447  -4.057  0.00  0.00     0.018 A 
ATOM     16  C   UNL d   1       2.598  -0.861  -2.062  0.00  0.00     0.269 A 
ATOM     17  C   UNL d   1       4.660   1.018  -4.642  0.00  0.00     0.001 A 
ATOM     18  C   UNL d   1       5.916   0.927  -4.013  0.00  0.00     0.002 A 
ATOM     19  O   UNL d   1       1.419  -0.842  -2.349  0.00  0.00    -0.266 OA
ENDBRANCH   7   8
ENDBRANCH   5   7
BRANCH   3  20
ATOM     20  C   UNL d   1       0.412  -6.674   0.879  0.00  0.00    -0.011 A 
ATOM     21  C   UNL d   1       0.455  -6.907   2.258  0.00  0.00     0.016 A 
ATOM     22  C   UNL d   1      -0.203  -8.018   2.812  0.00  0.00     0.037 A 
ATOM     23  C   UNL d   1      -0.906  -8.904   1.993  0.00  0.00     0.068 A 
ATOM     24  C   UNL d   1      -0.939  -8.674   0.616  0.00  0.00     0.037 A 
ATOM     25  C   UNL d   1      -0.287  -7.569   0.061  0.00  0.00     0.016 A 
BRANCH  23  26
ATOM     26  O   UNL d   1      -1.591 -10.014   2.401  0.00  0.00    -0.356 OA
ATOM     27  C   UNL d   1      -1.633 -10.277   3.797  0.00  0.00     0.210 C 
ENDBRANCH  23  26
ENDBRANCH   3  20
TORSDOF 4
