REMARK  6 active torsions:
REMARK  status: ('A' for Active; 'I' for Inactive)
REMARK    1  A    between atoms: N_3  and  C_1 
REMARK    2  A    between atoms: C_8  and  C_2 
REMARK    3  A    between atoms: C_5  and  N_3 
REMARK    4  A    between atoms: N_9  and  C_5 
REMARK    5  A    between atoms: O_13  and  C_8 
REMARK    6  A    between atoms: C_20  and  O_13 
ROOT
ATOM      1  C   UNL d   1       0.947  -1.402  -0.040  0.00  0.00     0.093 C 
ATOM      2  C   UNL d   1      -0.399  -1.719   0.024  0.00  0.00     0.080 C 
ATOM      3  S   UNL d   1       1.243   0.225  -0.424  0.00  0.00    -0.076 SA
ATOM      4  C   UNL d   1      -1.195  -0.484  -0.041  0.00  0.00    -0.030 C 
ATOM      5  C   UNL d   1      -0.388   0.638  -0.185  0.00  0.00    -0.012 C 
ATOM      6  C   UNL d   1      -2.691  -0.374   0.026  0.00  0.00     0.050 C 
ATOM      7  C   UNL d   1      -0.789   2.078  -0.208  0.00  0.00     0.057 C 
ENDROOT
BRANCH   1   8
ATOM      8  N   UNL d   1       2.136  -2.071   0.132  0.00  0.00    -0.327 N 
ATOM      9  H   UNL d   1       2.904  -1.722  -0.430  0.00  0.00     0.169 HD
BRANCH   8  10
ATOM     10  C   UNL d   1       2.424  -3.196   0.844  0.00  0.00     0.174 C 
ATOM     11  S   UNL d   1       3.751  -4.064   0.272  0.00  0.00    -0.041 SA
BRANCH  10  12
ATOM     12  N   UNL d   1       1.732  -3.475   2.016  0.00  0.00    -0.354 N 
ATOM     13  C   UNL d   1       1.208  -2.420   2.902  0.00  0.00     0.151 C 
ATOM     14  C   UNL d   1       0.002  -2.926   3.695  0.00  0.00     0.187 C 
ATOM     15  O   UNL d   1       0.360  -4.068   4.485  0.00  0.00    -0.388 OA
ATOM     16  C   UNL d   1       0.824  -5.133   3.644  0.00  0.00     0.187 C 
ATOM     17  C   UNL d   1       2.016  -4.711   2.780  0.00  0.00     0.151 C 
ENDBRANCH  10  12
ENDBRANCH   8  10
ENDBRANCH   1   8
BRANCH   2  18
ATOM     18  C   UNL d   1      -0.905  -3.098   0.072  0.00  0.00     0.296 C 
ATOM     19  O   UNL d   1      -0.289  -4.069  -0.351  0.00  0.00    -0.259 OA
BRANCH  18  20
ATOM     20  O   UNL d   1      -2.174  -3.173   0.570  0.00  0.00    -0.318 OA
BRANCH  20  21
ATOM     21  C   UNL d   1      -2.890  -4.399   0.345  0.00  0.00     0.174 C 
ATOM     22  C   UNL d   1      -2.945  -5.220   1.615  0.00  0.00     0.034 C 
ENDBRANCH  20  21
ENDBRANCH  18  20
ENDBRANCH   2  18
TORSDOF 6
