REMARK  2 active torsions:
REMARK  status: ('A' for Active; 'I' for Inactive)
REMARK    1  A    between atoms: C_15  and  C_4 
REMARK    2  A    between atoms: C_12  and  C_10 
ROOT
ATOM      1  N   UNL d   1      -0.499  -0.789   0.074  0.00  0.00    -0.214 N 
ATOM      2  N   UNL d   1       0.476  -1.728   0.324  0.00  0.00    -0.292 N 
ATOM      3  HN  UNL d   1       0.244  -2.653   0.685  1.00  0.00     0.187 HD
ATOM      4  C   UNL d   1      -1.870  -1.002  -0.045  0.00  0.00     0.154 A 
ATOM      5  C   UNL d   1      -0.358   0.571  -0.069  0.00  0.00     0.182 A 
ATOM      6  N   UNL d   1      -2.458   0.165  -0.277  0.00  0.00    -0.281 N 
ATOM      7  HN  UNL d   1      -3.456   0.303  -0.434  1.00  0.00     0.188 HD
ATOM      8  N   UNL d   1      -1.508   1.155  -0.273  0.00  0.00    -0.277 N 
ATOM      9  HN  UNL d   1      -1.669   2.154  -0.403  1.00  0.00     0.189 HD
ATOM     10  C   UNL d   1       1.711  -1.382   0.078  0.00  0.00     0.053 C 
ATOM     11  S   UNL d   1       1.187   1.320   0.030  0.00  0.00    -0.085 SA
ATOM     12  C   UNL d   1       2.138  -0.081  -0.599  0.00  0.00     0.142 C 
ENDROOT
BRANCH   4  13
ATOM     13  C   UNL d   1      -2.569  -2.292   0.002  0.00  0.00     0.011 A 
ATOM     14  C   UNL d   1      -2.097  -3.389   0.733  0.00  0.00     0.015 A 
ATOM     15  C   UNL d   1      -2.806  -4.594   0.754  0.00  0.00     0.001 A 
ATOM     16  C   UNL d   1      -4.001  -4.717   0.049  0.00  0.00     0.000 A 
ATOM     17  C   UNL d   1      -4.492  -3.634  -0.674  0.00  0.00     0.001 A 
ATOM     18  C   UNL d   1      -3.783  -2.430  -0.694  0.00  0.00     0.015 A 
ENDBRANCH   4  13
BRANCH  10  19
ATOM     19  C   UNL d   1       2.746  -2.355   0.426  0.00  0.00     0.029 A 
ATOM     20  S   UNL d   1       4.237  -2.423  -0.417  0.00  0.00    -0.100 SA
ATOM     21  C   UNL d   1       4.825  -3.688   0.567  0.00  0.00     0.050 A 
ATOM     22  C   UNL d   1       3.896  -4.086   1.501  0.00  0.00     0.008 A 
ATOM     23  C   UNL d   1       2.689  -3.333   1.404  0.00  0.00     0.021 A 
ENDBRANCH  10  19
TORSDOF 2
