REMARK  8 active torsions:
REMARK  status: ('A' for Active; 'I' for Inactive)
REMARK    1  A    between atoms: N_3  and  C_1 
REMARK    2  A    between atoms: C_5  and  C_1 
REMARK    3  A    between atoms: C_6  and  C_2 
REMARK    4  A    between atoms: C_4  and  N_3 
REMARK    5  A    between atoms: O_13  and  C_5 
REMARK    6  A    between atoms: O_14  and  C_6 
REMARK    7  A    between atoms: O_16  and  C_8 
REMARK    8  A    between atoms: O_17  and  C_12 
ROOT
ATOM      1  N   UNL d   1       0.409   0.428  -0.879  0.00  0.00    -0.252 NA
ATOM      2  H   UNL d   1       0.795   1.278  -1.305  0.00  0.00     0.134 HD
ENDROOT
BRANCH   1   3
ATOM      3  C   UNL d   1       1.135   0.090   0.275  0.00  0.00     0.094 C 
ATOM      4  C   UNL d   1       0.966  -1.079   0.917  0.00  0.00     0.112 C 
BRANCH   4   5
ATOM      5  C   UNL d   1       1.798  -1.618   2.012  0.00  0.00     0.284 C 
ATOM      6  O   UNL d   1       2.982  -1.398   2.180  0.00  0.00    -0.260 OA
BRANCH   5   7
ATOM      7  O   UNL d   1       1.030  -2.498   2.705  0.00  0.00    -0.323 OA
ATOM      8  C   UNL d   1       1.721  -3.224   3.726  0.00  0.00     0.213 C 
ENDBRANCH   5   7
ENDBRANCH   4   5
BRANCH   3   9
ATOM      9  C   UNL d   1       2.134   1.106   0.768  0.00  0.00     0.304 C 
ATOM     10  O   UNL d   1       2.445   1.286   1.935  0.00  0.00    -0.258 OA
BRANCH   9  11
ATOM     11  O   UNL d   1       2.511   1.885  -0.286  0.00  0.00    -0.322 OA
ATOM     12  C   UNL d   1       3.409   2.942   0.061  0.00  0.00     0.213 C 
ENDBRANCH   9  11
ENDBRANCH   3   9
ENDBRANCH   1   3
BRANCH   1  13
ATOM     13  C   UNL d   1      -1.012   0.507  -0.924  0.00  0.00     0.049 A 
ATOM     14  C   UNL d   1      -1.736   0.910   0.221  0.00  0.00     0.063 A 
ATOM     15  C   UNL d   1      -3.120   1.095   0.180  0.00  0.00     0.070 A 
ATOM     16  C   UNL d   1      -3.797   0.896  -1.020  0.00  0.00     0.039 A 
ATOM     17  C   UNL d   1      -3.098   0.541  -2.172  0.00  0.00     0.041 A 
ATOM     18  C   UNL d   1      -1.712   0.348  -2.137  0.00  0.00     0.089 A 
BRANCH  15  19
ATOM     19  O   UNL d   1      -3.913   1.478   1.226  0.00  0.00    -0.356 OA
ATOM     20  C   UNL d   1      -3.269   1.743   2.466  0.00  0.00     0.210 C 
ENDBRANCH  15  19
BRANCH  18  21
ATOM     21  O   UNL d   1      -1.174   0.066  -3.366  0.00  0.00    -0.354 OA
ATOM     22  C   UNL d   1      -0.064  -0.823  -3.395  0.00  0.00     0.210 C 
ENDBRANCH  18  21
ENDBRANCH   1  13
TORSDOF 8
