REMARK  5 active torsions:
REMARK  status: ('A' for Active; 'I' for Inactive)
REMARK    1  A    between atoms: C_7  and  C_1 
REMARK    2  A    between atoms: C_6  and  N_13 
REMARK    3  A    between atoms: S_17  and  C_6 
REMARK    4  A    between atoms: C_18  and  C_10 
REMARK    5  A    between atoms: N_13  and  C_18 
ROOT
ATOM      1  N   UNL d   1      -0.429  -6.389  -0.651  0.00  0.00    -0.274 N 
ATOM      2  HN  UNL d   1      -0.167  -6.640   0.303  1.00  0.00     0.180 HD
ATOM      3  C   UNL d   1      -1.640  -5.876  -0.888  0.00  0.00     0.183 C 
ATOM      4  C   UNL d   1       0.417  -6.571  -1.614  0.00  0.00     0.149 C 
ATOM      5  N   UNL d   1      -2.702  -5.452  -1.068  0.00  0.00    -0.172 NA
ENDROOT
BRANCH   4   6
ATOM      6  N   UNL d   1       1.683  -7.046  -1.406  0.00  0.00    -0.365 N 
ATOM      7  H   UNL d   1       2.323  -6.978  -2.188  0.00  0.00     0.162 HD
BRANCH   6   8
ATOM      8  C   UNL d   1       2.285  -7.135  -0.090  0.00  0.00     0.168 C 
BRANCH   8   9
ATOM      9  C   UNL d   1       3.728  -7.560  -0.099  0.00  0.00     0.001 A 
ATOM     10  S   UNL d   1       4.135  -9.223  -0.122  0.00  0.00    -0.092 SA
ATOM     11  C   UNL d   1       5.822  -8.908  -0.029  0.00  0.00     0.022 A 
ATOM     12  C   UNL d   1       6.059  -7.544  -0.035  0.00  0.00     0.021 A 
ATOM     13  C   UNL d   1       4.860  -6.770  -0.079  0.00  0.00     0.018 A 
BRANCH  11  14
ATOM     14  C   UNL d   1       6.788  -9.983   0.063  0.00  0.00     0.021 A 
ATOM     15  S   UNL d   1       8.317  -9.755   0.821  0.00  0.00    -0.101 SA
ATOM     16  C   UNL d   1       8.770 -11.384   0.579  0.00  0.00     0.050 A 
ATOM     17  C   UNL d   1       7.798 -12.094  -0.085  0.00  0.00     0.008 A 
ATOM     18  C   UNL d   1       6.660 -11.287  -0.385  0.00  0.00     0.021 A 
ENDBRANCH  11  14
ENDBRANCH   8   9
ENDBRANCH   6   8
ENDBRANCH   4   6
BRANCH   4  19
ATOM     19  S   UNL d   1       0.141  -6.205  -3.313  0.00  0.00    -0.098 SA
ATOM     20  C   UNL d   1      -1.086  -7.464  -3.737  0.00  0.00     0.099 C 
ENDBRANCH   4  19
TORSDOF 5
