REMARK  7 active torsions:
REMARK  status: ('A' for Active; 'I' for Inactive)
REMARK    1  A    between atoms: N_2  and  S_1 
REMARK    2  A    between atoms: C_5  and  S_1 
REMARK    3  A    between atoms: C_8  and  C_3 
REMARK    4  A    between atoms: C_9  and  C_4 
REMARK    5  A    between atoms: C_6  and  N_11 
REMARK    6  A    between atoms: C_10  and  C_8 
REMARK    7  A    between atoms: O_27  and  C_9 
REMARK       I    between atoms: N_11  and  C_10 
ROOT
ATOM      1  N   UNL d   1      -0.167  -1.228   0.110  0.00  0.00    -0.291 N 
ATOM      2  C   UNL d   1       0.069  -2.587   0.726  0.00  0.00     0.196 C 
ATOM      3  C   UNL d   1       1.013  -3.403  -0.180  0.00  0.00     0.241 C 
ATOM      4  N   UNL d   1       0.657  -3.424  -1.519  0.00  0.00    -0.358 N 
ATOM      5  C   UNL d   1      -0.736  -1.367  -1.267  0.00  0.00     0.156 C 
ATOM      6  O   UNL d   1       1.973  -4.060   0.203  0.00  0.00    -0.271 OA
ATOM      7  C   UNL d   1       0.205  -2.196  -2.150  0.00  0.00     0.143 C 
ATOM      8  H   UNL d   1       1.276  -4.017  -2.058  0.00  0.00     0.162 HD
ENDROOT
BRANCH   2   9
ATOM      9  C   UNL d   1       0.492  -2.564   2.195  0.00  0.00     0.138 C 
BRANCH   9  10
ATOM     10  C   UNL d   1       0.301  -3.931   2.824  0.00  0.00     0.224 C 
ATOM     11  N   UNL d   1       0.396  -3.918   4.206  0.00  0.00    -0.326 N 
ATOM     12  H   UNL d   1      -0.088  -3.167   4.694  0.00  0.00     0.169 HD
ATOM     13  O   UNL d   1       0.074  -4.942   2.164  0.00  0.00    -0.273 OA
BRANCH  11  14
ATOM     14  C   UNL d   1       0.607  -5.099   4.920  0.00  0.00     0.058 A 
ATOM     15  C   UNL d   1      -0.064  -5.421   6.088  0.00  0.00     0.106 A 
ATOM     16  S   UNL d   1       0.495  -6.909   6.739  0.00  0.00    -0.094 SA
ATOM     17  C   UNL d   1       1.591  -7.145   5.454  0.00  0.00     0.053 A 
ATOM     18  C   UNL d   1       1.537  -6.117   4.542  0.00  0.00     0.038 A 
BRANCH  15  19
ATOM     19  C   UNL d   1      -1.151  -4.680   6.699  0.00  0.00     0.302 C 
ATOM     20  O   UNL d   1      -1.442  -3.521   6.415  0.00  0.00    -0.259 OA
BRANCH  19  21
ATOM     21  O   UNL d   1      -1.861  -5.459   7.565  0.00  0.00    -0.322 OA
ATOM     22  C   UNL d   1      -3.054  -4.864   8.073  0.00  0.00     0.213 C 
ENDBRANCH  19  21
ENDBRANCH  15  19
ENDBRANCH  11  14
ENDBRANCH   9  10
ENDBRANCH   2   9
BRANCH   1  23
ATOM     23  S   UNL d   1       0.988   0.003   0.305  0.00  0.00     0.268 S 
ATOM     24  O   UNL d   1       1.071   0.781  -0.913  0.00  0.00    -0.200 OA
ATOM     25  O   UNL d   1       2.167  -0.522   0.945  0.00  0.00    -0.200 OA
BRANCH  23  26
ATOM     26  C   UNL d   1       0.280   1.115   1.513  0.00  0.00     0.120 A 
ATOM     27  S   UNL d   1      -1.211   1.841   1.078  0.00  0.00    -0.088 SA
ATOM     28  C   UNL d   1      -1.312   2.679   2.565  0.00  0.00     0.051 A 
ATOM     29  C   UNL d   1      -0.240   2.407   3.385  0.00  0.00     0.009 A 
ATOM     30  C   UNL d   1       0.682   1.505   2.776  0.00  0.00     0.033 A 
ENDBRANCH  23  26
ENDBRANCH   1  23
TORSDOF 7
