REMARK  6 active torsions:
REMARK  status: ('A' for Active; 'I' for Inactive)
REMARK    1  A    between atoms: C_8  and  C_1 
REMARK    2  A    between atoms: C_17  and  N_2 
REMARK    3  A    between atoms: C_7  and  N_13 
REMARK       I    between atoms: N_13  and  C_8 
REMARK    4  A    between atoms: C_16  and  C_9 
REMARK    5  A    between atoms: C_22  and  C_10 
REMARK    6  A    between atoms: C_18  and  C_17 
ROOT
ATOM      1  C   UNL d   1      -0.611  -1.366   0.127  0.00  0.00     0.121 A 
ATOM      2  N   UNL d   1       0.626  -0.769   0.015  0.00  0.00    -0.282 N 
ATOM      3  N   UNL d   1       0.591   0.570   0.122  0.00  0.00    -0.301 N 
ATOM      4  HN  UNL d   1       1.385   1.208   0.162  1.00  0.00     0.187 HD
ATOM      5  C   UNL d   1      -1.497  -0.295   0.234  0.00  0.00     0.064 A 
ATOM      6  C   UNL d   1      -0.705   0.887   0.166  0.00  0.00     0.036 A 
ENDROOT
BRANCH   1   7
ATOM      7  C   UNL d   1      -0.833  -2.803   0.023  0.00  0.00     0.275 C 
ATOM      8  N   UNL d   1      -1.993  -3.256   0.603  0.00  0.00    -0.301 N 
ATOM      9  H   UNL d   1      -2.531  -2.639   1.193  0.00  0.00     0.171 HD
ATOM     10  O   UNL d   1      -0.007  -3.528  -0.533  0.00  0.00    -0.266 OA
BRANCH   8  11
ATOM     11  C   UNL d   1      -2.572  -4.496   0.419  0.00  0.00     0.168 C 
ATOM     12  S   UNL d   1      -1.995  -5.652  -0.699  0.00  0.00    -0.037 SA
ATOM     13  C   UNL d   1      -3.502  -6.452  -0.528  0.00  0.00     0.074 C 
ATOM     14  N   UNL d   1      -4.251  -5.984   0.447  0.00  0.00    -0.296 N 
ATOM     15  N   UNL d   1      -3.697  -4.843   1.008  0.00  0.00    -0.279 N 
ATOM     16  HN  UNL d   1      -5.128  -6.406   0.751  1.00  0.00     0.187 HD
ATOM     17  HN  UNL d   1      -4.113  -4.333   1.787  1.00  0.00     0.189 HD
BRANCH  13  18
ATOM     18  C   UNL d   1      -3.986  -7.487  -1.547  0.00  0.00     0.044 A 
ATOM     19  C   UNL d   1      -5.354  -7.185  -2.140  0.00  0.00     0.012 A 
ATOM     20  C   UNL d   1      -5.165  -8.401  -1.301  0.00  0.00     0.012 A 
ENDBRANCH  13  18
ENDBRANCH   8  11
ENDBRANCH   1   7
BRANCH   2  21
ATOM     21  C   UNL d   1       1.933  -1.388  -0.214  0.00  0.00     0.189 C 
BRANCH  21  22
ATOM     22  C   UNL d   1       2.248  -1.612  -1.682  0.00  0.00    -0.017 A 
ATOM     23  C   UNL d   1       3.144  -2.621  -2.074  0.00  0.00     0.043 A 
ATOM     24  C   UNL d   1       3.426  -2.852  -3.424  0.00  0.00     0.048 A 
ATOM     25 CL   UNL d   1       3.970  -3.606  -0.916  0.00  0.00    -0.084 Cl
ATOM     26  C   UNL d   1       2.835  -2.056  -4.399  0.00  0.00     0.035 A 
ATOM     27  C   UNL d   1       1.991  -1.013  -4.039  0.00  0.00     0.024 A 
ATOM     28 CL   UNL d   1       3.163  -2.354  -6.061  0.00  0.00    -0.084 Cl
ATOM     29  C   UNL d   1       1.709  -0.785  -2.690  0.00  0.00     0.012 A 
ENDBRANCH  21  22
ENDBRANCH   2  21
BRANCH   6  30
ATOM     30  C   UNL d   1      -1.075   2.363   0.105  0.00  0.00    -0.007 C 
ATOM     31  C   UNL d   1      -2.594   2.604   0.114  0.00  0.00     0.021 C 
ATOM     32  C   UNL d   1      -0.458   3.113   1.306  0.00  0.00     0.021 C 
ATOM     33  C   UNL d   1      -0.508   2.990  -1.194  0.00  0.00     0.021 C 
ENDBRANCH   6  30
TORSDOF 6
