REMARK  6 active torsions:
REMARK  status: ('A' for Active; 'I' for Inactive)
REMARK    1  A    between atoms: C_3  and  C_1 
REMARK    2  A    between atoms: O_17  and  C_4 
REMARK    3  A    between atoms: O_18  and  C_9 
REMARK    4  A    between atoms: O_19  and  C_10 
REMARK    5  A    between atoms: O_20  and  C_13 
REMARK    6  A    between atoms: O_21  and  C_15 
ROOT
ATOM      1  C   UNL d   1       1.311   1.297  -0.318  0.00  0.00     0.049 C 
ATOM      2  C   UNL d   1      -0.039   0.664  -0.160  0.00  0.00     0.000 A 
ATOM      3  C   UNL d   1      -1.220   1.396  -0.001  0.00  0.00     0.054 A 
ATOM      4  N   UNL d   1       2.409   0.644  -0.086  0.00  0.00    -0.388 N 
ATOM      5  HN  UNL d   1       3.319   1.079  -0.235  1.00  0.00     0.159 HD
ATOM      6  C   UNL d   1      -0.096  -0.731  -0.156  0.00  0.00    -0.041 A 
ATOM      7  C   UNL d   1      -2.474   0.759   0.037  0.00  0.00     0.102 A 
ATOM      8  C   UNL d   1      -1.334  -1.373  -0.065  0.00  0.00     0.047 A 
ATOM      9  C   UNL d   1      -2.530  -0.644   0.028  0.00  0.00     0.102 A 
ATOM     10  C   UNL d   1       2.304  -0.737   0.397  0.00  0.00     0.124 C 
ATOM     11  C   UNL d   1       1.182  -1.506  -0.288  0.00  0.00     0.059 C 
ENDROOT
BRANCH   1  12
ATOM     12  C   UNL d   1       1.456   2.727  -0.742  0.00  0.00    -0.003 A 
ATOM     13  C   UNL d   1       2.505   3.472  -0.196  0.00  0.00     0.053 A 
ATOM     14  C   UNL d   1       2.664   4.836  -0.486  0.00  0.00     0.105 A 
ATOM     15  C   UNL d   1       1.742   5.478  -1.342  0.00  0.00     0.135 A 
ATOM     16  C   UNL d   1       0.727   4.701  -1.947  0.00  0.00     0.105 A 
ATOM     17  C   UNL d   1       0.600   3.336  -1.657  0.00  0.00     0.053 A 
BRANCH  14  18
ATOM     18  O   UNL d   1       3.687   5.576   0.053  0.00  0.00    -0.353 OA
ATOM     19  C   UNL d   1       4.650   4.917   0.867  0.00  0.00     0.210 C 
ENDBRANCH  14  18
BRANCH  15  20
ATOM     20  O   UNL d   1       1.704   6.816  -1.638  0.00  0.00    -0.351 OA
ATOM     21  C   UNL d   1       2.616   7.717  -1.029  0.00  0.00     0.210 C 
ENDBRANCH  15  20
BRANCH  16  22
ATOM     22  O   UNL d   1      -0.270   5.146  -2.786  0.00  0.00    -0.353 OA
ATOM     23  C   UNL d   1       0.056   6.213  -3.669  0.00  0.00     0.210 C 
ENDBRANCH  16  22
ENDBRANCH   1  12
BRANCH   7  24
ATOM     24  O   UNL d   1      -3.635   1.487   0.093  0.00  0.00    -0.353 OA
ATOM     25  C   UNL d   1      -3.603   2.755  -0.563  0.00  0.00     0.210 C 
ENDBRANCH   7  24
BRANCH   9  26
ATOM     26  O   UNL d   1      -3.626  -1.463   0.047  0.00  0.00    -0.353 OA
ATOM     27  C   UNL d   1      -4.877  -0.941   0.463  0.00  0.00     0.210 C 
ENDBRANCH   9  26
TORSDOF 6
