REMARK  2 active torsions:
REMARK  status: ('A' for Active; 'I' for Inactive)
REMARK    1  A    between atoms: C_10  and  C_4 
REMARK    2  A    between atoms: N_9  and  C_8 
ROOT
ATOM      1  C   UNL d   1       3.290   1.976  -0.738  0.00  0.00    -0.002 A 
ATOM      2  C   UNL d   1       2.235   3.036  -0.690  0.00  0.00     0.189 A 
ATOM      3  C   UNL d   1       2.685   4.120  -1.572  0.00  0.00     0.021 A 
ATOM      4  C   UNL d   1       3.153   0.801  -0.112  0.00  0.00     0.023 C 
ATOM      5  C   UNL d   1       3.927   3.788  -2.113  0.00  0.00    -0.040 A 
ATOM      6  C   UNL d   1       4.419   2.465  -1.611  0.00  0.00     0.082 A 
ATOM      7  O   UNL d   1       1.199   3.010  -0.060  0.00  0.00    -0.287 OA
ATOM      8  C   UNL d   1       2.029   5.298  -1.884  0.00  0.00     0.016 A 
ATOM      9  C   UNL d   1       4.552   4.647  -3.002  0.00  0.00     0.008 A 
ATOM     10  C   UNL d   1       2.656   6.166  -2.781  0.00  0.00     0.001 A 
ATOM     11  C   UNL d   1       3.906   5.841  -3.337  0.00  0.00     0.001 A 
ENDROOT
BRANCH   4  12
ATOM     12  C   UNL d   1       4.166  -0.251  -0.188  0.00  0.00    -0.035 A 
ATOM     13  C   UNL d   1       5.207  -0.303   0.734  0.00  0.00     0.013 A 
ATOM     14  C   UNL d   1       6.174  -1.319   0.658  0.00  0.00     0.030 A 
ATOM     15  C   UNL d   1       6.142  -2.317  -0.330  0.00  0.00     0.029 A 
ATOM     16  C   UNL d   1       5.087  -2.226  -1.254  0.00  0.00     0.030 A 
ATOM     17  C   UNL d   1       4.116  -1.213  -1.193  0.00  0.00     0.013 A 
BRANCH  15  18
ATOM     18  N   UNL d   1       7.066  -3.349  -0.377  0.00  0.00    -0.390 N 
ATOM     19  C   UNL d   1       7.456  -3.982  -1.634  0.00  0.00     0.149 C 
ATOM     20  C   UNL d   1       7.870  -3.738   0.777  0.00  0.00     0.149 C 
ENDBRANCH  15  18
ENDBRANCH   4  12
TORSDOF 2
