REMARK  8 active torsions:
REMARK  status: ('A' for Active; 'I' for Inactive)
REMARK       I    between atoms: N_3  and  C_7 
REMARK    1  A    between atoms: C_16  and  C_4 
REMARK    2  A    between atoms: O_11  and  C_5 
REMARK    3  A    between atoms: C_7  and  C_12 
REMARK    4  A    between atoms: C_12  and  O_11 
REMARK    5  A    between atoms: C_31  and  C_29 
REMARK    6  A    between atoms: O_36  and  C_29 
REMARK    7  A    between atoms: C_30  and  C_32 
REMARK    8  A    between atoms: O_35  and  C_30 
ROOT
ATOM      1  C   UNL d   2       0.917  -1.373  -2.082  0.00  0.00     0.088 C 
ATOM      2  C   UNL d   2       1.109  -2.667  -2.368  0.00  0.00     0.088 C 
ENDROOT
BRANCH   1   3
ATOM      3  C   UNL d   2       2.091  -0.551  -1.779  0.00  0.00     0.165 C 
ATOM      4  O   UNL d   2       3.255  -0.898  -1.840  0.00  0.00    -0.647 OA
BRANCH   3   5
ATOM      5  O   UNL d   2       1.717   0.667  -1.370  0.00  0.00    -0.773 OA
ATOM      6  H   UNL d   2       2.556   1.122  -1.147  0.00  0.00     0.167 HD
ENDBRANCH   3   5
ENDBRANCH   1   3
BRANCH   2   7
ATOM      7  C   UNL d   2      -0.057  -3.528  -2.608  0.00  0.00     0.165 C 
ATOM      8  O   UNL d   2      -1.189  -3.123  -2.805  0.00  0.00    -0.647 OA
BRANCH   7   9
ATOM      9  O   UNL d   2       0.262  -4.835  -2.539  0.00  0.00    -0.773 OA
ATOM     10  H   UNL d   2       1.188  -5.032  -2.307  0.00  0.00     0.167 HD
ENDBRANCH   7   9
ENDBRANCH   2   7
TORSDOF 8
