REMARK  3 active torsions:
REMARK  status: ('A' for Active; 'I' for Inactive)
REMARK    1  A    between atoms: N_13  and  C_2 
REMARK    2  A    between atoms: N_14  and  N_13 
REMARK    3  A    between atoms: C_19  and  C_18 
ROOT
ATOM      1  N   UNL d   1      -1.028   0.895  -0.062  0.00  0.00    -0.067 N 
ATOM      2  C   UNL d   1       0.249   1.492  -0.087  0.00  0.00     0.168 A 
ATOM      3  C   UNL d   1      -1.190  -0.503  -0.003  0.00  0.00     0.706 A 
ATOM      4  C   UNL d   1       1.304   0.661  -0.046  0.00  0.00     0.013 A 
ATOM      5  N   UNL d   1      -0.125  -1.360   0.017  0.00  0.00    -0.193 N 
ATOM      6  HN  UNL d   1      -0.239  -2.373   0.047  1.00  0.00     0.184 HD
ATOM      7  N   UNL d   1      -2.478  -0.781   0.024  0.00  0.00    -0.184 N 
ATOM      8  HN  UNL d   1      -2.925  -1.697   0.067  1.00  0.00     0.185 HD
ATOM      9  C   UNL d   1       1.038  -0.793  -0.005  0.00  0.00     0.036 A 
ATOM     10  N   UNL d   1      -2.253   1.495  -0.075  0.00  0.00    -0.273 N 
ATOM     11  HN  UNL d   1      -2.484   2.488  -0.116  1.00  0.00     0.189 HD
ATOM     12  C   UNL d   1      -3.070   0.443  -0.020  0.00  0.00     0.215 A 
ATOM     13  C   UNL d   1       2.771   0.894  -0.042  0.00  0.00     0.045 A 
ATOM     14  C   UNL d   1       2.318  -1.564  -0.003  0.00  0.00     0.058 A 
ATOM     15  C   UNL d   1       3.412  -0.494   0.010  0.00  0.00     0.011 A 
ENDROOT
BRANCH   2  16
ATOM     16  N   UNL d   1       0.329   2.879  -0.146  0.00  0.00    -0.283 N 
ATOM     17  H   UNL d   1      -0.573   3.365  -0.117  0.00  0.00     0.188 HD
BRANCH  16  18
ATOM     18  N   UNL d   1       1.513   3.520  -0.067  0.00  0.00    -0.309 N 
ATOM     19  C   UNL d   1       1.524   4.810  -0.106  0.00  0.00     0.119 C 
ATOM     20  HN  UNL d   1       2.383   2.995   0.023  1.00  0.00     0.186 HD
BRANCH  19  21
ATOM     21  C   UNL d   1       2.813   5.515   0.003  0.00  0.00    -0.004 A 
ATOM     22  C   UNL d   1       4.004   4.803   0.108  0.00  0.00     0.100 A 
ATOM     23  N   UNL d   1       5.223   5.380   0.238  0.00  0.00    -0.374 N 
ATOM     24  C   UNL d   1       5.249   6.728   0.265  0.00  0.00     0.087 A 
ATOM     25  HN  UNL d   1       6.075   4.824   0.312  1.00  0.00     0.164 HD
ATOM     26  C   UNL d   1       4.116   7.523   0.159  0.00  0.00     0.018 A 
ATOM     27  C   UNL d   1       2.873   6.906   0.023  0.00  0.00     0.015 A 
ENDBRANCH  19  21
ENDBRANCH  16  18
ENDBRANCH   2  16
TORSDOF 3
