REMARK  1 active torsions:
REMARK  status: ('A' for Active; 'I' for Inactive)
REMARK    1  A    between atoms: C_5  and  C_4 
ROOT
ATOM      1  C   UNL d   1      -2.070   0.327   0.052  0.00  0.00    -0.006 C 
ATOM      2  C   UNL d   1      -1.088  -0.805   0.016  0.00  0.00     0.189 C 
ATOM      3  C   UNL d   1       0.356  -0.420   0.010  0.00  0.00     0.021 A 
ATOM      4  C   UNL d   1      -3.280   0.145  -0.508  0.00  0.00     0.022 C 
ATOM      5  C   UNL d   1       0.740   0.935  -0.038  0.00  0.00    -0.044 A 
ATOM      6  C   UNL d   1      -1.547   1.581   0.691  0.00  0.00     0.047 C 
ATOM      7  O   UNL d   1      -1.441  -1.980  -0.020  0.00  0.00    -0.287 OA
ATOM      8  C   UNL d   1      -0.294   2.030  -0.049  0.00  0.00     0.044 C 
ATOM      9  C   UNL d   1       1.334  -1.421   0.024  0.00  0.00     0.016 A 
ATOM     10  C   UNL d   1       2.099   1.265  -0.113  0.00  0.00     0.008 A 
ATOM     11  C   UNL d   1       2.687  -1.078  -0.028  0.00  0.00     0.001 A 
ATOM     12  C   UNL d   1       3.067   0.262  -0.103  0.00  0.00     0.001 A 
ENDROOT
BRANCH   4  13
ATOM     13  C   UNL d   1      -4.283   1.208  -0.626  0.00  0.00    -0.035 A 
ATOM     14  C   UNL d   1      -5.212   1.416   0.399  0.00  0.00     0.023 A 
ATOM     15  C   UNL d   1      -6.134   2.476   0.332  0.00  0.00    -0.025 A 
ATOM     16  C   UNL d   1      -7.078   2.693   1.348  0.00  0.00     0.012 A 
ATOM     17  C   UNL d   1      -6.109   3.349  -0.781  0.00  0.00    -0.026 A 
ATOM     18  C   UNL d   1      -7.982   3.755   1.268  0.00  0.00     0.001 A 
ATOM     19  C   UNL d   1      -7.949   4.618   0.177  0.00  0.00     0.001 A 
ATOM     20  C   UNL d   1      -7.014   4.420  -0.840  0.00  0.00     0.012 A 
ATOM     21  C   UNL d   1      -5.183   3.126  -1.809  0.00  0.00     0.013 A 
ATOM     22  C   UNL d   1      -4.288   2.054  -1.739  0.00  0.00     0.012 A 
ENDBRANCH   4  13
TORSDOF 1
