REMARK  7 active torsions:
REMARK  status: ('A' for Active; 'I' for Inactive)
REMARK    1  A    between atoms: C_7  and  N_1 
REMARK    2  A    between atoms: C_8  and  N_2 
REMARK    3  A    between atoms: C_4  and  C_3 
REMARK    4  A    between atoms: C_13  and  C_7 
REMARK    5  A    between atoms: C_12  and  C_8 
REMARK    6  A    between atoms: O_26  and  C_15 
REMARK    7  A    between atoms: O_27  and  C_16 
ROOT
ATOM      1  N   UNL d   1      -1.236   0.647  -0.222  0.00  0.00     0.132 N 
ATOM      2  N   UNL d   1       1.238   0.678  -0.258  0.00  0.00     0.132 N 
ATOM      3  C   UNL d   1      -0.003   1.393   0.167  0.00  0.00     0.506 C 
ATOM      4  C   UNL d   1      -1.216  -0.735   0.294  0.00  0.00     0.278 C 
ATOM      5  C   UNL d   1       1.268  -0.640   0.381  0.00  0.00     0.278 C 
ATOM      6  C   UNL d   1       0.072  -1.485  -0.017  0.00  0.00     0.061 C 
ENDROOT
BRANCH   1   7
ATOM      7  C   UNL d   1      -2.445   1.357   0.272  0.00  0.00     0.314 C 
BRANCH   7   8
ATOM      8  C   UNL d   1      -3.757   0.668  -0.058  0.00  0.00    -0.030 A 
ATOM      9  C   UNL d   1      -4.578   0.177   0.967  0.00  0.00     0.011 A 
ATOM     10  C   UNL d   1      -5.734  -0.551   0.668  0.00  0.00     0.037 A 
ATOM     11  C   UNL d   1      -6.100  -0.771  -0.659  0.00  0.00     0.068 A 
ATOM     12  C   UNL d   1      -5.332  -0.213  -1.683  0.00  0.00     0.037 A 
ATOM     13  C   UNL d   1      -4.160   0.489  -1.388  0.00  0.00     0.011 A 
BRANCH  11  14
ATOM     14  O   UNL d   1      -7.206  -1.474  -1.056  0.00  0.00    -0.356 OA
ATOM     15  C   UNL d   1      -7.581  -2.549  -0.198  0.00  0.00     0.210 C 
ENDBRANCH  11  14
ENDBRANCH   7   8
ENDBRANCH   1   7
BRANCH   3  16
ATOM     16  C   UNL d   1      -0.003   2.893  -0.251  0.00  0.00     0.073 A 
ATOM     17  N   UNL d   1      -0.003   3.210  -1.574  0.00  0.00    -0.360 N 
ATOM     18  C   UNL d   1       0.040   4.502  -1.939  0.00  0.00     0.005 A 
ATOM     19  HN  UNL d   1      -0.037   2.475  -2.280  1.00  0.00     0.165 HD
ATOM     20  C   UNL d   1       0.243   4.792  -3.399  0.00  0.00     0.068 C 
ATOM     21  C   UNL d   1      -0.044   5.537  -1.021  0.00  0.00     0.024 A 
ATOM     22  C   UNL d   1      -0.095   5.220   0.327  0.00  0.00     0.004 A 
ATOM     23  C   UNL d   1      -0.044   3.890   0.727  0.00  0.00     0.029 A 
ENDBRANCH   3  16
BRANCH   2  24
ATOM     24  C   UNL d   1       1.361   0.624  -1.733  0.00  0.00     0.314 C 
BRANCH  24  25
ATOM     25  C   UNL d   1       2.579  -0.098  -2.283  0.00  0.00    -0.030 A 
ATOM     26  C   UNL d   1       2.424  -1.229  -3.096  0.00  0.00     0.011 A 
ATOM     27  C   UNL d   1       3.537  -1.855  -3.667  0.00  0.00     0.037 A 
ATOM     28  C   UNL d   1       4.819  -1.355  -3.443  0.00  0.00     0.068 A 
ATOM     29  C   UNL d   1       4.976  -0.208  -2.662  0.00  0.00     0.037 A 
ATOM     30  C   UNL d   1       3.866   0.413  -2.079  0.00  0.00     0.011 A 
BRANCH  28  31
ATOM     31  O   UNL d   1       5.979  -1.892  -3.935  0.00  0.00    -0.356 OA
ATOM     32  C   UNL d   1       5.844  -3.079  -4.708  0.00  0.00     0.210 C 
ENDBRANCH  28  31
ENDBRANCH  24  25
ENDBRANCH   2  24
TORSDOF 7
