REMARK  11 active torsions:
REMARK  status: ('A' for Active; 'I' for Inactive)
REMARK    1  A    between atoms: N_2  and  S_1 
REMARK    2  A    between atoms: C_9  and  S_1 
REMARK    3  A    between atoms: C_3  and  N_2 
REMARK    4  A    between atoms: C_7  and  C_3 
REMARK    5  A    between atoms: C_8  and  C_3 
REMARK    6  A    between atoms: C_4  and  C_8 
REMARK    7  A    between atoms: O_17  and  C_7 
REMARK    8  A    between atoms: O_21  and  C_18 
REMARK    9  A    between atoms: C_24  and  O_21 
REMARK   10  A    between atoms: C_26  and  C_24 
REMARK   11  A    between atoms: C_27  and  C_26 
ROOT
ATOM      1  N   UNL d   1       0.633  -0.714   1.149  0.00  0.00    -0.201 NA
ATOM      2  H   UNL d   1      -0.376  -0.653   1.293  0.00  0.00     0.141 HD
ENDROOT
BRANCH   1   3
ATOM      3  S   UNL d   1       1.065   0.157  -0.232  0.00  0.00     0.242 S 
ATOM      4  O   UNL d   1      -0.017   1.093  -0.454  0.00  0.00    -0.206 OA
ATOM      5  O   UNL d   1       1.496  -0.767  -1.248  0.00  0.00    -0.206 OA
BRANCH   3   6
ATOM      6  C   UNL d   1       2.456   1.092   0.324  0.00  0.00     0.074 A 
ATOM      7  C   UNL d   1       3.715   0.912  -0.257  0.00  0.00     0.027 A 
ATOM      8  C   UNL d   1       4.810   1.619   0.249  0.00  0.00     0.038 A 
ATOM      9  C   UNL d   1       4.645   2.503   1.319  0.00  0.00     0.068 A 
ATOM     10  C   UNL d   1       3.370   2.680   1.873  0.00  0.00     0.038 A 
ATOM     11  C   UNL d   1       2.275   1.983   1.377  0.00  0.00     0.027 A 
BRANCH   9  12
ATOM     12  O   UNL d   1       5.784   3.143   1.749  0.00  0.00    -0.351 OA
BRANCH  12  13
ATOM     13  C   UNL d   1       5.575   4.009   2.861  0.00  0.00     0.175 C 
BRANCH  13  14
ATOM     14  C   UNL d   1       6.864   4.700   3.282  0.00  0.00     0.026 C 
BRANCH  14  15
ATOM     15  C   UNL d   1       6.561   5.631   4.456  0.00  0.00    -0.002 C 
ATOM     16  C   UNL d   1       7.789   6.376   4.938  0.00  0.00     0.005 C 
ENDBRANCH  14  15
ENDBRANCH  13  14
ENDBRANCH  12  13
ENDBRANCH   9  12
ENDBRANCH   3   6
ENDBRANCH   1   3
BRANCH   1  17
ATOM     17  C   UNL d   1       1.208  -2.080   1.372  0.00  0.00     0.175 C 
BRANCH  17  18
ATOM     18  C   UNL d   1       0.792  -3.045   0.258  0.00  0.00     0.277 C 
ATOM     19  O   UNL d   1       1.448  -4.003  -0.127  0.00  0.00    -0.263 OA
BRANCH  18  20
ATOM     20  O   UNL d   1      -0.457  -2.711  -0.190  0.00  0.00    -0.325 OA
ATOM     21  C   UNL d   1      -0.896  -3.340  -1.396  0.00  0.00     0.213 C 
ENDBRANCH  18  20
ENDBRANCH  17  18
BRANCH  17  22
ATOM     22  C   UNL d   1       2.730  -2.076   1.598  0.00  0.00     0.071 C 
BRANCH  22  23
ATOM     23  C   UNL d   1       3.213  -1.265   2.778  0.00  0.00    -0.028 A 
ATOM     24  C   UNL d   1       2.452  -0.635   3.746  0.00  0.00     0.096 A 
ATOM     25  N   UNL d   1       3.288   0.037   4.595  0.00  0.00    -0.365 N 
ATOM     26  C   UNL d   1       4.596  -0.165   4.234  0.00  0.00     0.042 A 
ATOM     27  H   UNL d   1       2.991   0.607   5.375  0.00  0.00     0.165 HD
ATOM     28  C   UNL d   1       4.587  -0.986   3.106  0.00  0.00    -0.002 A 
ATOM     29  C   UNL d   1       5.771   0.321   4.818  0.00  0.00     0.030 A 
ATOM     30  C   UNL d   1       5.827  -1.345   2.538  0.00  0.00     0.014 A 
ATOM     31  C   UNL d   1       7.016  -0.876   3.115  0.00  0.00     0.001 A 
ATOM     32  C   UNL d   1       6.985  -0.052   4.237  0.00  0.00     0.002 A 
ENDBRANCH  22  23
ENDBRANCH  17  22
ENDBRANCH   1  17
TORSDOF 11
