REMARK  4 active torsions:
REMARK  status: ('A' for Active; 'I' for Inactive)
REMARK    1  A    between atoms: N_2  and  S_1 
REMARK    2  A    between atoms: C_7  and  S_1 
REMARK    3  A    between atoms: C_13  and  C_4 
REMARK    4  A    between atoms: O_26  and  C_20 
ROOT
ATOM      1  N   UNL d   1       0.408  -1.527   0.248  0.00  0.00    -0.193 NA
ATOM      2  C   UNL d   1       0.965  -3.926  -0.032  0.00  0.00    -0.021 A 
ATOM      3  C   UNL d   1       1.415  -2.494  -0.286  0.00  0.00     0.141 C 
ATOM      4  C   UNL d   1       0.001  -4.253   0.901  0.00  0.00    -0.008 A 
ATOM      5  C   UNL d   1      -0.140  -1.867   1.609  0.00  0.00     0.114 C 
ATOM      6  S   UNL d   1      -0.234  -5.928   1.073  0.00  0.00    -0.106 SA
ATOM      7  C   UNL d   1      -0.774  -3.261   1.693  0.00  0.00     0.062 C 
ATOM      8  C   UNL d   1       1.481  -5.115  -0.654  0.00  0.00     0.017 A 
ATOM      9  C   UNL d   1       0.935  -6.266  -0.127  0.00  0.00     0.051 A 
ENDROOT
BRANCH   1  10
ATOM     10  S   UNL d   1       0.785   0.132   0.147  0.00  0.00     0.244 S 
ATOM     11  O   UNL d   1       1.968   0.373   0.950  0.00  0.00    -0.206 OA
ATOM     12  O   UNL d   1      -0.434   0.865   0.418  0.00  0.00    -0.206 OA
BRANCH  10  13
ATOM     13  C   UNL d   1       1.189   0.486  -1.547  0.00  0.00     0.074 A 
ATOM     14  C   UNL d   1       0.221   0.311  -2.541  0.00  0.00     0.026 A 
ATOM     15  C   UNL d   1       0.480   0.760  -3.840  0.00  0.00     0.025 A 
ATOM     16  C   UNL d   1       1.692   1.390  -4.133  0.00  0.00     0.034 A 
ATOM     17  C   UNL d   1       2.658   1.564  -3.141  0.00  0.00     0.025 A 
ATOM     18 CL   UNL d   1       1.986   1.986  -5.720  0.00  0.00    -0.084 Cl
ATOM     19  C   UNL d   1       2.408   1.111  -1.844  0.00  0.00     0.026 A 
ENDBRANCH  10  13
ENDBRANCH   1  10
BRANCH   3  20
ATOM     20  C   UNL d   1       2.844  -2.463   0.244  0.00  0.00    -0.035 A 
ATOM     21  C   UNL d   1       3.892  -2.151  -0.637  0.00  0.00     0.012 A 
ATOM     22  C   UNL d   1       5.230  -2.233  -0.230  0.00  0.00     0.037 A 
ATOM     23  C   UNL d   1       5.547  -2.631   1.068  0.00  0.00     0.068 A 
ATOM     24  C   UNL d   1       4.517  -2.907   1.963  0.00  0.00     0.037 A 
ATOM     25  C   UNL d   1       3.182  -2.821   1.562  0.00  0.00     0.012 A 
BRANCH  23  26
ATOM     26  O   UNL d   1       6.805  -2.800   1.575  0.00  0.00    -0.356 OA
ATOM     27  C   UNL d   1       7.888  -2.623   0.671  0.00  0.00     0.210 C 
ENDBRANCH  23  26
ENDBRANCH   3  20
TORSDOF 4
