REMARK  3 active torsions:
REMARK  status: ('A' for Active; 'I' for Inactive)
REMARK    1  A    between atoms: C_4  and  C_1 
REMARK       I    between atoms: C_2  and  N_3 
REMARK       I    between atoms: N_8  and  C_2 
REMARK    2  A    between atoms: N_3  and  C_9 
REMARK    3  A    between atoms: C_7  and  N_8 
ROOT
ATOM      1  C   UNL d   1      -1.541   0.380  -5.951  0.00  0.00     0.326 C 
ATOM      2  N   UNL d   1      -0.942   1.258  -5.095  0.00  0.00    -0.294 N 
ATOM      3  N   UNL d   1      -1.509  -0.939  -5.604  0.00  0.00    -0.309 N 
ATOM      4  O   UNL d   1      -2.075   0.851  -6.954  0.00  0.00    -0.247 OA
ATOM      5  H   UNL d   1      -1.026   2.211  -5.418  0.00  0.00     0.172 HD
ATOM      6  H   UNL d   1      -1.083  -1.115  -4.696  0.00  0.00     0.170 HD
ENDROOT
BRANCH   2   7
ATOM      7  C   UNL d   1      -0.203   1.019  -3.937  0.00  0.00     0.108 A 
ATOM      8  C   UNL d   1       0.366   2.121  -3.308  0.00  0.00     0.049 A 
ATOM      9  C   UNL d   1       1.197   1.918  -2.208  0.00  0.00     0.021 A 
ATOM     10  C   UNL d   1       1.438   0.620  -1.755  0.00  0.00     0.063 A 
ATOM     11  C   UNL d   1       0.789  -0.414  -2.414  0.00  0.00     0.106 A 
ATOM     12  N   UNL d   1      -0.025  -0.243  -3.487  0.00  0.00    -0.351 N 
ATOM     13  HN  UNL d   1      -0.484  -1.035  -3.936  1.00  0.00     0.166 HD
BRANCH  10  14
ATOM     14  C   UNL d   1       2.392   0.347  -0.632  0.00  0.00     0.418 C 
ATOM     15  F   UNL d   1       2.482  -0.970  -0.302  0.00  0.00    -0.166 F 
ATOM     16  F   UNL d   1       2.053   1.000   0.513  0.00  0.00    -0.166 F 
ATOM     17  F   UNL d   1       3.660   0.745  -0.928  0.00  0.00    -0.166 F 
ENDBRANCH  10  14
ENDBRANCH   2   7
BRANCH   3  18
ATOM     18  C   UNL d   1      -2.066  -2.032  -6.297  0.00  0.00     0.039 A 
ATOM     19  C   UNL d   1      -2.586  -1.944  -7.591  0.00  0.00     0.053 A 
ATOM     20  C   UNL d   1      -3.154  -3.067  -8.200  0.00  0.00     0.037 A 
ATOM     21 CL   UNL d   1      -3.793  -2.943  -9.794  0.00  0.00    -0.084 Cl
ATOM     22  C   UNL d   1      -3.213  -4.285  -7.532  0.00  0.00     0.048 A 
ATOM     23  C   UNL d   1      -2.679  -4.377  -6.251  0.00  0.00     0.037 A 
ATOM     24  C   UNL d   1      -2.098  -3.265  -5.636  0.00  0.00     0.053 A 
ATOM     25 CL   UNL d   1      -2.751  -5.875  -5.407  0.00  0.00    -0.084 Cl
ENDBRANCH   3  18
TORSDOF 3
