REMARK  3 active torsions:
REMARK  status: ('A' for Active; 'I' for Inactive)
REMARK    1  A    between atoms: C_11  and  C_1 
REMARK    2  A    between atoms: C_9  and  C_21 
REMARK       I    between atoms: N_17  and  C_11 
REMARK    3  A    between atoms: C_21  and  N_17 
ROOT
ATOM      1  C   UNL d   1      -1.320  -2.808   0.048  0.00  0.00     0.254 C 
ATOM      2  N   UNL d   1      -0.318  -3.757   0.088  0.00  0.00    -0.351 N 
ATOM      3  O   UNL d   1      -1.054  -1.606   0.055  0.00  0.00    -0.268 OA
ATOM      4  H   UNL d   1      -0.514  -4.756   0.081  0.00  0.00     0.163 HD
ENDROOT
BRANCH   1   5
ATOM      5  C   UNL d   1      -2.736  -3.204  -0.013  0.00  0.00     0.061 A 
ATOM      6  C   UNL d   1      -3.227  -4.534  -0.011  0.00  0.00     0.082 A 
ATOM      7  N   UNL d   1      -2.521  -5.678   0.052  0.00  0.00    -0.310 N 
ATOM      8  C   UNL d   1      -4.725  -4.785  -0.085  0.00  0.00     0.068 A 
ATOM      9  S   UNL d   1      -3.619  -6.924   0.023  0.00  0.00     0.068 SA
ATOM     10  HN  UNL d   1      -1.506  -5.763   0.107  1.00  0.00     0.176 HD
ATOM     11  N   UNL d   1      -5.047  -6.087  -0.074  0.00  0.00    -0.310 N 
ATOM     12  HN  UNL d   1      -5.986  -6.484  -0.116  1.00  0.00     0.176 HD
ATOM     13  C   UNL d   1      -5.653  -3.716  -0.159  0.00  0.00     0.032 A 
ATOM     14  C   UNL d   1      -5.113  -2.425  -0.158  0.00  0.00     0.003 A 
ATOM     15  C   UNL d   1      -3.724  -2.183  -0.087  0.00  0.00     0.019 A 
ENDBRANCH   1   5
BRANCH   2  16
ATOM     16  C   UNL d   1       1.045  -3.276   0.111  0.00  0.00     0.187 C 
BRANCH  16  17
ATOM     17  C   UNL d   1       2.095  -4.342   0.146  0.00  0.00     0.070 A 
ATOM     18  N   UNL d   1       1.917  -5.647   0.181  0.00  0.00    -0.351 N 
ATOM     19  C   UNL d   1       3.154  -6.288   0.192  0.00  0.00     0.050 A 
ATOM     20  HN  UNL d   1       1.011  -6.116   0.197  1.00  0.00     0.166 HD
ATOM     21  C   UNL d   1       3.372  -7.682   0.221  0.00  0.00     0.031 A 
ATOM     22  C   UNL d   1       4.270  -5.449   0.167  0.00  0.00     0.033 A 
ATOM     23  C   UNL d   1       4.679  -8.188   0.218  0.00  0.00     0.002 A 
ATOM     24  C   UNL d   1       5.772  -7.326   0.191  0.00  0.00     0.002 A 
ATOM     25  C   UNL d   1       5.586  -5.943   0.166  0.00  0.00     0.021 A 
ATOM     26  S   UNL d   1       3.740  -3.818   0.139  0.00  0.00    -0.073 SA
ENDBRANCH  16  17
ENDBRANCH   2  16
TORSDOF 3
