REMARK  4 active torsions:
REMARK  status: ('A' for Active; 'I' for Inactive)
REMARK    1  A    between atoms: N_3  and  C_1 
REMARK    2  A    between atoms: C_5  and  C_2 
REMARK       I    between atoms: C_4  and  N_3 
REMARK    3  A    between atoms: C_6  and  C_4 
REMARK    4  A    between atoms: O_16  and  C_5 
ROOT
ATOM      1  C   UNL d   1       0.225   1.410   0.148  0.00  0.00     0.093 C 
ATOM      2  C   UNL d   1       1.496   0.866   0.133  0.00  0.00     0.073 C 
ATOM      3  S   UNL d   1      -1.009   0.243   0.265  0.00  0.00    -0.083 SA
ATOM      4  C   UNL d   1       1.405  -0.574   0.048  0.00  0.00     0.028 C 
ATOM      5  C   UNL d   1       0.108  -1.036   0.081  0.00  0.00     0.053 C 
ENDROOT
BRANCH   1   6
ATOM      6  N   UNL d   1      -0.261   2.696   0.133  0.00  0.00    -0.316 N 
ATOM      7  C   UNL d   1       0.340   3.716  -0.583  0.00  0.00     0.263 C 
ATOM      8  O   UNL d   1       1.135   3.519  -1.500  0.00  0.00    -0.267 OA
ATOM      9  H   UNL d   1      -1.197   2.853   0.482  0.00  0.00     0.169 HD
BRANCH   7  10
ATOM     10  C   UNL d   1      -0.080   5.060  -0.200  0.00  0.00     0.072 A 
ATOM     11  S   UNL d   1      -0.692   5.397   1.367  0.00  0.00    -0.097 SA
ATOM     12  C   UNL d   1      -0.756   7.076   1.056  0.00  0.00     0.050 A 
ATOM     13  C   UNL d   1      -0.362   7.378  -0.227  0.00  0.00     0.009 A 
ATOM     14  C   UNL d   1       0.034   6.219  -0.949  0.00  0.00     0.025 A 
ENDBRANCH   7  10
ENDBRANCH   1   6
BRANCH   2  15
ATOM     15  C   UNL d   1       2.769   1.586   0.234  0.00  0.00     0.295 C 
ATOM     16  O   UNL d   1       3.846   1.068  -0.032  0.00  0.00    -0.259 OA
BRANCH  15  17
ATOM     17  O   UNL d   1       2.635   2.849   0.734  0.00  0.00    -0.322 OA
ATOM     18  C   UNL d   1       3.797   3.666   0.599  0.00  0.00     0.213 C 
ENDBRANCH  15  17
ENDBRANCH   2  15
TORSDOF 4
