REMARK  8 active torsions:
REMARK  status: ('A' for Active; 'I' for Inactive)
REMARK    1  A    between atoms: C_13  and  C_2 
REMARK    2  A    between atoms: N_14  and  C_10 
REMARK    3  A    between atoms: C_16  and  N_14 
REMARK    4  A    between atoms: C_15  and  C_16 
REMARK    5  A    between atoms: O_17  and  C_15 
REMARK    6  A    between atoms: O_18  and  C_15 
REMARK    7  A    between atoms: C_21  and  O_17 
REMARK    8  A    between atoms: C_22  and  O_18 
ROOT
ATOM      1  N   UNL d   1      -0.770  -0.821  -1.003  0.00  0.00    -0.219 N 
ATOM      2  C   UNL d   1      -0.365  -1.745  -1.958  0.00  0.00     0.154 A 
ATOM      3  N   UNL d   1       0.931  -1.980  -1.781  0.00  0.00    -0.282 N 
ATOM      4  HN  UNL d   1       1.491  -2.641  -2.319  1.00  0.00     0.188 HD
ATOM      5  C   UNL d   1       0.376  -0.492  -0.308  0.00  0.00     0.143 A 
ATOM      6  N   UNL d   1      -2.031  -0.326  -0.777  0.00  0.00    -0.276 N 
ATOM      7  HN  UNL d   1      -2.850  -0.650  -1.293  1.00  0.00     0.189 HD
ATOM      8  N   UNL d   1       1.394  -1.189  -0.759  0.00  0.00    -0.282 N 
ATOM      9  HN  UNL d   1       2.353  -1.150  -0.414  1.00  0.00     0.188 HD
ATOM     10  C   UNL d   1      -2.101   0.592   0.153  0.00  0.00     0.116 A 
ATOM     11  C   UNL d   1       0.274   0.472   0.708  0.00  0.00     0.056 A 
ATOM     12  C   UNL d   1      -0.915   1.041   0.945  0.00  0.00     0.053 A 
ENDROOT
BRANCH  10  13
ATOM     13  N   UNL d   1      -3.318   1.167   0.455  0.00  0.00    -0.371 N 
ATOM     14  H   UNL d   1      -3.334   2.184   0.418  0.00  0.00     0.161 HD
BRANCH  13  15
ATOM     15  C   UNL d   1      -4.558   0.570  -0.043  0.00  0.00     0.181 C 
BRANCH  15  16
ATOM     16  C   UNL d   1      -5.827   1.353   0.375  0.00  0.00     0.277 C 
BRANCH  16  17
ATOM     17  O   UNL d   1      -5.791   2.618  -0.327  0.00  0.00    -0.360 OA
BRANCH  17  18
ATOM     18  C   UNL d   1      -6.896   3.460  -0.003  0.00  0.00     0.166 C 
ATOM     19  C   UNL d   1      -6.802   4.736  -0.821  0.00  0.00     0.033 C 
ENDBRANCH  17  18
ENDBRANCH  16  17
BRANCH  16  20
ATOM     20  O   UNL d   1      -7.012   0.630   0.025  0.00  0.00    -0.360 OA
BRANCH  20  21
ATOM     21  C   UNL d   1      -7.213  -0.545   0.808  0.00  0.00     0.166 C 
ATOM     22  C   UNL d   1      -8.492  -1.224   0.363  0.00  0.00     0.033 C 
ENDBRANCH  20  21
ENDBRANCH  16  20
ENDBRANCH  15  16
ENDBRANCH  13  15
ENDBRANCH  10  13
BRANCH   2  23
ATOM     23  C   UNL d   1      -1.190  -2.379  -2.994  0.00  0.00     0.011 A 
ATOM     24  C   UNL d   1      -2.345  -1.783  -3.521  0.00  0.00     0.015 A 
ATOM     25  C   UNL d   1      -3.069  -2.407  -4.544  0.00  0.00     0.001 A 
ATOM     26  C   UNL d   1      -2.650  -3.631  -5.055  0.00  0.00     0.000 A 
ATOM     27  C   UNL d   1      -1.503  -4.237  -4.548  0.00  0.00     0.001 A 
ATOM     28  C   UNL d   1      -0.779  -3.611  -3.530  0.00  0.00     0.015 A 
ENDBRANCH   2  23
TORSDOF 8
