REMARK  4 active torsions:
REMARK  status: ('A' for Active; 'I' for Inactive)
REMARK    1  A    between atoms: C_6  and  C_1 
REMARK    2  A    between atoms: N_8  and  C_2 
REMARK    3  A    between atoms: C_12  and  C_3 
REMARK       I    between atoms: C_9  and  N_8 
REMARK    4  A    between atoms: C_10  and  C_9 
ROOT
ATOM      1  C   UNL d   1       1.405   0.849  -0.045  0.00  0.00     0.136 A 
ATOM      2  C   UNL d   1       0.372  -1.120  -0.091  0.00  0.00     0.152 A 
ATOM      3  C   UNL d   1       0.082   1.294  -0.061  0.00  0.00     0.050 A 
ATOM      4  N   UNL d   1       1.535  -0.545  -0.098  0.00  0.00    -0.331 N 
ATOM      5  HN  UNL d   1       2.425  -1.041  -0.137  1.00  0.00     0.168 HD
ATOM      6  S   UNL d   1      -0.972  -0.083  -0.016  0.00  0.00    -0.051 SA
ENDROOT
BRANCH   2   7
ATOM      7  N   UNL d   1       0.088  -2.457  -0.129  0.00  0.00    -0.302 N 
ATOM      8  C   UNL d   1       1.060  -3.396  -0.417  0.00  0.00     0.264 C 
ATOM      9  O   UNL d   1       2.219  -3.127  -0.724  0.00  0.00    -0.267 OA
ATOM     10  H   UNL d   1      -0.869  -2.746  -0.005  0.00  0.00     0.171 HD
BRANCH   8  11
ATOM     11  C   UNL d   1       0.605  -4.785  -0.392  0.00  0.00     0.072 A 
ATOM     12  S   UNL d   1      -0.928  -5.258   0.211  0.00  0.00    -0.097 SA
ATOM     13  C   UNL d   1      -0.626  -6.911  -0.111  0.00  0.00     0.050 A 
ATOM     14  C   UNL d   1       0.617  -7.111  -0.667  0.00  0.00     0.009 A 
ATOM     15  C   UNL d   1       1.327  -5.887  -0.823  0.00  0.00     0.025 A 
ENDBRANCH   8  11
ENDBRANCH   2   7
BRANCH   1  16
ATOM     16  C   UNL d   1       2.667   1.665   0.010  0.00  0.00     0.434 C 
ATOM     17  F   UNL d   1       2.467   2.951   0.401  0.00  0.00    -0.165 F 
ATOM     18  F   UNL d   1       3.571   1.151   0.887  0.00  0.00    -0.165 F 
ATOM     19  F   UNL d   1       3.280   1.725  -1.202  0.00  0.00    -0.165 F 
ENDBRANCH   1  16
BRANCH   3  20
ATOM     20  C   UNL d   1      -0.472   2.660  -0.099  0.00  0.00    -0.017 A 
ATOM     21  C   UNL d   1       0.121   3.641  -0.912  0.00  0.00     0.013 A 
ATOM     22  C   UNL d   1      -0.313   4.969  -0.878  0.00  0.00     0.001 A 
ATOM     23  C   UNL d   1      -1.378   5.332  -0.062  0.00  0.00     0.000 A 
ATOM     24  C   UNL d   1      -2.018   4.366   0.709  0.00  0.00     0.001 A 
ATOM     25  C   UNL d   1      -1.566   3.040   0.694  0.00  0.00     0.013 A 
ENDBRANCH   3  20
TORSDOF 4
