REMARK  10 active torsions:
REMARK  status: ('A' for Active; 'I' for Inactive)
REMARK    1  A    between atoms: O_9  and  C_1 
REMARK    2  A    between atoms: C_2  and  N_5 
REMARK    3  A    between atoms: N_4  and  C_2 
REMARK       I    between atoms: C_3  and  N_6 
REMARK    4  A    between atoms: C_19  and  C_3 
REMARK    5  A    between atoms: N_6  and  N_4 
REMARK    6  A    between atoms: N_5  and  C_16 
REMARK    7  A    between atoms: C_18  and  O_9 
REMARK    8  A    between atoms: C_11  and  C_24 
REMARK    9  A    between atoms: S_15  and  C_19 
REMARK   10  A    between atoms: C_24  and  S_15 
ROOT
ATOM      1  N   UNL d   1       4.729  -5.002   2.085  0.00  0.00    -0.274 N 
ATOM      2  H   UNL d   1       5.577  -5.048   2.647  0.00  0.00     0.189 HD
ENDROOT
BRANCH   1   3
ATOM      3  C   UNL d   1       4.125  -6.134   1.608  0.00  0.00     0.191 C 
ATOM      4  S   UNL d   1       2.589  -6.153   0.935  0.00  0.00    -0.039 SA
BRANCH   3   5
ATOM      5  N   UNL d   1       4.789  -7.320   1.752  0.00  0.00    -0.332 N 
ATOM      6  H   UNL d   1       4.191  -8.132   1.626  0.00  0.00     0.168 HD
BRANCH   5   7
ATOM      7  C   UNL d   1       6.166  -7.596   1.906  0.00  0.00     0.034 A 
ATOM      8  C   UNL d   1       7.178  -6.668   1.660  0.00  0.00     0.032 A 
ATOM      9  C   UNL d   1       8.521  -7.025   1.814  0.00  0.00     0.039 A 
ATOM     10  C   UNL d   1       8.884  -8.324   2.167  0.00  0.00     0.078 A 
ATOM     11  C   UNL d   1       7.880  -9.263   2.396  0.00  0.00     0.039 A 
ATOM     12  C   UNL d   1       6.530  -8.901   2.256  0.00  0.00     0.032 A 
BRANCH  10  13
ATOM     13  O   UNL d   1      10.229  -8.528   2.240  0.00  0.00    -0.255 OA
BRANCH  13  14
ATOM     14  C   UNL d   1      10.696  -9.863   2.300  0.00  0.00     0.530 C 
ATOM     15  F   UNL d   1      10.137 -10.630   1.339  0.00  0.00    -0.144 F 
ATOM     16  F   UNL d   1      10.445 -10.404   3.510  0.00  0.00    -0.144 F 
ATOM     17  F   UNL d   1      12.034  -9.861   2.105  0.00  0.00    -0.144 F 
ENDBRANCH  13  14
ENDBRANCH  10  13
ENDBRANCH   5   7
ENDBRANCH   3   5
ENDBRANCH   1   3
BRANCH   1  18
ATOM     18  N   UNL d   1       4.315  -3.715   1.719  0.00  0.00    -0.267 N 
ATOM     19  C   UNL d   1       5.308  -2.768   1.518  0.00  0.00     0.245 C 
ATOM     20  O   UNL d   1       6.489  -2.995   1.784  0.00  0.00    -0.271 OA
ATOM     21  H   UNL d   1       3.382  -3.635   1.319  0.00  0.00     0.190 HD
BRANCH  19  22
ATOM     22  C   UNL d   1       4.802  -1.442   0.975  0.00  0.00     0.178 C 
BRANCH  22  23
ATOM     23  S   UNL d   1       5.766  -0.859  -0.455  0.00  0.00    -0.155 SA
BRANCH  23  24
ATOM     24  C   UNL d   1       5.407  -2.204  -1.622  0.00  0.00     0.113 C 
BRANCH  24  25
ATOM     25  C   UNL d   1       6.028  -1.975  -2.984  0.00  0.00    -0.038 A 
ATOM     26  C   UNL d   1       5.356  -1.290  -4.038  0.00  0.00    -0.019 A 
ATOM     27  C   UNL d   1       5.981  -1.220  -5.311  0.00  0.00    -0.025 A 
ATOM     28  C   UNL d   1       4.091  -0.671  -3.903  0.00  0.00     0.013 A 
ATOM     29  C   UNL d   1       5.327  -0.593  -6.386  0.00  0.00     0.012 A 
ATOM     30  C   UNL d   1       7.254  -1.775  -5.500  0.00  0.00     0.012 A 
ATOM     31  C   UNL d   1       4.072  -0.012  -6.223  0.00  0.00     0.001 A 
ATOM     32  C   UNL d   1       3.459  -0.041  -4.979  0.00  0.00     0.001 A 
ATOM     33  C   UNL d   1       7.925  -2.396  -4.452  0.00  0.00     0.001 A 
ATOM     34  C   UNL d   1       7.318  -2.496  -3.205  0.00  0.00     0.009 A 
ENDBRANCH  24  25
ENDBRANCH  23  24
ENDBRANCH  22  23
ENDBRANCH  19  22
ENDBRANCH   1  18
TORSDOF 10
