REMARK  8 active torsions:
REMARK  status: ('A' for Active; 'I' for Inactive)
REMARK    1  A    between atoms: S_2  and  C_1 
REMARK    2  A    between atoms: N_15  and  S_2 
REMARK    3  A    between atoms: C_19  and  N_3 
REMARK    4  A    between atoms: C_14  and  C_4 
REMARK    5  A    between atoms: O_21  and  C_5 
REMARK    6  A    between atoms: C_10  and  C_16 
REMARK    7  A    between atoms: O_22  and  C_14 
REMARK    8  A    between atoms: C_16  and  N_15 
ROOT
ATOM      1  N   UNL d   1      -1.285   3.298  -1.461  0.00  0.00    -0.209 NA
ATOM      2  H   UNL d   1      -1.646   4.252  -1.509  0.00  0.00     0.140 HD
ENDROOT
BRANCH   1   3
ATOM      3  S   UNL d   1      -0.609   2.942   0.035  0.00  0.00     0.251 S 
ATOM      4  O   UNL d   1      -0.379   1.522   0.049  0.00  0.00    -0.205 OA
ATOM      5  O   UNL d   1      -1.437   3.576   1.036  0.00  0.00    -0.205 OA
BRANCH   3   6
ATOM      6  C   UNL d   1       0.977   3.783   0.104  0.00  0.00     0.149 A 
ATOM      7  C   UNL d   1       2.340   3.491   0.178  0.00  0.00     0.114 A 
ATOM      8  C   UNL d   1       3.166   4.689   0.145  0.00  0.00     0.081 A 
ATOM      9  C   UNL d   1       2.396   5.828   0.029  0.00  0.00     0.071 A 
ATOM     10  S   UNL d   1       0.739   5.498  -0.028  0.00  0.00    -0.085 SA
BRANCH   7  11
ATOM     11  O   UNL d   1       2.991   2.299   0.252  0.00  0.00    -0.353 OA
ATOM     12  C   UNL d   1       2.272   1.092   0.311  0.00  0.00     0.210 C 
ENDBRANCH   7  11
BRANCH   8  13
ATOM     13  C   UNL d   1       4.629   4.787   0.211  0.00  0.00     0.296 C 
ATOM     14  O   UNL d   1       5.227   5.857   0.155  0.00  0.00    -0.259 OA
BRANCH  13  15
ATOM     15  O   UNL d   1       5.254   3.583   0.337  0.00  0.00    -0.322 OA
ATOM     16  C   UNL d   1       6.676   3.646   0.423  0.00  0.00     0.213 C 
ENDBRANCH  13  15
ENDBRANCH   8  13
ENDBRANCH   3   6
ENDBRANCH   1   3
BRANCH   1  17
ATOM     17  C   UNL d   1      -0.471   2.909  -2.623  0.00  0.00     0.165 C 
BRANCH  17  18
ATOM     18  C   UNL d   1      -1.261   3.204  -3.845  0.00  0.00     0.065 A 
ATOM     19  N   UNL d   1      -1.317   4.444  -4.340  0.00  0.00    -0.280 N 
ATOM     20  N   UNL d   1      -2.161   4.300  -5.400  0.00  0.00    -0.197 N 
ATOM     21  HN  UNL d   1      -0.848   5.286  -4.008  1.00  0.00     0.189 HD
ATOM     22  N   UNL d   1      -2.643   3.041  -5.605  0.00  0.00    -0.282 N 
ATOM     23  C   UNL d   1      -2.053   2.343  -4.625  0.00  0.00     0.049 A 
ATOM     24  HN  UNL d   1      -3.289   2.714  -6.323  1.00  0.00     0.189 HD
ATOM     25  C   UNL d   1      -2.258   0.886  -4.451  0.00  0.00     0.072 C 
BRANCH  20  26
ATOM     26  C   UNL d   1      -2.498   5.408  -6.219  0.00  0.00     0.074 A 
ATOM     27  C   UNL d   1      -1.825   6.627  -6.038  0.00  0.00     0.033 A 
ATOM     28  C   UNL d   1      -2.152   7.732  -6.822  0.00  0.00     0.002 A 
ATOM     29  C   UNL d   1      -3.160   7.631  -7.778  0.00  0.00     0.000 A 
ATOM     30  C   UNL d   1      -3.832   6.420  -7.964  0.00  0.00     0.002 A 
ATOM     31  C   UNL d   1      -3.496   5.302  -7.194  0.00  0.00     0.033 A 
ENDBRANCH  20  26
ENDBRANCH  17  18
ENDBRANCH   1  17
TORSDOF 8
