REMARK  6 active torsions:
REMARK  status: ('A' for Active; 'I' for Inactive)
REMARK    1  A    between atoms: C_15  and  C_3 
REMARK    2  A    between atoms: C_8  and  C_4 
REMARK    3  A    between atoms: N_7  and  C_14 
REMARK    4  A    between atoms: C_11  and  C_8 
REMARK    5  A    between atoms: C_17  and  C_9 
REMARK       I    between atoms: C_18  and  N_20 
REMARK    6  A    between atoms: N_20  and  C_29 
ROOT
ATOM      1  N   UNL d   1       1.527  -0.131   0.009  0.00  0.00    -0.331 N 
ATOM      2  HN  UNL d   1       2.458  -0.546   0.041  1.00  0.00     0.168 HD
ATOM      3  C   UNL d   1       1.203   1.121  -0.043  0.00  0.00     0.162 A 
ATOM      4  C   UNL d   1       0.302  -0.763   0.011  0.00  0.00     0.113 A 
ATOM      5  O   UNL d   1      -0.112   1.429  -0.068  0.00  0.00    -0.256 OA
ATOM      6  C   UNL d   1      -0.797   0.255  -0.013  0.00  0.00     0.316 A 
ATOM      7  O   UNL d   1      -2.002   0.148   0.046  0.00  0.00    -0.257 OA
ENDROOT
BRANCH   4   8
ATOM      8  C   UNL d   1       0.181  -2.096   0.063  0.00  0.00     0.073 C 
BRANCH   8   9
ATOM      9  C   UNL d   1      -1.052  -2.797   0.041  0.00  0.00     0.078 A 
ATOM     10  O   UNL d   1      -2.140  -2.433  -0.715  0.00  0.00    -0.310 OA
ATOM     11  C   UNL d   1      -3.154  -3.318  -0.500  0.00  0.00     0.086 A 
ATOM     12  C   UNL d   1      -2.721  -4.293   0.371  0.00  0.00     0.041 A 
ATOM     13  C   UNL d   1      -1.382  -3.974   0.698  0.00  0.00     0.040 A 
BRANCH  11  14
ATOM     14  C   UNL d   1      -4.400  -3.075  -1.226  0.00  0.00    -0.002 A 
ATOM     15  C   UNL d   1      -4.571  -1.939  -2.035  0.00  0.00     0.017 A 
ATOM     16  C   UNL d   1      -5.744  -1.748  -2.777  0.00  0.00     0.037 A 
ATOM     17  C   UNL d   1      -6.767  -2.699  -2.704  0.00  0.00     0.102 A 
ATOM     18  C   UNL d   1      -6.633  -3.820  -1.878  0.00  0.00     0.037 A 
ATOM     19  C   UNL d   1      -5.455  -3.999  -1.145  0.00  0.00     0.017 A 
BRANCH  17  20
ATOM     20  N   UNL d   1      -7.982  -2.534  -3.511  0.00  0.00    -0.116 N 
ATOM     21  O   UNL d   1      -8.057  -1.540  -4.247  0.00  0.00    -0.532 OA
ATOM     22  O   UNL d   1      -8.860  -3.405  -3.416  0.00  0.00    -0.532 OA
ENDBRANCH  17  20
ENDBRANCH  11  14
ENDBRANCH   8   9
ENDBRANCH   4   8
BRANCH   3  23
ATOM     23  C   UNL d   1       2.095   2.289  -0.077  0.00  0.00     0.015 A 
ATOM     24  C   UNL d   1       3.483   2.123  -0.070  0.00  0.00     0.018 A 
ATOM     25  C   UNL d   1       4.324   3.247  -0.114  0.00  0.00     0.030 A 
ATOM     26  C   UNL d   1       3.788   4.542  -0.165  0.00  0.00     0.034 A 
ATOM     27  C   UNL d   1       2.401   4.691  -0.164  0.00  0.00     0.030 A 
ATOM     28  C   UNL d   1       1.561   3.578  -0.120  0.00  0.00     0.018 A 
BRANCH  26  29
ATOM     29  N   UNL d   1       4.681   5.636  -0.218  0.00  0.00    -0.328 N 
ATOM     30  C   UNL d   1       4.342   6.977  -0.278  0.00  0.00     0.218 C 
ATOM     31  O   UNL d   1       3.209   7.450  -0.286  0.00  0.00    -0.274 OA
ATOM     32  C   UNL d   1       5.530   7.902  -0.339  0.00  0.00     0.117 C 
ATOM     33  H   UNL d   1       5.667   5.406  -0.218  0.00  0.00     0.169 HD
ENDBRANCH  26  29
ENDBRANCH   3  23
TORSDOF 6
