REMARK  5 active torsions:
REMARK  status: ('A' for Active; 'I' for Inactive)
REMARK    1  A    between atoms: S_9  and  C_2 
REMARK    2  A    between atoms: C_12  and  S_9 
REMARK    3  A    between atoms: C_10  and  C_12 
REMARK    4  A    between atoms: O_13  and  C_10 
REMARK    5  A    between atoms: C_16  and  O_13 
ROOT
ATOM      1  S   UNL d   1       5.438  -0.551   1.421  0.00  0.00    -0.045 SA
ATOM      2  C   UNL d   1       4.525   0.903   1.411  0.00  0.00     0.115 A 
ATOM      3  N   UNL d   1       4.533   1.614   2.519  0.00  0.00    -0.343 N 
ATOM      4  HN  UNL d   1       4.049   2.500   2.660  1.00  0.00     0.167 HD
ATOM      5  C   UNL d   1       5.886  -0.234   3.033  0.00  0.00     0.103 A 
ATOM      6  C   UNL d   1       5.312   0.957   3.464  0.00  0.00     0.067 A 
ATOM      7  N   UNL d   1       6.682  -1.067   3.740  0.00  0.00    -0.358 N 
ATOM      8  HN  UNL d   1       7.070  -1.930   3.361  1.00  0.00     0.166 HD
ATOM      9  C   UNL d   1       5.590   1.351   4.790  0.00  0.00     0.034 A 
ATOM     10  C   UNL d   1       6.911  -0.640   5.002  0.00  0.00     0.089 A 
ATOM     11  C   UNL d   1       6.406   0.523   5.564  0.00  0.00     0.019 A 
ENDROOT
BRANCH   2  12
ATOM     12  S   UNL d   1       3.595   1.381  -0.001  0.00  0.00    -0.095 SA
BRANCH  12  13
ATOM     13  C   UNL d   1       3.716   3.189   0.085  0.00  0.00     0.192 C 
BRANCH  13  14
ATOM     14  C   UNL d   1       5.150   3.659   0.117  0.00  0.00     0.268 C 
ATOM     15  O   UNL d   1       6.113   3.080  -0.379  0.00  0.00    -0.264 OA
BRANCH  14  16
ATOM     16  O   UNL d   1       5.221   4.842   0.796  0.00  0.00    -0.321 OA
BRANCH  16  17
ATOM     17  C   UNL d   1       6.526   5.186   1.279  0.00  0.00     0.174 C 
ATOM     18  C   UNL d   1       6.717   4.512   2.626  0.00  0.00     0.034 C 
ENDBRANCH  16  17
ENDBRANCH  14  16
ENDBRANCH  13  14
ENDBRANCH  12  13
ENDBRANCH   2  12
TORSDOF 5
