REMARK  4 active torsions:
REMARK  status: ('A' for Active; 'I' for Inactive)
REMARK    1  A    between atoms: C_8  and  C_1 
REMARK    2  A    between atoms: O_9  and  C_8 
REMARK    3  A    between atoms: C_17  and  O_9 
REMARK    4  A    between atoms: C_14  and  C_17 
ROOT
ATOM      1  C   UNL d   1      -0.125  -3.046   1.007  0.00  0.00     0.304 C 
ATOM      2  O   UNL d   1       0.289  -2.325   1.907  0.00  0.00    -0.259 OA
ENDROOT
BRANCH   1   3
ATOM      3  C   UNL d   1      -1.496  -3.467   0.868  0.00  0.00     0.121 A 
ATOM      4  C   UNL d   1      -2.591  -3.219   1.689  0.00  0.00     0.047 A 
ATOM      5  N   UNL d   1      -3.789  -3.769   1.238  0.00  0.00    -0.298 N 
ATOM      6  C   UNL d   1      -2.646  -2.455   2.964  0.00  0.00     0.071 C 
ATOM      7  N   UNL d   1      -3.637  -4.425   0.103  0.00  0.00    -0.269 N 
ATOM      8  HN  UNL d   1      -4.679  -3.676   1.728  1.00  0.00     0.187 HD
ATOM      9  S   UNL d   1      -2.063  -4.404  -0.450  0.00  0.00     0.009 SA
ATOM     10  HN  UNL d   1      -4.401  -4.894  -0.385  1.00  0.00     0.195 HD
ENDBRANCH   1   3
BRANCH   1  11
ATOM     11  O   UNL d   1       0.666  -3.529   0.007  0.00  0.00    -0.312 OA
BRANCH  11  12
ATOM     12  C   UNL d   1       2.035  -3.097   0.025  0.00  0.00     0.217 C 
BRANCH  12  13
ATOM     13  C   UNL d   1       2.947  -4.297  -0.021  0.00  0.00    -0.028 A 
ATOM     14  C   UNL d   1       2.889  -5.197  -1.094  0.00  0.00     0.051 A 
ATOM     15  C   UNL d   1       3.753  -6.290  -1.138  0.00  0.00     0.119 A 
ATOM     16  F   UNL d   1       3.686  -7.137  -2.173  0.00  0.00    -0.206 F 
ATOM     17  C   UNL d   1       4.685  -6.513  -0.135  0.00  0.00     0.084 A 
ATOM     18  C   UNL d   1       4.745  -5.621   0.925  0.00  0.00     0.119 A 
ATOM     19  C   UNL d   1       3.890  -4.520   0.994  0.00  0.00     0.051 A 
ATOM     20  F   UNL d   1       5.643  -5.815   1.900  0.00  0.00    -0.206 F 
ENDBRANCH  12  13
ENDBRANCH  11  12
ENDBRANCH   1  11
TORSDOF 4
