REMARK  4 active torsions:
REMARK  status: ('A' for Active; 'I' for Inactive)
REMARK    1  A    between atoms: C_2  and  C_1 
REMARK       I    between atoms: N_8  and  C_2 
REMARK    2  A    between atoms: S_10  and  C_5 
REMARK    3  A    between atoms: S_11  and  C_6 
REMARK    4  A    between atoms: C_12  and  N_8 
ROOT
ATOM      1  C   UNL d   1      -2.758  -1.186  -0.419  0.00  0.00     0.260 C 
ATOM      2  N   UNL d   1      -3.795  -1.296   0.492  0.00  0.00    -0.323 N 
ATOM      3  O   UNL d   1      -2.775  -1.617  -1.569  0.00  0.00    -0.267 OA
ATOM      4  H   UNL d   1      -3.590  -1.079   1.460  0.00  0.00     0.169 HD
ENDROOT
BRANCH   1   5
ATOM      5  C   UNL d   1      -1.559  -0.569   0.114  0.00  0.00     0.091 A 
ATOM      6  C   UNL d   1      -0.333  -1.213   0.217  0.00  0.00     0.076 A 
ATOM      7  S   UNL d   1       0.834  -0.086   0.770  0.00  0.00    -0.006 SA
ATOM      8  N   UNL d   1      -0.206   1.186   0.928  0.00  0.00    -0.319 N 
ATOM      9  C   UNL d   1      -1.413   0.801   0.523  0.00  0.00     0.093 A 
ATOM     10  HN  UNL d   1       0.036   2.113   1.277  1.00  0.00     0.175 HD
BRANCH   6  11
ATOM     11  S   UNL d   1       0.119  -2.872  -0.133  0.00  0.00    -0.125 SA
ATOM     12  C   UNL d   1      -0.937  -3.785   1.012  0.00  0.00     0.096 C 
ENDBRANCH   6  11
BRANCH   9  13
ATOM     13  S   UNL d   1      -2.740   1.963   0.538  0.00  0.00    -0.115 SA
ATOM     14  C   UNL d   1      -1.853   3.540   0.517  0.00  0.00     0.097 C 
ENDBRANCH   9  13
ENDBRANCH   1   5
BRANCH   2  15
ATOM     15  C   UNL d   1      -5.086  -1.794   0.210  0.00  0.00     0.035 A 
ATOM     16  C   UNL d   1      -5.879  -2.229   1.279  0.00  0.00     0.031 A 
ATOM     17  C   UNL d   1      -7.147  -2.772   1.045  0.00  0.00     0.026 A 
ATOM     18  C   UNL d   1      -7.643  -2.847  -0.256  0.00  0.00     0.034 A 
ATOM     19  C   UNL d   1      -6.883  -2.376  -1.321  0.00  0.00     0.026 A 
ATOM     20 CL   UNL d   1      -9.198  -3.522  -0.547  0.00  0.00    -0.084 Cl
ATOM     21  C   UNL d   1      -5.607  -1.856  -1.087  0.00  0.00     0.031 A 
ENDBRANCH   2  15
TORSDOF 4
