REMARK  2 active torsions:
REMARK  status: ('A' for Active; 'I' for Inactive)
REMARK    1  A    between atoms: C_3  and  C_1 
REMARK       I    between atoms: N_10  and  C_3 
REMARK    2  A    between atoms: C_15  and  N_10 
ROOT
ATOM      1  C   UNL d   1      -1.322  -1.350  -0.300  0.00  0.00     0.061 A 
ATOM      2  C   UNL d   1      -0.198  -0.543   0.011  0.00  0.00     0.082 A 
ATOM      3  S   UNL d   1       1.956   0.432   0.545  0.00  0.00     0.068 SA
ATOM      4  N   UNL d   1       1.062  -0.944   0.271  0.00  0.00    -0.310 N 
ATOM      5  HN  UNL d   1       1.401  -1.905   0.295  1.00  0.00     0.176 HD
ATOM      6  C   UNL d   1      -0.350   0.967   0.088  0.00  0.00     0.068 A 
ATOM      7  N   UNL d   1       0.793   1.601   0.386  0.00  0.00    -0.310 N 
ATOM      8  HN  UNL d   1       0.921   2.608   0.493  1.00  0.00     0.176 HD
ATOM      9  C   UNL d   1      -2.537  -0.652  -0.528  0.00  0.00     0.019 A 
ATOM     10  C   UNL d   1      -2.672   0.752  -0.450  0.00  0.00     0.003 A 
ATOM     11  C   UNL d   1      -1.599   1.597  -0.140  0.00  0.00     0.032 A 
ENDROOT
BRANCH   1  12
ATOM     12  C   UNL d   1      -1.319  -2.828  -0.387  0.00  0.00     0.258 C 
ATOM     13  N   UNL d   1      -0.169  -3.505  -0.027  0.00  0.00    -0.323 N 
ATOM     14  H   UNL d   1       0.609  -2.953   0.324  0.00  0.00     0.169 HD
ATOM     15  O   UNL d   1      -2.378  -3.353  -0.731  0.00  0.00    -0.267 OA
BRANCH  13  16
ATOM     16  C   UNL d   1      -0.035  -4.915   0.045  0.00  0.00     0.035 A 
ATOM     17  C   UNL d   1      -0.951  -5.803  -0.531  0.00  0.00     0.029 A 
ATOM     18  C   UNL d   1      -0.822  -7.184  -0.355  0.00  0.00     0.002 A 
ATOM     19  C   UNL d   1       0.232  -7.694   0.393  0.00  0.00     0.000 A 
ATOM     20  C   UNL d   1       1.175  -6.824   0.936  0.00  0.00     0.002 A 
ATOM     21  C   UNL d   1       1.051  -5.442   0.752  0.00  0.00     0.029 A 
ENDBRANCH  13  16
ENDBRANCH   1  12
TORSDOF 2
