REMARK  2 active torsions:
REMARK  status: ('A' for Active; 'I' for Inactive)
REMARK       I    between atoms: C_5  and  N_2 
REMARK    1  A    between atoms: C_11  and  C_5 
REMARK    2  A    between atoms: C_19  and  C_6 
ROOT
ATOM      1  C   UNL d   1       1.031  -0.789   0.089  0.00  0.00     0.040 A 
ATOM      2  N   UNL d   1       3.371  -0.231  -0.243  0.00  0.00    -0.337 N 
ATOM      3  C   UNL d   1       0.630   0.523  -0.050  0.00  0.00    -0.019 A 
ATOM      4  N   UNL d   1      -0.092  -1.571   0.107  0.00  0.00    -0.357 N 
ATOM      5  C   UNL d   1       4.664  -0.408  -0.769  0.00  0.00     0.254 C 
ATOM      6  C   UNL d   1       2.430  -1.316   0.132  0.00  0.00     0.137 C 
ATOM      7  C   UNL d   1      -0.792   0.546  -0.025  0.00  0.00    -0.001 A 
ATOM      8  C   UNL d   1      -1.217  -0.782   0.060  0.00  0.00     0.043 A 
ATOM      9  C   UNL d   1       3.021   1.140   0.218  0.00  0.00     0.132 C 
ATOM     10  C   UNL d   1       1.623   1.614  -0.224  0.00  0.00     0.061 C 
ATOM     11  O   UNL d   1       5.444   0.546  -0.895  0.00  0.00    -0.267 OA
ATOM     12  C   UNL d   1      -1.767   1.561  -0.080  0.00  0.00     0.014 A 
ATOM     13  C   UNL d   1      -2.568  -1.147   0.079  0.00  0.00     0.030 A 
ATOM     14  C   UNL d   1      -3.121   1.215  -0.039  0.00  0.00     0.001 A 
ATOM     15  C   UNL d   1      -3.515  -0.122   0.036  0.00  0.00     0.002 A 
ATOM     16  H   UNL d   1      -0.107  -2.582   0.151  0.00  0.00     0.166 HD
ENDROOT
BRANCH   6  17
ATOM     17  C   UNL d   1       2.777  -2.045   1.440  0.00  0.00     0.027 C 
ATOM     18  C   UNL d   1       2.627  -1.238   2.721  0.00  0.00     0.007 C 
ENDBRANCH   6  17
BRANCH   5  19
ATOM     19  C   UNL d   1       5.211  -1.741  -1.165  0.00  0.00     0.032 A 
ATOM     20  C   UNL d   1       4.474  -2.743  -1.806  0.00  0.00     0.018 A 
ATOM     21  C   UNL d   1       5.045  -3.991  -2.082  0.00  0.00     0.025 A 
ATOM     22  C   UNL d   1       6.396  -4.208  -1.831  0.00  0.00     0.034 A 
ATOM     23  C   UNL d   1       7.179  -3.187  -1.301  0.00  0.00     0.025 A 
ATOM     24 CL   UNL d   1       7.104  -5.725  -2.219  0.00  0.00    -0.084 Cl
ATOM     25  C   UNL d   1       6.585  -1.966  -0.957  0.00  0.00     0.018 A 
ENDBRANCH   5  19
TORSDOF 2
