REMARK  5 active torsions:
REMARK  status: ('A' for Active; 'I' for Inactive)
REMARK    1  A    between atoms: N_11  and  C_1 
REMARK    2  A    between atoms: N_10  and  C_2 
REMARK    3  A    between atoms: N_12  and  C_9 
REMARK    4  A    between atoms: C_14  and  N_10 
REMARK    5  A    between atoms: C_13  and  N_11 
ROOT
ATOM      1  C   UNL d   1       1.109  -1.075  -0.039  0.00  0.00     0.699 A 
ATOM      2  C   UNL d   1      -0.829   0.061   0.051  0.00  0.00     0.699 A 
ATOM      3  N   UNL d   1      -0.216  -1.119   0.055  0.00  0.00    -0.022 N 
ATOM      4  HN  UNL d   1      -0.729  -1.998   0.125  1.00  0.00     0.203 HD
ATOM      5  N   UNL d   1       1.809   0.051  -0.138  0.00  0.00    -0.165 N 
ATOM      6  HN  UNL d   1       2.827   0.050  -0.200  1.00  0.00     0.187 HD
ATOM      7  N   UNL d   1      -0.196   1.227  -0.035  0.00  0.00    -0.165 N 
ATOM      8  HN  UNL d   1      -0.695   2.117  -0.013  1.00  0.00     0.187 HD
ATOM      9  C   UNL d   1       1.112   1.164  -0.149  0.00  0.00     0.184 A 
ENDROOT
BRANCH   1  10
ATOM     10  N   UNL d   1       1.792  -2.291   0.023  0.00  0.00    -0.191 N 
ATOM     11  H   UNL d   1       1.165  -3.061   0.202  0.00  0.00     0.184 HD
BRANCH  10  12
ATOM     12  C   UNL d   1       3.034  -2.627  -0.535  0.00  0.00     0.049 A 
ATOM     13  C   UNL d   1       3.786  -3.665   0.030  0.00  0.00     0.030 A 
ATOM     14  C   UNL d   1       5.053  -3.986  -0.468  0.00  0.00     0.002 A 
ATOM     15  C   UNL d   1       5.580  -3.280  -1.548  0.00  0.00     0.000 A 
ATOM     16  C   UNL d   1       4.847  -2.249  -2.122  0.00  0.00     0.002 A 
ATOM     17  C   UNL d   1       3.589  -1.919  -1.611  0.00  0.00     0.030 A 
ENDBRANCH  10  12
ENDBRANCH   1  10
BRANCH   2  18
ATOM     18  N   UNL d   1      -2.223   0.053   0.099  0.00  0.00    -0.191 N 
ATOM     19  H   UNL d   1      -2.599  -0.881   0.040  0.00  0.00     0.184 HD
BRANCH  18  20
ATOM     20  C   UNL d   1      -3.091   1.045   0.581  0.00  0.00     0.049 A 
ATOM     21  C   UNL d   1      -4.382   1.150   0.051  0.00  0.00     0.030 A 
ATOM     22  C   UNL d   1      -5.248   2.165   0.471  0.00  0.00     0.002 A 
ATOM     23  C   UNL d   1      -4.837   3.081   1.437  0.00  0.00     0.000 A 
ATOM     24  C   UNL d   1      -3.558   2.988   1.977  0.00  0.00     0.002 A 
ATOM     25  C   UNL d   1      -2.691   1.984   1.541  0.00  0.00     0.030 A 
ENDBRANCH  18  20
ENDBRANCH   2  18
BRANCH   9  26
ATOM     26  N   UNL d   1       1.806   2.354  -0.241  0.00  0.00    -0.273 NA
ATOM     27  H   UNL d   1       1.255   3.108   0.146  0.00  0.00     0.127 HD
ATOM     28  H   UNL d   1       2.746   2.233   0.111  0.00  0.00     0.127 HD
ENDBRANCH   9  26
TORSDOF 5
