REMARK  3 active torsions:
REMARK  status: ('A' for Active; 'I' for Inactive)
REMARK    1  A    between atoms: C_2  and  C_1 
REMARK    2  A    between atoms: C_5  and  C_1 
REMARK       I    between atoms: N_3  and  C_2 
REMARK    3  A    between atoms: C_6  and  C_4 
ROOT
ATOM      1  C   UNL d   1       1.038  -0.019   0.021  0.00  0.00     0.044 C 
ATOM      2  C   UNL d   1       0.347  -1.167   0.198  0.00  0.00     0.036 C 
ENDROOT
BRANCH   1   3
ATOM      3  C   UNL d   1       0.359   1.199  -0.565  0.00  0.00     0.254 C 
ATOM      4  N   UNL d   1       0.421   2.417   0.117  0.00  0.00    -0.344 N 
ATOM      5  C   UNL d   1       1.518   2.814   1.009  0.00  0.00     0.152 C 
ATOM      6  C   UNL d   1      -0.278   3.546  -0.506  0.00  0.00     0.152 C 
ATOM      7  C   UNL d   1       1.182   4.020   1.896  0.00  0.00     0.187 C 
ATOM      8  O   UNL d   1       0.610   5.098   1.148  0.00  0.00    -0.388 OA
ATOM      9  C   UNL d   1      -0.590   4.655   0.501  0.00  0.00     0.187 C 
ATOM     10  O   UNL d   1      -0.264   1.085  -1.626  0.00  0.00    -0.267 OA
ENDBRANCH   1   3
BRANCH   1  11
ATOM     11  C   UNL d   1       2.466  -0.029   0.203  0.00  0.00    -0.013 A 
ATOM     12  C   UNL d   1       3.086  -0.311   1.407  0.00  0.00     0.062 A 
ATOM     13  S   UNL d   1       4.791  -0.293   1.273  0.00  0.00    -0.113 SA
ATOM     14  C   UNL d   1       4.711   0.037  -0.404  0.00  0.00     0.050 A 
ATOM     15  C   UNL d   1       3.413   0.167  -0.847  0.00  0.00     0.020 A 
ENDBRANCH   1  11
BRANCH   2  16
ATOM     16  C   UNL d   1      -1.010  -1.377  -0.158  0.00  0.00     0.005 A 
ATOM     17  S   UNL d   1      -2.283  -1.057   0.947  0.00  0.00    -0.102 SA
ATOM     18  C   UNL d   1      -3.468  -1.648  -0.139  0.00  0.00     0.050 A 
ATOM     19  C   UNL d   1      -2.915  -2.081  -1.323  0.00  0.00     0.008 A 
ATOM     20  C   UNL d   1      -1.500  -1.926  -1.330  0.00  0.00     0.019 A 
ENDBRANCH   2  16
TORSDOF 3
