REMARK  8 active torsions:
REMARK  status: ('A' for Active; 'I' for Inactive)
REMARK    1  A    between atoms: C_15  and  N_1 
REMARK    2  A    between atoms: N_3  and  C_2 
REMARK    3  A    between atoms: S_20  and  C_4 
REMARK    4  A    between atoms: C_18  and  C_5 
REMARK    5  A    between atoms: O_23  and  C_11 
REMARK    6  A    between atoms: C_13  and  S_16 
REMARK    7  A    between atoms: O_24  and  C_14 
REMARK    8  A    between atoms: S_16  and  C_18 
ROOT
ATOM      1  N   UNL d   1      -0.352  -1.069  -0.728  0.00  0.00    -0.279 N 
ATOM      2  C   UNL d   1       0.875  -0.653  -0.213  0.00  0.00     0.164 A 
ATOM      3  C   UNL d   1      -1.280  -0.376   0.059  0.00  0.00     0.114 A 
ATOM      4  N   UNL d   1       0.699   0.156   0.804  0.00  0.00    -0.278 N 
ATOM      5  HN  UNL d   1       1.436   0.576   1.371  1.00  0.00     0.189 HD
ATOM      6  N   UNL d   1      -0.637   0.335   0.970  0.00  0.00    -0.286 N 
ATOM      7  HN  UNL d   1      -1.073   0.923   1.680  1.00  0.00     0.188 HD
ENDROOT
BRANCH   3   8
ATOM      8  C   UNL d   1      -2.774  -0.380  -0.016  0.00  0.00     0.158 C 
BRANCH   8   9
ATOM      9  S   UNL d   1      -3.531  -2.003   0.301  0.00  0.00    -0.119 SA
BRANCH   9  10
ATOM     10  C   UNL d   1      -5.313  -1.695   0.397  0.00  0.00     0.037 A 
ATOM     11  C   UNL d   1      -6.060  -2.842   0.758  0.00  0.00     0.060 A 
ATOM     12  C   UNL d   1      -7.457  -2.824   0.903  0.00  0.00     0.102 A 
ATOM     13  C   UNL d   1      -8.101  -1.609   0.715  0.00  0.00     0.138 A 
ATOM     14  C   UNL d   1      -7.397  -0.453   0.332  0.00  0.00     0.077 A 
ATOM     15  C   UNL d   1      -6.005  -0.489   0.162  0.00  0.00     0.087 A 
BRANCH  12  16
ATOM     16  O   UNL d   1      -7.983  -4.033   1.272  0.00  0.00    -0.353 OA
ATOM     17  C   UNL d   1      -9.252  -4.402   0.747  0.00  0.00     0.210 C 
ENDBRANCH  12  16
BRANCH  13  18
ATOM     18  N   UNL d   1      -9.517  -1.436   0.968  0.00  0.00    -0.113 N 
ATOM     19  O   UNL d   1     -10.206  -1.034   0.022  0.00  0.00    -0.532 OA
ATOM     20  O   UNL d   1      -9.927  -1.663   2.111  0.00  0.00    -0.532 OA
ENDBRANCH  13  18
BRANCH  15  21
ATOM     21  O   UNL d   1      -5.289   0.607  -0.226  0.00  0.00    -0.355 OA
ATOM     22  C   UNL d   1      -5.951   1.862  -0.336  0.00  0.00     0.210 C 
ENDBRANCH  15  21
ENDBRANCH   9  10
ENDBRANCH   8   9
ENDBRANCH   3   8
BRANCH   1  23
ATOM     23  C   UNL d   1      -0.593  -1.992  -1.793  0.00  0.00     0.043 A 
ATOM     24  C   UNL d   1       0.248  -3.101  -1.971  0.00  0.00     0.030 A 
ATOM     25  C   UNL d   1       0.030  -4.003  -3.017  0.00  0.00     0.009 A 
ATOM     26  C   UNL d   1      -1.055  -3.840  -3.881  0.00  0.00    -0.062 A 
ATOM     27  C   UNL d   1      -1.900  -2.743  -3.700  0.00  0.00     0.009 A 
ATOM     28  C   UNL d   1      -1.289  -4.825  -4.987  0.00  0.00     0.048 C 
ATOM     29  C   UNL d   1      -1.667  -1.821  -2.672  0.00  0.00     0.030 A 
ENDBRANCH   1  23
BRANCH   2  30
ATOM     30  S   UNL d   1       2.454  -0.930  -0.885  0.00  0.00    -0.105 SA
ATOM     31  H   UNL d   1       2.114  -1.327  -2.117  0.00  0.00     0.110 HD
ENDBRANCH   2  30
TORSDOF 8
