REMARK  6 active torsions:
REMARK  status: ('A' for Active; 'I' for Inactive)
REMARK    1  A    between atoms: N_9  and  S_1 
REMARK    2  A    between atoms: C_14  and  S_1 
REMARK    3  A    between atoms: C_7  and  C_2 
REMARK    4  A    between atoms: C_6  and  C_13 
REMARK    5  A    between atoms: C_13  and  N_9 
REMARK    6  A    between atoms: C_18  and  C_14 
ROOT
ATOM      1  N   UNL d   1       0.480   1.562   0.332  0.00  0.00    -0.314 N 
ATOM      2  H   UNL d   1      -0.479   1.789   0.066  0.00  0.00     0.172 HD
ENDROOT
BRANCH   1   3
ATOM      3  S   UNL d   1       1.019   0.003  -0.011  0.00  0.00     0.230 S 
ATOM      4  O   UNL d   1       1.712  -0.480   1.163  0.00  0.00    -0.206 OA
ATOM      5  O   UNL d   1       1.671   0.083  -1.302  0.00  0.00    -0.206 OA
BRANCH   3   6
ATOM      6  C   UNL d   1      -0.524  -0.907  -0.203  0.00  0.00     0.201 C 
BRANCH   6   7
ATOM      7  C   UNL d   1      -0.214  -2.356  -0.498  0.00  0.00    -0.043 A 
ATOM      8  C   UNL d   1      -0.062  -3.280   0.548  0.00  0.00     0.010 A 
ATOM      9  C   UNL d   1       0.253  -4.615   0.279  0.00  0.00     0.024 A 
ATOM     10  C   UNL d   1       0.419  -5.037  -1.038  0.00  0.00     0.034 A 
ATOM     11  C   UNL d   1       0.267  -4.136  -2.088  0.00  0.00     0.024 A 
ATOM     12 CL   UNL d   1       0.823  -6.677  -1.367  0.00  0.00    -0.084 Cl
ATOM     13  C   UNL d   1      -0.047  -2.800  -1.820  0.00  0.00     0.010 A 
ENDBRANCH   6   7
ENDBRANCH   3   6
ENDBRANCH   1   3
BRANCH   1  14
ATOM     14  C   UNL d   1       0.853   2.096   1.649  0.00  0.00     0.189 C 
BRANCH  14  15
ATOM     15  C   UNL d   1       0.349   3.506   1.749  0.00  0.00     0.035 A 
ATOM     16  N   UNL d   1      -1.018   3.757   1.622  0.00  0.00    -0.351 N 
ATOM     17  C   UNL d   1      -1.266   5.047   1.784  0.00  0.00     0.091 A 
ATOM     18  HN  UNL d   1      -1.726   3.048   1.432  1.00  0.00     0.166 HD
ATOM     19  S   UNL d   1       0.131   6.019   2.058  0.00  0.00    -0.081 SA
ATOM     20  C   UNL d   1       1.120   4.629   1.978  0.00  0.00     0.078 A 
BRANCH  17  21
ATOM     21  C   UNL d   1      -2.614   5.576   1.748  0.00  0.00     0.038 A 
ATOM     22  S   UNL d   1      -2.990   7.245   1.928  0.00  0.00    -0.099 SA
ATOM     23  C   UNL d   1      -4.668   6.970   1.786  0.00  0.00     0.050 A 
ATOM     24  C   UNL d   1      -4.955   5.637   1.600  0.00  0.00     0.008 A 
ATOM     25  C   UNL d   1      -3.775   4.838   1.578  0.00  0.00     0.022 A 
ENDBRANCH  17  21
ENDBRANCH  14  15
ENDBRANCH   1  14
TORSDOF 6
