REMARK  1 active torsions:
REMARK  status: ('A' for Active; 'I' for Inactive)
REMARK    1  A    between atoms: C_4  and  C_7 
ROOT
ATOM      1  C   UNL d   1      -5.214   0.131  -0.623  0.00  0.00     0.125 C 
ATOM      2  N   UNL d   1      -5.062   2.352  -1.933  0.00  0.00    -0.191 NA
ATOM      3  N   UNL d   1      -7.516  -1.035  -0.477  0.00  0.00    -0.191 NA
ATOM      4  C   UNL d   1      -5.132   1.350  -1.351  0.00  0.00     0.111 C 
ATOM      5  C   UNL d   1      -6.487  -0.505  -0.551  0.00  0.00     0.111 C 
ENDROOT
BRANCH   1   6
ATOM      6  C   UNL d   1      -4.161  -0.461  -0.024  0.00  0.00     0.052 C 
ATOM      7  C   UNL d   1      -2.829   0.051  -0.001  0.00  0.00     0.008 A 
ATOM      8  S   UNL d   1      -1.516  -1.078  -0.011  0.00  0.00    -0.083 SA
ATOM      9  C   UNL d   1      -2.337   1.347   0.064  0.00  0.00     0.021 A 
ATOM     10  C   UNL d   1      -0.361   0.157   0.009  0.00  0.00     0.052 A 
ATOM     11  C   UNL d   1      -0.910   1.410   0.052  0.00  0.00     0.028 A 
ATOM     12 BR   UNL d   1       1.484  -0.162  -0.012  0.00  0.00    -0.043 Br
ENDBRANCH   1   6
TORSDOF 1
