REMARK  7 active torsions:
REMARK  status: ('A' for Active; 'I' for Inactive)
REMARK    1  A    between atoms: S_7  and  C_1 
REMARK    2  A    between atoms: C_8  and  N_2 
REMARK    3  A    between atoms: C_10  and  C_5 
REMARK    4  A    between atoms: C_12  and  S_7 
REMARK    5  A    between atoms: C_9  and  C_12 
REMARK    6  A    between atoms: O_13  and  C_9 
REMARK    7  A    between atoms: C_18  and  O_13 
ROOT
ATOM      1  C   UNL d   1       0.987  -0.707   0.059  0.00  0.00     0.152 A 
ATOM      2  N   UNL d   1      -0.327  -1.169   0.049  0.00  0.00    -0.301 N 
ATOM      3  N   UNL d   1       1.053   0.611   0.075  0.00  0.00    -0.335 N 
ATOM      4  HN  UNL d   1       1.894   1.186   0.127  1.00  0.00     0.168 HD
ATOM      5  C   UNL d   1      -0.251   1.048   0.009  0.00  0.00     0.060 A 
ATOM      6  C   UNL d   1      -1.101  -0.030  -0.060  0.00  0.00     0.130 A 
ENDROOT
BRANCH   1   7
ATOM      7  S   UNL d   1       2.392  -1.719  -0.153  0.00  0.00    -0.083 SA
BRANCH   7   8
ATOM      8  C   UNL d   1       3.667  -0.747   0.694  0.00  0.00     0.193 C 
BRANCH   8   9
ATOM      9  C   UNL d   1       3.326  -0.493   2.146  0.00  0.00     0.268 C 
ATOM     10  O   UNL d   1       2.598  -1.180   2.851  0.00  0.00    -0.264 OA
BRANCH   9  11
ATOM     11  O   UNL d   1       3.982   0.631   2.563  0.00  0.00    -0.321 OA
BRANCH  11  12
ATOM     12  C   UNL d   1       3.496   1.209   3.782  0.00  0.00     0.174 C 
ATOM     13  C   UNL d   1       2.336   2.127   3.442  0.00  0.00     0.034 C 
ENDBRANCH  11  12
ENDBRANCH   9  11
ENDBRANCH   8   9
ENDBRANCH   7   8
ENDBRANCH   1   7
BRANCH   2  14
ATOM     14  C   UNL d   1      -0.869  -2.485   0.180  0.00  0.00     0.041 A 
ATOM     15  C   UNL d   1      -0.191  -3.491   0.875  0.00  0.00     0.030 A 
ATOM     16  C   UNL d   1      -0.791  -4.740   1.069  0.00  0.00     0.002 A 
ATOM     17  C   UNL d   1      -2.070  -4.992   0.578  0.00  0.00     0.000 A 
ATOM     18  C   UNL d   1      -2.749  -4.000  -0.119  0.00  0.00     0.002 A 
ATOM     19  C   UNL d   1      -2.155  -2.753  -0.322  0.00  0.00     0.030 A 
ENDBRANCH   2  14
BRANCH   5  20
ATOM     20  C   UNL d   1      -0.658   2.447   0.007  0.00  0.00    -0.008 A 
ATOM     21  C   UNL d   1       0.309   3.461   0.072  0.00  0.00     0.014 A 
ATOM     22  C   UNL d   1      -0.065   4.809   0.075  0.00  0.00     0.001 A 
ATOM     23  C   UNL d   1      -1.411   5.166   0.013  0.00  0.00     0.000 A 
ATOM     24  C   UNL d   1      -2.384   4.171  -0.046  0.00  0.00     0.001 A 
ATOM     25  C   UNL d   1      -2.011   2.825  -0.052  0.00  0.00     0.014 A 
ENDBRANCH   5  20
TORSDOF 7
