REMARK  3 active torsions:
REMARK  status: ('A' for Active; 'I' for Inactive)
REMARK    1  A    between atoms: C_5  and  C_3 
REMARK    2  A    between atoms: C_10  and  C_4 
REMARK    3  A    between atoms: C_8  and  C_11 
ROOT
ATOM      1  N   UNL d   1       1.240   0.139   0.185  0.00  0.00    -0.318 N 
ATOM      2  HN  UNL d   1       2.223   0.278   0.417  1.00  0.00     0.169 HD
ATOM      3  C   UNL d   1       0.265   1.088  -0.034  0.00  0.00     0.140 A 
ATOM      4  C   UNL d   1       0.586  -0.993   0.019  0.00  0.00     0.185 A 
ATOM      5  N   UNL d   1      -0.927   0.580  -0.376  0.00  0.00    -0.242 N 
ATOM      6  HN  UNL d   1      -1.779   1.082  -0.622  1.00  0.00     0.196 HD
ATOM      7  O   UNL d   1      -0.725  -0.798  -0.314  0.00  0.00    -0.217 OA
ENDROOT
BRANCH   3   8
ATOM      8  C   UNL d   1       0.554   2.510  -0.019  0.00  0.00     0.040 A 
ATOM      9  C   UNL d   1      -0.287   3.498   0.513  0.00  0.00     0.064 A 
ATOM     10  C   UNL d   1       0.089   4.849   0.358  0.00  0.00     0.034 A 
ATOM     11  C   UNL d   1       1.281   5.159  -0.271  0.00  0.00     0.088 A 
ATOM     12  N   UNL d   1       2.124   4.227  -0.749  0.00  0.00    -0.374 N 
ATOM     13  C   UNL d   1       1.744   2.933  -0.614  0.00  0.00     0.103 A 
ATOM     14  HN  UNL d   1       3.007   4.481  -1.192  1.00  0.00     0.164 HD
BRANCH   9  15
ATOM     15  C   UNL d   1      -1.569   3.230   1.260  0.00  0.00     0.418 C 
ATOM     16  F   UNL d   1      -1.759   1.958   1.690  0.00  0.00    -0.166 F 
ATOM     17  F   UNL d   1      -1.646   3.991   2.394  0.00  0.00    -0.166 F 
ATOM     18  F   UNL d   1      -2.669   3.567   0.531  0.00  0.00    -0.166 F 
ENDBRANCH   9  15
ENDBRANCH   3   8
BRANCH   4  19
ATOM     19  C   UNL d   1       1.067  -2.366   0.095  0.00  0.00     0.056 A 
ATOM     20  C   UNL d   1       0.211  -3.469  -0.025  0.00  0.00     0.131 A 
ATOM     21  F   UNL d   1      -1.107  -3.302  -0.202  0.00  0.00    -0.205 F 
ATOM     22  C   UNL d   1       0.693  -4.776   0.033  0.00  0.00     0.043 A 
ATOM     23  C   UNL d   1       2.054  -5.008   0.214  0.00  0.00     0.003 A 
ATOM     24  C   UNL d   1       2.924  -3.929   0.341  0.00  0.00     0.001 A 
ATOM     25  C   UNL d   1       2.436  -2.619   0.284  0.00  0.00     0.019 A 
ENDBRANCH   4  19
TORSDOF 3
