REMARK  7 active torsions:
REMARK  status: ('A' for Active; 'I' for Inactive)
REMARK    1  A    between atoms: C_2  and  S_1 
REMARK    2  A    between atoms: N_8  and  S_1 
REMARK    3  A    between atoms: C_20  and  C_5 
REMARK    4  A    between atoms: N_14  and  N_8 
REMARK    5  A    between atoms: C_11  and  C_25 
REMARK       I    between atoms: C_17  and  N_14 
REMARK    6  A    between atoms: C_28  and  C_17 
REMARK    7  A    between atoms: C_25  and  C_28 
ROOT
ATOM      1  N   UNL d   1       0.953  -0.781   2.647  0.00  0.00    -0.260 N 
ATOM      2  C   UNL d   1       0.511  -0.636   3.947  0.00  0.00     0.236 C 
ATOM      3  O   UNL d   1      -0.276   0.241   4.294  0.00  0.00    -0.272 OA
ATOM      4  H   UNL d   1       1.604  -1.506   2.351  0.00  0.00     0.190 HD
ENDROOT
BRANCH   2   5
ATOM      5  C   UNL d   1       1.095  -1.668   4.877  0.00  0.00     0.112 C 
BRANCH   5   6
ATOM      6  C   UNL d   1       0.623  -1.475   6.312  0.00  0.00     0.096 C 
BRANCH   6   7
ATOM      7  C   UNL d   1       1.217  -2.518   7.178  0.00  0.00     0.148 A 
ATOM      8  N   UNL d   1       2.481  -2.798   7.390  0.00  0.00    -0.323 N 
ATOM      9  C   UNL d   1       2.409  -3.918   8.192  0.00  0.00     0.137 A 
ATOM     10  HN  UNL d   1       3.309  -2.309   7.048  1.00  0.00     0.169 HD
ATOM     11  N   UNL d   1       1.153  -4.306   8.468  0.00  0.00    -0.242 N 
ATOM     12  O   UNL d   1       0.361  -3.378   7.795  0.00  0.00    -0.223 OA
ATOM     13  HN  UNL d   1       0.849  -5.096   9.038  1.00  0.00     0.196 HD
BRANCH   9  14
ATOM     14  C   UNL d   1       3.603  -4.612   8.663  0.00  0.00     0.010 A 
ATOM     15  C   UNL d   1       4.879  -4.145   8.308  0.00  0.00     0.017 A 
ATOM     16  C   UNL d   1       6.030  -4.798   8.761  0.00  0.00     0.025 A 
ATOM     17  C   UNL d   1       5.913  -5.924   9.572  0.00  0.00     0.034 A 
ATOM     18  C   UNL d   1       4.656  -6.409   9.926  0.00  0.00     0.025 A 
ATOM     19 CL   UNL d   1       7.328  -6.718  10.143  0.00  0.00    -0.084 Cl
ATOM     20  C   UNL d   1       3.505  -5.755   9.473  0.00  0.00     0.017 A 
ENDBRANCH   9  14
ENDBRANCH   6   7
ENDBRANCH   5   6
ENDBRANCH   2   5
BRANCH   1  21
ATOM     21  N   UNL d   1       0.448   0.128   1.650  0.00  0.00    -0.220 N 
ATOM     22  H   UNL d   1      -0.245   0.826   1.937  0.00  0.00     0.200 HD
BRANCH  21  23
ATOM     23  S   UNL d   1       0.898  -0.057   0.040  0.00  0.00     0.278 S 
ATOM     24  O   UNL d   1       2.305   0.275  -0.030  0.00  0.00    -0.199 OA
ATOM     25  O   UNL d   1       0.428  -1.340  -0.434  0.00  0.00    -0.199 OA
BRANCH  23  26
ATOM     26  C   UNL d   1      -0.011   1.216  -0.783  0.00  0.00     0.104 A 
ATOM     27  C   UNL d   1       0.710   2.223  -1.445  0.00  0.00     0.052 A 
ATOM     28  C   UNL d   1       0.035   3.262  -2.089  0.00  0.00     0.057 A 
ATOM     29 CL   UNL d   1       0.984   4.472  -2.874  0.00  0.00    -0.083 Cl
ATOM     30  C   UNL d   1      -1.363   3.296  -2.076  0.00  0.00     0.057 A 
ATOM     31  C   UNL d   1      -2.078   2.285  -1.427  0.00  0.00     0.051 A 
ATOM     32 CL   UNL d   1      -2.266   4.561  -2.828  0.00  0.00    -0.082 Cl
ATOM     33  C   UNL d   1      -1.407   1.239  -0.782  0.00  0.00     0.059 A 
ATOM     34 CL   UNL d   1      -2.389   0.059   0.005  0.00  0.00    -0.083 Cl
ENDBRANCH  23  26
ENDBRANCH  21  23
ENDBRANCH   1  21
TORSDOF 7
