REMARK  5 active torsions:
REMARK  status: ('A' for Active; 'I' for Inactive)
REMARK       I    between atoms: N_2  and  C_1 
REMARK       I    between atoms: N_3  and  C_1 
REMARK    1  A    between atoms: C_11  and  N_2 
REMARK    2  A    between atoms: C_9  and  N_3 
REMARK    3  A    between atoms: C_5  and  C_6 
REMARK    4  A    between atoms: C_10  and  C_9 
REMARK    5  A    between atoms: C_14  and  C_10 
ROOT
ATOM      1  C   UNL d   1       1.070   0.216  -0.081  0.00  0.00     0.322 C 
ATOM      2  N   UNL d   1       0.367   0.785   0.959  0.00  0.00    -0.309 N 
ATOM      3  N   UNL d   1       0.359  -0.722  -0.829  0.00  0.00    -0.338 N 
ATOM      4  O   UNL d   1       2.259   0.452  -0.309  0.00  0.00    -0.247 OA
ATOM      5  C   UNL d   1      -1.096  -0.815  -0.873  0.00  0.00     0.154 C 
ATOM      6  H   UNL d   1      -0.308   0.166   1.379  0.00  0.00     0.170 HD
ENDROOT
BRANCH   2   7
ATOM      7  C   UNL d   1       0.913   1.765   1.818  0.00  0.00     0.036 A 
ATOM      8  C   UNL d   1       1.639   2.857   1.348  0.00  0.00     0.030 A 
ATOM      9  C   UNL d   1       2.116   3.829   2.243  0.00  0.00     0.010 A 
ATOM     10  C   UNL d   1       1.907   3.721   3.631  0.00  0.00    -0.051 A 
ATOM     11  C   UNL d   1       1.201   2.591   4.080  0.00  0.00     0.010 A 
ATOM     12  C   UNL d   1       0.685   1.643   3.186  0.00  0.00     0.030 A 
BRANCH  10  13
ATOM     13  C   UNL d   1       2.426   4.805   4.595  0.00  0.00    -0.024 C 
ATOM     14  C   UNL d   1       2.099   4.504   6.077  0.00  0.00     0.019 C 
ATOM     15  C   UNL d   1       3.959   4.941   4.475  0.00  0.00     0.019 C 
ATOM     16  C   UNL d   1       1.785   6.170   4.260  0.00  0.00     0.019 C 
ENDBRANCH  10  13
ENDBRANCH   2   7
BRANCH   3  17
ATOM     17  C   UNL d   1       1.079  -1.461  -1.882  0.00  0.00     0.133 C 
BRANCH  17  18
ATOM     18  C   UNL d   1       2.123  -2.451  -1.348  0.00  0.00     0.077 C 
BRANCH  18  19
ATOM     19  C   UNL d   1       2.784  -3.237  -2.454  0.00  0.00     0.010 A 
ATOM     20  N   UNL d   1       1.988  -4.014  -3.230  0.00  0.00    -0.369 N 
ATOM     21  C   UNL d   1       2.586  -4.756  -4.192  0.00  0.00     0.088 A 
ATOM     22  HN  UNL d   1       0.977  -4.039  -3.094  1.00  0.00     0.165 HD
ATOM     23  C   UNL d   1       3.952  -4.770  -4.422  0.00  0.00     0.017 A 
ATOM     24  C   UNL d   1       4.753  -3.974  -3.618  0.00  0.00     0.003 A 
ATOM     25  C   UNL d   1       4.169  -3.198  -2.624  0.00  0.00     0.025 A 
ENDBRANCH  18  19
ENDBRANCH  17  18
ENDBRANCH   3  17
TORSDOF 5
