REMARK  3 active torsions:
REMARK  status: ('A' for Active; 'I' for Inactive)
REMARK    1  A    between atoms: C_2  and  N_1 
REMARK    2  A    between atoms: N_15  and  C_3 
REMARK    3  A    between atoms: C_10  and  C_4 
ROOT
ATOM      1  C   UNL d   1       1.322   2.210  -1.026  0.00  0.00     0.051 C 
ATOM      2  C   UNL d   1       0.981   3.588  -0.953  0.00  0.00     0.033 C 
ATOM      3  C   UNL d   1       2.446   4.129  -2.835  0.00  0.00     0.011 C 
ATOM      4  C   UNL d   1       1.480   4.501  -1.895  0.00  0.00     0.040 C 
ATOM      5  C   UNL d   1       2.299   1.864  -1.979  0.00  0.00     0.032 C 
ATOM      6  C   UNL d   1       2.867   2.801  -2.858  0.00  0.00     0.017 C 
ENDROOT
BRANCH   1   7
ATOM      7  N   UNL d   1       0.759   1.244  -0.203  0.00  0.00    -0.374 N 
ATOM      8  C   UNL d   1       1.466   0.023   0.220  0.00  0.00     0.154 C 
ATOM      9  C   UNL d   1       0.682  -1.237  -0.210  0.00  0.00     0.136 C 
ATOM     10  C   UNL d   1       1.331  -2.496   0.350  0.00  0.00     0.041 C 
ATOM     11  O   UNL d   1      -0.673  -1.197   0.280  0.00  0.00    -0.378 OA
ATOM     12  C   UNL d   1      -1.360  -0.050  -0.253  0.00  0.00     0.136 C 
ATOM     13  C   UNL d   1      -0.668   1.263   0.164  0.00  0.00     0.154 C 
ATOM     14  C   UNL d   1      -2.795  -0.073   0.260  0.00  0.00     0.041 C 
ENDBRANCH   1   7
BRANCH   2  15
ATOM     15  N   UNL d   1       0.026   4.071  -0.024  0.00  0.00    -0.301 NA
ATOM     16  H   UNL d   1       0.099   3.542   0.842  0.00  0.00     0.124 HD
ATOM     17  H   UNL d   1       0.089   5.071   0.136  0.00  0.00     0.124 HD
ENDBRANCH   2  15
BRANCH   3  18
ATOM     18  C   UNL d   1       2.974   5.189  -3.747  0.00  0.00     0.155 C 
ATOM     19  O   UNL d   1       2.541   6.343  -3.644  0.00  0.00    -0.293 OA
ATOM     20  C   UNL d   1       4.024   4.881  -4.786  0.00  0.00     0.096 C 
ENDBRANCH   3  18
TORSDOF 3
