REMARK  3 active torsions:
REMARK  status: ('A' for Active; 'I' for Inactive)
REMARK    1  A    between atoms: C_10  and  C_2 
REMARK    2  A    between atoms: O_12  and  C_6 
REMARK    3  A    between atoms: C_17  and  C_10 
ROOT
ATOM      1  N   UNL d   1       0.590   0.255   0.183  0.00  0.00    -0.280 N 
ATOM      2  C   UNL d   1       2.966   0.814   0.256  0.00  0.00     0.049 A 
ATOM      3  C   UNL d   1       1.534   1.276   0.308  0.00  0.00     0.262 A 
ATOM      4  C   UNL d   1       0.964  -1.069   0.091  0.00  0.00     0.066 A 
ATOM      5  C   UNL d   1      -0.783   0.316   0.104  0.00  0.00     0.027 A 
ATOM      6  C   UNL d   1       3.299  -0.497   0.207  0.00  0.00     0.090 A 
ATOM      7  C   UNL d   1       2.275  -1.549   0.090  0.00  0.00     0.026 A 
ATOM      8  C   UNL d   1      -1.280  -0.976   0.044  0.00  0.00    -0.022 A 
ATOM      9  C   UNL d   1      -0.170  -1.858  -0.031  0.00  0.00     0.000 A 
ATOM     10  O   UNL d   1       1.180   2.442   0.443  0.00  0.00    -0.267 OA
ATOM     11  C   UNL d   1       2.423  -2.929  -0.094  0.00  0.00     0.017 A 
ATOM     12  C   UNL d   1      -1.597   1.567   0.082  0.00  0.00     0.058 C 
ATOM     13  C   UNL d   1       0.003  -3.240  -0.210  0.00  0.00     0.014 A 
ATOM     14  C   UNL d   1      -2.741  -1.270  -0.011  0.00  0.00     0.041 C 
ATOM     15  C   UNL d   1       1.305  -3.758  -0.256  0.00  0.00     0.002 A 
ATOM     16  C   UNL d   1      -3.045   1.237  -0.328  0.00  0.00     0.006 C 
ATOM     17  C   UNL d   1      -3.567  -0.028   0.373  0.00  0.00     0.005 C 
ENDROOT
BRANCH   2  18
ATOM     18  C   UNL d   1       3.981   1.931   0.173  0.00  0.00     0.085 C 
BRANCH  18  19
ATOM     19  C   UNL d   1       4.228   2.294  -1.279  0.00  0.00    -0.054 A 
ATOM     20  C   UNL d   1       3.373   3.178  -1.953  0.00  0.00     0.007 A 
ATOM     21  C   UNL d   1       3.495   3.369  -3.331  0.00  0.00     0.001 A 
ATOM     22  C   UNL d   1       4.476   2.684  -4.045  0.00  0.00     0.000 A 
ATOM     23  C   UNL d   1       5.351   1.827  -3.381  0.00  0.00     0.001 A 
ATOM     24  C   UNL d   1       5.229   1.634  -2.005  0.00  0.00     0.007 A 
ENDBRANCH  18  19
ENDBRANCH   2  18
BRANCH   6  25
ATOM     25  O   UNL d   1       4.627  -0.878   0.191  0.00  0.00    -0.359 OA
ATOM     26  H   UNL d   1       4.690  -1.833   0.043  0.00  0.00     0.217 HD
ENDBRANCH   6  25
TORSDOF 3
