REMARK  4 active torsions:
REMARK  status: ('A' for Active; 'I' for Inactive)
REMARK    1  A    between atoms: C_3  and  N_1 
REMARK    2  A    between atoms: N_5  and  C_2 
REMARK       I    between atoms: C_4  and  N_6 
REMARK    3  A    between atoms: C_9  and  C_4 
REMARK    4  A    between atoms: N_6  and  N_5 
ROOT
ATOM      1  N   UNL d   1       0.407  -2.514   2.143  0.00  0.00    -0.185 NA
ATOM      2  H   UNL d   1       1.372  -2.402   1.813  0.00  0.00     0.154 HD
ENDROOT
BRANCH   1   3
ATOM      3  C   UNL d   1      -0.395  -3.089   1.128  0.00  0.00     0.126 A 
ATOM      4  C   UNL d   1      -0.675  -2.402  -0.067  0.00  0.00     0.078 A 
ATOM      5  C   UNL d   1      -1.382  -3.084  -1.072  0.00  0.00     0.035 A 
ATOM      6  C   UNL d   1      -1.804  -4.393  -0.866  0.00  0.00     0.019 A 
ATOM      7  C   UNL d   1      -1.518  -4.981   0.347  0.00  0.00     0.089 A 
ATOM      8  N   UNL d   1      -0.848  -4.358   1.339  0.00  0.00    -0.354 N 
ATOM      9  HN  UNL d   1      -0.683  -4.828   2.230  1.00  0.00     0.166 HD
BRANCH   4  10
ATOM     10  N   UNL d   1      -0.353  -1.026  -0.273  0.00  0.00    -0.330 N 
ATOM     11  C   UNL d   1      -0.253  -0.391  -1.502  0.00  0.00     0.097 A 
ATOM     12  C   UNL d   1       0.000   0.948  -1.313  0.00  0.00     0.019 A 
ATOM     13  C   UNL d   1       0.059   1.166   0.077  0.00  0.00     0.019 A 
ATOM     14  C   UNL d   1      -0.158  -0.050   0.687  0.00  0.00     0.097 A 
ENDBRANCH   4  10
ENDBRANCH   1   3
BRANCH   1  15
ATOM     15  N   UNL d   1       0.354  -3.225   3.348  0.00  0.00    -0.281 N 
ATOM     16  C   UNL d   1       1.472  -3.258   4.154  0.00  0.00     0.266 C 
ATOM     17  O   UNL d   1       2.561  -2.799   3.815  0.00  0.00    -0.266 OA
ATOM     18  H   UNL d   1      -0.569  -3.559   3.601  0.00  0.00     0.184 HD
BRANCH  16  19
ATOM     19  C   UNL d   1       1.278  -3.852   5.512  0.00  0.00     0.033 A 
ATOM     20  C   UNL d   1       0.206  -4.702   5.820  0.00  0.00     0.018 A 
ATOM     21  C   UNL d   1       0.045  -5.189   7.122  0.00  0.00     0.025 A 
ATOM     22  C   UNL d   1       0.960  -4.840   8.113  0.00  0.00     0.034 A 
ATOM     23  C   UNL d   1       2.042  -4.013   7.814  0.00  0.00     0.025 A 
ATOM     24 CL   UNL d   1       0.755  -5.439   9.713  0.00  0.00    -0.084 Cl
ATOM     25  C   UNL d   1       2.202  -3.522   6.515  0.00  0.00     0.018 A 
ENDBRANCH  16  19
ENDBRANCH   1  15
TORSDOF 4
