REMARK  4 active torsions:
REMARK  status: ('A' for Active; 'I' for Inactive)
REMARK    1  A    between atoms: C_2  and  C_1 
REMARK       I    between atoms: N_4  and  C_2 
REMARK    2  A    between atoms: C_3  and  N_5 
REMARK    3  A    between atoms: N_9  and  C_3 
REMARK    4  A    between atoms: N_5  and  N_4 
ROOT
ATOM      1  C   UNL d   1      -0.186   2.599  -0.072  0.00  0.00     0.271 C 
ATOM      2  N   UNL d   1       0.588   3.736  -0.022  0.00  0.00    -0.264 N 
ATOM      3  O   UNL d   1      -1.412   2.665  -0.155  0.00  0.00    -0.266 OA
ATOM      4  H   UNL d   1       1.601   3.731   0.085  0.00  0.00     0.190 HD
ENDROOT
BRANCH   1   5
ATOM      5  C   UNL d   1       0.503   1.268  -0.001  0.00  0.00     0.055 A 
ATOM      6  C   UNL d   1       1.888   1.040  -0.064  0.00  0.00     0.049 A 
ATOM      7 CL   UNL d   1       3.082   2.273  -0.274  0.00  0.00    -0.083 Cl
ATOM      8  C   UNL d   1       2.393  -0.267   0.025  0.00  0.00     0.025 A 
ATOM      9  C   UNL d   1       1.535  -1.356   0.168  0.00  0.00     0.002 A 
ATOM     10  C   UNL d   1       0.164  -1.147   0.222  0.00  0.00     0.001 A 
ATOM     11  C   UNL d   1      -0.347   0.151   0.139  0.00  0.00     0.019 A 
ENDBRANCH   1   5
BRANCH   2  12
ATOM     12  N   UNL d   1      -0.035   4.989  -0.053  0.00  0.00    -0.274 N 
ATOM     13  H   UNL d   1      -1.054   4.951  -0.063  0.00  0.00     0.189 HD
BRANCH  12  14
ATOM     14  C   UNL d   1       0.630   6.122   0.392  0.00  0.00     0.186 C 
ATOM     15  S   UNL d   1       2.235   6.128   0.872  0.00  0.00    -0.040 SA
BRANCH  14  16
ATOM     16  N   UNL d   1      -0.194   7.230   0.355  0.00  0.00    -0.370 N 
ATOM     17  C   UNL d   1       0.182   8.597   0.664  0.00  0.00     0.148 C 
ATOM     18  H   UNL d   1      -1.066   7.117  -0.143  0.00  0.00     0.161 HD
ENDBRANCH  14  16
ENDBRANCH  12  14
ENDBRANCH   2  12
TORSDOF 4
