REMARK  3 active torsions:
REMARK  status: ('A' for Active; 'I' for Inactive)
REMARK    1  A    between atoms: C_4  and  N_1 
REMARK    2  A    between atoms: C_5  and  C_4 
REMARK    3  A    between atoms: C_6  and  C_5 
ROOT
ATOM      1  C   UNL d   1      -1.471   2.613  -0.056  0.00  0.00     0.177 C 
ATOM      2  O   UNL d   1      -1.959   2.445   1.064  0.00  0.00    -0.291 OA
ENDROOT
BRANCH   1   3
ATOM      3  C   UNL d   1      -0.029   2.215  -0.348  0.00  0.00     0.218 C 
BRANCH   3   4
ATOM      4  N   UNL d   1       0.088   0.786  -0.142  0.00  0.00    -0.281 N 
ATOM      5  C   UNL d   1      -0.402  -0.124  -1.030  0.00  0.00     0.227 C 
ATOM      6  C   UNL d   1      -0.205  -1.497  -0.468  0.00  0.00     0.112 C 
ATOM      7  O   UNL d   1      -0.945   0.127  -2.095  0.00  0.00    -0.273 OA
ATOM      8  C   UNL d   1       0.793  -1.282   0.656  0.00  0.00     0.112 C 
ATOM      9  C   UNL d   1       0.790   0.204   0.872  0.00  0.00     0.227 C 
ATOM     10  O   UNL d   1       1.408   0.772   1.757  0.00  0.00    -0.273 OA
ENDBRANCH   3   4
ENDBRANCH   1   3
BRANCH   1  11
ATOM     11  C   UNL d   1      -2.356   3.115  -1.158  0.00  0.00     0.012 A 
ATOM     12  C   UNL d   1      -3.737   3.196  -0.898  0.00  0.00     0.018 A 
ATOM     13  C   UNL d   1      -4.628   3.600  -1.895  0.00  0.00     0.043 A 
ATOM     14  C   UNL d   1      -4.142   3.930  -3.153  0.00  0.00     0.116 A 
ATOM     15  C   UNL d   1      -2.782   3.873  -3.427  0.00  0.00     0.043 A 
ATOM     16  F   UNL d   1      -4.994   4.305  -4.115  0.00  0.00    -0.206 F 
ATOM     17  C   UNL d   1      -1.885   3.471  -2.430  0.00  0.00     0.018 A 
ENDBRANCH   1  11
TORSDOF 3
