REMARK  5 active torsions:
REMARK  status: ('A' for Active; 'I' for Inactive)
REMARK    1  A    between atoms: N_6  and  C_1 
REMARK    2  A    between atoms: N_10  and  C_1 
REMARK    3  A    between atoms: C_2  and  C_5 
REMARK    4  A    between atoms: C_3  and  C_4 
REMARK    5  A    between atoms: C_7  and  N_6 
ROOT
ATOM      1  C   UNL d   1       3.004  -1.801   3.580  0.00  0.00     0.050 A 
ATOM      2  C   UNL d   1       1.680  -3.767   2.990  0.00  0.00     0.050 A 
ATOM      3  C   UNL d   1       1.289  -1.657   1.857  0.00  0.00     0.035 A 
ATOM      4  C   UNL d   1       2.699  -3.160   3.745  0.00  0.00     0.032 A 
ATOM      5  C   UNL d   1       2.282  -1.057   2.635  0.00  0.00     0.045 A 
ATOM      6  C   UNL d   1       0.949  -2.991   2.077  0.00  0.00     0.045 A 
ENDROOT
BRANCH   3   7
ATOM      7  N   UNL d   1       0.627  -0.967   0.824  0.00  0.00    -0.333 N 
ATOM      8  H   UNL d   1      -0.339  -1.221   0.649  0.00  0.00     0.168 HD
BRANCH   7   9
ATOM      9  C   UNL d   1       1.065   0.123   0.114  0.00  0.00     0.173 C 
ATOM     10  S   UNL d   1      -0.116   1.145  -0.504  0.00  0.00    -0.041 SA
BRANCH   9  11
ATOM     11  N   UNL d   1       2.427   0.252  -0.117  0.00  0.00    -0.367 N 
ATOM     12  C   UNL d   1       3.270  -0.919  -0.366  0.00  0.00     0.151 C 
ATOM     13  C   UNL d   1       3.052   1.526  -0.458  0.00  0.00     0.151 C 
ENDBRANCH   9  11
ENDBRANCH   7   9
ENDBRANCH   3   7
BRANCH   1  14
ATOM     14  C   UNL d   1       4.094  -1.129   4.380  0.00  0.00     0.417 C 
ATOM     15  F   UNL d   1       4.894  -2.010   5.043  0.00  0.00    -0.166 F 
ATOM     16  F   UNL d   1       4.929  -0.384   3.603  0.00  0.00    -0.166 F 
ATOM     17  F   UNL d   1       3.602  -0.283   5.324  0.00  0.00    -0.166 F 
ENDBRANCH   1  14
BRANCH   2  18
ATOM     18  C   UNL d   1       1.392  -5.245   3.107  0.00  0.00     0.417 C 
ATOM     19  F   UNL d   1       2.296  -5.914   3.874  0.00  0.00    -0.166 F 
ATOM     20  F   UNL d   1       0.172  -5.497   3.650  0.00  0.00    -0.166 F 
ATOM     21  F   UNL d   1       1.401  -5.868   1.896  0.00  0.00    -0.166 F 
ENDBRANCH   2  18
TORSDOF 5
