REMARK  2 active torsions:
REMARK  status: ('A' for Active; 'I' for Inactive)
REMARK       I    between atoms: C_2  and  N_1 
REMARK    1  A    between atoms: C_4  and  C_2 
REMARK    2  A    between atoms: N_8  and  C_6 
ROOT
ATOM      1  N   UNL d   1      -1.045   1.403  -0.093  0.00  0.00    -0.313 N 
ATOM      2  C   UNL d   1      -1.124   2.754  -0.482  0.00  0.00     0.258 C 
ATOM      3  C   UNL d   1       0.112   0.559  -0.032  0.00  0.00     0.043 A 
ATOM      4  O   UNL d   1      -2.105   3.453  -0.220  0.00  0.00    -0.267 OA
ATOM      5  C   UNL d   1      -0.054  -0.843  -0.045  0.00  0.00    -0.031 A 
ATOM      6  C   UNL d   1      -2.283   0.801   0.414  0.00  0.00     0.133 C 
ATOM      7  C   UNL d   1       1.416   1.064   0.062  0.00  0.00     0.030 A 
ATOM      8  C   UNL d   1      -2.549  -0.534  -0.256  0.00  0.00     0.025 C 
ATOM      9  C   UNL d   1      -1.412  -1.493   0.046  0.00  0.00     0.042 C 
ATOM     10  C   UNL d   1       1.072  -1.686  -0.087  0.00  0.00     0.009 A 
ATOM     11  C   UNL d   1       2.529   0.220   0.008  0.00  0.00     0.002 A 
ATOM     12  C   UNL d   1       2.357  -1.155  -0.089  0.00  0.00     0.001 A 
ENDROOT
BRANCH   2  13
ATOM     13  C   UNL d   1      -0.057   3.420  -1.283  0.00  0.00     0.032 A 
ATOM     14  C   UNL d   1       0.655   2.790  -2.303  0.00  0.00     0.019 A 
ATOM     15  C   UNL d   1       1.731   3.450  -2.922  0.00  0.00     0.030 A 
ATOM     16  C   UNL d   1       2.095   4.768  -2.592  0.00  0.00     0.029 A 
ATOM     17  C   UNL d   1       1.259   5.419  -1.669  0.00  0.00     0.030 A 
ATOM     18  C   UNL d   1       0.214   4.761  -1.012  0.00  0.00     0.019 A 
BRANCH  16  19
ATOM     19  N   UNL d   1       3.190   5.413  -3.157  0.00  0.00    -0.390 N 
ATOM     20  C   UNL d   1       3.862   6.492  -2.431  0.00  0.00     0.149 C 
ATOM     21  C   UNL d   1       3.996   4.774  -4.192  0.00  0.00     0.149 C 
ENDBRANCH  16  19
ENDBRANCH   2  13
TORSDOF 2
