REMARK  11 active torsions:
REMARK  status: ('A' for Active; 'I' for Inactive)
REMARK    1  A    between atoms: C_2  and  C_1 
REMARK    2  A    between atoms: C_3  and  C_1 
REMARK    3  A    between atoms: C_1  and  O_8 
REMARK    4  A    between atoms: C_2  and  O_9 
REMARK    5  A    between atoms: C_4  and  C_2 
REMARK       I    between atoms: N_7  and  C_3 
REMARK    6  A    between atoms: C_4  and  O_10 
REMARK    7  A    between atoms: C_4  and  C_5 
REMARK    8  A    between atoms: C_5  and  O_12 
REMARK    9  A    between atoms: C_14  and  C_5 
REMARK   10  A    between atoms: N_11  and  N_7 
REMARK   11  A    between atoms: O_13  and  C_14 
ROOT
ATOM      1  C   UNL d   1      -1.411   2.985  -0.438  0.00  0.00     0.187 C 
ENDROOT
BRANCH   1   2
ATOM      2  C   UNL d   1      -0.316   3.821   0.258  0.00  0.00     0.242 C 
BRANCH   2   3
ATOM      3  C   UNL d   1       1.076   3.428  -0.245  0.00  0.00     0.263 C 
ATOM      4  O   UNL d   1       1.286   3.006  -1.382  0.00  0.00    -0.269 OA
ATOM      5  N   UNL d   1       2.086   3.640   0.686  0.00  0.00    -0.292 N 
ATOM      6  H   UNL d   1       1.891   4.168   1.537  0.00  0.00     0.183 HD
BRANCH   5   7
ATOM      7  N   UNL d   1       3.427   3.377   0.334  0.00  0.00    -0.247 NA
ATOM      8  H   UNL d   1       3.526   3.607  -0.663  0.00  0.00     0.143 HD
ATOM      9  H   UNL d   1       3.556   2.360   0.354  0.00  0.00     0.143 HD
ENDBRANCH   5   7
ENDBRANCH   2   3
BRANCH   2  10
ATOM     10  O   UNL d   1      -0.502   5.221  -0.006  0.00  0.00    -0.383 OA
ATOM     11  H   UNL d   1      -0.652   5.315  -0.966  0.00  0.00     0.210 HD
ENDBRANCH   2  10
ENDBRANCH   1   2
BRANCH   1  12
ATOM     12  O   UNL d   1      -2.705   3.413   0.030  0.00  0.00    -0.390 OA
ATOM     13  H   UNL d   1      -2.719   3.210   0.988  0.00  0.00     0.210 HD
ENDBRANCH   1  12
BRANCH   1  14
ATOM     14  C   UNL d   1      -1.270   1.479  -0.153  0.00  0.00     0.180 C 
BRANCH  14  15
ATOM     15  O   UNL d   1      -1.353   1.293   1.279  0.00  0.00    -0.390 OA
ATOM     16  H   UNL d   1      -1.584   0.348   1.401  0.00  0.00     0.210 HD
ENDBRANCH  14  15
BRANCH  14  17
ATOM     17  C   UNL d   1      -2.369   0.610  -0.799  0.00  0.00     0.173 C 
BRANCH  17  18
ATOM     18  O   UNL d   1      -2.020  -0.763  -0.516  0.00  0.00    -0.391 OA
ATOM     19  H   UNL d   1      -1.345  -0.997  -1.188  0.00  0.00     0.210 HD
ENDBRANCH  17  18
BRANCH  17  20
ATOM     20  C   UNL d   1      -2.514   0.773  -2.312  0.00  0.00     0.198 C 
BRANCH  20  21
ATOM     21  O   UNL d   1      -1.269   0.463  -2.935  0.00  0.00    -0.398 OA
ATOM     22  H   UNL d   1      -1.379   0.616  -3.889  0.00  0.00     0.209 HD
ENDBRANCH  20  21
ENDBRANCH  17  20
ENDBRANCH  14  17
ENDBRANCH   1  14
TORSDOF 11
