REMARK  1 active torsions:
REMARK  status: ('A' for Active; 'I' for Inactive)
REMARK    1  A    between atoms: N_16  and  C_3 
ROOT
ATOM      1  N   UNL d   1       0.253  -0.604   0.034  0.00  0.00    -0.221 N 
ATOM      2  C   UNL d   1       0.204   0.794  -0.011  0.00  0.00     0.151 A 
ATOM      3  C   UNL d   1      -0.930  -1.394   0.074  0.00  0.00     0.145 A 
ATOM      4  N   UNL d   1       1.541  -1.063   0.011  0.00  0.00    -0.300 N 
ATOM      5  HN  UNL d   1       1.859  -2.032   0.003  1.00  0.00     0.186 HD
ATOM      6  N   UNL d   1      -0.981   1.475  -0.034  0.00  0.00    -0.348 N 
ATOM      7  HN  UNL d   1      -1.021   2.494  -0.062  1.00  0.00     0.167 HD
ATOM      8  C   UNL d   1       1.518   1.215  -0.009  0.00  0.00     0.107 A 
ATOM      9  C   UNL d   1      -2.114  -0.748   0.026  0.00  0.00     0.105 A 
ATOM     10  C   UNL d   1       2.287   0.042   0.002  0.00  0.00     0.134 A 
ATOM     11  C   UNL d   1      -2.054   0.742  -0.018  0.00  0.00     0.116 A 
ATOM     12  C   UNL d   1       1.990   2.556  -0.019  0.00  0.00     0.105 C 
ATOM     13  C   UNL d   1      -3.375  -1.391   0.036  0.00  0.00     0.104 C 
ATOM     14  N   UNL d   1       2.422   3.634  -0.021  0.00  0.00    -0.191 NA
ATOM     15  N   UNL d   1      -4.406  -1.921   0.018  0.00  0.00    -0.191 NA
ENDROOT
BRANCH   3  16
ATOM     16  N   UNL d   1      -0.757  -2.772   0.170  0.00  0.00    -0.383 N 
ATOM     17  H   UNL d   1       0.182  -3.084  -0.094  0.00  0.00     0.157 HD
ATOM     18  H   UNL d   1      -1.514  -3.372  -0.148  0.00  0.00     0.157 HD
ENDBRANCH   3  16
TORSDOF 1
