REMARK  4 active torsions:
REMARK  status: ('A' for Active; 'I' for Inactive)
REMARK    1  A    between atoms: S_8  and  C_1 
REMARK    2  A    between atoms: C_2  and  C_11 
REMARK       I    between atoms: N_10  and  C_2 
REMARK    3  A    between atoms: C_11  and  S_8 
REMARK    4  A    between atoms: N_13  and  N_10 
ROOT
ATOM      1  C   UNL d   1      -1.470  -0.124  -0.110  0.00  0.00     0.007 A 
ATOM      2  C   UNL d   1       1.335   0.084  -0.138  0.00  0.00     0.040 A 
ATOM      3  C   UNL d   1      -0.835   1.131  -0.102  0.00  0.00     0.027 A 
ATOM      4  C   UNL d   1      -0.686  -1.292  -0.139  0.00  0.00    -0.044 A 
ATOM      5  C   UNL d   1       0.716  -1.168  -0.144  0.00  0.00     0.032 A 
ATOM      6  C   UNL d   1       0.567   1.252  -0.124  0.00  0.00    -0.039 A 
ATOM      7 CL   UNL d   1       3.062   0.132  -0.135  0.00  0.00    -0.084 Cl
ATOM      8  C   UNL d   1       1.199   2.615  -0.131  0.00  0.00     0.050 C 
ATOM      9  C   UNL d   1      -1.244  -2.690  -0.140  0.00  0.00     0.049 C 
ENDROOT
BRANCH   1  10
ATOM     10  S   UNL d   1      -3.259  -0.187   0.009  0.00  0.00    -0.120 SA
BRANCH  10  11
ATOM     11  C   UNL d   1      -3.747   0.699  -1.508  0.00  0.00     0.183 C 
BRANCH  11  12
ATOM     12  C   UNL d   1      -3.273   0.002  -2.769  0.00  0.00     0.241 C 
ATOM     13  O   UNL d   1      -2.670   0.593  -3.662  0.00  0.00    -0.271 OA
ATOM     14  N   UNL d   1      -3.663  -1.329  -2.879  0.00  0.00    -0.293 N 
ATOM     15  H   UNL d   1      -3.946  -1.824  -2.034  0.00  0.00     0.183 HD
BRANCH  14  16
ATOM     16  N   UNL d   1      -3.225  -2.083  -3.992  0.00  0.00    -0.247 NA
ATOM     17  H   UNL d   1      -2.469  -1.544  -4.440  0.00  0.00     0.143 HD
ATOM     18  H   UNL d   1      -3.973  -2.068  -4.691  0.00  0.00     0.143 HD
ENDBRANCH  14  16
ENDBRANCH  11  12
ENDBRANCH  10  11
ENDBRANCH   1  10
TORSDOF 4
