REMARK  7 active torsions:
REMARK  status: ('A' for Active; 'I' for Inactive)
REMARK    1  A    between atoms: C_3  and  C_1 
REMARK    2  A    between atoms: N_2  and  C_5 
REMARK    3  A    between atoms: C_4  and  O_12 
REMARK    4  A    between atoms: C_8  and  C_16 
REMARK       I    between atoms: N_11  and  C_8 
REMARK    5  A    between atoms: C_16  and  N_9 
REMARK    6  A    between atoms: C_27  and  N_11 
REMARK    7  A    between atoms: O_12  and  C_28 
ROOT
ATOM      1  N   UNL d   1      -1.024  -4.290  -3.124  0.00  0.00    -0.266 NA
ATOM      2  N   UNL d   1      -0.474  -7.248  -3.187  0.00  0.00     0.099 N 
ATOM      3  C   UNL d   1      -1.826  -5.235  -2.321  0.00  0.00     0.127 C 
ATOM      4  C   UNL d   1      -0.480  -4.920  -4.342  0.00  0.00     0.127 C 
ATOM      5  C   UNL d   1      -1.023  -6.520  -2.005  0.00  0.00     0.287 C 
ATOM      6  C   UNL d   1       0.264  -6.252  -4.024  0.00  0.00     0.287 C 
ENDROOT
BRANCH   2   7
ATOM      7  C   UNL d   1      -1.526  -7.893  -4.011  0.00  0.00     0.375 C 
BRANCH   7   8
ATOM      8  C   UNL d   1      -2.403  -8.887  -3.248  0.00  0.00     0.250 C 
ATOM      9  N   UNL d   1      -1.724  -9.693  -2.349  0.00  0.00    -0.326 N 
ATOM     10  H   UNL d   1      -0.756  -9.428  -2.193  0.00  0.00     0.169 HD
ATOM     11  O   UNL d   1      -3.613  -8.928  -3.487  0.00  0.00    -0.271 OA
BRANCH   9  12
ATOM     12  C   UNL d   1      -2.307 -10.630  -1.464  0.00  0.00     0.034 A 
ATOM     13  C   UNL d   1      -3.629 -11.072  -1.575  0.00  0.00     0.032 A 
ATOM     14  C   UNL d   1      -4.201 -11.896  -0.598  0.00  0.00     0.039 A 
ATOM     15  C   UNL d   1      -3.457 -12.270   0.515  0.00  0.00     0.078 A 
ATOM     16  C   UNL d   1      -2.105 -11.932   0.577  0.00  0.00     0.039 A 
ATOM     17  C   UNL d   1      -1.532 -11.113  -0.408  0.00  0.00     0.032 A 
BRANCH  15  18
ATOM     18  O   UNL d   1      -3.946 -12.987   1.565  0.00  0.00    -0.255 OA
BRANCH  18  19
ATOM     19  C   UNL d   1      -5.250 -12.636   2.022  0.00  0.00     0.530 C 
ATOM     20  F   UNL d   1      -5.684 -11.439   1.572  0.00  0.00    -0.144 F 
ATOM     21  F   UNL d   1      -6.132 -13.589   1.652  0.00  0.00    -0.144 F 
ATOM     22  F   UNL d   1      -5.230 -12.583   3.374  0.00  0.00    -0.144 F 
ENDBRANCH  18  19
ENDBRANCH  15  18
ENDBRANCH   9  12
ENDBRANCH   7   8
ENDBRANCH   2   7
BRANCH   1  23
ATOM     23  C   UNL d   1      -0.157  -3.482  -2.378  0.00  0.00     0.082 A 
ATOM     24  C   UNL d   1       0.572  -2.458  -2.987  0.00  0.00     0.043 A 
ATOM     25  C   UNL d   1       1.405  -1.636  -2.221  0.00  0.00     0.021 A 
ATOM     26  C   UNL d   1       1.493  -1.829  -0.844  0.00  0.00     0.063 A 
ATOM     27  C   UNL d   1       0.726  -2.845  -0.309  0.00  0.00     0.105 A 
ATOM     28  N   UNL d   1      -0.080  -3.654  -1.040  0.00  0.00    -0.356 N 
ATOM     29  HN  UNL d   1      -0.622  -4.388  -0.584  1.00  0.00     0.166 HD
BRANCH  26  30
ATOM     30  C   UNL d   1       2.366  -0.983   0.026  0.00  0.00     0.418 C 
ATOM     31  F   UNL d   1       2.299  -1.304   1.348  0.00  0.00    -0.166 F 
ATOM     32  F   UNL d   1       2.057   0.341  -0.051  0.00  0.00    -0.166 F 
ATOM     33  F   UNL d   1       3.682  -1.078  -0.311  0.00  0.00    -0.166 F 
ENDBRANCH  26  30
ENDBRANCH   1  23
TORSDOF 7
