REMARK  6 active torsions:
REMARK  status: ('A' for Active; 'I' for Inactive)
REMARK    1  A    between atoms: C_2  and  S_1 
REMARK    2  A    between atoms: N_8  and  S_1 
REMARK    3  A    between atoms: N_9  and  C_5 
REMARK    4  A    between atoms: C_13  and  N_8 
REMARK    5  A    between atoms: C_12  and  C_14 
REMARK    6  A    between atoms: C_14  and  C_13 
ROOT
ATOM      1  S   UNL d   1       0.773  -0.090  -0.016  0.00  0.00     0.259 S 
ATOM      2  O   UNL d   1      -0.389  -0.880   0.319  0.00  0.00    -0.201 OA
ATOM      3  O   UNL d   1       1.851   0.064   0.940  0.00  0.00    -0.201 OA
ENDROOT
BRANCH   1   4
ATOM      4  C   UNL d   1       0.222   1.539  -0.525  0.00  0.00     0.090 A 
ATOM      5  C   UNL d   1      -0.794   1.730  -1.513  0.00  0.00    -0.000 A 
ATOM      6  C   UNL d   1      -1.127   3.065  -1.911  0.00  0.00     0.002 A 
ATOM      7  C   UNL d   1      -1.503   0.670  -2.123  0.00  0.00     0.014 A 
ATOM      8  C   UNL d   1      -2.102   3.303  -2.950  0.00  0.00     0.040 A 
ATOM      9  C   UNL d   1      -0.484   4.116  -1.211  0.00  0.00     0.014 A 
ATOM     10  C   UNL d   1      -2.724   2.182  -3.530  0.00  0.00     0.030 A 
ATOM     11  C   UNL d   1      -2.449   0.889  -3.114  0.00  0.00     0.003 A 
ATOM     12  C   UNL d   1       0.512   3.910  -0.257  0.00  0.00     0.003 A 
ATOM     13  C   UNL d   1       0.875   2.622   0.078  0.00  0.00     0.026 A 
BRANCH   8  14
ATOM     14  N   UNL d   1      -2.476   4.592  -3.369  0.00  0.00    -0.389 N 
ATOM     15  C   UNL d   1      -3.789   4.824  -3.968  0.00  0.00     0.149 C 
ATOM     16  C   UNL d   1      -1.445   5.551  -3.767  0.00  0.00     0.149 C 
ENDBRANCH   8  14
ENDBRANCH   1   4
BRANCH   1  17
ATOM     17  N   UNL d   1       1.430  -0.754  -1.411  0.00  0.00    -0.315 N 
ATOM     18  H   UNL d   1       0.768  -1.346  -1.910  0.00  0.00     0.172 HD
BRANCH  17  19
ATOM     19  C   UNL d   1       2.381   0.011  -2.243  0.00  0.00     0.138 C 
BRANCH  19  20
ATOM     20  C   UNL d   1       3.688   0.329  -1.524  0.00  0.00     0.077 C 
BRANCH  20  21
ATOM     21  C   UNL d   1       4.608   1.134  -2.404  0.00  0.00     0.010 A 
ATOM     22  N   UNL d   1       4.117   2.301  -2.890  0.00  0.00    -0.369 N 
ATOM     23  C   UNL d   1       4.946   3.069  -3.627  0.00  0.00     0.088 A 
ATOM     24  HN  UNL d   1       3.155   2.587  -2.706  1.00  0.00     0.165 HD
ATOM     25  C   UNL d   1       6.257   2.731  -3.909  0.00  0.00     0.017 A 
ATOM     26  C   UNL d   1       6.747   1.531  -3.405  0.00  0.00     0.003 A 
ATOM     27  C   UNL d   1       5.916   0.721  -2.637  0.00  0.00     0.025 A 
ENDBRANCH  20  21
ENDBRANCH  19  20
ENDBRANCH  17  19
ENDBRANCH   1  17
TORSDOF 6
