REMARK  3 active torsions:
REMARK  status: ('A' for Active; 'I' for Inactive)
REMARK    1  A    between atoms: N_12  and  C_2 
REMARK    2  A    between atoms: C_11  and  C_5 
REMARK    3  A    between atoms: C_10  and  C_6 
ROOT
ATOM      1  C   UNL d   1      -0.475  -0.300   0.090  0.00  0.00     0.093 A 
ATOM      2  C   UNL d   1       0.234   0.907   0.011  0.00  0.00     0.100 A 
ATOM      3  N   UNL d   1       1.577   0.969  -0.067  0.00  0.00    -0.345 N 
ATOM      4  HN  UNL d   1       2.054   1.870  -0.110  1.00  0.00     0.167 HD
ATOM      5  C   UNL d   1       0.236  -1.519   0.072  0.00  0.00     0.000 A 
ATOM      6  C   UNL d   1       2.281  -0.185  -0.086  0.00  0.00     0.044 A 
ATOM      7  C   UNL d   1       1.639  -1.421  -0.013  0.00  0.00     0.044 A 
ATOM      8  C   UNL d   1      -1.902  -0.233   0.213  0.00  0.00     0.103 C 
ATOM      9  N   UNL d   1      -3.055  -0.157   0.314  0.00  0.00    -0.191 NA
ENDROOT
BRANCH   2  10
ATOM     10  N   UNL d   1      -0.397   2.147  -0.087  0.00  0.00    -0.287 NA
ATOM     11  H   UNL d   1      -1.113   2.310   0.611  0.00  0.00     0.125 HD
ATOM     12  H   UNL d   1       0.320   2.868  -0.089  0.00  0.00     0.125 HD
ENDBRANCH   2  10
BRANCH   5  13
ATOM     13  C   UNL d   1      -0.386  -2.877   0.115  0.00  0.00    -0.024 A 
ATOM     14  C   UNL d   1      -1.593  -3.178  -0.541  0.00  0.00     0.012 A 
ATOM     15  C   UNL d   1      -2.164  -4.455  -0.489  0.00  0.00     0.001 A 
ATOM     16  C   UNL d   1      -1.513  -5.486   0.177  0.00  0.00     0.000 A 
ATOM     17  C   UNL d   1      -0.299  -5.236   0.803  0.00  0.00     0.001 A 
ATOM     18  C   UNL d   1       0.245  -3.946   0.786  0.00  0.00     0.012 A 
ENDBRANCH   5  13
BRANCH   6  19
ATOM     19  C   UNL d   1       3.747  -0.054  -0.227  0.00  0.00    -0.009 A 
ATOM     20  C   UNL d   1       4.514  -1.024  -0.898  0.00  0.00     0.014 A 
ATOM     21  C   UNL d   1       5.896  -0.883  -1.058  0.00  0.00     0.007 A 
ATOM     22  C   UNL d   1       6.557   0.239  -0.554  0.00  0.00    -0.062 A 
ATOM     23  C   UNL d   1       5.816   1.211   0.122  0.00  0.00     0.007 A 
ATOM     24  C   UNL d   1       8.032   0.393  -0.772  0.00  0.00     0.048 C 
ATOM     25  C   UNL d   1       4.432   1.064   0.282  0.00  0.00     0.014 A 
ENDBRANCH   6  19
TORSDOF 3
