REMARK  4 active torsions:
REMARK  status: ('A' for Active; 'I' for Inactive)
REMARK    1  A    between atoms: C_8  and  C_1 
REMARK    2  A    between atoms: C_9  and  N_2 
REMARK    3  A    between atoms: S_11  and  C_5 
REMARK    4  A    between atoms: O_13  and  C_10 
ROOT
ATOM      1  C   UNL d   1      -0.029  -1.344  -0.114  0.00  0.00     0.142 A 
ATOM      2  N   UNL d   1       1.244  -0.747  -0.101  0.00  0.00    -0.275 N 
ATOM      3  N   UNL d   1      -0.939  -0.392  -0.249  0.00  0.00    -0.282 N 
ATOM      4  HN  UNL d   1      -1.946  -0.541  -0.306  1.00  0.00     0.188 HD
ATOM      5  C   UNL d   1       0.978   0.611  -0.195  0.00  0.00     0.167 A 
ATOM      6  N   UNL d   1      -0.312   0.822  -0.299  0.00  0.00    -0.278 N 
ATOM      7  HN  UNL d   1      -0.767   1.729  -0.400  1.00  0.00     0.189 HD
ENDROOT
BRANCH   1   8
ATOM      8  C   UNL d   1      -0.335  -2.789  -0.090  0.00  0.00     0.043 A 
ATOM      9  C   UNL d   1      -1.311  -3.322   0.780  0.00  0.00     0.082 A 
ATOM     10  C   UNL d   1      -1.508  -4.710   0.830  0.00  0.00     0.038 A 
ATOM     11  C   UNL d   1      -0.759  -5.567   0.022  0.00  0.00     0.003 A 
ATOM     12  C   UNL d   1       0.169  -5.047  -0.870  0.00  0.00     0.001 A 
ATOM     13  C   UNL d   1       0.362  -3.667  -0.943  0.00  0.00     0.018 A 
BRANCH   9  14
ATOM     14  O   UNL d   1      -1.999  -2.430   1.564  0.00  0.00    -0.355 OA
ATOM     15  C   UNL d   1      -3.074  -2.927   2.352  0.00  0.00     0.210 C 
ENDBRANCH   9  14
ENDBRANCH   1   8
BRANCH   2  16
ATOM     16  C   UNL d   1       2.510  -1.397  -0.037  0.00  0.00     0.043 A 
ATOM     17  C   UNL d   1       3.555  -0.974  -0.868  0.00  0.00     0.030 A 
ATOM     18  C   UNL d   1       4.774  -1.656  -0.868  0.00  0.00     0.002 A 
ATOM     19  C   UNL d   1       4.958  -2.763  -0.040  0.00  0.00     0.000 A 
ATOM     20  C   UNL d   1       3.925  -3.180   0.797  0.00  0.00     0.002 A 
ATOM     21  C   UNL d   1       2.706  -2.499   0.807  0.00  0.00     0.030 A 
ENDBRANCH   2  16
BRANCH   5  22
ATOM     22  S   UNL d   1       2.164   1.870  -0.004  0.00  0.00    -0.096 SA
ATOM     23  C   UNL d   1       1.130   3.348  -0.084  0.00  0.00     0.099 C 
ENDBRANCH   5  22
TORSDOF 4
