REMARK  7 active torsions:
REMARK  status: ('A' for Active; 'I' for Inactive)
REMARK    1  A    between atoms: C_2  and  S_1 
REMARK    2  A    between atoms: N_7  and  S_1 
REMARK    3  A    between atoms: C_10  and  N_7 
REMARK    4  A    between atoms: N_9  and  C_8 
REMARK    5  A    between atoms: C_18  and  C_10 
REMARK    6  A    between atoms: O_16  and  C_18 
REMARK    7  A    between atoms: C_19  and  O_16 
ROOT
ATOM      1  C   UNL d   1       0.327  -1.612  -0.251  0.00  0.00     0.090 A 
ATOM      2  C   UNL d   1      -1.073  -1.818  -0.435  0.00  0.00    -0.001 A 
ATOM      3  C   UNL d   1      -1.548  -3.160  -0.525  0.00  0.00    -0.003 A 
ATOM      4  C   UNL d   1      -2.944  -3.410  -0.687  0.00  0.00     0.017 A 
ATOM      5  C   UNL d   1      -2.028  -0.778  -0.549  0.00  0.00     0.014 A 
ATOM      6  C   UNL d   1       1.229  -2.684  -0.200  0.00  0.00     0.026 A 
ATOM      7  C   UNL d   1      -0.604  -4.213  -0.449  0.00  0.00     0.014 A 
ATOM      8  C   UNL d   1       0.762  -3.984  -0.296  0.00  0.00     0.002 A 
ATOM      9  C   UNL d   1      -3.381  -1.030  -0.752  0.00  0.00     0.003 A 
ATOM     10  C   UNL d   1      -3.829  -2.337  -0.845  0.00  0.00     0.024 A 
ENDROOT
BRANCH   1  11
ATOM     11  S   UNL d   1       1.026   0.022  -0.032  0.00  0.00     0.259 S 
ATOM     12  O   UNL d   1       0.594   0.853  -1.134  0.00  0.00    -0.201 OA
ATOM     13  O   UNL d   1       2.429  -0.130   0.290  0.00  0.00    -0.201 OA
BRANCH  11  14
ATOM     14  N   UNL d   1       0.280   0.595   1.356  0.00  0.00    -0.313 N 
ATOM     15  H   UNL d   1      -0.617   1.059   1.199  0.00  0.00     0.172 HD
BRANCH  14  16
ATOM     16  C   UNL d   1       0.360  -0.194   2.595  0.00  0.00     0.158 C 
BRANCH  16  17
ATOM     17  C   UNL d   1      -0.333   0.581   3.719  0.00  0.00     0.187 C 
BRANCH  17  18
ATOM     18  O   UNL d   1      -1.702   0.799   3.347  0.00  0.00    -0.390 OA
BRANCH  18  19
ATOM     19  C   UNL d   1      -2.413   1.509   4.358  0.00  0.00     0.163 C 
ATOM     20  C   UNL d   1      -3.841   1.711   3.889  0.00  0.00     0.033 C 
ENDBRANCH  18  19
ENDBRANCH  17  18
ENDBRANCH  16  17
ENDBRANCH  14  16
ENDBRANCH  11  14
ENDBRANCH   1  11
BRANCH   4  21
ATOM     21  N   UNL d   1      -3.457  -4.705  -0.920  0.00  0.00    -0.302 NA
ATOM     22  H   UNL d   1      -2.956  -5.443  -0.442  0.00  0.00     0.124 HD
ATOM     23  H   UNL d   1      -4.459  -4.777  -0.767  0.00  0.00     0.124 HD
ENDBRANCH   4  21
TORSDOF 7
