REMARK  7 active torsions:
REMARK  status: ('A' for Active; 'I' for Inactive)
REMARK    1  A    between atoms: C_19  and  N_3 
REMARK    2  A    between atoms: C_16  and  C_8 
REMARK    3  A    between atoms: O_17  and  C_11 
REMARK    4  A    between atoms: N_12  and  C_15 
REMARK    5  A    between atoms: C_22  and  O_17 
REMARK    6  A    between atoms: C_21  and  C_22 
REMARK    7  A    between atoms: C_28  and  C_21 
ROOT
ATOM      1  C   UNL d   1       0.012  -0.613   0.056  0.00  0.00     0.142 A 
ATOM      2  C   UNL d   1      -0.298   0.746   0.002  0.00  0.00     0.046 A 
ATOM      3  N   UNL d   1      -1.172  -1.324   0.016  0.00  0.00    -0.239 N 
ATOM      4  N   UNL d   1      -2.239  -0.503  -0.110  0.00  0.00    -0.296 N 
ATOM      5  HN  UNL d   1      -3.213  -0.768  -0.257  1.00  0.00     0.187 HD
ATOM      6  N   UNL d   1       1.237  -1.171   0.078  0.00  0.00    -0.320 N 
ATOM      7  HN  UNL d   1       1.379  -2.178   0.158  1.00  0.00     0.169 HD
ATOM      8  C   UNL d   1       0.804   1.662  -0.029  0.00  0.00     0.015 A 
ATOM      9  C   UNL d   1      -1.735   0.736   0.002  0.00  0.00     0.037 C 
ATOM     10  C   UNL d   1       2.108   1.075  -0.051  0.00  0.00     0.107 A 
ATOM     11  C   UNL d   1       2.251  -0.306  -0.012  0.00  0.00     0.166 A 
ATOM     12  C   UNL d   1       3.305   1.858  -0.142  0.00  0.00     0.104 C 
ATOM     13  N   UNL d   1       4.271   2.507  -0.167  0.00  0.00    -0.191 NA
ATOM     14  C   UNL d   1      -2.732   1.837   0.077  0.00  0.00     0.070 C 
ENDROOT
BRANCH  11  15
ATOM     15  O   UNL d   1       3.525  -0.842  -0.023  0.00  0.00    -0.327 OA
BRANCH  15  16
ATOM     16  C   UNL d   1       3.584  -2.169  -0.549  0.00  0.00     0.261 C 
BRANCH  16  17
ATOM     17  C   UNL d   1       3.283  -2.270  -2.049  0.00  0.00     0.183 C 
ATOM     18  O   UNL d   1       2.992  -1.285  -2.728  0.00  0.00    -0.290 OA
BRANCH  17  19
ATOM     19  C   UNL d   1       3.375  -3.609  -2.711  0.00  0.00     0.012 A 
ATOM     20  C   UNL d   1       3.794  -4.762  -2.034  0.00  0.00     0.015 A 
ATOM     21  C   UNL d   1       3.894  -5.979  -2.716  0.00  0.00     0.001 A 
ATOM     22  C   UNL d   1       3.573  -6.055  -4.070  0.00  0.00     0.000 A 
ATOM     23  C   UNL d   1       3.148  -4.916  -4.749  0.00  0.00     0.001 A 
ATOM     24  C   UNL d   1       3.050  -3.698  -4.073  0.00  0.00     0.015 A 
ENDBRANCH  17  19
ENDBRANCH  16  17
ENDBRANCH  15  16
ENDBRANCH  11  15
BRANCH   8  25
ATOM     25  C   UNL d   1       0.598   3.131  -0.085  0.00  0.00    -0.023 A 
ATOM     26  C   UNL d   1       1.343   4.010   0.731  0.00  0.00     0.015 A 
ATOM     27  C   UNL d   1       1.215   5.400   0.643  0.00  0.00     0.037 A 
ATOM     28  C   UNL d   1       0.277   5.949  -0.237  0.00  0.00     0.102 A 
ATOM     29  C   UNL d   1      -0.497   5.107  -1.041  0.00  0.00     0.037 A 
ATOM     30  C   UNL d   1      -0.302   3.722  -0.993  0.00  0.00     0.015 A 
BRANCH  28  31
ATOM     31  N   UNL d   1       0.103   7.400  -0.301  0.00  0.00    -0.116 N 
ATOM     32  O   UNL d   1       0.904   8.111   0.320  0.00  0.00    -0.532 OA
ATOM     33  O   UNL d   1      -0.845   7.832  -0.982  0.00  0.00    -0.532 OA
ENDBRANCH  28  31
ENDBRANCH   8  25
BRANCH   3  34
ATOM     34  C   UNL d   1      -1.315  -2.738   0.032  0.00  0.00     0.058 A 
ATOM     35  C   UNL d   1      -0.379  -3.534   0.712  0.00  0.00     0.031 A 
ATOM     36  C   UNL d   1      -0.465  -4.924   0.655  0.00  0.00     0.002 A 
ATOM     37  C   UNL d   1      -1.473  -5.525  -0.092  0.00  0.00     0.000 A 
ATOM     38  C   UNL d   1      -2.421  -4.738  -0.750  0.00  0.00     0.002 A 
ATOM     39  C   UNL d   1      -2.361  -3.344  -0.671  0.00  0.00     0.031 A 
ENDBRANCH   3  34
TORSDOF 7
