REMARK  7 active torsions:
REMARK  status: ('A' for Active; 'I' for Inactive)
REMARK    1  A    between atoms: C_5  and  C_3 
REMARK       I    between atoms: N_13  and  C_5 
REMARK       I    between atoms: C_7  and  N_8 
REMARK    2  A    between atoms: N_8  and  C_15 
REMARK    3  A    between atoms: C_23  and  N_13 
REMARK    4  A    between atoms: C_16  and  O_22 
REMARK    5  A    between atoms: C_21  and  C_23 
REMARK    6  A    between atoms: C_25  and  C_21 
REMARK    7  A    between atoms: O_22  and  C_25 
ROOT
ATOM      1  C   UNL d   1       6.158  -2.539   0.152  0.00  0.00     0.046 C 
ENDROOT
BRANCH   1   2
ATOM      2  C   UNL d   1       5.538  -1.160   0.358  0.00  0.00     0.125 C 
BRANCH   2   3
ATOM      3  N   UNL d   1       4.104  -1.169   0.164  0.00  0.00    -0.356 N 
ATOM      4  C   UNL d   1       3.532  -0.949  -1.068  0.00  0.00     0.265 C 
ATOM      5  O   UNL d   1       4.146  -0.729  -2.103  0.00  0.00    -0.266 OA
ATOM      6  H   UNL d   1       3.477  -1.358   0.942  0.00  0.00     0.162 HD
BRANCH   4   7
ATOM      7  C   UNL d   1       2.004  -0.969  -1.082  0.00  0.00     0.093 C 
ATOM      8  N   UNL d   1       1.368  -1.207   0.029  0.00  0.00    -0.297 N 
ATOM      9  N   UNL d   1       0.004  -1.170  -0.008  0.00  0.00    -0.270 N 
ATOM     10  HN  UNL d   1       1.869  -1.412   0.893  1.00  0.00     0.187 HD
ATOM     11  C   UNL d   1      -0.785  -1.088  -1.126  0.00  0.00     0.236 C 
ATOM     12  H   UNL d   1      -0.479  -1.228   0.885  0.00  0.00     0.190 HD
ATOM     13  O   UNL d   1      -2.011  -1.060  -1.043  0.00  0.00    -0.272 OA
ATOM     14  C   UNL d   1      -0.076  -1.138  -2.450  0.00  0.00     0.111 C 
ATOM     15  C   UNL d   1       1.337  -0.607  -2.379  0.00  0.00     0.073 C 
ENDBRANCH   4   7
ENDBRANCH   2   3
ENDBRANCH   1   2
BRANCH   1  16
ATOM     16  C   UNL d   1       7.679  -2.475   0.278  0.00  0.00     0.177 C 
BRANCH  16  17
ATOM     17  O   UNL d   1       8.221  -3.795   0.147  0.00  0.00    -0.351 OA
BRANCH  17  18
ATOM     18  C   UNL d   1       9.585  -3.883   0.242  0.00  0.00     0.068 A 
ATOM     19  C   UNL d   1      10.098  -5.128   0.609  0.00  0.00     0.039 A 
ATOM     20  C   UNL d   1      11.484  -5.325   0.727  0.00  0.00     0.032 A 
ATOM     21  C   UNL d   1      12.377  -4.281   0.458  0.00  0.00     0.034 A 
ATOM     22  C   UNL d   1      11.855  -3.046   0.076  0.00  0.00     0.032 A 
ATOM     23  C   UNL d   1      10.474  -2.848  -0.033  0.00  0.00     0.039 A 
BRANCH  21  24
ATOM     24  N   UNL d   1      13.762  -4.536   0.577  0.00  0.00    -0.328 N 
ATOM     25  C   UNL d   1      14.793  -3.641   0.343  0.00  0.00     0.218 C 
ATOM     26  O   UNL d   1      14.687  -2.467   0.001  0.00  0.00    -0.274 OA
ATOM     27  C   UNL d   1      16.167  -4.230   0.543  0.00  0.00     0.117 C 
ATOM     28  H   UNL d   1      14.018  -5.475   0.856  0.00  0.00     0.169 HD
ENDBRANCH  21  24
ENDBRANCH  17  18
ENDBRANCH  16  17
ENDBRANCH   1  16
TORSDOF 7
