REMARK  4 active torsions:
REMARK  status: ('A' for Active; 'I' for Inactive)
REMARK    1  A    between atoms: S_10  and  C_1 
REMARK    2  A    between atoms: C_7  and  C_6 
REMARK    3  A    between atoms: C_11  and  C_7 
REMARK    4  A    between atoms: C_8  and  S_10 
ROOT
ATOM      1  C   UNL d   1       2.832   3.998  -0.033  0.00  0.00     0.063 C 
ATOM      2  C   UNL d   1       2.029   3.010   0.387  0.00  0.00     0.057 C 
ENDROOT
BRANCH   1   3
ATOM      3  C   UNL d   1       4.284   4.080   0.273  0.00  0.00     0.182 C 
ATOM      4  O   UNL d   1       4.803   5.179   0.436  0.00  0.00    -0.288 OA
BRANCH   3   5
ATOM      5  C   UNL d   1       5.126   2.849   0.308  0.00  0.00     0.014 A 
ATOM      6  C   UNL d   1       4.797   1.692  -0.415  0.00  0.00     0.017 A 
ATOM      7  C   UNL d   1       5.626   0.567  -0.362  0.00  0.00     0.025 A 
ATOM      8  C   UNL d   1       6.801   0.605   0.385  0.00  0.00     0.034 A 
ATOM      9  C   UNL d   1       7.159   1.760   1.077  0.00  0.00     0.025 A 
ATOM     10 CL   UNL d   1       7.822  -0.778   0.437  0.00  0.00    -0.084 Cl
ATOM     11  C   UNL d   1       6.322   2.882   1.037  0.00  0.00     0.017 A 
ENDBRANCH   3   5
ENDBRANCH   1   3
BRANCH   2  12
ATOM     12  S   UNL d   1       0.374   2.907  -0.110  0.00  0.00    -0.066 SA
BRANCH  12  13
ATOM     13  C   UNL d   1      -0.373   3.637   1.276  0.00  0.00     0.150 A 
ATOM     14  N   UNL d   1      -1.733   3.735   1.421  0.00  0.00    -0.341 N 
ATOM     15  C   UNL d   1      -1.967   4.405   2.597  0.00  0.00     0.109 A 
ATOM     16  C   UNL d   1      -2.781   3.248   0.557  0.00  0.00     0.158 C 
ATOM     17  C   UNL d   1      -0.723   4.670   3.114  0.00  0.00     0.107 A 
ATOM     18  N   UNL d   1       0.258   4.180   2.293  0.00  0.00    -0.345 N 
ATOM     19  HN  UNL d   1       1.266   4.227   2.441  1.00  0.00     0.167 HD
ENDBRANCH  12  13
ENDBRANCH   2  12
TORSDOF 4
