REMARK  6 active torsions:
REMARK  status: ('A' for Active; 'I' for Inactive)
REMARK    1  A    between atoms: C_4  and  S_1 
REMARK    2  A    between atoms: N_7  and  S_1 
REMARK    3  A    between atoms: S_2  and  C_3 
REMARK    4  A    between atoms: C_13  and  S_2 
REMARK    5  A    between atoms: C_17  and  N_7 
REMARK       I    between atoms: C_14  and  N_15 
REMARK    6  A    between atoms: N_15  and  C_18 
ROOT
ATOM      1  S   UNL d   1       0.751   0.100   0.037  0.00  0.00     0.252 S 
ATOM      2  O   UNL d   1      -0.070  -0.920   0.657  0.00  0.00    -0.205 OA
ATOM      3  O   UNL d   1       2.185  -0.067  -0.068  0.00  0.00    -0.205 OA
ENDROOT
BRANCH   1   4
ATOM      4  C   UNL d   1       0.442   1.569   1.003  0.00  0.00     0.116 A 
ATOM      5  S   UNL d   1       1.683   2.746   1.067  0.00  0.00    -0.065 SA
ATOM      6  C   UNL d   1       0.763   3.780   2.074  0.00  0.00     0.106 A 
ATOM      7  C   UNL d   1      -0.474   3.232   2.359  0.00  0.00     0.033 A 
ATOM      8  C   UNL d   1      -0.658   1.960   1.745  0.00  0.00     0.034 A 
BRANCH   6   9
ATOM      9  S   UNL d   1       1.514   5.319   2.586  0.00  0.00     0.213 S 
ATOM     10  O   UNL d   1       0.978   5.540   3.916  0.00  0.00    -0.217 OA
ATOM     11  O   UNL d   1       2.941   5.216   2.347  0.00  0.00    -0.217 OA
BRANCH   9  12
ATOM     12  C   UNL d   1       0.863   6.571   1.513  0.00  0.00     0.064 A 
ATOM     13  C   UNL d   1       0.107   7.621   2.049  0.00  0.00     0.024 A 
ATOM     14  C   UNL d   1      -0.392   8.618   1.209  0.00  0.00     0.002 A 
ATOM     15  C   UNL d   1      -0.131   8.567  -0.159  0.00  0.00     0.000 A 
ATOM     16  C   UNL d   1       0.632   7.530  -0.677  0.00  0.00     0.002 A 
ATOM     17  C   UNL d   1       1.137   6.524   0.146  0.00  0.00     0.024 A 
ENDBRANCH   9  12
ENDBRANCH   6   9
ENDBRANCH   1   4
BRANCH   1  18
ATOM     18  N   UNL d   1       0.118   0.319  -1.527  0.00  0.00    -0.181 NA
ATOM     19  H   UNL d   1       0.132  -0.591  -1.990  0.00  0.00     0.146 HD
BRANCH  18  20
ATOM     20  C   UNL d   1       0.700   1.361  -2.308  0.00  0.00     0.023 A 
ATOM     21  C   UNL d   1       1.853   1.149  -3.064  0.00  0.00     0.026 A 
ATOM     22  C   UNL d   1       2.432   2.217  -3.768  0.00  0.00     0.031 A 
ATOM     23  C   UNL d   1       1.882   3.503  -3.694  0.00  0.00     0.034 A 
ATOM     24  C   UNL d   1       0.711   3.684  -2.951  0.00  0.00     0.031 A 
ATOM     25  C   UNL d   1       0.125   2.623  -2.257  0.00  0.00     0.026 A 
BRANCH  23  26
ATOM     26  N   UNL d   1       2.558   4.559  -4.354  0.00  0.00    -0.328 N 
ATOM     27  C   UNL d   1       2.290   5.904  -4.198  0.00  0.00     0.218 C 
ATOM     28  O   UNL d   1       1.402   6.380  -3.501  0.00  0.00    -0.274 OA
ATOM     29  C   UNL d   1       3.209   6.836  -4.936  0.00  0.00     0.117 C 
ATOM     30  H   UNL d   1       3.362   4.305  -4.914  0.00  0.00     0.169 HD
ENDBRANCH  23  26
ENDBRANCH  18  20
ENDBRANCH   1  18
TORSDOF 6
