REMARK  4 active torsions:
REMARK  status: ('A' for Active; 'I' for Inactive)
REMARK    1  A    between atoms: C_5  and  C_1 
REMARK    2  A    between atoms: C_2  and  C_3 
REMARK    3  A    between atoms: C_4  and  C_6 
REMARK       I    between atoms: N_7  and  C_5 
REMARK       I    between atoms: C_6  and  N_8 
REMARK    4  A    between atoms: N_8  and  N_7 
ROOT
ATOM      1  C   UNL d   1       1.079   2.606  -0.064  0.00  0.00     0.272 C 
ATOM      2  N   UNL d   1       0.354   3.677   0.406  0.00  0.00    -0.263 N 
ATOM      3  O   UNL d   1       0.540   1.669  -0.651  0.00  0.00    -0.266 OA
ATOM      4  H   UNL d   1       0.744   4.526   0.812  0.00  0.00     0.190 HD
ENDROOT
BRANCH   1   5
ATOM      5  C   UNL d   1       2.546   2.549   0.202  0.00  0.00     0.064 A 
ATOM      6  C   UNL d   1       3.477   3.598   0.272  0.00  0.00     0.066 A 
ATOM      7  C   UNL d   1       4.829   3.277   0.544  0.00  0.00     0.034 A 
ATOM      8  C   UNL d   1       5.207   1.959   0.711  0.00  0.00     0.088 A 
ATOM      9  N   UNL d   1       4.343   0.937   0.626  0.00  0.00    -0.374 N 
ATOM     10  C   UNL d   1       3.047   1.256   0.371  0.00  0.00     0.105 A 
ATOM     11  HN  UNL d   1       4.643  -0.030   0.746  1.00  0.00     0.164 HD
BRANCH   6  12
ATOM     12  C   UNL d   1       3.197   5.057   0.049  0.00  0.00     0.418 C 
ATOM     13  F   UNL d   1       1.940   5.364  -0.348  0.00  0.00    -0.166 F 
ATOM     14  F   UNL d   1       3.412   5.784   1.181  0.00  0.00    -0.166 F 
ATOM     15  F   UNL d   1       4.019   5.597  -0.895  0.00  0.00    -0.166 F 
ENDBRANCH   6  12
ENDBRANCH   1   5
BRANCH   2  16
ATOM     16  N   UNL d   1      -1.027   3.727   0.146  0.00  0.00    -0.263 N 
ATOM     17  C   UNL d   1      -1.788   4.628   0.852  0.00  0.00     0.271 C 
ATOM     18  O   UNL d   1      -1.288   5.326   1.738  0.00  0.00    -0.266 OA
ATOM     19  H   UNL d   1      -1.394   3.063  -0.539  0.00  0.00     0.190 HD
BRANCH  17  20
ATOM     20  C   UNL d   1      -3.230   4.816   0.482  0.00  0.00     0.055 A 
ATOM     21  C   UNL d   1      -3.996   3.991  -0.354  0.00  0.00     0.049 A 
ATOM     22 CL   UNL d   1      -3.433   2.502  -1.027  0.00  0.00    -0.083 Cl
ATOM     23  C   UNL d   1      -5.317   4.345  -0.675  0.00  0.00     0.025 A 
ATOM     24  C   UNL d   1      -5.893   5.508  -0.163  0.00  0.00     0.002 A 
ATOM     25  C   UNL d   1      -5.155   6.318   0.690  0.00  0.00     0.001 A 
ATOM     26  C   UNL d   1      -3.840   5.974   1.010  0.00  0.00     0.019 A 
ENDBRANCH  17  20
ENDBRANCH   2  16
TORSDOF 4
