REMARK  3 active torsions:
REMARK  status: ('A' for Active; 'I' for Inactive)
REMARK    1  A    between atoms: C_10  and  N_1 
REMARK    2  A    between atoms: N_7  and  N_2 
REMARK    3  A    between atoms: C_11  and  C_9 
ROOT
ATOM      1  N   UNL d   1      -0.683  -1.169   0.171  0.00  0.00    -0.308 N 
ATOM      2  N   UNL d   1       0.808   1.089   0.168  0.00  0.00    -0.251 N 
ATOM      3  C   UNL d   1      -1.382   0.046   0.178  0.00  0.00     0.244 C 
ATOM      4  C   UNL d   1       1.510  -0.096  -0.099  0.00  0.00     0.257 C 
ATOM      5  C   UNL d   1      -0.558   1.213  -0.337  0.00  0.00     0.255 C 
ATOM      6  C   UNL d   1       0.590  -1.240  -0.548  0.00  0.00     0.236 C 
ATOM      7  O   UNL d   1       2.731  -0.233  -0.092  0.00  0.00    -0.270 OA
ATOM      8  O   UNL d   1      -2.583   0.164   0.427  0.00  0.00    -0.271 OA
ENDROOT
BRANCH   2   9
ATOM      9  N   UNL d   1       1.347   2.264   0.656  0.00  0.00    -0.304 N 
ATOM     10  C   UNL d   1       2.533   2.300   1.177  0.00  0.00     0.144 C 
ATOM     11  HN  UNL d   1       0.799   3.123   0.605  1.00  0.00     0.186 HD
BRANCH  10  12
ATOM     12  C   UNL d   1       3.018   3.531   1.744  0.00  0.00     0.091 A 
ATOM     13  O   UNL d   1       4.302   3.563   2.211  0.00  0.00    -0.321 OA
ATOM     14  C   UNL d   1       4.513   4.805   2.720  0.00  0.00     0.142 A 
ATOM     15  C   UNL d   1       3.382   5.577   2.595  0.00  0.00     0.027 A 
ATOM     16  C   UNL d   1       2.418   4.758   1.958  0.00  0.00     0.040 A 
ENDBRANCH  10  12
ENDBRANCH   2   9
BRANCH   1  17
ATOM     17  C   UNL d   1      -1.274  -2.355   0.676  0.00  0.00     0.037 A 
ATOM     18  C   UNL d   1      -1.208  -3.559  -0.035  0.00  0.00     0.031 A 
ATOM     19  C   UNL d   1      -1.756  -4.728   0.504  0.00  0.00     0.026 A 
ATOM     20  C   UNL d   1      -2.335  -4.703   1.771  0.00  0.00     0.034 A 
ATOM     21  C   UNL d   1      -2.402  -3.513   2.490  0.00  0.00     0.026 A 
ATOM     22 CL   UNL d   1      -2.961  -6.152   2.454  0.00  0.00    -0.084 Cl
ATOM     23  C   UNL d   1      -1.893  -2.337   1.933  0.00  0.00     0.031 A 
ENDBRANCH   1  17
TORSDOF 3
