REMARK  10 active torsions:
REMARK  status: ('A' for Active; 'I' for Inactive)
REMARK    1  A    between atoms: C_2  and  N_1 
REMARK    2  A    between atoms: S_3  and  N_1 
REMARK    3  A    between atoms: S_4  and  N_1 
REMARK    4  A    between atoms: C_9  and  S_3 
REMARK    5  A    between atoms: C_10  and  S_4 
REMARK    6  A    between atoms: C_31  and  C_7 
REMARK    7  A    between atoms: C_11  and  C_15 
REMARK    8  A    between atoms: C_12  and  C_16 
REMARK    9  A    between atoms: C_13  and  C_17 
REMARK   10  A    between atoms: C_14  and  C_18 
ROOT
ATOM      1  C   UNL d   1       0.307  -0.939   0.762  0.00  0.00     0.091 C 
ATOM      2  C   UNL d   1      -0.215  -0.898   2.042  0.00  0.00     0.114 C 
ATOM      3  C   UNL d   1      -0.075  -2.156   0.098  0.00  0.00     0.049 C 
ATOM      4  C   UNL d   1      -0.911  -2.965   0.854  0.00  0.00    -0.006 C 
ATOM      5  S   UNL d   1      -1.053  -2.326   2.445  0.00  0.00    -0.081 SA
ATOM      6  C   UNL d   1      -0.098   0.182   2.962  0.00  0.00     0.109 C 
ATOM      7  N   UNL d   1       0.037   1.079   3.685  0.00  0.00    -0.191 NA
ENDROOT
BRANCH   1   8
ATOM      8  N   UNL d   1       1.048   0.089   0.120  0.00  0.00    -0.155 N 
BRANCH   8   9
ATOM      9  S   UNL d   1       0.221   1.359  -0.593  0.00  0.00     0.278 S 
ATOM     10  O   UNL d   1      -1.203   1.098  -0.524  0.00  0.00    -0.199 OA
ATOM     11  O   UNL d   1       0.759   2.595  -0.060  0.00  0.00    -0.199 OA
BRANCH   9  12
ATOM     12  C   UNL d   1       0.619   1.316  -2.334  0.00  0.00     0.082 A 
ATOM     13  C   UNL d   1       0.429   0.143  -3.073  0.00  0.00     0.041 A 
ATOM     14  C   UNL d   1       0.698   0.128  -4.453  0.00  0.00     0.050 A 
ATOM     15  C   UNL d   1       1.125   1.313  -5.077  0.00  0.00     0.032 A 
ATOM     16  C   UNL d   1       1.284   2.506  -4.348  0.00  0.00     0.050 A 
ATOM     17  C   UNL d   1       1.043   2.492  -2.965  0.00  0.00     0.041 A 
BRANCH  14  18
ATOM     18  C   UNL d   1       0.504  -1.128  -5.276  0.00  0.00     0.417 C 
ATOM     19  F   UNL d   1       0.104  -2.198  -4.534  0.00  0.00    -0.166 F 
ATOM     20  F   UNL d   1      -0.438  -0.969  -6.244  0.00  0.00    -0.166 F 
ATOM     21  F   UNL d   1       1.641  -1.516  -5.914  0.00  0.00    -0.166 F 
ENDBRANCH  14  18
BRANCH  16  22
ATOM     22  C   UNL d   1       1.664   3.783  -5.064  0.00  0.00     0.417 C 
ATOM     23  F   UNL d   1       1.750   4.861  -4.237  0.00  0.00    -0.166 F 
ATOM     24  F   UNL d   1       2.866   3.691  -5.692  0.00  0.00    -0.166 F 
ATOM     25  F   UNL d   1       0.760   4.118  -6.024  0.00  0.00    -0.166 F 
ENDBRANCH  16  22
ENDBRANCH   9  12
ENDBRANCH   8   9
BRANCH   8  26
ATOM     26  S   UNL d   1       2.721   0.006   0.047  0.00  0.00     0.278 S 
ATOM     27  O   UNL d   1       3.167  -1.133   0.828  0.00  0.00    -0.199 OA
ATOM     28  O   UNL d   1       3.126   0.119  -1.339  0.00  0.00    -0.199 OA
BRANCH  26  29
ATOM     29  C   UNL d   1       3.364   1.439   0.908  0.00  0.00     0.082 A 
ATOM     30  C   UNL d   1       3.225   1.524   2.298  0.00  0.00     0.041 A 
ATOM     31  C   UNL d   1       3.851   2.555   3.018  0.00  0.00     0.050 A 
ATOM     32  C   UNL d   1       4.649   3.481   2.322  0.00  0.00     0.032 A 
ATOM     33  C   UNL d   1       4.831   3.384   0.931  0.00  0.00     0.050 A 
ATOM     34  C   UNL d   1       4.168   2.365   0.225  0.00  0.00     0.041 A 
BRANCH  31  35
ATOM     35  C   UNL d   1       3.737   2.646   4.526  0.00  0.00     0.417 C 
ATOM     36  F   UNL d   1       2.978   1.661   5.075  0.00  0.00    -0.166 F 
ATOM     37  F   UNL d   1       4.955   2.554   5.130  0.00  0.00    -0.166 F 
ATOM     38  F   UNL d   1       3.203   3.825   4.941  0.00  0.00    -0.166 F 
ENDBRANCH  31  35
BRANCH  33  39
ATOM     39  C   UNL d   1       5.790   4.331   0.240  0.00  0.00     0.417 C 
ATOM     40  F   UNL d   1       5.913   4.098  -1.095  0.00  0.00    -0.166 F 
ATOM     41  F   UNL d   1       5.423   5.634   0.367  0.00  0.00    -0.166 F 
ATOM     42  F   UNL d   1       7.049   4.244   0.752  0.00  0.00    -0.166 F 
ENDBRANCH  33  39
ENDBRANCH  26  29
ENDBRANCH   8  26
ENDBRANCH   1   8
BRANCH   4  43
ATOM     43  C   UNL d   1      -1.668  -4.245   0.462  0.00  0.00    -0.018 C 
ATOM     44  C   UNL d   1      -1.546  -4.522  -1.052  0.00  0.00     0.020 C 
ATOM     45  C   UNL d   1      -1.111  -5.466   1.217  0.00  0.00     0.020 C 
ATOM     46  C   UNL d   1      -3.174  -4.095   0.778  0.00  0.00     0.020 C 
ENDBRANCH   4  43
TORSDOF 10
