REMARK  3 active torsions:
REMARK  status: ('A' for Active; 'I' for Inactive)
REMARK    1  A    between atoms: C_7  and  C_1 
REMARK    2  A    between atoms: C_9  and  N_13 
REMARK    3  A    between atoms: N_13  and  N_10 
ROOT
ATOM      1  C   UNL d   1       2.093  -1.596  -0.039  0.00  0.00     0.139 C 
ATOM      2  N   UNL d   1       1.999  -2.884  -0.118  0.00  0.00    -0.309 N 
ATOM      3  HN  UNL d   1       1.095  -3.353  -0.172  1.00  0.00     0.186 HD
ENDROOT
BRANCH   2   4
ATOM      4  N   UNL d   1       3.169  -3.582  -0.125  0.00  0.00    -0.299 N 
ATOM      5  H   UNL d   1       3.923  -3.279   0.496  0.00  0.00     0.187 HD
BRANCH   4   6
ATOM      6  C   UNL d   1       3.034  -4.996  -0.142  0.00  0.00     0.069 A 
ATOM      7  C   UNL d   1       4.049  -5.835   0.353  0.00  0.00     0.063 A 
ATOM      8  C   UNL d   1       3.921  -7.228   0.307  0.00  0.00     0.050 A 
ATOM      9 CL   UNL d   1       5.476  -5.167   1.068  0.00  0.00    -0.082 Cl
ATOM     10  C   UNL d   1       2.781  -7.795  -0.256  0.00  0.00     0.035 A 
ATOM     11  C   UNL d   1       1.777  -6.989  -0.781  0.00  0.00     0.026 A 
ATOM     12 CL   UNL d   1       2.612  -9.506  -0.309  0.00  0.00    -0.084 Cl
ATOM     13  C   UNL d   1       1.910  -5.600  -0.732  0.00  0.00     0.034 A 
ENDBRANCH   4   6
ENDBRANCH   2   4
BRANCH   1  14
ATOM     14  C   UNL d   1       0.882  -0.792  -0.004  0.00  0.00     0.083 A 
ATOM     15  N   UNL d   1       0.983   0.554   0.007  0.00  0.00    -0.297 N 
ATOM     16  N   UNL d   1      -0.293   0.984   0.026  0.00  0.00    -0.306 N 
ATOM     17  HN  UNL d   1       1.833   1.118   0.003  1.00  0.00     0.187 HD
ATOM     18  C   UNL d   1      -0.588   2.397   0.031  0.00  0.00     0.177 C 
ATOM     19  C   UNL d   1      -1.211  -0.020   0.041  0.00  0.00     0.131 A 
ATOM     20  C   UNL d   1      -0.481  -1.179   0.025  0.00  0.00     0.057 A 
ATOM     21 BR   UNL d   1      -1.206  -2.905   0.049  0.00  0.00    -0.047 Br
ENDBRANCH   1  14
TORSDOF 3
