REMARK  5 active torsions:
REMARK  status: ('A' for Active; 'I' for Inactive)
REMARK    1  A    between atoms: C_4  and  C_1 
REMARK    2  A    between atoms: O_14  and  C_3 
REMARK    3  A    between atoms: C_11  and  N_6 
REMARK    4  A    between atoms: O_10  and  C_13 
REMARK    5  A    between atoms: C_16  and  O_10 
ROOT
ATOM      1  C   UNL d   1       0.465   5.658   0.175  0.00  0.00     0.032 A 
ATOM      2  C   UNL d   1      -0.031   8.427   0.234  0.00  0.00     0.076 A 
ATOM      3  C   UNL d   1      -0.441   6.203   1.094  0.00  0.00     0.032 A 
ATOM      4  C   UNL d   1       1.158   6.525  -0.675  0.00  0.00     0.032 A 
ATOM      5  C   UNL d   1       0.917   7.902  -0.645  0.00  0.00     0.039 A 
ATOM      6  C   UNL d   1      -0.684   7.579   1.131  0.00  0.00     0.039 A 
ENDROOT
BRANCH   1   7
ATOM      7  N   UNL d   1       0.769   4.286   0.137  0.00  0.00    -0.365 N 
ATOM      8  C   UNL d   1      -0.210   3.437   0.187  0.00  0.00     0.102 C 
ATOM      9  HN  UNL d   1       1.736   3.966   0.072  1.00  0.00     0.165 HD
BRANCH   8  10
ATOM     10  C   UNL d   1       0.031   1.980   0.219  0.00  0.00     0.016 A 
ATOM     11  C   UNL d   1      -1.025   1.099   0.481  0.00  0.00     0.099 A 
ATOM     12  C   UNL d   1      -0.781  -0.277   0.540  0.00  0.00     0.069 A 
ATOM     13 CL   UNL d   1      -2.071  -1.374   0.881  0.00  0.00    -0.081 Cl
ATOM     14  C   UNL d   1       0.502  -0.780   0.337  0.00  0.00     0.050 A 
ATOM     15  C   UNL d   1       1.548   0.105   0.075  0.00  0.00     0.036 A 
ATOM     16  C   UNL d   1       1.323   1.479   0.017  0.00  0.00     0.039 A 
ATOM     17 CL   UNL d   1       3.136  -0.512  -0.174  0.00  0.00    -0.084 Cl
BRANCH  11  18
ATOM     18  O   UNL d   1      -2.287   1.594   0.692  0.00  0.00    -0.358 OA
ATOM     19  H   UNL d   1      -2.878   0.837   0.870  0.00  0.00     0.217 HD
ENDBRANCH  11  18
ENDBRANCH   8  10
ENDBRANCH   1   7
BRANCH   2  20
ATOM     20  O   UNL d   1      -0.209   9.791   0.209  0.00  0.00    -0.311 OA
BRANCH  20  21
ATOM     21  C   UNL d   1      -1.476  10.299   0.399  0.00  0.00     0.076 A 
ATOM     22  C   UNL d   1      -1.565  11.506   1.094  0.00  0.00     0.037 A 
ATOM     23  C   UNL d   1      -2.810  12.093   1.322  0.00  0.00     0.003 A 
ATOM     24  C   UNL d   1      -3.969  11.476   0.849  0.00  0.00     0.000 A 
ATOM     25  C   UNL d   1      -3.880  10.287   0.127  0.00  0.00     0.003 A 
ATOM     26  C   UNL d   1      -2.633   9.707  -0.116  0.00  0.00     0.037 A 
ENDBRANCH  20  21
ENDBRANCH   2  20
TORSDOF 5
