REMARK  5 active torsions:
REMARK  status: ('A' for Active; 'I' for Inactive)
REMARK    1  A    between atoms: N_3  and  C_1 
REMARK    2  A    between atoms: N_4  and  C_1 
REMARK    3  A    between atoms: N_2  and  C_6 
REMARK    4  A    between atoms: C_5  and  N_3 
REMARK    5  A    between atoms: C_7  and  N_4 
ROOT
ATOM      1  N   UNL d   1       0.491  -0.920   0.927  0.00  0.00    -0.331 N 
ATOM      2  H   UNL d   1       1.137  -0.394   0.349  0.00  0.00     0.168 HD
ENDROOT
BRANCH   1   3
ATOM      3  C   UNL d   1      -0.821  -0.807   0.515  0.00  0.00     0.176 C 
ATOM      4  S   UNL d   1      -2.168  -0.643   1.490  0.00  0.00    -0.041 SA
BRANCH   3   5
ATOM      5  N   UNL d   1      -0.971  -0.674  -0.846  0.00  0.00    -0.332 N 
ATOM      6  H   UNL d   1      -1.810  -0.180  -1.148  0.00  0.00     0.168 HD
BRANCH   5   7
ATOM      7  C   UNL d   1      -0.226  -1.305  -1.870  0.00  0.00     0.056 A 
ATOM      8  C   UNL d   1      -0.311  -0.831  -3.188  0.00  0.00     0.060 A 
ATOM      9 CL   UNL d   1      -1.236   0.578  -3.574  0.00  0.00    -0.082 Cl
ATOM     10  C   UNL d   1       0.382  -1.472  -4.219  0.00  0.00     0.026 A 
ATOM     11  C   UNL d   1       1.138  -2.613  -3.950  0.00  0.00     0.002 A 
ATOM     12  C   UNL d   1       1.202  -3.110  -2.651  0.00  0.00     0.002 A 
ATOM     13  C   UNL d   1       0.527  -2.459  -1.617  0.00  0.00     0.031 A 
ENDBRANCH   5   7
ENDBRANCH   3   5
ENDBRANCH   1   3
BRANCH   1  14
ATOM     14  C   UNL d   1       0.998  -1.416   2.150  0.00  0.00     0.061 A 
ATOM     15  C   UNL d   1       2.188  -0.918   2.725  0.00  0.00     0.065 A 
ATOM     16  C   UNL d   1       2.769  -1.602   3.811  0.00  0.00     0.032 A 
ATOM     17  C   UNL d   1       2.177  -2.756   4.325  0.00  0.00     0.002 A 
ATOM     18  C   UNL d   1       1.008  -3.248   3.758  0.00  0.00     0.002 A 
ATOM     19  C   UNL d   1       0.425  -2.584   2.679  0.00  0.00     0.032 A 
BRANCH  15  20
ATOM     20  N   UNL d   1       2.809   0.291   2.290  0.00  0.00    -0.331 N 
ATOM     21  C   UNL d   1       2.183   1.403   1.753  0.00  0.00     0.097 A 
ATOM     22  C   UNL d   1       3.131   2.343   1.416  0.00  0.00     0.019 A 
ATOM     23  C   UNL d   1       4.385   1.823   1.798  0.00  0.00     0.019 A 
ATOM     24  C   UNL d   1       4.159   0.587   2.364  0.00  0.00     0.097 A 
ENDBRANCH  15  20
ENDBRANCH   1  14
TORSDOF 5
