REMARK  4 active torsions:
REMARK  status: ('A' for Active; 'I' for Inactive)
REMARK    1  A    between atoms: C_8  and  N_1 
REMARK    2  A    between atoms: C_7  and  C_2 
REMARK    3  A    between atoms: N_12  and  C_9 
REMARK    4  A    between atoms: C_13  and  N_12 
ROOT
ATOM      1  N   UNL d   1       3.746   0.663   0.050  0.00  0.00    -0.225 N 
ATOM      2  C   UNL d   1       3.640  -0.725  -0.051  0.00  0.00     0.139 C 
ATOM      3  N   UNL d   1       5.717  -0.157  -0.119  0.00  0.00    -0.007 NA
ATOM      4  N   UNL d   1       5.051   0.987  -0.125  0.00  0.00     0.001 NA
ATOM      5  N   UNL d   1       4.865  -1.223  -0.061  0.00  0.00    -0.270 N 
ATOM      6  HN  UNL d   1       5.123  -2.209  -0.030  1.00  0.00     0.185 HD
ENDROOT
BRANCH   2   7
ATOM      7  C   UNL d   1       2.394  -1.372  -0.241  0.00  0.00     0.068 C 
ATOM      8  C   UNL d   1       2.166  -2.648   0.094  0.00  0.00     0.092 C 
BRANCH   8   9
ATOM      9  N   UNL d   1       3.006  -3.575   0.654  0.00  0.00    -0.366 N 
ATOM     10  H   UNL d   1       3.983  -3.295   0.731  0.00  0.00     0.165 HD
BRANCH   9  11
ATOM     11  C   UNL d   1       2.699  -4.892   1.038  0.00  0.00     0.032 A 
ATOM     12  C   UNL d   1       3.739  -5.824   1.174  0.00  0.00     0.031 A 
ATOM     13  C   UNL d   1       3.475  -7.164   1.483  0.00  0.00     0.026 A 
ATOM     14  C   UNL d   1       2.162  -7.587   1.660  0.00  0.00     0.034 A 
ATOM     15  C   UNL d   1       1.115  -6.682   1.540  0.00  0.00     0.026 A 
ATOM     16 CL   UNL d   1       1.829  -9.236   2.021  0.00  0.00    -0.084 Cl
ATOM     17  C   UNL d   1       1.385  -5.345   1.229  0.00  0.00     0.031 A 
ENDBRANCH   9  11
ENDBRANCH   8   9
ENDBRANCH   2   7
BRANCH   1  18
ATOM     18  C   UNL d   1       2.782   1.670   0.337  0.00  0.00     0.056 A 
ATOM     19  C   UNL d   1       1.594   1.370   1.022  0.00  0.00     0.034 A 
ATOM     20  C   UNL d   1       0.676   2.384   1.313  0.00  0.00     0.044 A 
ATOM     21  C   UNL d   1       0.946   3.690   0.926  0.00  0.00     0.116 A 
ATOM     22  C   UNL d   1       2.124   4.008   0.262  0.00  0.00     0.044 A 
ATOM     23  F   UNL d   1       0.065   4.657   1.210  0.00  0.00    -0.206 F 
ATOM     24  C   UNL d   1       3.052   3.002  -0.024  0.00  0.00     0.034 A 
ENDBRANCH   1  18
TORSDOF 4
