REMARK  3 active torsions:
REMARK  status: ('A' for Active; 'I' for Inactive)
REMARK    1  A    between atoms: C_2  and  C_1 
REMARK       I    between atoms: N_3  and  C_2 
REMARK       I    between atoms: C_4  and  N_3 
REMARK       I    between atoms: N_10  and  C_4 
REMARK    2  A    between atoms: S_14  and  C_7 
REMARK    3  A    between atoms: S_15  and  C_8 
ROOT
ATOM      1  C   UNL d   1      -2.491  -1.685   0.070  0.00  0.00     0.264 C 
ATOM      2  N   UNL d   1      -3.806  -1.416  -0.251  0.00  0.00    -0.275 N 
ATOM      3  C   UNL d   1      -4.201  -0.133  -0.539  0.00  0.00     0.325 C 
ATOM      4  N   UNL d   1      -5.505   0.004  -1.031  0.00  0.00    -0.332 N 
ATOM      5  O   UNL d   1      -1.513  -1.186  -0.469  0.00  0.00    -0.267 OA
ATOM      6  O   UNL d   1      -3.484   0.841  -0.332  0.00  0.00    -0.247 OA
ATOM      7  S   UNL d   1      -8.473   0.590  -2.078  0.00  0.00    -0.166 SA
ATOM      8  C   UNL d   1      -6.043   1.376  -1.020  0.00  0.00     0.137 C 
ATOM      9  C   UNL d   1      -6.474  -1.100  -1.131  0.00  0.00     0.137 C 
ATOM     10  C   UNL d   1      -7.042   1.703  -2.127  0.00  0.00     0.093 C 
ATOM     11  C   UNL d   1      -7.533  -0.953  -2.228  0.00  0.00     0.093 C 
ATOM     12  H   UNL d   1      -4.504  -1.983   0.197  0.00  0.00     0.173 HD
ENDROOT
BRANCH   1  13
ATOM     13  C   UNL d   1      -2.325  -2.760   1.034  0.00  0.00     0.091 A 
ATOM     14  C   UNL d   1      -1.891  -2.564   2.334  0.00  0.00     0.076 A 
ATOM     15  S   UNL d   1      -1.741  -4.090   3.095  0.00  0.00    -0.006 SA
ATOM     16  N   UNL d   1      -2.283  -4.982   1.812  0.00  0.00    -0.319 N 
ATOM     17  C   UNL d   1      -2.533  -4.160   0.799  0.00  0.00     0.093 A 
ATOM     18  HN  UNL d   1      -2.404  -5.995   1.801  1.00  0.00     0.175 HD
BRANCH  14  19
ATOM     19  S   UNL d   1      -1.615  -1.062   3.196  0.00  0.00    -0.125 SA
ATOM     20  C   UNL d   1       0.068  -0.658   2.676  0.00  0.00     0.096 C 
ENDBRANCH  14  19
BRANCH  17  21
ATOM     21  S   UNL d   1      -3.100  -4.801  -0.745  0.00  0.00    -0.115 SA
ATOM     22  C   UNL d   1      -3.298  -6.564  -0.398  0.00  0.00     0.097 C 
ENDBRANCH  17  21
ENDBRANCH   1  13
TORSDOF 3
