REMARK  7 active torsions:
REMARK  status: ('A' for Active; 'I' for Inactive)
REMARK    1  A    between atoms: N_3  and  C_1 
REMARK    2  A    between atoms: C_9  and  C_2 
REMARK    3  A    between atoms: C_4  and  N_3 
REMARK    4  A    between atoms: C_5  and  C_10 
REMARK    5  A    between atoms: O_20  and  C_9 
REMARK    6  A    between atoms: C_15  and  N_11 
REMARK    7  A    between atoms: C_24  and  O_20 
ROOT
ATOM      1  N   UNL d   1       1.493  -1.695  -0.371  0.00  0.00    -0.317 N 
ATOM      2  H   UNL d   1       1.013  -2.590  -0.290  0.00  0.00     0.170 HD
ENDROOT
BRANCH   1   3
ATOM      3  C   UNL d   1       0.733  -0.579  -0.705  0.00  0.00     0.140 C 
ATOM      4  C   UNL d   1      -0.538  -0.540  -1.246  0.00  0.00     0.101 C 
ATOM      5  C   UNL d   1      -0.922   0.816  -1.107  0.00  0.00     0.128 C 
ATOM      6  N   UNL d   1       0.057   1.585  -0.629  0.00  0.00    -0.309 N 
ATOM      7  N   UNL d   1       1.080   0.732  -0.489  0.00  0.00    -0.285 N 
ATOM      8  HN  UNL d   1       0.032   2.583  -0.420  1.00  0.00     0.186 HD
ATOM      9  H   UNL d   1       1.974   1.098  -0.173  0.00  0.00     0.188 HD
BRANCH   4  10
ATOM     10  C   UNL d   1      -1.323  -1.625  -1.820  0.00  0.00     0.298 C 
ATOM     11  O   UNL d   1      -1.004  -2.795  -1.692  0.00  0.00    -0.259 OA
BRANCH  10  12
ATOM     12  O   UNL d   1      -2.401  -1.165  -2.519  0.00  0.00    -0.318 OA
BRANCH  12  13
ATOM     13  C   UNL d   1      -3.333  -2.119  -3.070  0.00  0.00     0.174 C 
ATOM     14  C   UNL d   1      -3.180  -2.238  -4.579  0.00  0.00     0.034 C 
ENDBRANCH  12  13
ENDBRANCH  10  12
ENDBRANCH   4  10
ENDBRANCH   1   3
BRANCH   1  15
ATOM     15  C   UNL d   1       2.905  -1.659  -0.116  0.00  0.00     0.177 C 
ATOM     16  N   UNL d   1       3.286  -2.665   0.725  0.00  0.00    -0.333 N 
ATOM     17  H   UNL d   1       4.253  -2.963   0.618  0.00  0.00     0.168 HD
ATOM     18  S   UNL d   1       4.033  -0.686  -0.859  0.00  0.00    -0.040 SA
BRANCH  16  19
ATOM     19  C   UNL d   1       2.781  -2.881   2.030  0.00  0.00     0.035 A 
ATOM     20  C   UNL d   1       2.044  -1.919   2.736  0.00  0.00     0.045 A 
ATOM     21  C   UNL d   1       1.653  -2.155   4.069  0.00  0.00     0.050 A 
ATOM     22  C   UNL d   1       1.933  -3.400   4.651  0.00  0.00     0.016 A 
ATOM     23  C   UNL d   1       2.680  -4.348   3.957  0.00  0.00     0.003 A 
ATOM     24  C   UNL d   1       3.135  -4.073   2.666  0.00  0.00     0.029 A 
BRANCH  21  25
ATOM     25  C   UNL d   1       0.964  -1.088   4.890  0.00  0.00     0.417 C 
ATOM     26  F   UNL d   1       1.145   0.164   4.386  0.00  0.00    -0.166 F 
ATOM     27  F   UNL d   1      -0.380  -1.276   4.963  0.00  0.00    -0.166 F 
ATOM     28  F   UNL d   1       1.413  -1.041   6.174  0.00  0.00    -0.166 F 
ENDBRANCH  21  25
ENDBRANCH  16  19
ENDBRANCH   1  15
TORSDOF 7
