REMARK  6 active torsions:
REMARK  status: ('A' for Active; 'I' for Inactive)
REMARK    1  A    between atoms: C_2  and  C_1 
REMARK       I    between atoms: N_8  and  C_2 
REMARK    2  A    between atoms: O_6  and  C_3 
REMARK    3  A    between atoms: N_4  and  N_8 
REMARK    4  A    between atoms: C_12  and  O_6 
REMARK    5  A    between atoms: C_7  and  C_11 
REMARK    6  A    between atoms: O_13  and  C_10 
ROOT
ATOM      1  C   UNL d   1       2.848   0.017  -0.722  0.00  0.00     0.272 C 
ATOM      2  N   UNL d   1       3.666   0.820   0.068  0.00  0.00    -0.266 N 
ATOM      3  O   UNL d   1       3.217  -0.637  -1.695  0.00  0.00    -0.266 OA
ATOM      4  H   UNL d   1       3.297   1.285   0.892  0.00  0.00     0.190 HD
ENDROOT
BRANCH   1   5
ATOM      5  C   UNL d   1       1.421   0.005  -0.324  0.00  0.00     0.067 A 
ATOM      6  C   UNL d   1       0.693  -1.173  -0.103  0.00  0.00     0.091 A 
ATOM      7  C   UNL d   1      -0.690  -1.082   0.121  0.00  0.00     0.038 A 
ATOM      8  C   UNL d   1      -1.334   0.155   0.162  0.00  0.00     0.003 A 
ATOM      9  C   UNL d   1      -0.601   1.324  -0.021  0.00  0.00     0.001 A 
ATOM     10  C   UNL d   1       0.769   1.252  -0.267  0.00  0.00     0.020 A 
BRANCH   6  11
ATOM     11  O   UNL d   1       1.140  -2.469  -0.192  0.00  0.00    -0.310 OA
BRANCH  11  12
ATOM     12  C   UNL d   1       2.338  -2.869   0.346  0.00  0.00     0.076 A 
ATOM     13  C   UNL d   1       2.978  -2.282   1.438  0.00  0.00     0.037 A 
ATOM     14  C   UNL d   1       4.232  -2.751   1.841  0.00  0.00     0.003 A 
ATOM     15  C   UNL d   1       4.816  -3.842   1.197  0.00  0.00     0.000 A 
ATOM     16  C   UNL d   1       4.140  -4.482   0.162  0.00  0.00     0.003 A 
ATOM     17  C   UNL d   1       2.903  -3.996  -0.260  0.00  0.00     0.037 A 
ENDBRANCH  11  12
ENDBRANCH   6  11
ENDBRANCH   1   5
BRANCH   2  18
ATOM     18  N   UNL d   1       5.006   0.776  -0.137  0.00  0.00    -0.308 N 
ATOM     19  C   UNL d   1       5.758   1.429   0.691  0.00  0.00     0.121 C 
ATOM     20  HN  UNL d   1       5.406   0.249  -0.913  1.00  0.00     0.186 HD
BRANCH  19  21
ATOM     21  C   UNL d   1       7.229   1.325   0.590  0.00  0.00     0.014 A 
ATOM     22  C   UNL d   1       7.850   0.605  -0.439  0.00  0.00     0.077 A 
ATOM     23  C   UNL d   1       9.235   0.458  -0.458  0.00  0.00     0.037 A 
ATOM     24  C   UNL d   1      10.010   1.025   0.553  0.00  0.00     0.003 A 
ATOM     25  C   UNL d   1       9.400   1.758   1.572  0.00  0.00     0.001 A 
ATOM     26  C   UNL d   1       8.011   1.915   1.592  0.00  0.00     0.015 A 
BRANCH  22  27
ATOM     27  O   UNL d   1       7.165   0.003  -1.459  0.00  0.00    -0.360 OA
ATOM     28  H   UNL d   1       6.199   0.089  -1.285  0.00  0.00     0.217 HD
ENDBRANCH  22  27
ENDBRANCH  19  21
ENDBRANCH   2  18
TORSDOF 6
