REMARK  4 active torsions:
REMARK  status: ('A' for Active; 'I' for Inactive)
REMARK    1  A    between atoms: C_7  and  N_1 
REMARK    2  A    between atoms: C_6  and  C_4 
REMARK    3  A    between atoms: C_14  and  C_6 
REMARK    4  A    between atoms: C_15  and  C_7 
ROOT
ATOM      1  N   UNL d   1       0.152  -1.088  -0.111  0.00  0.00    -0.294 N 
ATOM      2  C   UNL d   1       0.921   0.041  -0.286  0.00  0.00     0.149 A 
ATOM      3  C   UNL d   1      -1.207  -0.892   0.076  0.00  0.00     0.266 A 
ATOM      4  C   UNL d   1      -1.539   0.559   0.000  0.00  0.00     0.076 A 
ATOM      5  S   UNL d   1      -0.093   1.476  -0.190  0.00  0.00    -0.055 SA
ATOM      6  S   UNL d   1       2.567   0.152  -0.540  0.00  0.00    -0.052 SA
ATOM      7  O   UNL d   1      -2.026  -1.769   0.301  0.00  0.00    -0.266 OA
ENDROOT
BRANCH   1   8
ATOM      8  C   UNL d   1       0.667  -2.456  -0.071  0.00  0.00     0.172 C 
BRANCH   8   9
ATOM      9  C   UNL d   1       0.540  -3.158  -1.403  0.00  0.00    -0.037 A 
ATOM     10  C   UNL d   1       1.592  -3.166  -2.323  0.00  0.00     0.026 A 
ATOM     11  C   UNL d   1       1.406  -3.800  -3.542  0.00  0.00     0.088 A 
ATOM     12  N   UNL d   1       0.262  -4.419  -3.902  0.00  0.00    -0.375 N 
ATOM     13  C   UNL d   1      -0.741  -4.408  -3.000  0.00  0.00     0.088 A 
ATOM     14  HN  UNL d   1       0.160  -4.872  -4.810  1.00  0.00     0.164 HD
ATOM     15  C   UNL d   1      -0.651  -3.803  -1.757  0.00  0.00     0.026 A 
ENDBRANCH   8   9
ENDBRANCH   1   8
BRANCH   4  16
ATOM     16  C   UNL d   1      -2.753   1.124   0.041  0.00  0.00     0.037 C 
BRANCH  16  17
ATOM     17  C   UNL d   1      -4.025   0.405   0.107  0.00  0.00    -0.019 A 
ATOM     18  C   UNL d   1      -4.607   0.039   1.317  0.00  0.00     0.099 A 
ATOM     19  N   UNL d   1      -5.799  -0.597   1.425  0.00  0.00    -0.374 N 
ATOM     20  C   UNL d   1      -6.429  -0.899   0.270  0.00  0.00     0.087 A 
ATOM     21  HN  UNL d   1      -6.199  -0.835   2.333  1.00  0.00     0.164 HD
ATOM     22  C   UNL d   1      -5.929  -0.588  -0.985  0.00  0.00     0.018 A 
ATOM     23  C   UNL d   1      -4.708   0.077  -1.064  0.00  0.00     0.014 A 
ENDBRANCH  16  17
ENDBRANCH   4  16
TORSDOF 4
