REMARK  5 active torsions:
REMARK  status: ('A' for Active; 'I' for Inactive)
REMARK    1  A    between atoms: C_10  and  C_3 
REMARK    2  A    between atoms: C_9  and  C_6 
REMARK    3  A    between atoms: C_7  and  O_12 
REMARK    4  A    between atoms: C_18  and  C_11 
REMARK    5  A    between atoms: O_12  and  C_19 
ROOT
ATOM      1  N   UNL d   1       1.263   0.164   0.117  0.00  0.00    -0.319 N 
ATOM      2  HN  UNL d   1       2.274   0.298   0.153  1.00  0.00     0.169 HD
ATOM      3  C   UNL d   1       0.282   1.129   0.097  0.00  0.00     0.138 A 
ATOM      4  N   UNL d   1      -0.960   0.631   0.046  0.00  0.00    -0.242 N 
ATOM      5  HN  UNL d   1      -1.843   1.141   0.020  1.00  0.00     0.196 HD
ATOM      6  C   UNL d   1       0.594  -0.976   0.078  0.00  0.00     0.171 A 
ATOM      7  O   UNL d   1      -0.765  -0.741   0.036  0.00  0.00    -0.218 OA
ENDROOT
BRANCH   6   8
ATOM      8  C   UNL d   1       1.119  -2.296   0.059  0.00  0.00     0.059 C 
ATOM      9  C   UNL d   1       2.435  -2.538   0.048  0.00  0.00     0.016 C 
BRANCH   9  10
ATOM     10  C   UNL d   1       3.016  -3.887  -0.011  0.00  0.00    -0.036 A 
ATOM     11  C   UNL d   1       2.369  -4.950  -0.656  0.00  0.00     0.014 A 
ATOM     12  C   UNL d   1       2.966  -6.215  -0.741  0.00  0.00     0.038 A 
ATOM     13  C   UNL d   1       4.242  -6.420  -0.226  0.00  0.00     0.078 A 
ATOM     14  C   UNL d   1       4.880  -5.373   0.443  0.00  0.00     0.038 A 
ATOM     15  C   UNL d   1       4.280  -4.114   0.543  0.00  0.00     0.014 A 
BRANCH  13  16
ATOM     16  O   UNL d   1       4.956  -7.576  -0.282  0.00  0.00    -0.255 OA
BRANCH  16  17
ATOM     17  C   UNL d   1       4.718  -8.495  -1.341  0.00  0.00     0.530 C 
ATOM     18  F   UNL d   1       4.056  -7.963  -2.390  0.00  0.00    -0.144 F 
ATOM     19  F   UNL d   1       5.912  -8.940  -1.794  0.00  0.00    -0.144 F 
ATOM     20  F   UNL d   1       4.023  -9.552  -0.874  0.00  0.00    -0.144 F 
ENDBRANCH  16  17
ENDBRANCH  13  16
ENDBRANCH   9  10
ENDBRANCH   6   8
BRANCH   3  21
ATOM     21  C   UNL d   1       0.587   2.555   0.133  0.00  0.00     0.010 A 
ATOM     22  C   UNL d   1       1.920   2.992   0.188  0.00  0.00     0.017 A 
ATOM     23  C   UNL d   1       2.221   4.356   0.231  0.00  0.00     0.025 A 
ATOM     24  C   UNL d   1       1.190   5.293   0.220  0.00  0.00     0.034 A 
ATOM     25  C   UNL d   1      -0.138   4.879   0.164  0.00  0.00     0.025 A 
ATOM     26 CL   UNL d   1       1.559   6.973   0.278  0.00  0.00    -0.084 Cl
ATOM     27  C   UNL d   1      -0.439   3.514   0.120  0.00  0.00     0.017 A 
ENDBRANCH   3  21
TORSDOF 5
