REMARK  2 active torsions:
REMARK  status: ('A' for Active; 'I' for Inactive)
REMARK    1  A    between atoms: O_9  and  C_1 
REMARK    2  A    between atoms: C_10  and  O_9 
ROOT
ATOM      1  C   UNL d   1      -0.683   1.675  -0.079  0.00  0.00     0.090 A 
ATOM      2  N   UNL d   1      -1.055  -1.082  -0.040  0.00  0.00    -0.359 N 
ATOM      3  HN  UNL d   1      -1.198  -2.090   0.009  1.00  0.00     0.166 HD
ATOM      4  C   UNL d   1       0.438   0.821  -0.020  0.00  0.00     0.025 A 
ATOM      5  C   UNL d   1       0.188  -0.565  -0.006  0.00  0.00     0.045 A 
ATOM      6  C   UNL d   1      -1.962   1.135  -0.204  0.00  0.00     0.062 A 
ATOM      7  C   UNL d   1      -2.108  -0.241  -0.141  0.00  0.00     0.008 A 
ATOM      8  C   UNL d   1       1.774   1.284   0.020  0.00  0.00     0.016 A 
ATOM      9  C   UNL d   1       1.267  -1.435   0.043  0.00  0.00     0.030 A 
ATOM     10  C   UNL d   1      -3.477  -0.850  -0.134  0.00  0.00     0.068 C 
ATOM     11  C   UNL d   1       2.841   0.387   0.059  0.00  0.00     0.001 A 
ATOM     12  C   UNL d   1       2.587  -0.978   0.071  0.00  0.00     0.002 A 
ENDROOT
BRANCH   1  13
ATOM     13  O   UNL d   1      -0.449   3.038  -0.074  0.00  0.00    -0.310 OA
BRANCH  13  14
ATOM     14  C   UNL d   1      -1.353   3.893   0.517  0.00  0.00     0.077 A 
ATOM     15  C   UNL d   1      -2.130   3.577   1.632  0.00  0.00     0.045 A 
ATOM     16  C   UNL d   1      -3.077   4.489   2.126  0.00  0.00    -0.037 A 
ATOM     17  C   UNL d   1      -3.978   4.055   3.251  0.00  0.00     0.050 C 
ATOM     18  C   UNL d   1      -3.168   5.770   1.545  0.00  0.00     0.046 A 
ATOM     19  C   UNL d   1      -2.330   6.129   0.472  0.00  0.00    -0.037 A 
ATOM     20 CL   UNL d   1      -4.328   6.899   2.170  0.00  0.00    -0.083 Cl
ATOM     21  C   UNL d   1      -1.433   5.171  -0.035  0.00  0.00     0.045 A 
ATOM     22  C   UNL d   1      -2.322   7.487  -0.176  0.00  0.00     0.050 C 
ENDBRANCH  13  14
ENDBRANCH   1  13
TORSDOF 2
