REMARK  6 active torsions:
REMARK  status: ('A' for Active; 'I' for Inactive)
REMARK    1  A    between atoms: N_6  and  C_1 
REMARK    2  A    between atoms: C_9  and  N_2 
REMARK       I    between atoms: C_8  and  N_6 
REMARK    3  A    between atoms: C_17  and  C_7 
REMARK       I    between atoms: N_11  and  C_8 
REMARK    4  A    between atoms: C_10  and  O_19 
REMARK    5  A    between atoms: C_15  and  N_11 
REMARK    6  A    between atoms: O_19  and  C_29 
ROOT
ATOM      1  N   UNL d   1       1.322  -2.985   4.867  0.00  0.00    -0.191 NA
ATOM      2  C   UNL d   1       0.278  -3.474   4.747  0.00  0.00     0.102 C 
ATOM      3  C   UNL d   1      -1.806  -3.724   3.425  0.00  0.00     0.057 A 
ATOM      4  C   UNL d   1      -1.013  -4.066   4.539  0.00  0.00     0.071 A 
ATOM      5  C   UNL d   1      -1.441  -5.070   5.422  0.00  0.00     0.025 A 
ATOM      6  C   UNL d   1      -3.041  -4.366   3.252  0.00  0.00     0.031 A 
ATOM      7  C   UNL d   1      -2.663  -5.714   5.221  0.00  0.00     0.002 A 
ATOM      8  C   UNL d   1      -3.466  -5.354   4.144  0.00  0.00     0.002 A 
ENDROOT
BRANCH   3   9
ATOM      9  N   UNL d   1      -1.349  -2.780   2.465  0.00  0.00    -0.307 N 
ATOM     10  C   UNL d   1      -1.427  -3.046   1.111  0.00  0.00     0.326 C 
ATOM     11  N   UNL d   1      -0.577  -2.314   0.330  0.00  0.00    -0.293 N 
ATOM     12  O   UNL d   1      -2.012  -4.001   0.606  0.00  0.00    -0.247 OA
ATOM     13  H   UNL d   1      -0.259  -2.813  -0.496  0.00  0.00     0.172 HD
ATOM     14  H   UNL d   1      -0.531  -2.234   2.708  0.00  0.00     0.170 HD
BRANCH  11  15
ATOM     15  C   UNL d   1      -0.103  -1.034   0.541  0.00  0.00     0.133 C 
ATOM     16  N   UNL d   1       1.154  -0.625   0.118  0.00  0.00    -0.239 N 
ATOM     17  N   UNL d   1       1.227   0.721   0.011  0.00  0.00    -0.291 N 
ATOM     18  C   UNL d   1       0.124   1.175   0.633  0.00  0.00     0.062 C 
ATOM     19  HN  UNL d   1       1.957   1.271  -0.441  1.00  0.00     0.187 HD
ATOM     20  C   UNL d   1      -0.708   0.091   1.049  0.00  0.00     0.082 C 
BRANCH  16  21
ATOM     21  C   UNL d   1       2.300  -1.448  -0.053  0.00  0.00     0.059 A 
ATOM     22  C   UNL d   1       2.409  -2.647   0.670  0.00  0.00     0.039 A 
ATOM     23  C   UNL d   1       3.538  -3.467   0.553  0.00  0.00    -0.054 A 
ATOM     24  C   UNL d   1       3.625  -4.710   1.399  0.00  0.00     0.049 C 
ATOM     25  C   UNL d   1       4.567  -3.089  -0.326  0.00  0.00    -0.056 A 
ATOM     26  C   UNL d   1       4.461  -1.875  -1.031  0.00  0.00     0.009 A 
ATOM     27  C   UNL d   1       5.787  -3.950  -0.504  0.00  0.00     0.049 C 
ATOM     28  C   UNL d   1       3.346  -1.045  -0.881  0.00  0.00     0.032 A 
ENDBRANCH  16  21
BRANCH  18  29
ATOM     29  C   UNL d   1      -0.131   2.612   0.778  0.00  0.00    -0.008 A 
ATOM     30  C   UNL d   1       0.933   3.527   0.804  0.00  0.00     0.016 A 
ATOM     31  C   UNL d   1       0.702   4.899   0.972  0.00  0.00     0.038 A 
ATOM     32  C   UNL d   1      -0.597   5.371   1.140  0.00  0.00     0.078 A 
ATOM     33  C   UNL d   1      -1.665   4.478   1.054  0.00  0.00     0.038 A 
ATOM     34  C   UNL d   1      -1.437   3.107   0.883  0.00  0.00     0.016 A 
BRANCH  32  35
ATOM     35  O   UNL d   1      -0.937   6.680   1.300  0.00  0.00    -0.255 OA
BRANCH  35  36
ATOM     36  C   UNL d   1      -0.156   7.468   2.191  0.00  0.00     0.530 C 
ATOM     37  F   UNL d   1       0.832   6.792   2.814  0.00  0.00    -0.144 F 
ATOM     38  F   UNL d   1       0.390   8.497   1.507  0.00  0.00    -0.144 F 
ATOM     39  F   UNL d   1      -0.972   7.980   3.140  0.00  0.00    -0.144 F 
ENDBRANCH  35  36
ENDBRANCH  32  35
ENDBRANCH  18  29
ENDBRANCH  11  15
ENDBRANCH   3   9
TORSDOF 6
