REMARK  3 active torsions:
REMARK  status: ('A' for Active; 'I' for Inactive)
REMARK    1  A    between atoms: C_12  and  C_3 
REMARK    2  A    between atoms: C_6  and  C_7 
REMARK    3  A    between atoms: O_15  and  C_12 
ROOT
ATOM      1  C   UNL d   1      -1.238  -0.852   0.590  0.00  0.00     0.045 A 
ATOM      2  C   UNL d   1      -1.831   0.353   1.286  0.00  0.00     0.257 A 
ATOM      3  N   UNL d   1      -0.737   1.107   1.683  0.00  0.00    -0.322 N 
ATOM      4  C   UNL d   1      -1.932  -1.867   0.051  0.00  0.00     0.030 C 
ATOM      5  C   UNL d   1       0.223  -0.688   0.623  0.00  0.00     0.006 A 
ATOM      6  C   UNL d   1       0.459   0.512   1.302  0.00  0.00     0.046 A 
ATOM      7  O   UNL d   1      -2.995   0.640   1.478  0.00  0.00    -0.267 OA
ATOM      8  C   UNL d   1       1.285  -1.430   0.138  0.00  0.00     0.015 A 
ATOM      9  C   UNL d   1       1.727   1.009   1.530  0.00  0.00     0.030 A 
ATOM     10  C   UNL d   1       2.583  -0.945   0.355  0.00  0.00     0.001 A 
ATOM     11  C   UNL d   1       2.801   0.262   1.047  0.00  0.00     0.002 A 
ATOM     12  H   UNL d   1      -0.836   1.980   2.177  0.00  0.00     0.169 HD
ENDROOT
BRANCH   4  13
ATOM     13  C   UNL d   1      -3.350  -1.961   0.038  0.00  0.00    -0.017 A 
ATOM     14  C   UNL d   1      -4.156  -1.486  -0.967  0.00  0.00     0.102 A 
ATOM     15  N   UNL d   1      -5.460  -1.625  -0.556  0.00  0.00    -0.355 N 
ATOM     16  C   UNL d   1      -6.595  -1.109  -1.294  0.00  0.00     0.156 C 
ATOM     17  C   UNL d   1      -5.512  -2.254   0.676  0.00  0.00     0.110 A 
ATOM     18  C   UNL d   1      -4.189  -2.481   1.046  0.00  0.00     0.049 A 
BRANCH  17  19
ATOM     19  C   UNL d   1      -6.723  -2.556   1.414  0.00  0.00     0.309 C 
ATOM     20  O   UNL d   1      -7.867  -2.313   1.047  0.00  0.00    -0.258 OA
BRANCH  19  21
ATOM     21  O   UNL d   1      -6.403  -3.158   2.596  0.00  0.00    -0.321 OA
ATOM     22  C   UNL d   1      -7.520  -3.477   3.422  0.00  0.00     0.213 C 
ENDBRANCH  19  21
ENDBRANCH  17  19
ENDBRANCH   4  13
TORSDOF 3
