REMARK  5 active torsions:
REMARK  status: ('A' for Active; 'I' for Inactive)
REMARK    1  A    between atoms: C_13  and  C_3 
REMARK    2  A    between atoms: C_14  and  C_4 
REMARK    3  A    between atoms: C_5  and  C_7 
REMARK    4  A    between atoms: C_15  and  O_18 
REMARK    5  A    between atoms: O_18  and  C_27 
ROOT
ATOM      1  N   UNL d   1       6.244   4.993   2.392  0.00  0.00    -0.191 NA
ATOM      2  C   UNL d   1       5.410   4.280   2.024  0.00  0.00     0.099 C 
ATOM      3  C   UNL d   1       2.300   1.711   0.689  0.00  0.00    -0.009 A 
ATOM      4  C   UNL d   1       2.504   2.961   0.086  0.00  0.00     0.015 A 
ATOM      5  C   UNL d   1       3.154   1.314   1.728  0.00  0.00     0.015 A 
ATOM      6  C   UNL d   1       4.367   3.405   1.568  0.00  0.00     0.044 A 
ATOM      7  C   UNL d   1       4.180   2.157   2.167  0.00  0.00     0.023 A 
ATOM      8  C   UNL d   1       3.529   3.804   0.523  0.00  0.00     0.023 A 
ENDROOT
BRANCH   3   9
ATOM      9  C   UNL d   1       1.225   0.830   0.254  0.00  0.00     0.050 A 
ATOM     10  N   UNL d   1       1.319  -0.546   0.384  0.00  0.00    -0.349 N 
ATOM     11  C   UNL d   1       0.236  -1.128  -0.097  0.00  0.00     0.084 A 
ATOM     12  HN  UNL d   1       2.112  -1.039   0.793  1.00  0.00     0.166 HD
ATOM     13  S   UNL d   1      -0.970  -0.042  -0.678  0.00  0.00    -0.081 SA
ATOM     14  C   UNL d   1       0.035   1.280  -0.281  0.00  0.00     0.082 A 
BRANCH  11  15
ATOM     15  C   UNL d   1      -0.003  -2.577  -0.086  0.00  0.00    -0.002 A 
ATOM     16  C   UNL d   1       0.553  -3.346   0.944  0.00  0.00     0.017 A 
ATOM     17  C   UNL d   1       0.337  -4.724   1.000  0.00  0.00     0.038 A 
ATOM     18  C   UNL d   1      -0.407  -5.368   0.004  0.00  0.00     0.077 A 
ATOM     19  C   UNL d   1      -0.974  -4.612  -1.019  0.00  0.00     0.038 A 
ATOM     20  C   UNL d   1      -0.766  -3.229  -1.069  0.00  0.00     0.017 A 
BRANCH  18  21
ATOM     21  O   UNL d   1      -0.669  -6.725  -0.017  0.00  0.00    -0.294 OA
BRANCH  21  22
ATOM     22  C   UNL d   1       0.310  -7.570   0.484  0.00  0.00     0.147 A 
ATOM     23  N   UNL d   1       1.603  -7.190   0.400  0.00  0.00    -0.346 N 
ATOM     24  C   UNL d   1       2.514  -7.939   1.046  0.00  0.00     0.106 A 
ATOM     25  HN  UNL d   1       1.879  -6.365  -0.133  1.00  0.00     0.167 HD
ATOM     26  C   UNL d   1       2.202  -9.089   1.750  0.00  0.00     0.063 A 
ATOM     27  C   UNL d   1       0.867  -9.515   1.740  0.00  0.00     0.022 A 
ATOM     28  C   UNL d   1      -0.099  -8.749   1.087  0.00  0.00     0.057 A 
BRANCH  26  29
ATOM     29  C   UNL d   1       3.275  -9.813   2.502  0.00  0.00     0.418 C 
ATOM     30  F   UNL d   1       4.496  -9.216   2.410  0.00  0.00    -0.166 F 
ATOM     31  F   UNL d   1       3.006  -9.898   3.833  0.00  0.00    -0.166 F 
ATOM     32  F   UNL d   1       3.449 -11.090   2.069  0.00  0.00    -0.166 F 
ENDBRANCH  26  29
ENDBRANCH  21  22
ENDBRANCH  18  21
ENDBRANCH  11  15
ENDBRANCH   3   9
TORSDOF 5
