REMARK  3 active torsions:
REMARK  status: ('A' for Active; 'I' for Inactive)
REMARK    1  A    between atoms: C_9  and  C_3 
REMARK    2  A    between atoms: C_10  and  C_4 
REMARK    3  A    between atoms: C_6  and  C_8 
ROOT
ATOM      1  N   UNL d   1       1.399  -0.590  -0.011  0.00  0.00    -0.349 N 
ATOM      2  HN  UNL d   1       2.283  -1.098   0.003  1.00  0.00     0.166 HD
ATOM      3  C   UNL d   1       0.206  -1.156  -0.023  0.00  0.00     0.084 A 
ATOM      4  C   UNL d   1       1.281   0.795  -0.019  0.00  0.00     0.050 A 
ATOM      5  S   UNL d   1      -1.115  -0.049   0.054  0.00  0.00    -0.081 SA
ATOM      6  C   UNL d   1      -0.017   1.260   0.043  0.00  0.00     0.082 A 
ENDROOT
BRANCH   4   7
ATOM      7  C   UNL d   1       2.451   1.667  -0.070  0.00  0.00    -0.009 A 
ATOM      8  C   UNL d   1       2.380   2.955  -0.621  0.00  0.00     0.014 A 
ATOM      9  C   UNL d   1       3.508   3.782  -0.663  0.00  0.00     0.017 A 
ATOM     10  C   UNL d   1       4.737   3.337  -0.158  0.00  0.00     0.048 A 
ATOM     11  C   UNL d   1       4.813   2.046   0.386  0.00  0.00     0.017 A 
ATOM     12  C   UNL d   1       3.683   1.219   0.424  0.00  0.00     0.014 A 
BRANCH  10  13
ATOM     13  C   UNL d   1       5.960   4.220  -0.200  0.00  0.00     0.417 C 
ATOM     14  F   UNL d   1       5.731   5.442  -0.759  0.00  0.00    -0.166 F 
ATOM     15  F   UNL d   1       6.466   4.470   1.040  0.00  0.00    -0.166 F 
ATOM     16  F   UNL d   1       6.979   3.670  -0.917  0.00  0.00    -0.166 F 
ENDBRANCH  10  13
ENDBRANCH   4   7
BRANCH   3  17
ATOM     17  C   UNL d   1      -0.035  -2.610  -0.041  0.00  0.00    -0.002 A 
ATOM     18  C   UNL d   1       0.890  -3.472   0.570  0.00  0.00     0.016 A 
ATOM     19  C   UNL d   1       0.679  -4.856   0.592  0.00  0.00     0.024 A 
ATOM     20  C   UNL d   1      -0.456  -5.394  -0.010  0.00  0.00     0.034 A 
ATOM     21  C   UNL d   1      -1.375  -4.562  -0.642  0.00  0.00     0.024 A 
ATOM     22 CL   UNL d   1      -0.725  -7.092   0.025  0.00  0.00    -0.084 Cl
ATOM     23  C   UNL d   1      -1.164  -3.179  -0.659  0.00  0.00     0.016 A 
ENDBRANCH   3  17
TORSDOF 3
