REMARK  2 active torsions:
REMARK  status: ('A' for Active; 'I' for Inactive)
REMARK    1  A    between atoms: C_2  and  S_1 
REMARK    2  A    between atoms: C_3  and  S_1 
ROOT
ATOM      1  C   UNL d   1       0.531  -0.329   1.682  0.00  0.00     0.063 A 
ATOM      2  C   UNL d   1       0.008   0.645   2.536  0.00  0.00     0.024 A 
ATOM      3  C   UNL d   1       0.589  -1.667   2.081  0.00  0.00     0.024 A 
ATOM      4  C   UNL d   1       0.148  -2.026   3.357  0.00  0.00     0.008 A 
ATOM      5  C   UNL d   1      -0.431   0.279   3.810  0.00  0.00     0.008 A 
ATOM      6  C   UNL d   1      -0.358  -1.056   4.231  0.00  0.00    -0.062 A 
ATOM      7  C   UNL d   1      -0.831  -1.433   5.606  0.00  0.00     0.048 C 
ENDROOT
BRANCH   1   8
ATOM      8  S   UNL d   1       1.050   0.120   0.037  0.00  0.00     0.196 S 
ATOM      9  O   UNL d   1       0.371   1.358  -0.298  0.00  0.00    -0.218 OA
ATOM     10  O   UNL d   1       0.885  -1.055  -0.799  0.00  0.00    -0.218 OA
BRANCH   8  11
ATOM     11  C   UNL d   1       2.739   0.469   0.255  0.00  0.00     0.104 C 
ATOM     12  C   UNL d   1       3.664  -0.493   0.140  0.00  0.00     0.024 C 
ENDBRANCH   8  11
ENDBRANCH   1   8
TORSDOF 2
