REMARK  3 active torsions:
REMARK  status: ('A' for Active; 'I' for Inactive)
REMARK    1  A    between atoms: S_9  and  C_2 
REMARK    2  A    between atoms: C_12  and  C_6 
REMARK    3  A    between atoms: C_14  and  S_9 
ROOT
ATOM      1  N   UNL d   1      -0.238  -0.786   0.007  0.00  0.00    -0.149 N 
ATOM      2  C   UNL d   1      -1.531  -1.278  -0.026  0.00  0.00     0.126 A 
ATOM      3  C   UNL d   1      -0.327   0.596   0.191  0.00  0.00     0.689 A 
ATOM      4  N   UNL d   1      -1.584   0.971   0.266  0.00  0.00    -0.188 N 
ATOM      5  HN  UNL d   1      -1.929   1.917   0.429  1.00  0.00     0.184 HD
ATOM      6  C   UNL d   1      -2.346  -0.163   0.080  0.00  0.00     0.094 A 
ATOM      7  N   UNL d   1       0.792   1.376   0.253  0.00  0.00    -0.201 N 
ATOM      8  HN  UNL d   1       0.738   2.384   0.400  1.00  0.00     0.183 HD
ATOM      9  C   UNL d   1       0.999  -1.421  -0.124  0.00  0.00     0.117 A 
ATOM     10  C   UNL d   1       2.124  -0.696  -0.085  0.00  0.00     0.036 A 
ATOM     11  C   UNL d   1       1.926   0.764   0.115  0.00  0.00     0.107 A 
ENDROOT
BRANCH   2  12
ATOM     12  S   UNL d   1      -1.849  -2.968  -0.269  0.00  0.00    -0.069 SA
BRANCH  12  13
ATOM     13  C   UNL d   1      -2.016  -3.611   1.391  0.00  0.00     0.007 A 
ATOM     14  C   UNL d   1      -2.236  -2.848   2.541  0.00  0.00     0.019 A 
ATOM     15  C   UNL d   1      -2.354  -3.464   3.795  0.00  0.00     0.008 A 
ATOM     16  C   UNL d   1      -2.266  -4.855   3.921  0.00  0.00    -0.062 A 
ATOM     17  C   UNL d   1      -2.065  -5.623   2.773  0.00  0.00     0.008 A 
ATOM     18  C   UNL d   1      -2.363  -5.501   5.271  0.00  0.00     0.048 C 
ATOM     19  C   UNL d   1      -1.945  -5.005   1.524  0.00  0.00     0.019 A 
ENDBRANCH  12  13
ENDBRANCH   2  12
BRANCH   6  20
ATOM     20  C   UNL d   1      -3.802  -0.087   0.042  0.00  0.00    -0.006 A 
ATOM     21  C   UNL d   1      -4.446   0.934   0.759  0.00  0.00     0.014 A 
ATOM     22  C   UNL d   1      -5.838   1.060   0.737  0.00  0.00     0.001 A 
ATOM     23  C   UNL d   1      -6.606   0.168  -0.005  0.00  0.00     0.000 A 
ATOM     24  C   UNL d   1      -5.982  -0.840  -0.736  0.00  0.00     0.001 A 
ATOM     25  C   UNL d   1      -4.589  -0.960  -0.721  0.00  0.00     0.014 A 
ENDBRANCH   6  20
TORSDOF 3
