REMARK  3 active torsions:
REMARK  status: ('A' for Active; 'I' for Inactive)
REMARK    1  A    between atoms: C_2  and  C_1 
REMARK    2  A    between atoms: C_4  and  C_2 
REMARK    3  A    between atoms: C_7  and  C_3 
ROOT
ATOM      1  C   UNL d   1       1.031   0.060   0.161  0.00  0.00     0.100 C 
ATOM      2  C   UNL d   1       0.303  -0.787  -0.591  0.00  0.00     0.064 C 
ATOM      3  C   UNL d   1       0.463   1.024   1.041  0.00  0.00     0.103 C 
ATOM      4  N   UNL d   1       0.019   1.787   1.799  0.00  0.00    -0.191 NA
ENDROOT
BRANCH   1   5
ATOM      5  C   UNL d   1       2.525  -0.109   0.154  0.00  0.00     0.226 C 
ATOM      6  O   UNL d   1       3.010  -1.202  -0.146  0.00  0.00    -0.284 OA
BRANCH   5   7
ATOM      7  C   UNL d   1       3.350   1.020   0.540  0.00  0.00     0.126 A 
ATOM      8  O   UNL d   1       2.881   2.292   0.355  0.00  0.00    -0.319 OA
ATOM      9  C   UNL d   1       3.822   3.147   0.824  0.00  0.00     0.142 A 
ATOM     10  C   UNL d   1       4.912   2.450   1.288  0.00  0.00     0.027 A 
ATOM     11  C   UNL d   1       4.622   1.079   1.079  0.00  0.00     0.043 A 
ENDBRANCH   5   7
ENDBRANCH   1   5
BRANCH   2  12
ATOM     12  C   UNL d   1      -1.117  -0.719  -0.664  0.00  0.00     0.076 A 
ATOM     13  O   UNL d   1      -1.827   0.455  -0.548  0.00  0.00    -0.323 OA
ATOM     14  C   UNL d   1      -3.147   0.178  -0.652  0.00  0.00     0.142 A 
ATOM     15  C   UNL d   1      -3.335  -1.164  -0.853  0.00  0.00     0.027 A 
ATOM     16  C   UNL d   1      -2.039  -1.738  -0.877  0.00  0.00     0.039 A 
ENDBRANCH   2  12
TORSDOF 3
