REMARK  1 active torsions:
REMARK  status: ('A' for Active; 'I' for Inactive)
REMARK    1  A    between atoms: C_4  and  N_1 
ROOT
ATOM      1  N   UNL d   1       0.006   0.864  -0.081  0.00  0.00    -0.251 N 
ATOM      2  C   UNL d   1      -1.118   0.107   0.162  0.00  0.00     0.231 A 
ATOM      3  C   UNL d   1       1.118   0.070  -0.241  0.00  0.00     0.231 A 
ATOM      4  C   UNL d   1      -0.764  -1.348   0.089  0.00  0.00     0.113 A 
ATOM      5  C   UNL d   1       0.733  -1.368  -0.072  0.00  0.00     0.113 A 
ATOM      6  O   UNL d   1      -2.268   0.476   0.356  0.00  0.00    -0.273 OA
ATOM      7  O   UNL d   1       2.282   0.399  -0.432  0.00  0.00    -0.273 OA
ENDROOT
BRANCH   1   8
ATOM      8  C   UNL d   1       0.012   2.290  -0.150  0.00  0.00     0.060 A 
ATOM      9  C   UNL d   1      -1.019   3.074   0.377  0.00  0.00     0.117 A 
ATOM     10  N   UNL d   1      -1.063   4.433   0.342  0.00  0.00    -0.373 N 
ATOM     11  C   UNL d   1      -0.037   5.061  -0.262  0.00  0.00     0.088 A 
ATOM     12  HN  UNL d   1      -1.838   4.953   0.755  1.00  0.00     0.164 HD
ATOM     13  C   UNL d   1       1.031   4.394  -0.827  0.00  0.00     0.019 A 
ATOM     14  C   UNL d   1       1.054   2.998  -0.764  0.00  0.00     0.033 A 
ENDBRANCH   1   8
TORSDOF 1
