REMARK  4 active torsions:
REMARK  status: ('A' for Active; 'I' for Inactive)
REMARK       I    between atoms: C_3  and  N_11 
REMARK    1  A    between atoms: C_5  and  C_3 
REMARK    2  A    between atoms: C_14  and  C_4 
REMARK    3  A    between atoms: N_11  and  C_13 
REMARK    4  A    between atoms: C_13  and  C_14 
ROOT
ATOM      1  C   UNL d   1      -0.871  -3.617   0.063  0.00  0.00     0.127 C 
ENDROOT
BRANCH   1   2
ATOM      2  N   UNL d   1       0.103  -3.632  -1.018  0.00  0.00    -0.357 N 
ATOM      3  C   UNL d   1       1.056  -4.630  -1.066  0.00  0.00     0.253 C 
ATOM      4  O   UNL d   1       1.094  -5.549  -0.254  0.00  0.00    -0.268 OA
ATOM      5  H   UNL d   1       0.312  -2.744  -1.455  0.00  0.00     0.162 HD
BRANCH   3   6
ATOM      6  C   UNL d   1       2.062  -4.569  -2.158  0.00  0.00     0.047 A 
ATOM      7  C   UNL d   1       3.128  -5.463  -2.121  0.00  0.00     0.104 A 
ATOM      8  N   UNL d   1       4.083  -5.553  -3.082  0.00  0.00    -0.374 N 
ATOM      9  C   UNL d   1       3.963  -4.718  -4.135  0.00  0.00     0.087 A 
ATOM     10  HN  UNL d   1       4.853  -6.219  -3.012  1.00  0.00     0.164 HD
ATOM     11  C   UNL d   1       2.942  -3.790  -4.265  0.00  0.00     0.018 A 
ATOM     12  C   UNL d   1       1.975  -3.715  -3.260  0.00  0.00     0.020 A 
ENDBRANCH   3   6
ENDBRANCH   1   2
BRANCH   1  13
ATOM     13  C   UNL d   1      -1.993  -2.597  -0.148  0.00  0.00     0.060 C 
BRANCH  13  14
ATOM     14  C   UNL d   1      -1.510  -1.181  -0.082  0.00  0.00    -0.029 A 
ATOM     15  C   UNL d   1      -1.317  -0.440   1.070  0.00  0.00     0.096 A 
ATOM     16  N   UNL d   1      -0.846   0.793   0.714  0.00  0.00    -0.365 N 
ATOM     17  C   UNL d   1      -0.721   0.879  -0.652  0.00  0.00     0.042 A 
ATOM     18  H   UNL d   1      -0.615   1.537   1.358  0.00  0.00     0.165 HD
ATOM     19  C   UNL d   1      -1.147  -0.339  -1.181  0.00  0.00    -0.002 A 
ATOM     20  C   UNL d   1      -0.272   1.937  -1.450  0.00  0.00     0.030 A 
ATOM     21  C   UNL d   1      -1.132  -0.505  -2.583  0.00  0.00     0.014 A 
ATOM     22  C   UNL d   1      -0.685   0.543  -3.395  0.00  0.00     0.001 A 
ATOM     23  C   UNL d   1      -0.259   1.744  -2.835  0.00  0.00     0.002 A 
ENDBRANCH  13  14
ENDBRANCH   1  13
TORSDOF 4
