REMARK  4 active torsions:
REMARK  status: ('A' for Active; 'I' for Inactive)
REMARK    1  A    between atoms: C_7  and  N_1 
REMARK    2  A    between atoms: S_6  and  C_5 
REMARK    3  A    between atoms: C_10  and  S_6 
REMARK    4  A    between atoms: C_12  and  C_10 
ROOT
ATOM      1  N   UNL d   1       0.005   0.866  -0.050  0.00  0.00    -0.251 N 
ATOM      2  C   UNL d   1      -1.112   0.071   0.008  0.00  0.00     0.232 C 
ATOM      3  C   UNL d   1       1.150   0.120   0.083  0.00  0.00     0.245 C 
ATOM      4  C   UNL d   1      -0.696  -1.374  -0.003  0.00  0.00     0.128 C 
ATOM      5  C   UNL d   1       0.820  -1.342  -0.062  0.00  0.00     0.149 C 
ATOM      6  O   UNL d   1      -2.290   0.401   0.071  0.00  0.00    -0.273 OA
ATOM      7  O   UNL d   1       2.278   0.514   0.352  0.00  0.00    -0.271 OA
ENDROOT
BRANCH   5   8
ATOM      8  S   UNL d   1       1.472  -2.004  -1.640  0.00  0.00    -0.150 SA
BRANCH   8   9
ATOM      9  C   UNL d   1       3.264  -1.734  -1.384  0.00  0.00     0.113 C 
BRANCH   9  10
ATOM     10  C   UNL d   1       4.070  -2.248  -2.552  0.00  0.00    -0.049 A 
ATOM     11  C   UNL d   1       4.369  -1.398  -3.630  0.00  0.00     0.009 A 
ATOM     12  C   UNL d   1       5.103  -1.866  -4.721  0.00  0.00     0.024 A 
ATOM     13  C   UNL d   1       5.538  -3.188  -4.744  0.00  0.00     0.034 A 
ATOM     14  C   UNL d   1       5.253  -4.044  -3.682  0.00  0.00     0.024 A 
ATOM     15 CL   UNL d   1       6.430  -3.770  -6.095  0.00  0.00    -0.084 Cl
ATOM     16  C   UNL d   1       4.519  -3.576  -2.588  0.00  0.00     0.009 A 
ENDBRANCH   9  10
ENDBRANCH   8   9
ENDBRANCH   5   8
BRANCH   1  17
ATOM     17  C   UNL d   1       0.013   2.289  -0.085  0.00  0.00     0.045 A 
ATOM     18  C   UNL d   1      -1.053   3.054   0.399  0.00  0.00     0.030 A 
ATOM     19  C   UNL d   1      -0.996   4.453   0.396  0.00  0.00     0.002 A 
ATOM     20  C   UNL d   1       0.116   5.109  -0.126  0.00  0.00     0.000 A 
ATOM     21  C   UNL d   1       1.170   4.369  -0.648  0.00  0.00     0.002 A 
ATOM     22  C   UNL d   1       1.119   2.973  -0.622  0.00  0.00     0.030 A 
ENDBRANCH   1  17
TORSDOF 4
