REMARK  6 active torsions:
REMARK  status: ('A' for Active; 'I' for Inactive)
REMARK    1  A    between atoms: O_10  and  C_1 
REMARK    2  A    between atoms: C_4  and  C_2 
REMARK    3  A    between atoms: C_3  and  C_7 
REMARK       I    between atoms: N_6  and  C_4 
REMARK       I    between atoms: C_5  and  N_8 
REMARK    4  A    between atoms: C_9  and  C_5 
REMARK    5  A    between atoms: N_8  and  N_6 
REMARK    6  A    between atoms: C_19  and  O_10 
ROOT
ATOM      1  C   UNL d   1       0.926   2.755   0.978  0.00  0.00     0.274 C 
ATOM      2  N   UNL d   1       0.290   3.795   0.332  0.00  0.00    -0.263 N 
ATOM      3  O   UNL d   1       1.665   2.929   1.948  0.00  0.00    -0.266 OA
ATOM      4  H   UNL d   1      -0.311   3.675  -0.479  0.00  0.00     0.190 HD
ENDROOT
BRANCH   1   5
ATOM      5  C   UNL d   1       0.688   1.373   0.491  0.00  0.00     0.085 A 
ATOM      6  C   UNL d   1      -0.484   0.931  -0.122  0.00  0.00     0.164 A 
ATOM      7  N   UNL d   1      -0.681  -0.362  -0.500  0.00  0.00    -0.346 N 
ATOM      8  C   UNL d   1       0.282  -1.258  -0.215  0.00  0.00     0.090 A 
ATOM      9  HN  UNL d   1      -1.534  -0.644  -0.984  1.00  0.00     0.167 HD
ATOM     10  C   UNL d   1       1.467  -0.924   0.409  0.00  0.00     0.018 A 
ATOM     11  C   UNL d   1       1.672   0.409   0.757  0.00  0.00     0.023 A 
BRANCH   6  12
ATOM     12  O   UNL d   1      -1.517   1.835  -0.347  0.00  0.00    -0.293 OA
BRANCH  12  13
ATOM     13  C   UNL d   1      -2.774   1.286  -0.491  0.00  0.00     0.077 A 
ATOM     14  C   UNL d   1      -3.385   0.593   0.559  0.00  0.00     0.037 A 
ATOM     15  C   UNL d   1      -4.641   0.017   0.371  0.00  0.00     0.003 A 
ATOM     16  C   UNL d   1      -5.296   0.157  -0.853  0.00  0.00     0.000 A 
ATOM     17  C   UNL d   1      -4.701   0.884  -1.886  0.00  0.00     0.003 A 
ATOM     18  C   UNL d   1      -3.440   1.457  -1.704  0.00  0.00     0.037 A 
ENDBRANCH  12  13
ENDBRANCH   6  12
ENDBRANCH   1   5
BRANCH   2  19
ATOM     19  N   UNL d   1       0.418   5.095   0.861  0.00  0.00    -0.263 N 
ATOM     20  C   UNL d   1       1.432   5.918   0.388  0.00  0.00     0.270 C 
ATOM     21  O   UNL d   1       2.156   5.643  -0.565  0.00  0.00    -0.266 OA
ATOM     22  H   UNL d   1       0.156   5.174   1.839  0.00  0.00     0.190 HD
BRANCH  20  23
ATOM     23  C   UNL d   1       1.602   7.226   1.103  0.00  0.00     0.034 A 
ATOM     24  C   UNL d   1       2.795   7.948   0.935  0.00  0.00     0.033 A 
ATOM     25  C   UNL d   1       2.965   9.216   1.526  0.00  0.00     0.048 A 
ATOM     26  C   UNL d   1       1.920   9.748   2.300  0.00  0.00     0.016 A 
ATOM     27  C   UNL d   1       0.735   9.035   2.474  0.00  0.00     0.002 A 
ATOM     28  C   UNL d   1       0.573   7.787   1.875  0.00  0.00     0.017 A 
BRANCH  25  29
ATOM     29  C   UNL d   1       4.224  10.024   1.328  0.00  0.00     0.417 C 
ATOM     30  F   UNL d   1       5.167   9.403   0.571  0.00  0.00    -0.166 F 
ATOM     31  F   UNL d   1       3.980  11.218   0.717  0.00  0.00    -0.166 F 
ATOM     32  F   UNL d   1       4.833  10.333   2.508  0.00  0.00    -0.166 F 
ENDBRANCH  25  29
ENDBRANCH  20  23
ENDBRANCH   2  19
TORSDOF 6
