REMARK  7 active torsions:
REMARK  status: ('A' for Active; 'I' for Inactive)
REMARK    1  A    between atoms: C_9  and  C_1 
REMARK    2  A    between atoms: C_8  and  C_2 
REMARK    3  A    between atoms: C_7  and  C_3 
REMARK    4  A    between atoms: O_18  and  C_8 
REMARK    5  A    between atoms: O_17  and  C_9 
REMARK    6  A    between atoms: O_21  and  C_11 
REMARK    7  A    between atoms: O_22  and  C_13 
ROOT
ATOM      1  C   UNL d   1       1.299  -1.008   0.106  0.00  0.00     0.052 C 
ATOM      2  C   UNL d   1      -1.269  -0.997   0.125  0.00  0.00     0.052 C 
ATOM      3  C   UNL d   1       0.016  -1.827  -0.053  0.00  0.00     0.101 C 
ATOM      4  C   UNL d   1       1.252   0.345   0.044  0.00  0.00     0.018 C 
ATOM      5  C   UNL d   1      -1.209   0.358   0.053  0.00  0.00     0.018 C 
ATOM      6  N   UNL d   1       0.021   0.976  -0.105  0.00  0.00    -0.362 N 
ATOM      7  C   UNL d   1      -2.390   1.290   0.150  0.00  0.00     0.069 C 
ATOM      8  C   UNL d   1       2.418   1.298   0.137  0.00  0.00     0.069 C 
ATOM      9  H   UNL d   1       0.034   1.995  -0.097  0.00  0.00     0.165 HD
ENDROOT
BRANCH   3  10
ATOM     10  C   UNL d   1      -0.009  -2.521  -1.424  0.00  0.00    -0.042 A 
ATOM     11  C   UNL d   1       0.002  -3.924  -1.523  0.00  0.00     0.047 A 
ATOM     12  C   UNL d   1      -0.049  -4.574  -2.772  0.00  0.00     0.102 A 
ATOM     13  C   UNL d   1      -0.104  -3.798  -3.944  0.00  0.00     0.101 A 
ATOM     14  C   UNL d   1      -0.107  -2.402  -3.842  0.00  0.00     0.040 A 
ATOM     15  C   UNL d   1      -0.059  -1.769  -2.604  0.00  0.00     0.011 A 
BRANCH  12  16
ATOM     16  O   UNL d   1      -0.053  -5.938  -2.900  0.00  0.00    -0.353 OA
ATOM     17  C   UNL d   1       0.005  -6.729  -1.721  0.00  0.00     0.210 C 
ENDBRANCH  12  16
BRANCH  13  18
ATOM     18  O   UNL d   1      -0.159  -4.207  -5.251  0.00  0.00    -0.353 OA
ATOM     19  C   UNL d   1      -0.173  -5.594  -5.542  0.00  0.00     0.210 C 
ENDBRANCH  13  18
ENDBRANCH   3  10
BRANCH   2  20
ATOM     20  C   UNL d   1      -2.489  -1.808   0.401  0.00  0.00     0.291 C 
ATOM     21  O   UNL d   1      -2.449  -2.956   0.818  0.00  0.00    -0.260 OA
BRANCH  20  22
ATOM     22  O   UNL d   1      -3.627  -1.125   0.126  0.00  0.00    -0.323 OA
ATOM     23  C   UNL d   1      -4.839  -1.818   0.425  0.00  0.00     0.213 C 
ENDBRANCH  20  22
ENDBRANCH   2  20
BRANCH   1  24
ATOM     24  C   UNL d   1       2.573  -1.753   0.292  0.00  0.00     0.291 C 
ATOM     25  O   UNL d   1       3.671  -1.371  -0.081  0.00  0.00    -0.260 OA
BRANCH  24  26
ATOM     26  O   UNL d   1       2.351  -2.909   0.975  0.00  0.00    -0.323 OA
ATOM     27  C   UNL d   1       3.542  -3.647   1.262  0.00  0.00     0.213 C 
ENDBRANCH  24  26
ENDBRANCH   1  24
TORSDOF 7
