REMARK  3 active torsions:
REMARK  status: ('A' for Active; 'I' for Inactive)
REMARK    1  A    between atoms: C_7  and  C_1 
REMARK    2  A    between atoms: O_10  and  C_2 
REMARK    3  A    between atoms: C_8  and  C_4 
ROOT
ATOM      1  C   UNL d   1       2.274  -1.203  -0.014  0.00  0.00     0.010 A 
ATOM      2  C   UNL d   1       0.866  -1.155   0.192  0.00  0.00     0.096 A 
ATOM      3  C   UNL d   1       2.982   0.018  -0.143  0.00  0.00     0.027 A 
ATOM      4  C   UNL d   1       2.366   1.272  -0.044  0.00  0.00    -0.024 A 
ATOM      5  C   UNL d   1       0.227   0.099   0.235  0.00  0.00     0.046 A 
ATOM      6  C   UNL d   1       0.977   1.284   0.116  0.00  0.00     0.034 A 
ATOM      7 BR   UNL d   1      -1.625   0.401   0.562  0.00  0.00    -0.048 Br
ENDROOT
BRANCH   1   8
ATOM      8  C   UNL d   1       3.049  -2.475  -0.083  0.00  0.00    -0.023 A 
ATOM      9  C   UNL d   1       2.627  -3.562  -0.869  0.00  0.00     0.012 A 
ATOM     10  C   UNL d   1       3.371  -4.745  -0.941  0.00  0.00     0.001 A 
ATOM     11  C   UNL d   1       4.570  -4.861  -0.243  0.00  0.00     0.000 A 
ATOM     12  C   UNL d   1       5.020  -3.798   0.532  0.00  0.00     0.001 A 
ATOM     13  C   UNL d   1       4.264  -2.623   0.616  0.00  0.00     0.012 A 
ENDBRANCH   1   8
BRANCH   2  14
ATOM     14  O   UNL d   1       0.293  -2.372   0.467  0.00  0.00    -0.354 OA
ATOM     15  C   UNL d   1      -1.034  -2.647   0.047  0.00  0.00     0.210 C 
ENDBRANCH   2  14
BRANCH   4  16
ATOM     16  C   UNL d   1       3.150   2.529  -0.043  0.00  0.00    -0.026 A 
ATOM     17  C   UNL d   1       2.700   3.677  -0.712  0.00  0.00     0.012 A 
ATOM     18  C   UNL d   1       3.416   4.879  -0.655  0.00  0.00     0.001 A 
ATOM     19  C   UNL d   1       4.602   4.953   0.070  0.00  0.00     0.000 A 
ATOM     20  C   UNL d   1       5.073   3.828   0.733  0.00  0.00     0.001 A 
ATOM     21  C   UNL d   1       4.354   2.630   0.682  0.00  0.00     0.012 A 
ENDBRANCH   4  16
TORSDOF 3
