REMARK  7 active torsions:
REMARK  status: ('A' for Active; 'I' for Inactive)
REMARK    1  A    between atoms: C_8  and  N_1 
REMARK    2  A    between atoms: C_11  and  C_5 
REMARK    3  A    between atoms: C_12  and  C_8 
REMARK    4  A    between atoms: C_9  and  C_14 
REMARK    5  A    between atoms: C_10  and  C_13 
REMARK       I    between atoms: N_20  and  C_12 
REMARK    6  A    between atoms: N_18  and  N_20 
REMARK    7  A    between atoms: C_29  and  C_28 
ROOT
ATOM      1  N   UNL d   1      -0.048  -1.226  -0.222  0.00  0.00    -0.203 N 
ATOM      2  N   UNL d   1       0.724  -0.735  -1.217  0.00  0.00    -0.268 N 
ATOM      3  HN  UNL d   1       1.053  -1.186  -2.070  1.00  0.00     0.190 HD
ATOM      4  N   UNL d   1      -0.262  -0.382   0.804  0.00  0.00    -0.002 NA
ATOM      5  C   UNL d   1       0.935   0.514  -0.765  0.00  0.00     0.144 A 
ATOM      6  N   UNL d   1       0.349   0.742   0.455  0.00  0.00    -0.266 N 
ATOM      7  HN  UNL d   1       0.378   1.610   0.991  1.00  0.00     0.186 HD
ENDROOT
BRANCH   5   8
ATOM      8  C   UNL d   1       1.715   1.508  -1.487  0.00  0.00     0.012 A 
ATOM      9  C   UNL d   1       2.203   1.199  -2.766  0.00  0.00     0.031 A 
ATOM     10  C   UNL d   1       2.950   2.120  -3.508  0.00  0.00     0.049 A 
ATOM     11  C   UNL d   1       3.218   3.376  -2.945  0.00  0.00     0.032 A 
ATOM     12  C   UNL d   1       2.740   3.715  -1.665  0.00  0.00     0.049 A 
ATOM     13  C   UNL d   1       1.989   2.770  -0.942  0.00  0.00     0.031 A 
BRANCH  10  14
ATOM     14  C   UNL d   1       3.445   1.763  -4.889  0.00  0.00     0.417 C 
ATOM     15  F   UNL d   1       3.072   0.515  -5.288  0.00  0.00    -0.166 F 
ATOM     16  F   UNL d   1       2.978   2.614  -5.844  0.00  0.00    -0.166 F 
ATOM     17  F   UNL d   1       4.802   1.794  -4.981  0.00  0.00    -0.166 F 
ENDBRANCH  10  14
BRANCH  12  18
ATOM     18  C   UNL d   1       3.037   5.085  -1.096  0.00  0.00     0.417 C 
ATOM     19  F   UNL d   1       2.506   5.293   0.139  0.00  0.00    -0.166 F 
ATOM     20  F   UNL d   1       4.373   5.315  -0.976  0.00  0.00    -0.166 F 
ATOM     21  F   UNL d   1       2.556   6.083  -1.887  0.00  0.00    -0.166 F 
ENDBRANCH  12  18
ENDBRANCH   5   8
BRANCH   1  22
ATOM     22  C   UNL d   1      -0.341  -2.642  -0.116  0.00  0.00     0.214 C 
ATOM     23  C   UNL d   1       0.910  -3.447   0.218  0.00  0.00     0.046 C 
BRANCH  22  24
ATOM     24  C   UNL d   1      -1.054  -3.166  -1.351  0.00  0.00     0.261 C 
ATOM     25  N   UNL d   1      -0.404  -3.006  -2.572  0.00  0.00    -0.269 N 
ATOM     26  H   UNL d   1       0.393  -2.375  -2.656  0.00  0.00     0.190 HD
ATOM     27  O   UNL d   1      -2.126  -3.762  -1.219  0.00  0.00    -0.269 OA
BRANCH  25  28
ATOM     28  N   UNL d   1      -1.023  -3.478  -3.696  0.00  0.00    -0.312 N 
ATOM     29  C   UNL d   1      -0.488  -3.218  -4.844  0.00  0.00     0.088 C 
ATOM     30  HN  UNL d   1      -1.883  -4.022  -3.630  1.00  0.00     0.185 HD
BRANCH  29  31
ATOM     31  C   UNL d   1      -1.167  -3.671  -6.143  0.00  0.00    -0.018 C 
ATOM     32  C   UNL d   1      -2.003  -2.503  -6.680  0.00  0.00     0.020 C 
ATOM     33  C   UNL d   1      -0.096  -4.047  -7.174  0.00  0.00     0.020 C 
ATOM     34  C   UNL d   1      -2.077  -4.884  -5.898  0.00  0.00     0.020 C 
ENDBRANCH  29  31
ENDBRANCH  25  28
ENDBRANCH  22  24
ENDBRANCH   1  22
TORSDOF 7
