REMARK  3 active torsions:
REMARK  status: ('A' for Active; 'I' for Inactive)
REMARK    1  A    between atoms: CA_4  and  C_8 
REMARK    2  A    between atoms: CA_5  and  N_10 
REMARK    3  A    between atoms: OXT_12  and  C_8 
ROOT
ATOM      1  N   UNL d   1       0.542   0.290  -0.523  0.00  0.00    -0.219 NA
ATOM      2  C   UNL d   1      -0.064  -1.059  -0.432  0.00  0.00     0.171 C 
ATOM      3  C   UNL d   1       1.543  -0.002   0.374  0.00  0.00     0.237 C 
ATOM      4  CA  UNL d   1      -0.330   1.448  -0.258  0.00  0.00     0.182 C 
ATOM      5  CA  UNL d   1       1.174  -1.508   0.396  0.00  0.00     0.331 C 
ATOM      6  S   UNL d   1      -1.667  -0.825   0.423  0.00  0.00    -0.134 SA
ATOM      7  C   UNL d   1      -1.429   0.984   0.731  0.00  0.00     0.029 C 
ATOM      8  O   UNL d   1       2.269   0.732   1.000  0.00  0.00    -0.277 OA
ATOM      9  C   UNL d   1      -2.787   1.680   0.588  0.00  0.00     0.029 C 
ATOM     10  C   UNL d   1      -0.976   1.144   2.195  0.00  0.00     0.029 C 
ENDROOT
BRANCH   4  11
ATOM     11  C   UNL d   1      -0.851   2.021  -1.585  0.00  0.00     0.160 C 
ATOM     12  O   UNL d   1      -1.559   3.013  -1.677  0.00  0.00    -0.649 OA
BRANCH  11  13
ATOM     13  OXT UNL d   1      -0.433   1.345  -2.684  0.00  0.00    -0.775 OA
ATOM     14  HXT UNL d   1       0.198   0.642  -2.431  0.00  0.00     0.167 HD
ENDBRANCH  11  13
ENDBRANCH   4  11
BRANCH   5  15
ATOM     15  N   UNL d   1       0.810  -2.061   1.717  0.00  0.00     0.093 N 
ATOM     16  H1  UNL d   1      -0.096  -1.734   2.064  0.00  0.00     0.314 HD
ATOM     17  H2  UNL d   1       1.486  -1.830   2.447  0.00  0.00     0.314 HD
ENDBRANCH   5  15
TORSDOF 3
