REMARK  5 active torsions:
REMARK  status: ('A' for Active; 'I' for Inactive)
REMARK    1  A    between atoms: C_6  and  N_1 
REMARK    2  A    between atoms: C_3  and  C_4 
REMARK    3  A    between atoms: C_5  and  C_6 
REMARK    4  A    between atoms: O_9  and  C_7 
REMARK    5  A    between atoms: O_10  and  C_8 
ROOT
ATOM      1  N   UNL d   1       0.849   0.256  -0.279  0.00  0.00    -0.388 N 
ATOM      2  HN  UNL d   1       1.273   0.086   0.633  1.00  0.00     0.159 HD
ATOM      3  C   UNL d   1       0.901   1.445  -0.788  0.00  0.00     0.014 C 
ATOM      4  C   UNL d   1       0.218   1.847  -2.079  0.00  0.00     0.068 C 
ENDROOT
BRANCH   1   5
ATOM      5  C   UNL d   1       0.194  -0.852  -0.983  0.00  0.00     0.161 C 
BRANCH   5   6
ATOM      6  C   UNL d   1       1.203  -1.890  -1.410  0.00  0.00    -0.007 A 
ATOM      7  C   UNL d   1       1.508  -3.038  -0.662  0.00  0.00     0.076 A 
ATOM      8  C   UNL d   1       2.432  -3.972  -1.150  0.00  0.00     0.037 A 
ATOM      9  C   UNL d   1       3.079  -3.764  -2.366  0.00  0.00     0.003 A 
ATOM     10  C   UNL d   1       2.799  -2.624  -3.112  0.00  0.00     0.001 A 
ATOM     11  C   UNL d   1       1.875  -1.695  -2.634  0.00  0.00     0.011 A 
BRANCH   7  12
ATOM     12  O   UNL d   1       0.864  -3.401   0.490  0.00  0.00    -0.355 OA
ATOM     13  C   UNL d   1       1.054  -2.491   1.572  0.00  0.00     0.210 C 
ENDBRANCH   7  12
ENDBRANCH   5   6
ENDBRANCH   1   5
BRANCH   3  14
ATOM     14  C   UNL d   1       1.672   2.494  -0.038  0.00  0.00     0.019 A 
ATOM     15  C   UNL d   1       1.812   2.405   1.356  0.00  0.00     0.077 A 
ATOM     16  C   UNL d   1       2.501   3.386   2.069  0.00  0.00     0.037 A 
ATOM     17  C   UNL d   1       3.083   4.454   1.394  0.00  0.00     0.003 A 
ATOM     18  C   UNL d   1       2.982   4.539   0.004  0.00  0.00     0.001 A 
ATOM     19  C   UNL d   1       2.282   3.561  -0.710  0.00  0.00     0.016 A 
BRANCH  15  20
ATOM     20  O   UNL d   1       1.296   1.368   2.086  0.00  0.00    -0.360 OA
ATOM     21  H   UNL d   1       1.037   0.681   1.431  0.00  0.00     0.217 HD
ENDBRANCH  15  20
ENDBRANCH   3  14
TORSDOF 5
