REMARK  2 active torsions:
REMARK  status: ('A' for Active; 'I' for Inactive)
REMARK    1  A    between atoms: C_8  and  N_2 
REMARK    2  A    between atoms: C_7  and  N_3 
ROOT
ATOM      1  C   UNL d   1       1.106  -0.003  -0.000  0.00  0.00     0.195 A 
ATOM      2  N   UNL d   1       0.332   1.202   0.001  0.00  0.00    -0.258 N 
ATOM      3  N   UNL d   1       0.334  -1.208   0.004  0.00  0.00    -0.258 N 
ATOM      4  C   UNL d   1      -1.060   1.263   0.059  0.00  0.00     0.239 A 
ATOM      5  C   UNL d   1      -1.060  -1.272  -0.049  0.00  0.00     0.239 A 
ATOM      6  C   UNL d   1      -1.809  -0.004  -0.017  0.00  0.00     0.207 A 
ATOM      7  S   UNL d   1       2.817  -0.002  -0.005  0.00  0.00    -0.039 SA
ATOM      8  O   UNL d   1      -1.721  -2.315  -0.089  0.00  0.00    -0.272 OA
ATOM      9  O   UNL d   1      -1.726   2.304   0.126  0.00  0.00    -0.272 OA
ENDROOT
BRANCH   2  10
ATOM     10  C   UNL d   1       0.974   2.497  -0.069  0.00  0.00     0.045 A 
ATOM     11  C   UNL d   1       1.778   2.847  -1.165  0.00  0.00     0.037 A 
ATOM     12  C   UNL d   1       2.340   4.131  -1.278  0.00  0.00    -0.054 A 
ATOM     13  C   UNL d   1       3.220   4.445  -2.457  0.00  0.00     0.049 C 
ATOM     14  C   UNL d   1       2.056   5.099  -0.296  0.00  0.00    -0.056 A 
ATOM     15  C   UNL d   1       1.255   4.748   0.799  0.00  0.00     0.009 A 
ATOM     16  C   UNL d   1       2.570   6.508  -0.408  0.00  0.00     0.049 C 
ATOM     17  C   UNL d   1       0.723   3.463   0.912  0.00  0.00     0.031 A 
ENDBRANCH   2  10
BRANCH   3  18
ATOM     18  C   UNL d   1       0.977  -2.502   0.080  0.00  0.00     0.045 A 
ATOM     19  C   UNL d   1       1.782  -2.847   1.176  0.00  0.00     0.037 A 
ATOM     20  C   UNL d   1       2.345  -4.130   1.293  0.00  0.00    -0.054 A 
ATOM     21  C   UNL d   1       3.227  -4.439   2.472  0.00  0.00     0.049 C 
ATOM     22  C   UNL d   1       2.062  -5.101   0.314  0.00  0.00    -0.056 A 
ATOM     23  C   UNL d   1       1.260  -4.755  -0.782  0.00  0.00     0.009 A 
ATOM     24  C   UNL d   1       2.580  -6.508   0.428  0.00  0.00     0.049 C 
ATOM     25  C   UNL d   1       0.725  -3.471  -0.898  0.00  0.00     0.031 A 
ENDBRANCH   3  18
TORSDOF 2
