REMARK  5 active torsions:
REMARK  status: ('A' for Active; 'I' for Inactive)
REMARK    1  A    between atoms: N_2  and  S_1 
REMARK    2  A    between atoms: C_4  and  S_1 
REMARK    3  A    between atoms: C_3  and  N_2 
REMARK    4  A    between atoms: C_5  and  C_7 
REMARK    5  A    between atoms: C_6  and  C_8 
ROOT
ATOM      1  C   UNL d   1       0.626   1.391   0.819  0.00  0.00     0.076 A 
ATOM      2  C   UNL d   1      -0.181   2.482   2.834  0.00  0.00     0.050 A 
ATOM      3  C   UNL d   1       0.699   3.815   0.972  0.00  0.00     0.050 A 
ATOM      4  C   UNL d   1       0.070   1.311   2.101  0.00  0.00     0.041 A 
ATOM      5  C   UNL d   1       0.943   2.633   0.255  0.00  0.00     0.041 A 
ATOM      6  C   UNL d   1       0.133   3.726   2.257  0.00  0.00     0.032 A 
ENDROOT
BRANCH   1   7
ATOM      7  S   UNL d   1       1.097  -0.107  -0.024  0.00  0.00     0.246 S 
ATOM      8  O   UNL d   1       2.095   0.244  -1.011  0.00  0.00    -0.206 OA
ATOM      9  O   UNL d   1       1.342  -1.112   0.986  0.00  0.00    -0.206 OA
BRANCH   7  10
ATOM     10  N   UNL d   1      -0.333  -0.492  -0.885  0.00  0.00    -0.180 NA
ATOM     11  H   UNL d   1      -0.247  -0.003  -1.784  0.00  0.00     0.146 HD
BRANCH  10  12
ATOM     12  C   UNL d   1      -0.481  -1.912  -1.133  0.00  0.00     0.046 A 
ATOM     13  C   UNL d   1      -1.100  -2.696  -0.156  0.00  0.00     0.051 A 
ATOM     14  C   UNL d   1      -1.198  -4.082  -0.325  0.00  0.00     0.057 A 
ATOM     15 CL   UNL d   1      -1.998  -4.986   0.911  0.00  0.00    -0.082 Cl
ATOM     16  C   UNL d   1      -0.661  -4.689  -1.468  0.00  0.00     0.057 A 
ATOM     17  C   UNL d   1      -0.030  -3.909  -2.441  0.00  0.00     0.051 A 
ATOM     18 CL   UNL d   1      -0.749  -6.392  -1.739  0.00  0.00    -0.082 Cl
ATOM     19  C   UNL d   1       0.059  -2.526  -2.275  0.00  0.00     0.057 A 
ATOM     20 CL   UNL d   1       0.804  -1.594  -3.520  0.00  0.00    -0.082 Cl
ENDBRANCH  10  12
ENDBRANCH   7  10
ENDBRANCH   1   7
BRANCH   2  21
ATOM     21  C   UNL d   1      -0.741   2.425   4.238  0.00  0.00     0.417 C 
ATOM     22  F   UNL d   1      -0.969   1.160   4.682  0.00  0.00    -0.166 F 
ATOM     23  F   UNL d   1       0.091   3.001   5.148  0.00  0.00    -0.166 F 
ATOM     24  F   UNL d   1      -1.928   3.082   4.346  0.00  0.00    -0.166 F 
ENDBRANCH   2  21
BRANCH   3  25
ATOM     25  C   UNL d   1       1.070   5.169   0.407  0.00  0.00     0.417 C 
ATOM     26  F   UNL d   1       1.617   5.107  -0.837  0.00  0.00    -0.166 F 
ATOM     27  F   UNL d   1      -0.004   5.997   0.305  0.00  0.00    -0.166 F 
ATOM     28  F   UNL d   1       1.976   5.821   1.186  0.00  0.00    -0.166 F 
ENDBRANCH   3  25
TORSDOF 5
