REMARK  9 active torsions:
REMARK  status: ('A' for Active; 'I' for Inactive)
REMARK    1  A    between atoms: C_2  and  S_1 
REMARK    2  A    between atoms: N_11  and  S_1 
REMARK    3  A    between atoms: C_3  and  C_7 
REMARK    4  A    between atoms: C_4  and  C_8 
REMARK    5  A    between atoms: C_5  and  C_9 
REMARK    6  A    between atoms: C_6  and  C_10 
REMARK    7  A    between atoms: C_34  and  N_11 
REMARK    8  A    between atoms: C_16  and  O_21 
REMARK    9  A    between atoms: O_21  and  C_35 
ROOT
ATOM      1  C   UNL d   1       0.782   0.491   2.651  0.00  0.00     0.042 A 
ATOM      2  C   UNL d   1       1.722  -0.065   5.217  0.00  0.00     0.076 A 
ATOM      3  C   UNL d   1       2.119   0.138   2.837  0.00  0.00     0.033 A 
ATOM      4  C   UNL d   1      -0.080   0.587   3.742  0.00  0.00     0.033 A 
ATOM      5  C   UNL d   1       2.595  -0.124   4.127  0.00  0.00     0.039 A 
ATOM      6  C   UNL d   1       0.392   0.306   5.025  0.00  0.00     0.039 A 
ENDROOT
BRANCH   1   7
ATOM      7  N   UNL d   1       0.291   0.860   1.377  0.00  0.00    -0.281 N 
ATOM      8  H   UNL d   1       0.496   1.786   1.007  0.00  0.00     0.179 HD
BRANCH   7   9
ATOM      9  S   UNL d   1      -0.109  -0.300   0.241  0.00  0.00     0.263 S 
ATOM     10  O   UNL d   1      -0.490   0.417  -0.957  0.00  0.00    -0.200 OA
ATOM     11  O   UNL d   1       0.914  -1.323   0.210  0.00  0.00    -0.200 OA
BRANCH   9  12
ATOM     12  C   UNL d   1      -1.596  -1.010   0.919  0.00  0.00     0.081 A 
ATOM     13  C   UNL d   1      -2.821  -0.354   0.746  0.00  0.00     0.041 A 
ATOM     14  C   UNL d   1      -4.000  -0.929   1.244  0.00  0.00     0.050 A 
ATOM     15  C   UNL d   1      -3.925  -2.168   1.908  0.00  0.00     0.032 A 
ATOM     16  C   UNL d   1      -2.699  -2.841   2.067  0.00  0.00     0.050 A 
ATOM     17  C   UNL d   1      -1.531  -2.247   1.569  0.00  0.00     0.041 A 
BRANCH  14  18
ATOM     18  C   UNL d   1      -5.342  -0.252   1.071  0.00  0.00     0.417 C 
ATOM     19  F   UNL d   1      -5.281   0.903   0.355  0.00  0.00    -0.166 F 
ATOM     20  F   UNL d   1      -6.245  -1.046   0.433  0.00  0.00    -0.166 F 
ATOM     21  F   UNL d   1      -5.909   0.077   2.265  0.00  0.00    -0.166 F 
ENDBRANCH  14  18
BRANCH  16  22
ATOM     22  C   UNL d   1      -2.660  -4.190   2.749  0.00  0.00     0.417 C 
ATOM     23  F   UNL d   1      -1.419  -4.746   2.784  0.00  0.00    -0.166 F 
ATOM     24  F   UNL d   1      -3.080  -4.126   4.042  0.00  0.00    -0.166 F 
ATOM     25  F   UNL d   1      -3.465  -5.100   2.136  0.00  0.00    -0.166 F 
ENDBRANCH  16  22
ENDBRANCH   9  12
ENDBRANCH   7   9
ENDBRANCH   1   7
BRANCH   2  26
ATOM     26  O   UNL d   1       2.116  -0.248   6.524  0.00  0.00    -0.311 OA
BRANCH  26  27
ATOM     27  C   UNL d   1       2.941  -1.298   6.854  0.00  0.00     0.077 A 
ATOM     28  C   UNL d   1       3.703  -1.123   8.012  0.00  0.00     0.053 A 
ATOM     29  C   UNL d   1       4.554  -2.138   8.474  0.00  0.00     0.051 A 
ATOM     30  C   UNL d   1       4.639  -3.335   7.744  0.00  0.00     0.032 A 
ATOM     31  C   UNL d   1       3.858  -3.534   6.594  0.00  0.00     0.051 A 
ATOM     32  C   UNL d   1       2.991  -2.514   6.170  0.00  0.00     0.053 A 
BRANCH  29  33
ATOM     33  C   UNL d   1       5.346  -1.937   9.746  0.00  0.00     0.417 C 
ATOM     34  F   UNL d   1       6.118  -3.008  10.079  0.00  0.00    -0.166 F 
ATOM     35  F   UNL d   1       6.192  -0.873   9.672  0.00  0.00    -0.166 F 
ATOM     36  F   UNL d   1       4.544  -1.706  10.822  0.00  0.00    -0.166 F 
ENDBRANCH  29  33
BRANCH  31  37
ATOM     37  C   UNL d   1       3.929  -4.822   5.808  0.00  0.00     0.417 C 
ATOM     38  F   UNL d   1       4.767  -5.745   6.353  0.00  0.00    -0.166 F 
ATOM     39  F   UNL d   1       2.717  -5.432   5.698  0.00  0.00    -0.166 F 
ATOM     40  F   UNL d   1       4.368  -4.623   4.535  0.00  0.00    -0.166 F 
ENDBRANCH  31  37
ENDBRANCH  26  27
ENDBRANCH   2  26
TORSDOF 9
