REMARK  6 active torsions:
REMARK  status: ('A' for Active; 'I' for Inactive)
REMARK    1  A    between atoms: N_2  and  S_1 
REMARK    2  A    between atoms: C_6  and  S_1 
REMARK    3  A    between atoms: N_7  and  N_2 
REMARK    4  A    between atoms: C_3  and  C_9 
REMARK    5  A    between atoms: C_4  and  C_8 
REMARK    6  A    between atoms: C_5  and  N_7 
ROOT
ATOM      1  S   UNL d   1       0.976   0.008  -0.140  0.00  0.00     0.276 S 
ATOM      2  O   UNL d   1       0.394  -0.602  -1.320  0.00  0.00    -0.199 OA
ATOM      3  O   UNL d   1       2.409   0.071   0.040  0.00  0.00    -0.199 OA
ENDROOT
BRANCH   1   4
ATOM      4  N   UNL d   1       0.308  -0.758   1.214  0.00  0.00    -0.222 N 
ATOM      5  H   UNL d   1      -0.494  -0.330   1.681  0.00  0.00     0.200 HD
BRANCH   4   6
ATOM      6  N   UNL d   1       0.678  -2.139   1.506  0.00  0.00    -0.288 N 
ATOM      7  H   UNL d   1       1.540  -2.468   1.057  0.00  0.00     0.188 HD
BRANCH   6   8
ATOM      8  C   UNL d   1       0.212  -2.924   2.580  0.00  0.00     0.092 A 
ATOM      9  C   UNL d   1      -1.027  -2.736   3.222  0.00  0.00     0.063 A 
ATOM     10 CL   UNL d   1      -2.198  -1.578   2.677  0.00  0.00    -0.082 Cl
ATOM     11  C   UNL d   1      -1.391  -3.512   4.334  0.00  0.00     0.026 A 
ATOM     12  C   UNL d   1      -0.526  -4.481   4.835  0.00  0.00     0.003 A 
ATOM     13  C   UNL d   1       0.699  -4.695   4.214  0.00  0.00     0.026 A 
ATOM     14  C   UNL d   1       1.055  -3.934   3.096  0.00  0.00     0.063 A 
ATOM     15 CL   UNL d   1       2.599  -4.248   2.371  0.00  0.00    -0.082 Cl
ENDBRANCH   6   8
ENDBRANCH   4   6
ENDBRANCH   1   4
BRANCH   1  16
ATOM     16  C   UNL d   1       0.323   1.658  -0.010  0.00  0.00     0.082 A 
ATOM     17  C   UNL d   1       1.061   2.648   0.644  0.00  0.00     0.041 A 
ATOM     18  C   UNL d   1       0.582   3.969   0.693  0.00  0.00     0.050 A 
ATOM     19  C   UNL d   1      -0.640   4.275   0.063  0.00  0.00     0.032 A 
ATOM     20  C   UNL d   1      -1.359   3.295  -0.645  0.00  0.00     0.050 A 
ATOM     21  C   UNL d   1      -0.876   1.977  -0.658  0.00  0.00     0.041 A 
BRANCH  18  22
ATOM     22  C   UNL d   1       1.381   5.059   1.373  0.00  0.00     0.417 C 
ATOM     23  F   UNL d   1       2.567   4.630   1.883  0.00  0.00    -0.166 F 
ATOM     24  F   UNL d   1       1.684   6.080   0.524  0.00  0.00    -0.166 F 
ATOM     25  F   UNL d   1       0.706   5.623   2.412  0.00  0.00    -0.166 F 
ENDBRANCH  18  22
BRANCH  20  26
ATOM     26  C   UNL d   1      -2.599   3.666  -1.431  0.00  0.00     0.417 C 
ATOM     27  F   UNL d   1      -3.127   2.621  -2.124  0.00  0.00    -0.166 F 
ATOM     28  F   UNL d   1      -3.599   4.139  -0.640  0.00  0.00    -0.166 F 
ATOM     29  F   UNL d   1      -2.352   4.639  -2.351  0.00  0.00    -0.166 F 
ENDBRANCH  20  26
ENDBRANCH   1  16
TORSDOF 6
