REMARK  2 active torsions:
REMARK  status: ('A' for Active; 'I' for Inactive)
REMARK    1  A    between atoms: C_2  and  N_1 
REMARK    2  A    between atoms: C_6  and  C_3 
ROOT
ATOM      1  C   UNL d   1       0.245   0.889   0.917  0.00  0.00     0.168 C 
ATOM      2  C   UNL d   1      -0.764  -0.065   1.584  0.00  0.00     0.051 C 
ATOM      3  C   UNL d   1      -2.055   0.062  -0.629  0.00  0.00    -0.030 C 
ATOM      4  C   UNL d   1      -1.515   1.260  -0.897  0.00  0.00    -0.028 C 
ATOM      5  C   UNL d   1      -0.382   1.850  -0.102  0.00  0.00     0.059 C 
ATOM      6  C   UNL d   1      -1.631  -0.799   0.530  0.00  0.00     0.038 C 
ENDROOT
BRANCH   2   7
ATOM      7  C   UNL d   1      -1.581   0.680   2.647  0.00  0.00    -0.051 A 
ATOM      8  C   UNL d   1      -2.819   1.279   2.368  0.00  0.00     0.008 A 
ATOM      9  C   UNL d   1      -3.532   1.964   3.353  0.00  0.00     0.007 A 
ATOM     10  C   UNL d   1      -3.028   2.070   4.649  0.00  0.00    -0.062 A 
ATOM     11  C   UNL d   1      -1.793   1.482   4.942  0.00  0.00     0.007 A 
ATOM     12  C   UNL d   1      -3.814   2.810   5.689  0.00  0.00     0.048 C 
ATOM     13  C   UNL d   1      -1.077   0.798   3.952  0.00  0.00     0.008 A 
ENDBRANCH   2   7
BRANCH   1  14
ATOM     14  N   UNL d   1       1.322   0.049   0.250  0.00  0.00    -0.150 N 
ATOM     15  O   UNL d   1       1.176  -0.304  -0.926  0.00  0.00    -0.536 OA
ATOM     16  O   UNL d   1       2.295  -0.247   0.962  0.00  0.00    -0.536 OA
ENDBRANCH   1  14
TORSDOF 2
