REMARK  7 active torsions:
REMARK  status: ('A' for Active; 'I' for Inactive)
REMARK    1  A    between atoms: C_8  and  N_1 
REMARK    2  A    between atoms: N_3  and  C_10 
REMARK    3  A    between atoms: C_20  and  N_6 
REMARK    4  A    between atoms: C_25  and  C_8 
REMARK    5  A    between atoms: O_29  and  C_14 
REMARK    6  A    between atoms: O_30  and  C_15 
REMARK    7  A    between atoms: C_24  and  C_25 
ROOT
ATOM      1  N   UNL d   1      -0.368   0.938  -0.028  0.00  0.00    -0.297 N 
ATOM      2  C   UNL d   1       0.919   0.476   0.098  0.00  0.00     0.150 C 
ATOM      3  C   UNL d   1      -1.370  -0.014  -0.061  0.00  0.00     0.235 C 
ATOM      4  S   UNL d   1       0.905  -1.237   0.451  0.00  0.00    -0.084 SA
ATOM      5  N   UNL d   1       1.940   1.256  -0.038  0.00  0.00    -0.337 N 
ATOM      6  HN  UNL d   1       1.771   2.253  -0.176  1.00  0.00     0.168 HD
ATOM      7  C   UNL d   1      -0.820  -1.416  -0.007  0.00  0.00     0.185 C 
ATOM      8  O   UNL d   1      -2.565   0.216  -0.165  0.00  0.00    -0.272 OA
ENDROOT
BRANCH   1   9
ATOM      9  C   UNL d   1      -0.697   2.364  -0.048  0.00  0.00     0.138 C 
BRANCH   9  10
ATOM     10  C   UNL d   1      -0.205   3.112  -1.293  0.00  0.00     0.059 C 
BRANCH  10  11
ATOM     11  C   UNL d   1      -0.597   4.574  -1.269  0.00  0.00    -0.054 A 
ATOM     12  C   UNL d   1       0.226   5.525  -0.639  0.00  0.00     0.046 A 
ATOM     13  C   UNL d   1      -0.121   6.888  -0.601  0.00  0.00     0.102 A 
ATOM     14  C   UNL d   1      -1.310   7.300  -1.227  0.00  0.00     0.101 A 
ATOM     15  C   UNL d   1      -2.142   6.347  -1.829  0.00  0.00     0.040 A 
ATOM     16  C   UNL d   1      -1.792   4.997  -1.853  0.00  0.00     0.010 A 
BRANCH  13  17
ATOM     17  O   UNL d   1       0.622   7.840   0.044  0.00  0.00    -0.353 OA
ATOM     18  C   UNL d   1       1.806   7.429   0.714  0.00  0.00     0.210 C 
ENDBRANCH  13  17
BRANCH  14  19
ATOM     19  O   UNL d   1      -1.821   8.573  -1.282  0.00  0.00    -0.353 OA
ATOM     20  C   UNL d   1      -0.882   9.639  -1.353  0.00  0.00     0.210 C 
ENDBRANCH  14  19
ENDBRANCH  10  11
ENDBRANCH   9  10
ENDBRANCH   1   9
BRANCH   5  21
ATOM     21  C   UNL d   1       3.270   0.804  -0.006  0.00  0.00     0.034 A 
ATOM     22  C   UNL d   1       3.710  -0.314  -0.712  0.00  0.00     0.032 A 
ATOM     23  C   UNL d   1       5.031  -0.752  -0.613  0.00  0.00     0.031 A 
ATOM     24  C   UNL d   1       5.994  -0.042   0.111  0.00  0.00     0.030 A 
ATOM     25  C   UNL d   1       5.566   1.135   0.737  0.00  0.00     0.031 A 
ATOM     26  C   UNL d   1       4.225   1.552   0.681  0.00  0.00     0.032 A 
BRANCH  24  27
ATOM     27  N   UNL d   1       7.286  -0.509   0.184  0.00  0.00    -0.376 N 
ATOM     28  C   UNL d   1       8.186  -0.250   1.313  0.00  0.00     0.154 C 
ATOM     29  C   UNL d   1       9.411   0.559   0.842  0.00  0.00     0.136 C 
ATOM     30  C   UNL d   1      10.433   0.681   1.963  0.00  0.00     0.041 C 
ATOM     31  O   UNL d   1      10.067  -0.082  -0.273  0.00  0.00    -0.378 OA
ATOM     32  C   UNL d   1       9.159  -0.225  -1.383  0.00  0.00     0.136 C 
ATOM     33  C   UNL d   1       7.945  -1.094  -0.994  0.00  0.00     0.154 C 
ATOM     34  C   UNL d   1       9.922  -0.857  -2.538  0.00  0.00     0.041 C 
ENDBRANCH  24  27
ENDBRANCH   5  21
TORSDOF 7
