REMARK  2 active torsions:
REMARK  status: ('A' for Active; 'I' for Inactive)
REMARK    1  A    between atoms: C_5  and  N_1 
REMARK    2  A    between atoms: C_10  and  C_4 
REMARK       I    between atoms: N_17  and  C_10 
ROOT
ATOM      1  N   UNL d   1       0.873  -0.708  -0.099  0.00  0.00    -0.257 N 
ATOM      2  N   UNL d   1       0.927   0.650  -0.160  0.00  0.00    -0.288 N 
ATOM      3  HN  UNL d   1       1.764   1.228  -0.225  1.00  0.00     0.188 HD
ATOM      4  C   UNL d   1      -0.348   1.074  -0.117  0.00  0.00     0.118 A 
ATOM      5  C   UNL d   1      -0.446  -1.146   0.012  0.00  0.00     0.033 A 
ATOM      6  C   UNL d   1      -1.236  -0.016  -0.054  0.00  0.00     0.063 A 
ATOM      7  C   UNL d   1      -0.912  -2.535   0.269  0.00  0.00     0.070 C 
ENDROOT
BRANCH   1   8
ATOM      8  C   UNL d   1       2.088  -1.454  -0.111  0.00  0.00     0.100 A 
ATOM      9  C   UNL d   1       3.214  -1.005   0.618  0.00  0.00     0.066 A 
ATOM     10  C   UNL d   1       4.393  -1.766   0.652  0.00  0.00     0.050 A 
ATOM     11 CL   UNL d   1       3.254   0.419   1.609  0.00  0.00    -0.082 Cl
ATOM     12  C   UNL d   1       4.460  -2.980  -0.016  0.00  0.00     0.037 A 
ATOM     13  C   UNL d   1       3.382  -3.420  -0.770  0.00  0.00     0.050 A 
ATOM     14 CL   UNL d   1       5.893  -3.927   0.067  0.00  0.00    -0.084 Cl
ATOM     15  C   UNL d   1       2.217  -2.643  -0.855  0.00  0.00     0.066 A 
ATOM     16 CL   UNL d   1       1.095  -3.151  -2.075  0.00  0.00    -0.082 Cl
ENDBRANCH   1   8
BRANCH   4  17
ATOM     17  C   UNL d   1      -0.697   2.499  -0.089  0.00  0.00     0.267 C 
ATOM     18  O   UNL d   1      -1.854   2.918  -0.076  0.00  0.00    -0.266 OA
ATOM     19  N   UNL d   1       0.374   3.345  -0.051  0.00  0.00    -0.365 N 
ATOM     20  H   UNL d   1       1.302   2.947   0.027  0.00  0.00     0.159 HD
ATOM     21  H   UNL d   1       0.219   4.335   0.056  0.00  0.00     0.159 HD
ENDBRANCH   4  17
TORSDOF 2
