REMARK  5 active torsions:
REMARK  status: ('A' for Active; 'I' for Inactive)
REMARK    1  A    between atoms: C_2  and  C_1 
REMARK       I    between atoms: N_4  and  C_1 
REMARK    2  A    between atoms: O_8  and  C_3 
REMARK    3  A    between atoms: C_9  and  N_4 
REMARK    4  A    between atoms: C_14  and  O_8 
REMARK    5  A    between atoms: O_15  and  C_10 
ROOT
ATOM      1  C   UNL d   1      -3.116  -0.816   0.385  0.00  0.00     0.104 A 
ATOM      2  C   UNL d   1      -1.718  -0.765   0.446  0.00  0.00     0.069 A 
ATOM      3  C   UNL d   1      -1.041   0.166   1.237  0.00  0.00     0.037 A 
ATOM      4  C   UNL d   1      -3.856   0.039   1.214  0.00  0.00     0.101 A 
ATOM      5  C   UNL d   1      -3.179   0.946   2.043  0.00  0.00     0.042 A 
ATOM      6  C   UNL d   1      -1.780   1.009   2.062  0.00  0.00     0.032 A 
ENDROOT
BRANCH   3   7
ATOM      7  N   UNL d   1       0.369   0.288   1.224  0.00  0.00    -0.327 N 
ATOM      8  C   UNL d   1       1.202  -0.243   0.257  0.00  0.00     0.226 C 
ATOM      9  O   UNL d   1       0.857  -0.830  -0.765  0.00  0.00    -0.273 OA
ATOM     10  H   UNL d   1       0.783   0.893   1.918  0.00  0.00     0.169 HD
BRANCH   8  11
ATOM     11  C   UNL d   1       2.659  -0.050   0.514  0.00  0.00     0.078 A 
ATOM     12  C   UNL d   1       3.626  -0.002  -0.650  0.00  0.00     0.015 A 
ATOM     13  C   UNL d   1       3.598  -1.207   0.244  0.00  0.00     0.015 A 
ENDBRANCH   8  11
ENDBRANCH   3   7
BRANCH   1  14
ATOM     14  O   UNL d   1      -3.767  -1.678  -0.458  0.00  0.00    -0.343 OA
BRANCH  14  15
ATOM     15  C   UNL d   1      -3.115  -2.039  -1.683  0.00  0.00     0.129 C 
ATOM     16  C   UNL d   1      -2.918  -0.852  -2.628  0.00  0.00     0.032 C 
ATOM     17  C   UNL d   1      -3.069  -1.395  -4.045  0.00  0.00     0.002 C 
ATOM     18  C   UNL d   1      -3.617  -2.810  -3.918  0.00  0.00     0.002 C 
ATOM     19  C   UNL d   1      -4.038  -2.969  -2.466  0.00  0.00     0.032 C 
ENDBRANCH  14  15
ENDBRANCH   1  14
BRANCH   4  20
ATOM     20  O   UNL d   1      -5.219   0.159   1.287  0.00  0.00    -0.353 OA
ATOM     21  C   UNL d   1      -5.982  -1.009   1.015  0.00  0.00     0.210 C 
ENDBRANCH   4  20
TORSDOF 5
