REMARK  4 active torsions:
REMARK  status: ('A' for Active; 'I' for Inactive)
REMARK    1  A    between atoms: C_7  and  C_3 
REMARK    2  A    between atoms: C_9  and  C_5 
REMARK    3  A    between atoms: S_8  and  C_9 
REMARK    4  A    between atoms: C_12  and  S_8 
ROOT
ATOM      1  N   UNL d   1       1.390  -0.624  -0.023  0.00  0.00    -0.352 N 
ATOM      2  HN  UNL d   1       2.262  -1.154  -0.046  1.00  0.00     0.166 HD
ATOM      3  C   UNL d   1       0.185  -1.165  -0.006  0.00  0.00     0.084 A 
ATOM      4  S   UNL d   1      -1.108  -0.024  -0.024  0.00  0.00    -0.081 SA
ATOM      5  C   UNL d   1       1.311   0.765  -0.004  0.00  0.00     0.026 A 
ATOM      6  C   UNL d   1       0.020   1.259  -0.030  0.00  0.00     0.077 A 
ENDROOT
BRANCH   5   7
ATOM      7  C   UNL d   1       2.578   1.567  -0.010  0.00  0.00     0.137 C 
BRANCH   7   8
ATOM      8  S   UNL d   1       2.667   2.676   1.440  0.00  0.00    -0.124 SA
BRANCH   8   9
ATOM      9  C   UNL d   1       4.200   3.569   1.209  0.00  0.00     0.001 A 
ATOM     10  C   UNL d   1       5.091   3.384   0.146  0.00  0.00     0.020 A 
ATOM     11  C   UNL d   1       6.270   4.137   0.066  0.00  0.00     0.025 A 
ATOM     12  C   UNL d   1       6.566   5.079   1.047  0.00  0.00     0.034 A 
ATOM     13  C   UNL d   1       5.692   5.278   2.110  0.00  0.00     0.025 A 
ATOM     14 CL   UNL d   1       8.017   5.997   0.946  0.00  0.00    -0.084 Cl
ATOM     15  C   UNL d   1       4.516   4.526   2.187  0.00  0.00     0.020 A 
ENDBRANCH   8   9
ENDBRANCH   7   8
ENDBRANCH   5   7
BRANCH   3  16
ATOM     16  C   UNL d   1      -0.077  -2.616  -0.042  0.00  0.00    -0.002 A 
ATOM     17  C   UNL d   1      -1.239  -3.194   0.499  0.00  0.00     0.016 A 
ATOM     18  C   UNL d   1      -1.457  -4.575   0.426  0.00  0.00     0.024 A 
ATOM     19  C   UNL d   1      -0.512  -5.396  -0.185  0.00  0.00     0.034 A 
ATOM     20  C   UNL d   1       0.654  -4.849  -0.713  0.00  0.00     0.024 A 
ATOM     21 CL   UNL d   1      -0.788  -7.089  -0.287  0.00  0.00    -0.084 Cl
ATOM     22  C   UNL d   1       0.871  -3.468  -0.635  0.00  0.00     0.016 A 
ENDBRANCH   3  16
TORSDOF 4
