REMARK  7 active torsions:
REMARK  status: ('A' for Active; 'I' for Inactive)
REMARK    1  A    between atoms: N_3  and  S_1 
REMARK    2  A    between atoms: C_10  and  S_1 
REMARK    3  A    between atoms: C_2  and  N_3 
REMARK    4  A    between atoms: C_9  and  C_6 
REMARK    5  A    between atoms: C_11  and  C_9 
REMARK    6  A    between atoms: O_18  and  C_11 
REMARK    7  A    between atoms: O_22  and  C_17 
ROOT
ATOM      1  N   UNL d   1       0.498   1.545   0.735  0.00  0.00    -0.160 NA
ATOM      2  H   UNL d   1      -0.518   1.438   0.754  0.00  0.00     0.148 HD
ENDROOT
BRANCH   1   3
ATOM      3  C   UNL d   1       0.891   1.669   2.092  0.00  0.00     0.137 A 
ATOM      4  N   UNL d   1       0.021   1.399   3.031  0.00  0.00    -0.343 N 
ATOM      5  C   UNL d   1       0.611   1.573   4.284  0.00  0.00     0.033 A 
ATOM      6  HN  UNL d   1      -0.943   1.105   2.872  1.00  0.00     0.167 HD
ATOM      7  C   UNL d   1       1.908   2.071   4.241  0.00  0.00     0.005 A 
ATOM      8  S   UNL d   1       2.388   2.297   2.604  0.00  0.00    -0.062 SA
ATOM      9  C   UNL d   1       2.855   2.392   5.345  0.00  0.00     0.058 C 
BRANCH   5  10
ATOM     10  C   UNL d   1      -0.168   1.127   5.488  0.00  0.00     0.169 C 
BRANCH  10  11
ATOM     11  C   UNL d   1      -0.497   2.225   6.471  0.00  0.00     0.264 C 
ATOM     12  O   UNL d   1      -0.137   3.393   6.411  0.00  0.00    -0.265 OA
BRANCH  11  13
ATOM     13  O   UNL d   1      -1.248   1.702   7.488  0.00  0.00    -0.326 OA
ATOM     14  C   UNL d   1      -1.604   2.640   8.508  0.00  0.00     0.213 C 
ENDBRANCH  11  13
ENDBRANCH  10  11
ENDBRANCH   5  10
ENDBRANCH   1   3
BRANCH   1  15
ATOM     15  S   UNL d   1       1.080   0.095   0.069  0.00  0.00     0.247 S 
ATOM     16  O   UNL d   1      -0.069  -0.785  -0.012  0.00  0.00    -0.205 OA
ATOM     17  O   UNL d   1       2.317  -0.324   0.692  0.00  0.00    -0.205 OA
BRANCH  15  18
ATOM     18  C   UNL d   1       1.495   0.584  -1.591  0.00  0.00     0.075 A 
ATOM     19  C   UNL d   1       2.498   1.537  -1.796  0.00  0.00     0.027 A 
ATOM     20  C   UNL d   1       2.868   1.884  -3.101  0.00  0.00     0.038 A 
ATOM     21  C   UNL d   1       2.243   1.277  -4.193  0.00  0.00     0.068 A 
ATOM     22  C   UNL d   1       1.263   0.304  -3.975  0.00  0.00     0.038 A 
ATOM     23  C   UNL d   1       0.878  -0.040  -2.678  0.00  0.00     0.027 A 
BRANCH  21  24
ATOM     24  O   UNL d   1       2.544   1.512  -5.506  0.00  0.00    -0.356 OA
ATOM     25  C   UNL d   1       3.019   2.820  -5.806  0.00  0.00     0.210 C 
ENDBRANCH  21  24
ENDBRANCH  15  18
ENDBRANCH   1  15
TORSDOF 7
