REMARK  3 active torsions:
REMARK  status: ('A' for Active; 'I' for Inactive)
REMARK    1  A    between atoms: C_6  and  C_3 
REMARK    2  A    between atoms: O_16  and  C_4 
REMARK    3  A    between atoms: O_17  and  C_8 
ROOT
ATOM      1  C   UNL d   1      -2.078   0.300   0.094  0.00  0.00    -0.006 C 
ATOM      2  C   UNL d   1      -1.095  -0.825   0.068  0.00  0.00     0.189 C 
ATOM      3  C   UNL d   1      -3.278   0.100  -0.480  0.00  0.00     0.024 C 
ATOM      4  C   UNL d   1       0.348  -0.444   0.060  0.00  0.00     0.021 A 
ATOM      5  C   UNL d   1       0.741   0.908   0.039  0.00  0.00    -0.044 A 
ATOM      6  C   UNL d   1      -1.571   1.570   0.720  0.00  0.00     0.047 C 
ATOM      7  O   UNL d   1      -1.449  -2.002   0.040  0.00  0.00    -0.287 OA
ATOM      8  C   UNL d   1      -0.280   2.015   0.045  0.00  0.00     0.044 C 
ATOM      9  C   UNL d   1       1.317  -1.453   0.036  0.00  0.00     0.016 A 
ATOM     10  C   UNL d   1       2.106   1.225  -0.038  0.00  0.00     0.008 A 
ATOM     11  C   UNL d   1       2.673  -1.124  -0.022  0.00  0.00     0.001 A 
ATOM     12  C   UNL d   1       3.064   0.213  -0.064  0.00  0.00     0.001 A 
ENDROOT
BRANCH   3  13
ATOM     13  C   UNL d   1      -4.240   1.196  -0.675  0.00  0.00    -0.011 A 
ATOM     14  C   UNL d   1      -4.243   1.985  -1.851  0.00  0.00     0.080 A 
ATOM     15  C   UNL d   1      -5.013   3.171  -1.925  0.00  0.00     0.124 A 
ATOM     16 CL   UNL d   1      -3.339   1.376  -3.213  0.00  0.00    -0.080 Cl
ATOM     17  C   UNL d   1      -5.862   3.485  -0.841  0.00  0.00     0.103 A 
ATOM     18  C   UNL d   1      -5.913   2.638   0.279  0.00  0.00     0.040 A 
ATOM     19  C   UNL d   1      -5.101   1.514   0.374  0.00  0.00     0.016 A 
BRANCH  15  20
ATOM     20  O   UNL d   1      -5.061   4.002  -3.015  0.00  0.00    -0.351 OA
ATOM     21  C   UNL d   1      -3.848   4.293  -3.702  0.00  0.00     0.210 C 
ENDBRANCH  15  20
BRANCH  17  22
ATOM     22  O   UNL d   1      -6.709   4.552  -0.684  0.00  0.00    -0.353 OA
ATOM     23  C   UNL d   1      -6.747   5.574  -1.666  0.00  0.00     0.210 C 
ENDBRANCH  17  22
ENDBRANCH   3  13
TORSDOF 3
