REMARK  2 active torsions:
REMARK  status: ('A' for Active; 'I' for Inactive)
REMARK    1  A    between atoms: N_8  and  C_3 
REMARK    2  A    between atoms: C_9  and  C_4 
ROOT
ATOM      1  N   UNL d   1       1.364  -0.564  -0.064  0.00  0.00    -0.321 N 
ATOM      2  HN  UNL d   1       2.284  -0.971  -0.234  1.00  0.00     0.169 HD
ATOM      3  C   UNL d   1       0.243  -1.251   0.035  0.00  0.00     0.165 A 
ATOM      4  C   UNL d   1       1.112   0.804   0.096  0.00  0.00     0.123 A 
ATOM      5  N   UNL d   1      -0.148   1.190   0.328  0.00  0.00    -0.309 N 
ATOM      6  HN  UNL d   1      -0.469   2.147   0.477  1.00  0.00     0.176 HD
ATOM      7  S   UNL d   1      -1.087  -0.173   0.330  0.00  0.00     0.024 SA
ENDROOT
BRANCH   3   8
ATOM      8  N   UNL d   1       0.128  -2.603  -0.137  0.00  0.00    -0.357 N 
ATOM      9  C   UNL d   1       1.377  -3.373  -0.274  0.00  0.00     0.155 C 
ATOM     10  C   UNL d   1       1.095  -4.750  -0.920  0.00  0.00     0.289 C 
ATOM     11  N   UNL d   1       0.044  -5.528  -0.235  0.00  0.00     0.086 N 
ATOM     12  C   UNL d   1      -1.176  -4.709  -0.132  0.00  0.00     0.289 C 
ATOM     13  H   UNL d   1      -0.162  -6.361  -0.785  0.00  0.00     0.316 HD
ATOM     14  C   UNL d   1      -0.939  -3.345   0.554  0.00  0.00     0.155 C 
ENDBRANCH   3   8
BRANCH   4  15
ATOM     15  C   UNL d   1       2.202   1.782  -0.014  0.00  0.00     0.009 A 
ATOM     16  C   UNL d   1       3.536   1.363  -0.120  0.00  0.00     0.015 A 
ATOM     17  C   UNL d   1       4.568   2.298  -0.249  0.00  0.00     0.001 A 
ATOM     18  C   UNL d   1       4.279   3.662  -0.276  0.00  0.00     0.000 A 
ATOM     19  C   UNL d   1       2.962   4.094  -0.164  0.00  0.00     0.001 A 
ATOM     20  C   UNL d   1       1.930   3.161  -0.032  0.00  0.00     0.015 A 
ENDBRANCH   4  15
TORSDOF 2
