REMARK  6 active torsions:
REMARK  status: ('A' for Active; 'I' for Inactive)
REMARK    1  A    between atoms: C_3  and  N_1 
REMARK    2  A    between atoms: C_2  and  C_3 
REMARK       I    between atoms: N_5  and  C_2 
REMARK    3  A    between atoms: C_4  and  C_3 
REMARK    4  A    between atoms: O_11  and  C_4 
REMARK    5  A    between atoms: C_10  and  N_5 
REMARK    6  A    between atoms: C_12  and  O_11 
ROOT
ATOM      1  C   UNL d   1      -0.516   2.010   0.008  0.00  0.00     0.261 C 
ATOM      2  N   UNL d   1      -0.097   3.320   0.179  0.00  0.00    -0.325 N 
ATOM      3  O   UNL d   1      -1.513   1.522   0.544  0.00  0.00    -0.270 OA
ATOM      4  H   UNL d   1       0.719   3.629  -0.348  0.00  0.00     0.169 HD
ENDROOT
BRANCH   1   5
ATOM      5  C   UNL d   1       0.323   1.120  -0.866  0.00  0.00     0.346 C 
BRANCH   5   6
ATOM      6  N   UNL d   1       1.369   0.543   0.007  0.00  0.00    -0.131 N 
ATOM      7  O   UNL d   1       2.247   1.304   0.442  0.00  0.00    -0.535 OA
ATOM      8  O   UNL d   1       1.319  -0.676   0.221  0.00  0.00    -0.535 OA
ENDBRANCH   5   6
BRANCH   5   9
ATOM      9  C   UNL d   1       1.029   1.707  -2.037  0.00  0.00     0.297 C 
ATOM     10  O   UNL d   1       1.157   2.906  -2.253  0.00  0.00    -0.262 OA
BRANCH   9  11
ATOM     11  O   UNL d   1       1.484   0.716  -2.858  0.00  0.00    -0.320 OA
BRANCH  11  12
ATOM     12  C   UNL d   1       2.140   1.114  -4.074  0.00  0.00     0.174 C 
ATOM     13  C   UNL d   1       1.127   1.139  -5.202  0.00  0.00     0.034 C 
ENDBRANCH  11  12
ENDBRANCH   9  11
ENDBRANCH   5   9
ENDBRANCH   1   5
BRANCH   2  14
ATOM     14  C   UNL d   1      -0.690   4.310   0.999  0.00  0.00     0.034 A 
ATOM     15  C   UNL d   1      -1.839   4.111   1.766  0.00  0.00     0.029 A 
ATOM     16  C   UNL d   1      -2.364   5.145   2.550  0.00  0.00     0.002 A 
ATOM     17  C   UNL d   1      -1.742   6.388   2.579  0.00  0.00     0.000 A 
ATOM     18  C   UNL d   1      -0.592   6.600   1.825  0.00  0.00     0.002 A 
ATOM     19  C   UNL d   1      -0.069   5.567   1.037  0.00  0.00     0.029 A 
ENDBRANCH   2  14
TORSDOF 6
