REMARK  4 active torsions:
REMARK  status: ('A' for Active; 'I' for Inactive)
REMARK    1  A    between atoms: S_2  and  C_1 
REMARK    2  A    between atoms: C_4  and  S_2 
REMARK    3  A    between atoms: N_13  and  C_3 
REMARK    4  A    between atoms: C_14  and  C_8 
ROOT
ATOM      1  C   UNL d   1      -1.268  -3.457   1.494  0.00  0.00     0.145 C 
ATOM      2  C   UNL d   1      -2.472  -4.061   1.531  0.00  0.00     0.046 C 
ATOM      3  C   UNL d   1      -0.479  -3.120   2.617  0.00  0.00     0.112 C 
ATOM      4  N   UNL d   1       0.168  -2.829   3.536  0.00  0.00    -0.191 NA
ENDROOT
BRANCH   1   5
ATOM      5  S   UNL d   1      -0.619  -2.999  -0.051  0.00  0.00     0.221 S 
ATOM      6  O   UNL d   1      -0.367  -1.572  -0.088  0.00  0.00    -0.216 OA
ATOM      7  O   UNL d   1      -1.354  -3.633  -1.133  0.00  0.00    -0.216 OA
BRANCH   5   8
ATOM      8  C   UNL d   1       0.937  -3.734  -0.118  0.00  0.00     0.123 A 
ATOM      9  C   UNL d   1       1.162  -5.016  -0.567  0.00  0.00     0.164 A 
ATOM     10  O   UNL d   1       2.478  -5.314  -0.495  0.00  0.00    -0.297 OA
ATOM     11  C   UNL d   1       3.115  -4.227   0.018  0.00  0.00     0.059 A 
ATOM     12  C   UNL d   1       2.208  -3.217   0.304  0.00  0.00    -0.006 A 
ATOM     13  C   UNL d   1       4.581  -4.355   0.159  0.00  0.00     0.077 C 
ATOM     14  C   UNL d   1       2.553  -1.909   0.922  0.00  0.00     0.052 C 
BRANCH   9  15
ATOM     15  N   UNL d   1       0.376  -5.990  -1.050  0.00  0.00    -0.378 N 
ATOM     16  H   UNL d   1      -0.492  -5.711  -1.511  0.00  0.00     0.158 HD
ATOM     17  H   UNL d   1       0.849  -6.741  -1.542  0.00  0.00     0.158 HD
ENDBRANCH   9  15
ENDBRANCH   5   8
ENDBRANCH   1   5
BRANCH   2  18
ATOM     18  C   UNL d   1      -3.243  -4.515   2.704  0.00  0.00    -0.034 A 
ATOM     19  C   UNL d   1      -3.287  -3.818   3.916  0.00  0.00     0.012 A 
ATOM     20  C   UNL d   1      -4.089  -4.268   4.971  0.00  0.00     0.007 A 
ATOM     21  C   UNL d   1      -4.886  -5.407   4.826  0.00  0.00    -0.062 A 
ATOM     22  C   UNL d   1      -4.862  -6.097   3.612  0.00  0.00     0.007 A 
ATOM     23  C   UNL d   1      -5.759  -5.857   5.959  0.00  0.00     0.048 C 
ATOM     24  C   UNL d   1      -4.050  -5.654   2.562  0.00  0.00     0.012 A 
ENDBRANCH   2  18
TORSDOF 4
