REMARK  4 active torsions:
REMARK  status: ('A' for Active; 'I' for Inactive)
REMARK    1  A    between atoms: C_2  and  C_1 
REMARK       I    between atoms: N_4  and  C_2 
REMARK    2  A    between atoms: C_9  and  N_4 
REMARK    3  A    between atoms: C_5  and  C_9 
REMARK    4  A    between atoms: O_20  and  C_14 
ROOT
ATOM      1  C   UNL d   1       0.303  -2.495   0.017  0.00  0.00     0.253 C 
ATOM      2  N   UNL d   1       1.039  -3.653   0.120  0.00  0.00    -0.353 N 
ATOM      3  O   UNL d   1      -0.923  -2.489  -0.035  0.00  0.00    -0.268 OA
ATOM      4  H   UNL d   1       2.050  -3.601   0.131  0.00  0.00     0.163 HD
ENDROOT
BRANCH   1   5
ATOM      5  C   UNL d   1       1.040  -1.195   0.020  0.00  0.00     0.052 A 
ATOM      6  C   UNL d   1       2.300  -0.971  -0.556  0.00  0.00     0.026 A 
ATOM      7  C   UNL d   1       2.869   0.307  -0.505  0.00  0.00     0.023 A 
ATOM      8 BR   UNL d   1       3.301  -2.286  -1.494  0.00  0.00    -0.050 Br
ATOM      9  C   UNL d   1       2.187   1.362   0.103  0.00  0.00     0.038 A 
ATOM     10  C   UNL d   1       0.927   1.161   0.663  0.00  0.00     0.069 A 
ATOM     11  C   UNL d   1       0.359  -0.113   0.619  0.00  0.00     0.055 A 
BRANCH  10  12
ATOM     12  O   UNL d   1       0.365   2.279   1.212  0.00  0.00    -0.356 OA
ATOM     13  C   UNL d   1      -0.926   2.137   1.793  0.00  0.00     0.210 C 
ENDBRANCH  10  12
ENDBRANCH   1   5
BRANCH   2  14
ATOM     14  C   UNL d   1       0.438  -4.963  -0.056  0.00  0.00     0.163 C 
BRANCH  14  15
ATOM     15  C   UNL d   1       0.158  -5.729   1.220  0.00  0.00    -0.019 A 
ATOM     16  C   UNL d   1      -0.335  -7.051   1.155  0.00  0.00     0.043 A 
ATOM     17  C   UNL d   1      -0.618  -7.776   2.317  0.00  0.00     0.048 A 
ATOM     18 CL   UNL d   1      -0.614  -7.841  -0.358  0.00  0.00    -0.084 Cl
ATOM     19  C   UNL d   1      -0.412  -7.191   3.560  0.00  0.00     0.035 A 
ATOM     20  C   UNL d   1       0.071  -5.890   3.654  0.00  0.00     0.024 A 
ATOM     21 CL   UNL d   1      -0.760  -8.079   4.992  0.00  0.00    -0.084 Cl
ATOM     22  C   UNL d   1       0.351  -5.162   2.491  0.00  0.00     0.012 A 
ENDBRANCH  14  15
ENDBRANCH   2  14
TORSDOF 4
