REMARK  4 active torsions:
REMARK  status: ('A' for Active; 'I' for Inactive)
REMARK    1  A    between atoms: C_3  and  S_1 
REMARK    2  A    between atoms: C_11  and  S_1 
REMARK    3  A    between atoms: S_2  and  C_4 
REMARK    4  A    between atoms: C_12  and  S_2 
ROOT
ATOM      1  C   UNL d   1       0.401  -2.029   0.806  0.00  0.00     0.040 C 
ATOM      2  C   UNL d   1      -1.157  -5.527   1.406  0.00  0.00     0.040 C 
ATOM      3  C   UNL d   1      -0.481  -3.514   2.420  0.00  0.00    -0.006 C 
ATOM      4  C   UNL d   1      -1.577  -3.161   1.393  0.00  0.00    -0.006 C 
ATOM      5  C   UNL d   1      -0.123  -4.934   2.027  0.00  0.00     0.004 C 
ATOM      6  C   UNL d   1      -0.769  -2.467   0.298  0.00  0.00     0.004 C 
ATOM      7  C   UNL d   1       0.703  -2.568   2.161  0.00  0.00     0.065 C 
ATOM      8  C   UNL d   1      -2.228  -4.533   1.048  0.00  0.00     0.065 C 
ATOM      9  C   UNL d   1      -0.940  -3.582   3.887  0.00  0.00     0.015 C 
ATOM     10  C   UNL d   1      -2.567  -2.075   1.846  0.00  0.00     0.015 C 
ATOM     11  C   UNL d   1      -2.307  -3.012   4.254  0.00  0.00     0.001 C 
ATOM     12  C   UNL d   1      -3.027  -2.094   3.288  0.00  0.00     0.001 C 
ENDROOT
BRANCH   1  13
ATOM     13  S   UNL d   1       1.176  -0.593   0.233  0.00  0.00     0.202 S 
ATOM     14  O   UNL d   1       1.356   0.321   1.351  0.00  0.00    -0.217 OA
ATOM     15  O   UNL d   1       0.531  -0.129  -0.980  0.00  0.00    -0.217 OA
BRANCH  13  16
ATOM     16  C   UNL d   1       2.797  -1.154  -0.232  0.00  0.00     0.064 A 
ATOM     17  C   UNL d   1       3.032  -1.540  -1.556  0.00  0.00     0.025 A 
ATOM     18  C   UNL d   1       4.318  -1.919  -1.942  0.00  0.00     0.025 A 
ATOM     19  C   UNL d   1       5.356  -1.902  -1.011  0.00  0.00     0.034 A 
ATOM     20  C   UNL d   1       5.125  -1.498   0.305  0.00  0.00     0.025 A 
ATOM     21 CL   UNL d   1       6.940  -2.370  -1.492  0.00  0.00    -0.084 Cl
ATOM     22  C   UNL d   1       3.842  -1.113   0.699  0.00  0.00     0.025 A 
ENDBRANCH  13  16
ENDBRANCH   1  13
BRANCH   2  23
ATOM     23  S   UNL d   1      -1.455  -7.178   1.869  0.00  0.00     0.202 S 
ATOM     24  O   UNL d   1      -0.202  -7.821   2.215  0.00  0.00    -0.217 OA
ATOM     25  O   UNL d   1      -2.550  -7.176   2.833  0.00  0.00    -0.217 OA
BRANCH  23  26
ATOM     26  C   UNL d   1      -2.053  -8.017   0.425  0.00  0.00     0.064 A 
ATOM     27  C   UNL d   1      -1.147  -8.709  -0.386  0.00  0.00     0.025 A 
ATOM     28  C   UNL d   1      -1.628  -9.542  -1.397  0.00  0.00     0.025 A 
ATOM     29  C   UNL d   1      -3.004  -9.685  -1.582  0.00  0.00     0.034 A 
ATOM     30  C   UNL d   1      -3.905  -9.002  -0.765  0.00  0.00     0.025 A 
ATOM     31 CL   UNL d   1      -3.595 -10.738  -2.807  0.00  0.00    -0.084 Cl
ATOM     32  C   UNL d   1      -3.431  -8.168   0.248  0.00  0.00     0.025 A 
ENDBRANCH  23  26
ENDBRANCH   2  23
TORSDOF 4
