REMARK  6 active torsions:
REMARK  status: ('A' for Active; 'I' for Inactive)
REMARK    1  A    between atoms: C_6  and  C_1 
REMARK    2  A    between atoms: N_9  and  C_2 
REMARK       I    between atoms: C_8  and  N_9 
REMARK       I    between atoms: N_10  and  C_8 
REMARK    3  A    between atoms: C_12  and  N_10 
REMARK    4  A    between atoms: S_17  and  C_16 
REMARK    5  A    between atoms: C_23  and  S_17 
REMARK    6  A    between atoms: C_18  and  C_23 
ROOT
ATOM      1  N   UNL d   1       1.195  -6.655   0.964  0.00  0.00    -0.197 NA
ATOM      2  C   UNL d   1       2.119  -5.958   1.097  0.00  0.00     0.059 C 
ATOM      3  C   UNL d   1       3.252  -5.039   1.307  0.00  0.00     0.134 C 
ENDROOT
BRANCH   3   4
ATOM      4  C   UNL d   1       2.768  -3.837   2.116  0.00  0.00     0.093 C 
BRANCH   4   5
ATOM      5  S   UNL d   1       3.989  -2.513   2.496  0.00  0.00    -0.127 SA
BRANCH   5   6
ATOM      6  C   UNL d   1       4.723  -2.091   0.914  0.00  0.00     0.027 A 
ATOM      7  C   UNL d   1       4.018  -1.879  -0.286  0.00  0.00     0.053 A 
ATOM      8  C   UNL d   1       4.721  -1.709  -1.486  0.00  0.00     0.031 A 
ATOM      9  C   UNL d   1       6.115  -1.636  -1.485  0.00  0.00     0.002 A 
ATOM     10  C   UNL d   1       6.816  -1.745  -0.289  0.00  0.00     0.002 A 
ATOM     11  C   UNL d   1       6.125  -1.990   0.899  0.00  0.00     0.021 A 
BRANCH   7  12
ATOM     12  N   UNL d   1       2.612  -1.718  -0.287  0.00  0.00    -0.307 N 
ATOM     13  C   UNL d   1       1.795  -2.463  -1.110  0.00  0.00     0.325 C 
ATOM     14  N   UNL d   1       0.454  -2.303  -0.894  0.00  0.00    -0.304 N 
ATOM     15  O   UNL d   1       2.194  -3.358  -1.851  0.00  0.00    -0.247 OA
ATOM     16  H   UNL d   1      -0.100  -3.138  -1.069  0.00  0.00     0.171 HD
ATOM     17  H   UNL d   1       2.204  -1.503   0.614  0.00  0.00     0.170 HD
BRANCH  14  18
ATOM     18  C   UNL d   1      -0.205  -1.200  -0.379  0.00  0.00     0.097 A 
ATOM     19  C   UNL d   1      -1.253  -1.169   0.595  0.00  0.00     0.096 A 
ATOM     20  N   UNL d   1      -1.636   0.099   0.819  0.00  0.00    -0.258 N 
ATOM     21  O   UNL d   1      -0.950   0.879  -0.082  0.00  0.00    -0.240 OA
ATOM     22  HN  UNL d   1      -2.304   0.419   1.520  1.00  0.00     0.195 HD
ATOM     23  C   UNL d   1      -0.121   0.102  -0.826  0.00  0.00     0.101 A 
ATOM     24  C   UNL d   1       0.489   0.779  -1.986  0.00  0.00     0.081 C 
BRANCH  19  25
ATOM     25  C   UNL d   1      -1.825  -2.257   1.389  0.00  0.00     0.017 A 
ATOM     26  C   UNL d   1      -2.284  -3.466   0.841  0.00  0.00     0.046 A 
ATOM     27 CL   UNL d   1      -2.287  -3.798  -0.858  0.00  0.00    -0.083 Cl
ATOM     28  C   UNL d   1      -2.823  -4.457   1.670  0.00  0.00     0.025 A 
ATOM     29  C   UNL d   1      -2.939  -4.247   3.043  0.00  0.00     0.002 A 
ATOM     30  C   UNL d   1      -2.508  -3.047   3.598  0.00  0.00     0.001 A 
ATOM     31  C   UNL d   1      -1.950  -2.063   2.779  0.00  0.00     0.015 A 
ENDBRANCH  19  25
ENDBRANCH  14  18
ENDBRANCH   7  12
ENDBRANCH   5   6
ENDBRANCH   4   5
ENDBRANCH   3   4
TORSDOF 6
