REMARK  8 active torsions:
REMARK  status: ('A' for Active; 'I' for Inactive)
REMARK    1  A    between atoms: C_3  and  C_1 
REMARK    2  A    between atoms: C_4  and  C_1 
REMARK    3  A    between atoms: N_2  and  C_8 
REMARK    4  A    between atoms: C_7  and  C_4 
REMARK    5  A    between atoms: N_11  and  N_5 
REMARK    6  A    between atoms: O_21  and  C_7 
REMARK    7  A    between atoms: C_18  and  N_11 
REMARK    8  A    between atoms: C_22  and  O_21 
ROOT
ATOM      1  C   UNL d   1       1.058   0.210   0.008  0.00  0.00     0.118 C 
ATOM      2  N   UNL d   1       2.359   0.088   0.018  0.00  0.00    -0.299 N 
ATOM      3  HN  UNL d   1       2.808  -0.824  -0.069  1.00  0.00     0.186 HD
ENDROOT
BRANCH   2   4
ATOM      4  N   UNL d   1       3.090   1.226   0.148  0.00  0.00    -0.301 N 
ATOM      5  H   UNL d   1       2.734   2.003   0.713  0.00  0.00     0.187 HD
BRANCH   4   6
ATOM      6  C   UNL d   1       4.496   1.112   0.238  0.00  0.00     0.048 A 
ATOM      7  C   UNL d   1       5.177  -0.087  -0.017  0.00  0.00     0.033 A 
ATOM      8  C   UNL d   1       6.576  -0.147   0.014  0.00  0.00     0.038 A 
ATOM      9  C   UNL d   1       7.310   1.015   0.276  0.00  0.00     0.103 A 
ATOM     10  C   UNL d   1       6.652   2.229   0.502  0.00  0.00     0.038 A 
ATOM     11  C   UNL d   1       5.255   2.272   0.470  0.00  0.00     0.033 A 
BRANCH   9  12
ATOM     12  N   UNL d   1       8.777   0.964   0.302  0.00  0.00    -0.116 N 
ATOM     13  O   UNL d   1       9.385   2.021   0.529  0.00  0.00    -0.532 OA
ATOM     14  O   UNL d   1       9.320  -0.129   0.098  0.00  0.00    -0.532 OA
ENDBRANCH   9  12
ENDBRANCH   4   6
ENDBRANCH   2   4
BRANCH   1  15
ATOM     15  C   UNL d   1       0.280   1.507   0.115  0.00  0.00     0.430 C 
ATOM     16  F   UNL d   1      -1.065   1.321   0.185  0.00  0.00    -0.165 F 
ATOM     17  F   UNL d   1       0.640   2.240   1.204  0.00  0.00    -0.165 F 
ATOM     18  F   UNL d   1       0.488   2.311  -0.965  0.00  0.00    -0.165 F 
ENDBRANCH   1  15
BRANCH   1  19
ATOM     19  C   UNL d   1       0.243  -1.050  -0.137  0.00  0.00     0.174 C 
BRANCH  19  20
ATOM     20  C   UNL d   1      -0.477  -1.391   1.132  0.00  0.00     0.264 C 
ATOM     21  O   UNL d   1      -0.447  -0.712   2.148  0.00  0.00    -0.265 OA
BRANCH  20  22
ATOM     22  O   UNL d   1      -1.126  -2.577   0.985  0.00  0.00    -0.322 OA
BRANCH  22  23
ATOM     23  C   UNL d   1      -1.670  -3.145   2.187  0.00  0.00     0.174 C 
ATOM     24  C   UNL d   1      -0.605  -4.000   2.847  0.00  0.00     0.034 C 
ENDBRANCH  22  23
ENDBRANCH  20  22
ENDBRANCH  19  20
ENDBRANCH   1  19
TORSDOF 8
