REMARK  6 active torsions:
REMARK  status: ('A' for Active; 'I' for Inactive)
REMARK       I    between atoms: N_2  and  C_1 
REMARK    1  A    between atoms: C_8  and  C_1 
REMARK    2  A    between atoms: C_3  and  N_2 
REMARK    3  A    between atoms: C_6  and  C_8 
REMARK    4  A    between atoms: C_10  and  C_6 
REMARK    5  A    between atoms: C_7  and  C_10 
REMARK    6  A    between atoms: O_15  and  C_7 
ROOT
ATOM      1  C   UNL d   1       0.980  -0.122   2.191  0.00  0.00     0.223 C 
ATOM      2  N   UNL d   1       2.353  -0.037   2.026  0.00  0.00    -0.325 N 
ATOM      3  O   UNL d   1       0.377  -0.549   3.168  0.00  0.00    -0.273 OA
ATOM      4  H   UNL d   1       2.661   0.499   1.224  0.00  0.00     0.169 HD
ENDROOT
BRANCH   1   5
ATOM      5  C   UNL d   1       0.251   0.544   1.016  0.00  0.00     0.113 C 
BRANCH   5   6
ATOM      6  C   UNL d   1      -1.294   0.355   0.898  0.00  0.00    -0.023 C 
ATOM      7  C   UNL d   1      -1.647  -1.105   0.493  0.00  0.00     0.010 C 
ATOM      8  C   UNL d   1      -1.287  -1.472  -0.947  0.00  0.00     0.001 C 
ATOM      9  C   UNL d   1      -1.890  -0.492  -1.944  0.00  0.00     0.000 C 
ATOM     10  C   UNL d   1      -1.471   0.936  -1.632  0.00  0.00     0.001 C 
ATOM     11  C   UNL d   1      -1.829   1.328  -0.199  0.00  0.00     0.010 C 
BRANCH   6  12
ATOM     12  C   UNL d   1      -2.050   0.661   2.222  0.00  0.00     0.119 C 
BRANCH  12  13
ATOM     13  C   UNL d   1      -1.668   1.971   2.875  0.00  0.00     0.140 C 
ATOM     14  O   UNL d   1      -1.988   3.066   2.450  0.00  0.00    -0.650 OA
BRANCH  13  15
ATOM     15  O   UNL d   1      -0.890   1.813   3.969  0.00  0.00    -0.776 OA
ATOM     16  H   UNL d   1      -0.641   0.878   4.148  0.00  0.00     0.167 HD
ENDBRANCH  13  15
ENDBRANCH  12  13
ENDBRANCH   6  12
ENDBRANCH   5   6
ENDBRANCH   1   5
BRANCH   2  17
ATOM     17  C   UNL d   1       3.394  -0.482   2.878  0.00  0.00     0.073 A 
ATOM     18  C   UNL d   1       3.259  -1.299   4.007  0.00  0.00     0.144 A 
ATOM     19  C   UNL d   1       4.372  -1.668   4.772  0.00  0.00     0.062 A 
ATOM     20  F   UNL d   1       2.078  -1.799   4.388  0.00  0.00    -0.204 F 
ATOM     21  C   UNL d   1       5.641  -1.225   4.412  0.00  0.00     0.009 A 
ATOM     22  C   UNL d   1       5.805  -0.421   3.289  0.00  0.00     0.020 A 
ATOM     23  I   UNL d   1       7.296  -1.767   5.543  0.00  0.00    -0.044 I 
ATOM     24  C   UNL d   1       4.688  -0.058   2.527  0.00  0.00     0.034 A 
ENDBRANCH   2  17
TORSDOF 6
