REMARK  5 active torsions:
REMARK  status: ('A' for Active; 'I' for Inactive)
REMARK    1  A    between atoms: C_4  and  C_1 
REMARK    2  A    between atoms: N_5  and  C_2 
REMARK       I    between atoms: C_3  and  N_8 
REMARK       I    between atoms: N_7  and  C_3 
REMARK    3  A    between atoms: O_21  and  C_4 
REMARK    4  A    between atoms: C_6  and  N_7 
REMARK    5  A    between atoms: N_8  and  C_13 
ROOT
ATOM      1  C   UNL d   1       1.676  -0.155   0.026  0.00  0.00     0.068 C 
ATOM      2  C   UNL d   1       0.913  -1.263  -0.408  0.00  0.00     0.046 C 
ATOM      3  C   UNL d   1       1.094   1.123   0.170  0.00  0.00     0.049 C 
ATOM      4  C   UNL d   1      -0.394  -0.965  -0.844  0.00  0.00     0.032 C 
ATOM      5  C   UNL d   1      -0.242   1.350  -0.131  0.00  0.00     0.037 C 
ATOM      6  C   UNL d   1      -0.962   0.315  -0.718  0.00  0.00     0.032 C 
ENDROOT
BRANCH   5   7
ATOM      7  N   UNL d   1      -0.924   2.552   0.176  0.00  0.00    -0.309 N 
ATOM      8  C   UNL d   1      -0.464   3.527   1.054  0.00  0.00     0.325 C 
ATOM      9  N   UNL d   1      -1.467   4.422   1.395  0.00  0.00    -0.309 N 
ATOM     10  O   UNL d   1       0.667   3.559   1.520  0.00  0.00    -0.247 OA
ATOM     11  H   UNL d   1      -2.365   4.293   0.956  0.00  0.00     0.170 HD
ATOM     12  H   UNL d   1      -1.891   2.597  -0.103  0.00  0.00     0.170 HD
BRANCH   9  13
ATOM     13  C   UNL d   1      -1.388   5.427   2.393  0.00  0.00     0.039 A 
ATOM     14  C   UNL d   1      -0.220   5.743   3.096  0.00  0.00     0.053 A 
ATOM     15  C   UNL d   1      -0.234   6.714   4.099  0.00  0.00     0.037 A 
ATOM     16 CL   UNL d   1       1.215   7.074   4.958  0.00  0.00    -0.084 Cl
ATOM     17  C   UNL d   1      -1.405   7.389   4.419  0.00  0.00     0.048 A 
ATOM     18  C   UNL d   1      -2.566   7.088   3.714  0.00  0.00     0.037 A 
ATOM     19  C   UNL d   1      -2.563   6.120   2.705  0.00  0.00     0.053 A 
ATOM     20 CL   UNL d   1      -4.029   7.908   4.102  0.00  0.00    -0.084 Cl
ENDBRANCH   9  13
ENDBRANCH   5   7
BRANCH   1  21
ATOM     21  C   UNL d   1       3.145  -0.230   0.281  0.00  0.00     0.295 C 
ATOM     22  O   UNL d   1       3.937  -0.885  -0.377  0.00  0.00    -0.259 OA
BRANCH  21  23
ATOM     23  O   UNL d   1       3.447   0.519   1.371  0.00  0.00    -0.322 OA
ATOM     24  C   UNL d   1       4.833   0.615   1.703  0.00  0.00     0.213 C 
ENDBRANCH  21  23
ENDBRANCH   1  21
BRANCH   2  25
ATOM     25  N   UNL d   1       1.400  -2.573  -0.427  0.00  0.00    -0.376 N 
ATOM     26  C   UNL d   1       2.030  -3.080   0.821  0.00  0.00     0.149 C 
ATOM     27  C   UNL d   1       2.963  -4.246   0.465  0.00  0.00     0.187 C 
ATOM     28  O   UNL d   1       2.221  -5.316  -0.146  0.00  0.00    -0.388 OA
ATOM     29  C   UNL d   1       1.601  -4.853  -1.357  0.00  0.00     0.187 C 
ATOM     30  C   UNL d   1       0.661  -3.656  -1.111  0.00  0.00     0.149 C 
ENDBRANCH   2  25
TORSDOF 5
