REMARK  3 active torsions:
REMARK  status: ('A' for Active; 'I' for Inactive)
REMARK    1  A    between atoms: C_2  and  C_1 
REMARK       I    between atoms: N_5  and  C_2 
REMARK    2  A    between atoms: C_14  and  C_3 
REMARK    3  A    between atoms: C_11  and  N_5 
ROOT
ATOM      1  C   UNL d   1       1.060  -0.090   0.144  0.00  0.00     0.113 C 
ATOM      2  C   UNL d   1       0.509  -1.272   0.491  0.00  0.00     0.039 C 
ATOM      3  C   UNL d   1       0.285   1.030  -0.252  0.00  0.00     0.105 C 
ATOM      4  N   UNL d   1      -0.294   1.983  -0.571  0.00  0.00    -0.191 NA
ENDROOT
BRANCH   1   5
ATOM      5  C   UNL d   1       2.568  -0.041   0.100  0.00  0.00     0.266 C 
ATOM      6  N   UNL d   1       3.134   1.140  -0.358  0.00  0.00    -0.322 N 
ATOM      7  H   UNL d   1       2.543   1.954  -0.484  0.00  0.00     0.169 HD
ATOM      8  O   UNL d   1       3.210  -1.029   0.448  0.00  0.00    -0.267 OA
BRANCH   6   9
ATOM      9  C   UNL d   1       4.494   1.328  -0.724  0.00  0.00     0.036 A 
ATOM     10  C   UNL d   1       5.422   0.289  -0.825  0.00  0.00     0.053 A 
ATOM     11  C   UNL d   1       6.724   0.529  -1.283  0.00  0.00     0.042 A 
ATOM     12 CL   UNL d   1       7.797  -0.823  -1.404  0.00  0.00    -0.084 Cl
ATOM     13  C   UNL d   1       7.133   1.818  -1.648  0.00  0.00    -0.040 A 
ATOM     14  C   UNL d   1       6.215   2.867  -1.507  0.00  0.00     0.011 A 
ATOM     15  C   UNL d   1       8.507   2.086  -2.196  0.00  0.00     0.050 C 
ATOM     16  C   UNL d   1       4.909   2.623  -1.058  0.00  0.00     0.030 A 
ENDBRANCH   6   9
ENDBRANCH   1   5
BRANCH   2  17
ATOM     17  C   UNL d   1      -0.911  -1.636   0.438  0.00  0.00    -0.035 A 
ATOM     18  C   UNL d   1      -1.348  -2.435  -0.627  0.00  0.00     0.013 A 
ATOM     19  C   UNL d   1      -2.671  -2.883  -0.683  0.00  0.00     0.023 A 
ATOM     20  C   UNL d   1      -3.570  -2.540   0.329  0.00  0.00     0.044 A 
ATOM     21  C   UNL d   1      -4.916  -3.039   0.291  0.00  0.00     0.099 C 
ATOM     22  C   UNL d   1      -3.142  -1.728   1.387  0.00  0.00     0.023 A 
ATOM     23  N   UNL d   1      -5.997  -3.456   0.260  0.00  0.00    -0.191 NA
ATOM     24  C   UNL d   1      -1.815  -1.276   1.441  0.00  0.00     0.013 A 
ENDBRANCH   2  17
TORSDOF 3
