REMARK  3 active torsions:
REMARK  status: ('A' for Active; 'I' for Inactive)
REMARK    1  A    between atoms: C_9  and  N_3 
REMARK    2  A    between atoms: C_7  and  C_4 
REMARK    3  A    between atoms: C_8  and  C_5 
ROOT
ATOM      1  N   UNL d   1       1.158  -0.174   0.104  0.00  0.00    -0.301 N 
ATOM      2  HN  UNL d   1       2.158  -0.367   0.159  1.00  0.00     0.187 HD
ATOM      3  N   UNL d   1       0.153  -1.097   0.096  0.00  0.00    -0.283 N 
ATOM      4  C   UNL d   1       0.598   0.997   0.028  0.00  0.00     0.038 A 
ATOM      5  C   UNL d   1      -1.183  -0.511   0.001  0.00  0.00     0.147 A 
ATOM      6  C   UNL d   1      -0.907   0.989   0.007  0.00  0.00     0.091 A 
ENDROOT
BRANCH   4   7
ATOM      7  C   UNL d   1       1.361   2.261  -0.045  0.00  0.00    -0.012 A 
ATOM      8  C   UNL d   1       2.762   2.215  -0.080  0.00  0.00     0.016 A 
ATOM      9  C   UNL d   1       3.501   3.398  -0.167  0.00  0.00     0.043 A 
ATOM     10  C   UNL d   1       2.837   4.617  -0.220  0.00  0.00     0.116 A 
ATOM     11  C   UNL d   1       1.450   4.680  -0.188  0.00  0.00     0.043 A 
ATOM     12  F   UNL d   1       3.545   5.752  -0.305  0.00  0.00    -0.206 F 
ATOM     13  C   UNL d   1       0.707   3.500  -0.102  0.00  0.00     0.016 A 
ENDBRANCH   4   7
BRANCH   3  14
ATOM     14  C   UNL d   1       0.426  -2.463   0.040  0.00  0.00     0.051 A 
ATOM     15  C   UNL d   1       1.618  -2.978   0.573  0.00  0.00     0.031 A 
ATOM     16  C   UNL d   1       1.883  -4.352   0.578  0.00  0.00     0.002 A 
ATOM     17  C   UNL d   1       0.967  -5.240   0.021  0.00  0.00     0.000 A 
ATOM     18  C   UNL d   1      -0.213  -4.753  -0.530  0.00  0.00     0.002 A 
ATOM     19  C   UNL d   1      -0.481  -3.382  -0.511  0.00  0.00     0.031 A 
ENDBRANCH   3  14
BRANCH   5  20
ATOM     20  C   UNL d   1      -2.089  -0.911   1.158  0.00  0.00    -0.033 A 
ATOM     21  C   UNL d   1      -1.568  -1.195   2.436  0.00  0.00     0.012 A 
ATOM     22  C   UNL d   1      -2.406  -1.581   3.480  0.00  0.00     0.043 A 
ATOM     23  C   UNL d   1      -3.773  -1.665   3.260  0.00  0.00     0.116 A 
ATOM     24  C   UNL d   1      -4.317  -1.370   2.014  0.00  0.00     0.043 A 
ATOM     25  F   UNL d   1      -4.582  -2.034   4.262  0.00  0.00    -0.206 F 
ATOM     26  C   UNL d   1      -3.478  -0.993   0.964  0.00  0.00     0.012 A 
ENDBRANCH   5  20
TORSDOF 3
