REMARK  6 active torsions:
REMARK  status: ('A' for Active; 'I' for Inactive)
REMARK    1  A    between atoms: S_2  and  N_1 
REMARK    2  A    between atoms: C_8  and  S_2 
REMARK    3  A    between atoms: S_22  and  C_3 
REMARK    4  A    between atoms: C_11  and  C_7 
REMARK    5  A    between atoms: C_9  and  C_12 
REMARK    6  A    between atoms: C_10  and  C_13 
ROOT
ATOM      1  N   UNL d   1      -0.070  -1.253   0.039  0.00  0.00    -0.168 N 
ATOM      2  C   UNL d   1       1.087  -0.898   0.707  0.00  0.00     0.128 C 
ATOM      3  N   UNL d   1      -0.720  -0.161  -0.458  0.00  0.00    -0.281 N 
ATOM      4  HN  UNL d   1      -1.670  -0.116  -0.827  1.00  0.00     0.188 HD
ATOM      5  C   UNL d   1       1.310   0.429   0.378  0.00  0.00     0.110 C 
ATOM      6  C   UNL d   1       0.167   0.838  -0.354  0.00  0.00     0.090 C 
ATOM      7  C   UNL d   1       2.450   1.198   0.761  0.00  0.00     0.105 C 
ATOM      8  N   UNL d   1       3.397   1.794   1.065  0.00  0.00    -0.191 NA
ENDROOT
BRANCH   2   9
ATOM      9  S   UNL d   1       1.982  -1.944   1.774  0.00  0.00    -0.112 SA
ATOM     10  C   UNL d   1       3.409  -2.379   0.744  0.00  0.00     0.097 C 
ENDBRANCH   2   9
BRANCH   6  11
ATOM     11  C   UNL d   1      -0.145   2.182  -0.965  0.00  0.00     0.034 A 
ATOM     12  S   UNL d   1       0.927   3.508  -1.058  0.00  0.00    -0.100 SA
ATOM     13  C   UNL d   1      -0.219   4.475  -1.879  0.00  0.00     0.050 A 
ATOM     14  C   UNL d   1      -1.409   3.811  -2.068  0.00  0.00     0.008 A 
ATOM     15  C   UNL d   1      -1.363   2.483  -1.548  0.00  0.00     0.022 A 
ENDBRANCH   6  11
BRANCH   1  16
ATOM     16  S   UNL d   1      -0.644  -2.874  -0.200  0.00  0.00     0.283 S 
ATOM     17  O   UNL d   1      -1.634  -2.795  -1.256  0.00  0.00    -0.198 OA
ATOM     18  O   UNL d   1       0.534  -3.711  -0.338  0.00  0.00    -0.198 OA
BRANCH  16  19
ATOM     19  C   UNL d   1      -1.518  -3.326   1.278  0.00  0.00     0.083 A 
ATOM     20  C   UNL d   1      -2.570  -2.523   1.736  0.00  0.00     0.041 A 
ATOM     21  C   UNL d   1      -3.382  -2.971   2.792  0.00  0.00     0.050 A 
ATOM     22  C   UNL d   1      -3.119  -4.226   3.372  0.00  0.00     0.032 A 
ATOM     23  C   UNL d   1      -2.070  -5.041   2.910  0.00  0.00     0.050 A 
ATOM     24  C   UNL d   1      -1.264  -4.575   1.860  0.00  0.00     0.041 A 
BRANCH  21  25
ATOM     25  C   UNL d   1      -4.565  -2.159   3.275  0.00  0.00     0.417 C 
ATOM     26  F   UNL d   1      -4.707  -0.971   2.627  0.00  0.00    -0.166 F 
ATOM     27  F   UNL d   1      -5.743  -2.821   3.113  0.00  0.00    -0.166 F 
ATOM     28  F   UNL d   1      -4.480  -1.860   4.599  0.00  0.00    -0.166 F 
ENDBRANCH  21  25
BRANCH  23  29
ATOM     29  C   UNL d   1      -1.867  -6.417   3.506  0.00  0.00     0.417 C 
ATOM     30  F   UNL d   1      -0.828  -7.101   2.956  0.00  0.00    -0.166 F 
ATOM     31  F   UNL d   1      -1.625  -6.372   4.844  0.00  0.00    -0.166 F 
ATOM     32  F   UNL d   1      -2.964  -7.209   3.349  0.00  0.00    -0.166 F 
ENDBRANCH  23  29
ENDBRANCH  16  19
ENDBRANCH   1  16
TORSDOF 6
