REMARK  5 active torsions:
REMARK  status: ('A' for Active; 'I' for Inactive)
REMARK    1  A    between atoms: C_8  and  C_6 
REMARK    2  A    between atoms: C_12  and  C_7 
REMARK    3  A    between atoms: C_9  and  O_13 
REMARK    4  A    between atoms: C_17  and  C_10 
REMARK    5  A    between atoms: O_13  and  C_15 
ROOT
ATOM      1  C   UNL d   1       0.395  -0.738   0.218  0.00  0.00     0.111 A 
ATOM      2  N   UNL d   1       1.578  -0.046   0.242  0.00  0.00    -0.332 N 
ATOM      3  HN  UNL d   1       2.527  -0.411   0.327  1.00  0.00     0.168 HD
ATOM      4  C   UNL d   1      -0.750   0.214   0.124  0.00  0.00     0.316 A 
ATOM      5  O   UNL d   1      -0.129   1.426   0.060  0.00  0.00    -0.256 OA
ATOM      6  C   UNL d   1       1.197   1.181   0.131  0.00  0.00     0.152 A 
ATOM      7  C   UNL d   1       0.333  -2.075   0.228  0.00  0.00     0.047 C 
ATOM      8  O   UNL d   1      -1.948   0.015   0.116  0.00  0.00    -0.257 OA
ENDROOT
BRANCH   7   9
ATOM      9  C   UNL d   1      -0.884  -2.868   0.079  0.00  0.00    -0.031 A 
ATOM     10  C   UNL d   1      -1.297  -3.238  -1.207  0.00  0.00     0.049 A 
ATOM     11  C   UNL d   1      -2.442  -4.014  -1.367  0.00  0.00     0.080 A 
ATOM     12  C   UNL d   1      -3.203  -4.393  -0.260  0.00  0.00     0.037 A 
ATOM     13  C   UNL d   1      -2.795  -4.020   1.021  0.00  0.00     0.004 A 
ATOM     14  C   UNL d   1      -1.633  -3.262   1.192  0.00  0.00     0.011 A 
BRANCH  11  15
ATOM     15  O   UNL d   1      -2.946  -4.403  -2.627  0.00  0.00    -0.279 OA
BRANCH  15  16
ATOM     16  C   UNL d   1      -2.113  -4.643  -3.719  0.00  0.00     0.260 C 
ATOM     17  O   UNL d   1      -0.890  -4.588  -3.741  0.00  0.00    -0.265 OA
ATOM     18  C   UNL d   1      -2.943  -5.012  -4.913  0.00  0.00     0.126 C 
ENDBRANCH  15  16
ENDBRANCH  11  15
ENDBRANCH   7   9
BRANCH   6  19
ATOM     19  C   UNL d   1       2.079   2.348   0.059  0.00  0.00     0.057 C 
ATOM     20  C   UNL d   1       1.637   3.609  -0.051  0.00  0.00     0.015 C 
BRANCH  20  21
ATOM     21  C   UNL d   1       2.530   4.777  -0.146  0.00  0.00    -0.036 A 
ATOM     22  C   UNL d   1       3.792   4.712  -0.754  0.00  0.00     0.011 A 
ATOM     23  C   UNL d   1       4.597   5.850  -0.851  0.00  0.00     0.001 A 
ATOM     24  C   UNL d   1       4.145   7.068  -0.354  0.00  0.00     0.000 A 
ATOM     25  C   UNL d   1       2.886   7.152   0.236  0.00  0.00     0.001 A 
ATOM     26  C   UNL d   1       2.081   6.014   0.336  0.00  0.00     0.011 A 
ENDBRANCH  20  21
ENDBRANCH   6  19
TORSDOF 5
