REMARK  6 active torsions:
REMARK  status: ('A' for Active; 'I' for Inactive)
REMARK    1  A    between atoms: C_7  and  N_1 
REMARK    2  A    between atoms: C_9  and  C_4 
REMARK    3  A    between atoms: C_10  and  C_6 
REMARK    4  A    between atoms: C_8  and  C_11 
REMARK    5  A    between atoms: O_17  and  C_8 
REMARK    6  A    between atoms: C_24  and  O_17 
ROOT
ATOM      1  N   UNL d   1       0.955  -0.715  -0.002  0.00  0.00    -0.260 N 
ATOM      2  N   UNL d   1       0.938   0.621   0.266  0.00  0.00    -0.297 N 
ATOM      3  HN  UNL d   1       1.719   1.195   0.582  1.00  0.00     0.187 HD
ATOM      4  C   UNL d   1      -0.355  -1.225  -0.100  0.00  0.00     0.044 C 
ATOM      5  C   UNL d   1      -1.150  -0.087  -0.181  0.00  0.00     0.055 C 
ATOM      6  C   UNL d   1      -0.310   1.024   0.029  0.00  0.00     0.036 C 
ENDROOT
BRANCH   1   7
ATOM      7  C   UNL d   1       2.236  -1.321  -0.182  0.00  0.00     0.056 A 
ATOM      8  C   UNL d   1       3.362  -0.783   0.464  0.00  0.00     0.032 A 
ATOM      9  C   UNL d   1       4.624  -1.375   0.307  0.00  0.00     0.020 A 
ATOM     10  C   UNL d   1       4.777  -2.498  -0.515  0.00  0.00     0.039 A 
ATOM     11  C   UNL d   1       3.668  -3.002  -1.193  0.00  0.00     0.020 A 
ATOM     12  C   UNL d   1       2.419  -2.402  -1.041  0.00  0.00     0.032 A 
BRANCH  10  13
ATOM     13  C   UNL d   1       6.056  -3.236  -0.676  0.00  0.00     0.293 C 
ATOM     14  O   UNL d   1       6.154  -4.273  -1.306  0.00  0.00    -0.259 OA
BRANCH  13  15
ATOM     15  O   UNL d   1       7.036  -2.643   0.048  0.00  0.00    -0.318 OA
BRANCH  15  16
ATOM     16  C   UNL d   1       8.192  -3.462   0.270  0.00  0.00     0.174 C 
ATOM     17  C   UNL d   1       7.944  -4.298   1.512  0.00  0.00     0.034 C 
ENDBRANCH  15  16
ENDBRANCH  13  15
ENDBRANCH  10  13
ENDBRANCH   1   7
BRANCH   4  18
ATOM     18  C   UNL d   1      -0.842  -2.681  -0.037  0.00  0.00    -0.007 C 
ATOM     19  C   UNL d   1      -0.002  -3.568   0.905  0.00  0.00     0.021 C 
ATOM     20  C   UNL d   1      -2.277  -2.725   0.572  0.00  0.00     0.021 C 
ATOM     21  C   UNL d   1      -1.005  -3.296  -1.442  0.00  0.00     0.021 C 
ENDBRANCH   4  18
BRANCH   6  22
ATOM     22  C   UNL d   1      -0.700   2.496   0.045  0.00  0.00    -0.007 C 
ATOM     23  C   UNL d   1       0.520   3.424   0.229  0.00  0.00     0.021 C 
ATOM     24  C   UNL d   1      -1.375   2.872  -1.291  0.00  0.00     0.021 C 
ATOM     25  C   UNL d   1      -1.689   2.776   1.194  0.00  0.00     0.021 C 
ENDBRANCH   6  22
TORSDOF 6
