REMARK  5 active torsions:
REMARK  status: ('A' for Active; 'I' for Inactive)
REMARK    1  A    between atoms: C_7  and  C_1 
REMARK    2  A    between atoms: S_10  and  C_4 
REMARK    3  A    between atoms: C_8  and  C_7 
REMARK    4  A    between atoms: C_9  and  C_11 
REMARK    5  A    between atoms: C_11  and  S_10 
ROOT
ATOM      1  C   UNL d   1      -1.514   1.151  -0.066  0.00  0.00     0.117 A 
ATOM      2  N   UNL d   1      -2.312   0.028  -0.153  0.00  0.00    -0.331 N 
ATOM      3  HN  UNL d   1      -3.331   0.003  -0.203  1.00  0.00     0.168 HD
ATOM      4  C   UNL d   1      -1.498  -1.005  -0.159  0.00  0.00     0.152 A 
ATOM      5  C   UNL d   1      -0.181   0.770  -0.042  0.00  0.00     0.071 A 
ATOM      6  N   UNL d   1      -0.172  -0.624  -0.085  0.00  0.00    -0.300 N 
ATOM      7  C   UNL d   1       1.012  -1.368  -0.061  0.00  0.00     0.099 A 
ATOM      8  C   UNL d   1       1.076   1.440   0.020  0.00  0.00     0.032 A 
ATOM      9  C   UNL d   1       2.195  -0.732  -0.001  0.00  0.00     0.018 A 
ATOM     10  C   UNL d   1       2.214   0.721   0.035  0.00  0.00     0.004 A 
ENDROOT
BRANCH   4  11
ATOM     11  S   UNL d   1      -2.012  -2.666  -0.244  0.00  0.00    -0.089 SA
BRANCH  11  12
ATOM     12  C   UNL d   1      -3.639  -2.463  -1.036  0.00  0.00     0.124 C 
BRANCH  12  13
ATOM     13  C   UNL d   1      -4.318  -3.783  -1.342  0.00  0.00    -0.005 A 
ATOM     14  C   UNL d   1      -5.308  -4.320  -0.496  0.00  0.00     0.042 A 
ATOM     15 CL   UNL d   1      -5.782  -3.548   0.979  0.00  0.00    -0.084 Cl
ATOM     16  C   UNL d   1      -5.971  -5.514  -0.815  0.00  0.00     0.024 A 
ATOM     17  C   UNL d   1      -5.651  -6.209  -1.975  0.00  0.00     0.003 A 
ATOM     18  C   UNL d   1      -4.659  -5.714  -2.815  0.00  0.00     0.024 A 
ATOM     19  C   UNL d   1      -3.998  -4.517  -2.503  0.00  0.00     0.042 A 
ATOM     20 CL   UNL d   1      -2.787  -3.989  -3.622  0.00  0.00    -0.084 Cl
ENDBRANCH  12  13
ENDBRANCH  11  12
ENDBRANCH   4  11
BRANCH   1  21
ATOM     21  C   UNL d   1      -2.029   2.522  -0.013  0.00  0.00     0.283 C 
ATOM     22  O   UNL d   1      -1.251   3.483   0.012  0.00  0.00    -0.281 OA
BRANCH  21  23
ATOM     23  C   UNL d   1      -3.538   2.740   0.014  0.00  0.00     0.457 C 
ATOM     24  F   UNL d   1      -4.312   1.621  -0.011  0.00  0.00    -0.163 F 
ATOM     25  F   UNL d   1      -3.924   3.429   1.130  0.00  0.00    -0.163 F 
ATOM     26  F   UNL d   1      -3.954   3.498  -1.045  0.00  0.00    -0.163 F 
ENDBRANCH  21  23
ENDBRANCH   1  21
TORSDOF 5
