REMARK  4 active torsions:
REMARK  status: ('A' for Active; 'I' for Inactive)
REMARK    1  A    between atoms: C_3  and  C_1 
REMARK    2  A    between atoms: C_6  and  C_2 
REMARK    3  A    between atoms: C_20  and  C_9 
REMARK    4  A    between atoms: C_11  and  C_17 
ROOT
ATOM      1  C   UNL d   1       1.304  -4.521   0.773  0.00  0.00     0.088 A 
ATOM      2  C   UNL d   1       0.306  -2.734  -0.107  0.00  0.00     0.054 A 
ATOM      3  N   UNL d   1       1.234  -3.205   0.797  0.00  0.00    -0.349 N 
ATOM      4  HN  UNL d   1       1.795  -2.611   1.408  1.00  0.00     0.166 HD
ATOM      5  S   UNL d   1       0.215  -5.262  -0.340  0.00  0.00    -0.081 SA
ATOM      6  C   UNL d   1      -0.292  -3.713  -0.871  0.00  0.00     0.082 A 
ENDROOT
BRANCH   2   7
ATOM      7  C   UNL d   1       0.022  -1.299  -0.142  0.00  0.00     0.052 A 
ATOM      8  C   UNL d   1       0.849  -0.217   0.305  0.00  0.00     0.080 A 
ATOM      9  N   UNL d   1       0.193   0.948   0.162  0.00  0.00    -0.259 N 
ATOM     10  O   UNL d   1      -1.036   0.649  -0.373  0.00  0.00    -0.241 OA
ATOM     11  HN  UNL d   1       0.542   1.875   0.404  1.00  0.00     0.195 HD
ATOM     12  C   UNL d   1      -1.145  -0.690  -0.554  0.00  0.00     0.087 A 
ATOM     13  C   UNL d   1      -2.440  -1.156  -1.088  0.00  0.00     0.080 C 
BRANCH   8  14
ATOM     14  C   UNL d   1       2.213  -0.208   0.850  0.00  0.00    -0.007 A 
ATOM     15  C   UNL d   1       2.550   0.680   1.885  0.00  0.00     0.014 A 
ATOM     16  C   UNL d   1       3.847   0.713   2.410  0.00  0.00     0.001 A 
ATOM     17  C   UNL d   1       4.822  -0.142   1.904  0.00  0.00     0.000 A 
ATOM     18  C   UNL d   1       4.506  -1.019   0.868  0.00  0.00     0.001 A 
ATOM     19  C   UNL d   1       3.215  -1.041   0.334  0.00  0.00     0.014 A 
ENDBRANCH   8  14
ENDBRANCH   2   7
BRANCH   1  20
ATOM     20  C   UNL d   1       2.154  -5.316   1.676  0.00  0.00     0.041 A 
ATOM     21  C   UNL d   1       2.156  -5.045   3.062  0.00  0.00     0.049 A 
ATOM     22  C   UNL d   1       2.978  -5.761   3.946  0.00  0.00     0.041 A 
ATOM     23 CL   UNL d   1       1.136  -3.848   3.793  0.00  0.00    -0.083 Cl
ATOM     24  C   UNL d   1       3.811  -6.784   3.485  0.00  0.00     0.051 A 
ATOM     25  C   UNL d   1       3.824  -7.061   2.115  0.00  0.00     0.041 A 
ATOM     26  C   UNL d   1       3.024  -6.329   1.220  0.00  0.00     0.049 A 
ATOM     27 CL   UNL d   1       3.240  -6.720  -0.455  0.00  0.00    -0.083 Cl
BRANCH  24  28
ATOM     28  C   UNL d   1       4.685  -7.543   4.453  0.00  0.00     0.417 C 
ATOM     29  F   UNL d   1       5.342  -8.589   3.881  0.00  0.00    -0.166 F 
ATOM     30  F   UNL d   1       5.644  -6.755   5.008  0.00  0.00    -0.166 F 
ATOM     31  F   UNL d   1       3.977  -8.066   5.490  0.00  0.00    -0.166 F 
ENDBRANCH  24  28
ENDBRANCH   1  20
TORSDOF 4
