REMARK  4 active torsions:
REMARK  status: ('A' for Active; 'I' for Inactive)
REMARK    1  A    between atoms: S_6  and  C_1 
REMARK    2  A    between atoms: C_11  and  N_2 
REMARK    3  A    between atoms: C_10  and  C_3 
REMARK    4  A    between atoms: C_9  and  S_6 
REMARK       I    between atoms: N_14  and  C_9 
ROOT
ATOM      1  C   UNL d   1       0.007  -1.038   0.040  0.00  0.00     0.176 A 
ATOM      2  N   UNL d   1       1.237  -0.424  -0.154  0.00  0.00    -0.278 N 
ATOM      3  C   UNL d   1       0.969   0.928   0.053  0.00  0.00     0.109 A 
ATOM      4  N   UNL d   1      -0.311   1.092   0.320  0.00  0.00    -0.286 N 
ATOM      5  HN  UNL d   1      -0.777   1.984   0.490  1.00  0.00     0.188 HD
ATOM      6  N   UNL d   1      -0.906  -0.138   0.331  0.00  0.00    -0.278 N 
ATOM      7  HN  UNL d   1      -1.889  -0.326   0.529  1.00  0.00     0.189 HD
ENDROOT
BRANCH   2   8
ATOM      8  C   UNL d   1       2.514  -0.987  -0.429  0.00  0.00     0.043 A 
ATOM      9  C   UNL d   1       3.418  -0.300  -1.258  0.00  0.00     0.032 A 
ATOM     10  C   UNL d   1       4.747  -0.719  -1.360  0.00  0.00     0.026 A 
ATOM     11  C   UNL d   1       5.168  -1.845  -0.663  0.00  0.00     0.034 A 
ATOM     12  C   UNL d   1       4.258  -2.580   0.100  0.00  0.00     0.026 A 
ATOM     13 CL   UNL d   1       6.820  -2.314  -0.716  0.00  0.00    -0.084 Cl
ATOM     14  C   UNL d   1       2.928  -2.157   0.216  0.00  0.00     0.032 A 
ENDBRANCH   2   8
BRANCH   1  15
ATOM     15  S   UNL d   1      -0.399  -2.646  -0.472  0.00  0.00     0.009 SA
BRANCH  15  16
ATOM     16  C   UNL d   1      -0.989  -3.295   1.056  0.00  0.00     0.288 C 
ATOM     17  N   UNL d   1      -2.372  -3.412   1.219  0.00  0.00    -0.351 N 
ATOM     18  C   UNL d   1      -2.861  -4.349   2.214  0.00  0.00     0.152 C 
ATOM     19  C   UNL d   1      -3.370  -2.643   0.491  0.00  0.00     0.152 C 
ATOM     20  O   UNL d   1      -0.180  -3.759   1.851  0.00  0.00    -0.260 OA
ENDBRANCH  15  16
ENDBRANCH   1  15
BRANCH   3  21
ATOM     21  C   UNL d   1       1.970   2.090   0.099  0.00  0.00     0.055 A 
ATOM     22  C   UNL d   1       1.656   3.292   0.961  0.00  0.00     0.013 A 
ATOM     23  C   UNL d   1       1.561   3.411  -0.521  0.00  0.00     0.013 A 
ENDBRANCH   3  21
TORSDOF 4
