REMARK  4 active torsions:
REMARK  status: ('A' for Active; 'I' for Inactive)
REMARK    1  A    between atoms: C_6  and  C_3 
REMARK       I    between atoms: N_8  and  C_6 
REMARK    2  A    between atoms: N_11  and  N_8 
REMARK       I    between atoms: C_9  and  N_11 
REMARK    3  A    between atoms: C_10  and  C_9 
REMARK    4  A    between atoms: C_18  and  C_12 
ROOT
ATOM      1  C   UNL d   1      -4.575   0.574   0.124  0.00  0.00     0.277 C 
ATOM      2  N   UNL d   1      -5.588  -0.349  -0.065  0.00  0.00    -0.263 N 
ATOM      3  O   UNL d   1      -4.844   1.732   0.454  0.00  0.00    -0.265 OA
ATOM      4  H   UNL d   1      -5.419  -1.309  -0.361  0.00  0.00     0.190 HD
ENDROOT
BRANCH   1   5
ATOM      5  C   UNL d   1      -3.212   0.109  -0.101  0.00  0.00     0.075 A 
ATOM      6  S   UNL d   1      -2.828  -1.535  -0.416  0.00  0.00    -0.083 SA
ATOM      7  C   UNL d   1      -1.162  -1.207  -0.530  0.00  0.00     0.023 A 
ATOM      8  C   UNL d   1      -0.890   0.138  -0.353  0.00  0.00    -0.038 A 
ATOM      9  C   UNL d   1      -0.112  -2.200  -0.816  0.00  0.00    -0.012 A 
ATOM     10  C   UNL d   1      -2.069   0.890  -0.085  0.00  0.00     0.033 A 
ATOM     11  C   UNL d   1       0.520   0.642  -0.430  0.00  0.00     0.044 C 
ATOM     12  C   UNL d   1       1.349  -0.203  -1.416  0.00  0.00     0.044 C 
ATOM     13  C   UNL d   1       1.154  -1.698  -1.217  0.00  0.00    -0.046 A 
ATOM     14  C   UNL d   1       2.203  -2.583  -1.493  0.00  0.00     0.008 A 
ATOM     15  C   UNL d   1       2.018  -3.956  -1.339  0.00  0.00     0.001 A 
ATOM     16  C   UNL d   1       0.782  -4.452  -0.925  0.00  0.00     0.001 A 
ATOM     17  C   UNL d   1      -0.281  -3.580  -0.669  0.00  0.00     0.013 A 
ENDBRANCH   1   5
BRANCH   2  18
ATOM     18  N   UNL d   1      -6.921   0.045   0.126  0.00  0.00    -0.264 N 
ATOM     19  C   UNL d   1      -7.910  -0.901  -0.005  0.00  0.00     0.259 C 
ATOM     20  O   UNL d   1      -7.684  -2.075  -0.278  0.00  0.00    -0.267 OA
ATOM     21  H   UNL d   1      -7.075   1.019   0.379  0.00  0.00     0.190 HD
BRANCH  19  22
ATOM     22  C   UNL d   1      -9.281  -0.362   0.203  0.00  0.00     0.076 C 
ATOM     23  C   UNL d   1     -10.331  -1.199   0.149  0.00  0.00     0.017 C 
BRANCH  23  24
ATOM     24  C   UNL d   1     -11.746  -0.815   0.285  0.00  0.00    -0.036 A 
ATOM     25  C   UNL d   1     -12.235   0.437  -0.111  0.00  0.00     0.011 A 
ATOM     26  C   UNL d   1     -13.603   0.725  -0.040  0.00  0.00     0.001 A 
ATOM     27  C   UNL d   1     -14.499  -0.238   0.419  0.00  0.00     0.000 A 
ATOM     28  C   UNL d   1     -14.029  -1.488   0.813  0.00  0.00     0.001 A 
ATOM     29  C   UNL d   1     -12.662  -1.775   0.743  0.00  0.00     0.011 A 
ENDBRANCH  23  24
ENDBRANCH  19  22
ENDBRANCH   2  18
TORSDOF 4
