REMARK  5 active torsions:
REMARK  status: ('A' for Active; 'I' for Inactive)
REMARK    1  A    between atoms: C_9  and  N_1 
REMARK    2  A    between atoms: C_7  and  C_8 
REMARK       I    between atoms: N_14  and  C_7 
REMARK    3  A    between atoms: C_8  and  C_9 
REMARK    4  A    between atoms: C_19  and  N_14 
REMARK    5  A    between atoms: C_18  and  C_19 
ROOT
ATOM      1  C   UNL d   1       4.273  -3.967   0.073  0.00  0.00     0.219 C 
ATOM      2  N   UNL d   1       3.405  -5.026   0.017  0.00  0.00    -0.357 N 
ATOM      3  O   UNL d   1       5.483  -4.118   0.251  0.00  0.00    -0.274 OA
ATOM      4  H   UNL d   1       2.465  -4.898  -0.331  0.00  0.00     0.162 HD
ENDROOT
BRANCH   1   5
ATOM      5  C   UNL d   1       3.715  -2.564  -0.098  0.00  0.00     0.123 C 
BRANCH   5   6
ATOM      6  C   UNL d   1       2.208  -2.364   0.015  0.00  0.00     0.138 C 
BRANCH   6   7
ATOM      7  N   UNL d   1       1.391  -2.789  -1.113  0.00  0.00    -0.355 N 
ATOM      8  C   UNL d   1       1.803  -2.912  -2.413  0.00  0.00     0.099 A 
ATOM      9  C   UNL d   1       0.735  -3.335  -3.179  0.00  0.00    -0.034 A 
ATOM     10  C   UNL d   1       0.743  -3.598  -4.642  0.00  0.00     0.050 C 
ATOM     11  C   UNL d   1      -0.386  -3.445  -2.302  0.00  0.00    -0.002 A 
ATOM     12  C   UNL d   1       0.042  -3.085  -1.021  0.00  0.00     0.045 A 
ATOM     13  C   UNL d   1      -1.734  -3.805  -2.494  0.00  0.00     0.014 A 
ATOM     14  C   UNL d   1      -0.842  -3.056   0.073  0.00  0.00     0.030 A 
ATOM     15  C   UNL d   1      -2.174  -3.413  -0.145  0.00  0.00     0.002 A 
ATOM     16  C   UNL d   1      -2.620  -3.786  -1.408  0.00  0.00     0.001 A 
ENDBRANCH   6   7
ENDBRANCH   5   6
ENDBRANCH   1   5
BRANCH   2  17
ATOM     17  C   UNL d   1       3.884  -6.398   0.073  0.00  0.00     0.161 C 
BRANCH  17  18
ATOM     18  C   UNL d   1       4.268  -6.939  -1.287  0.00  0.00    -0.038 A 
ATOM     19  C   UNL d   1       3.535  -6.604  -2.438  0.00  0.00     0.048 A 
ATOM     20  C   UNL d   1       3.999  -7.051  -3.655  0.00  0.00     0.105 A 
ATOM     21  O   UNL d   1       3.472  -6.733  -4.869  0.00  0.00    -0.323 OA
ATOM     22  C   UNL d   1       5.108  -7.859  -3.761  0.00  0.00     0.105 A 
ATOM     23  C   UNL d   1       4.501  -7.254  -5.734  0.00  0.00     0.352 C 
ATOM     24  O   UNL d   1       5.416  -8.140  -5.056  0.00  0.00    -0.323 OA
ATOM     25  C   UNL d   1       5.805  -8.280  -2.652  0.00  0.00     0.040 A 
ATOM     26  C   UNL d   1       5.383  -7.807  -1.405  0.00  0.00     0.012 A 
ENDBRANCH  17  18
ENDBRANCH   2  17
TORSDOF 5
