REMARK  4 active torsions:
REMARK  status: ('A' for Active; 'I' for Inactive)
REMARK    1  A    between atoms: C_2  and  C_1 
REMARK       I    between atoms: N_10  and  C_1 
REMARK    2  A    between atoms: C_14  and  N_10 
REMARK    3  A    between atoms: C_18  and  C_14 
REMARK    4  A    between atoms: C_15  and  C_18 
ROOT
ATOM      1  C   UNL d   1       0.997  -0.208  -0.300  0.00  0.00     0.251 C 
ATOM      2  O   UNL d   1       0.355   0.644  -0.903  0.00  0.00    -0.268 OA
ATOM      3  N   UNL d   1       2.372  -0.184  -0.189  0.00  0.00    -0.357 N 
ATOM      4  H   UNL d   1       2.821  -0.740   0.527  0.00  0.00     0.162 HD
ENDROOT
BRANCH   3   5
ATOM      5  C   UNL d   1       3.133   0.872  -0.840  0.00  0.00     0.127 C 
BRANCH   5   6
ATOM      6  C   UNL d   1       4.640   0.717  -0.638  0.00  0.00     0.058 C 
BRANCH   6   7
ATOM      7  C   UNL d   1       5.430   1.796  -1.336  0.00  0.00    -0.054 A 
ATOM      8  C   UNL d   1       5.691   3.015  -0.703  0.00  0.00     0.024 A 
ATOM      9  C   UNL d   1       6.423   3.976  -1.386  0.00  0.00     0.088 A 
ATOM     10  N   UNL d   1       6.899   3.811  -2.636  0.00  0.00    -0.375 N 
ATOM     11  C   UNL d   1       6.629   2.631  -3.234  0.00  0.00     0.088 A 
ATOM     12  HN  UNL d   1       7.436   4.540  -3.106  1.00  0.00     0.164 HD
ATOM     13  C   UNL d   1       5.908   1.609  -2.636  0.00  0.00     0.024 A 
ENDBRANCH   6   7
ENDBRANCH   5   6
ENDBRANCH   3   5
BRANCH   1  14
ATOM     14  C   UNL d   1       0.283  -1.339   0.355  0.00  0.00     0.033 A 
ATOM     15  C   UNL d   1       0.879  -2.595   0.510  0.00  0.00     0.042 A 
ATOM     16  C   UNL d   1       0.137  -3.663   1.031  0.00  0.00     0.056 A 
ATOM     17 CL   UNL d   1       0.928  -5.195   1.161  0.00  0.00    -0.083 Cl
ATOM     18  C   UNL d   1      -1.200  -3.478   1.404  0.00  0.00     0.055 A 
ATOM     19  C   UNL d   1      -1.792  -2.220   1.262  0.00  0.00     0.026 A 
ATOM     20 CL   UNL d   1      -2.178  -4.762   2.019  0.00  0.00    -0.083 Cl
ATOM     21  C   UNL d   1      -1.054  -1.156   0.734  0.00  0.00     0.019 A 
ENDBRANCH   1  14
TORSDOF 4
