REMARK  7 active torsions:
REMARK  status: ('A' for Active; 'I' for Inactive)
REMARK    1  A    between atoms: C_3  and  S_1 
REMARK    2  A    between atoms: C_12  and  S_1 
REMARK    3  A    between atoms: C_2  and  C_7 
REMARK    4  A    between atoms: C_4  and  C_3 
REMARK       I    between atoms: N_9  and  C_4 
REMARK       I    between atoms: C_5  and  N_6 
REMARK    5  A    between atoms: C_8  and  C_5 
REMARK    6  A    between atoms: N_6  and  N_9 
REMARK    7  A    between atoms: C_17  and  C_12 
ROOT
ATOM      1  C   UNL d   1       0.525   1.437  -0.611  0.00  0.00     0.244 C 
ENDROOT
BRANCH   1   2
ATOM      2  S   UNL d   1       1.104  -0.188  -0.260  0.00  0.00     0.157 S 
ATOM      3  O   UNL d   1       0.708  -0.494   1.099  0.00  0.00    -0.227 OA
ATOM      4  O   UNL d   1       2.498  -0.233  -0.660  0.00  0.00    -0.227 OA
BRANCH   2   5
ATOM      5  C   UNL d   1       0.137  -1.205  -1.383  0.00  0.00     0.179 C 
BRANCH   5   6
ATOM      6  C   UNL d   1       0.479  -2.661  -1.178  0.00  0.00    -0.043 A 
ATOM      7  C   UNL d   1      -0.201  -3.423  -0.214  0.00  0.00     0.024 A 
ATOM      8  C   UNL d   1       0.117  -4.776   0.002  0.00  0.00     0.048 A 
ATOM      9  C   UNL d   1       1.120  -5.370  -0.778  0.00  0.00     0.016 A 
ATOM     10  C   UNL d   1       1.799  -4.623  -1.740  0.00  0.00     0.001 A 
ATOM     11  C   UNL d   1       1.485  -3.276  -1.935  0.00  0.00     0.008 A 
BRANCH   8  12
ATOM     12  C   UNL d   1      -0.588  -5.583   1.066  0.00  0.00     0.417 C 
ATOM     13  F   UNL d   1      -1.527  -4.876   1.754  0.00  0.00    -0.166 F 
ATOM     14  F   UNL d   1      -1.242  -6.662   0.552  0.00  0.00    -0.166 F 
ATOM     15  F   UNL d   1       0.269  -6.078   2.002  0.00  0.00    -0.166 F 
ENDBRANCH   8  12
ENDBRANCH   5   6
ENDBRANCH   2   5
ENDBRANCH   1   2
BRANCH   1  16
ATOM     16  C   UNL d   1       1.096   2.538   0.247  0.00  0.00     0.250 C 
ATOM     17  N   UNL d   1       2.069   2.265   1.175  0.00  0.00    -0.266 N 
ATOM     18  H   UNL d   1       2.544   1.365   1.292  0.00  0.00     0.190 HD
ATOM     19  O   UNL d   1       0.671   3.691   0.100  0.00  0.00    -0.271 OA
BRANCH  17  20
ATOM     20  N   UNL d   1       2.584   3.318   1.960  0.00  0.00    -0.263 N 
ATOM     21  C   UNL d   1       3.545   2.997   2.901  0.00  0.00     0.270 C 
ATOM     22  O   UNL d   1       3.965   1.852   3.049  0.00  0.00    -0.266 OA
ATOM     23  H   UNL d   1       2.057   4.191   1.964  0.00  0.00     0.190 HD
BRANCH  21  24
ATOM     24  C   UNL d   1       4.067   4.091   3.757  0.00  0.00     0.035 A 
ATOM     25  C   UNL d   1       4.464   3.775   5.065  0.00  0.00     0.041 A 
ATOM     26  C   UNL d   1       5.048   4.752   5.870  0.00  0.00     0.035 A 
ATOM     27 CL   UNL d   1       5.536   4.361   7.473  0.00  0.00    -0.084 Cl
ATOM     28  C   UNL d   1       5.255   6.039   5.380  0.00  0.00     0.024 A 
ATOM     29  C   UNL d   1       4.864   6.358   4.078  0.00  0.00     0.003 A 
ATOM     30  C   UNL d   1       4.265   5.389   3.267  0.00  0.00     0.017 A 
ENDBRANCH  21  24
ENDBRANCH  17  20
ENDBRANCH   1  16
TORSDOF 7
