REMARK  6 active torsions:
REMARK  status: ('A' for Active; 'I' for Inactive)
REMARK    1  A    between atoms: N_2  and  S_1 
REMARK    2  A    between atoms: C_3  and  S_1 
REMARK    3  A    between atoms: C_6  and  N_2 
REMARK    4  A    between atoms: C_4  and  C_7 
REMARK    5  A    between atoms: C_5  and  C_8 
REMARK    6  A    between atoms: C_16  and  C_6 
ROOT
ATOM      1  S   UNL d   1       1.095  -0.036   0.122  0.00  0.00     0.264 S 
ATOM      2  O   UNL d   1       0.602  -1.216  -0.551  0.00  0.00    -0.200 OA
ATOM      3  O   UNL d   1       2.508   0.207   0.314  0.00  0.00    -0.200 OA
ENDROOT
BRANCH   1   4
ATOM      4  N   UNL d   1       0.390   0.076   1.628  0.00  0.00    -0.265 N 
ATOM      5  H   UNL d   1       1.056   0.406   2.323  0.00  0.00     0.180 HD
BRANCH   4   6
ATOM      6  C   UNL d   1      -0.809  -0.511   2.057  0.00  0.00     0.118 C 
ATOM      7  N   UNL d   1      -1.505  -1.288   1.306  0.00  0.00    -0.384 N 
ATOM      8  H   UNL d   1      -1.020  -1.465   0.416  0.00  0.00     0.157 HD
ATOM      9  HN  UNL d   1      -2.414  -1.676   1.559  1.00  0.00     0.157 HD
BRANCH   6  10
ATOM     10  C   UNL d   1      -1.246  -0.194   3.444  0.00  0.00     0.008 A 
ATOM     11  C   UNL d   1      -0.823   0.952   4.132  0.00  0.00     0.015 A 
ATOM     12  C   UNL d   1      -1.280   1.192   5.433  0.00  0.00     0.001 A 
ATOM     13  C   UNL d   1      -2.148   0.293   6.052  0.00  0.00     0.000 A 
ATOM     14  C   UNL d   1      -2.564  -0.852   5.377  0.00  0.00     0.001 A 
ATOM     15  C   UNL d   1      -2.116  -1.093   4.077  0.00  0.00     0.015 A 
ENDBRANCH   6  10
ENDBRANCH   4   6
ENDBRANCH   1   4
BRANCH   1  16
ATOM     16  C   UNL d   1       0.404   1.381  -0.706  0.00  0.00     0.081 A 
ATOM     17  C   UNL d   1       1.151   2.559  -0.798  0.00  0.00     0.041 A 
ATOM     18  C   UNL d   1       0.629   3.670  -1.479  0.00  0.00     0.050 A 
ATOM     19  C   UNL d   1      -0.644   3.568  -2.070  0.00  0.00     0.032 A 
ATOM     20  C   UNL d   1      -1.392   2.378  -2.000  0.00  0.00     0.050 A 
ATOM     21  C   UNL d   1      -0.855   1.281  -1.311  0.00  0.00     0.041 A 
BRANCH  18  22
ATOM     22  C   UNL d   1       1.411   4.960  -1.584  0.00  0.00     0.417 C 
ATOM     23  F   UNL d   1       2.653   4.887  -1.033  0.00  0.00    -0.166 F 
ATOM     24  F   UNL d   1       1.592   5.355  -2.873  0.00  0.00    -0.166 F 
ATOM     25  F   UNL d   1       0.782   5.991  -0.958  0.00  0.00    -0.166 F 
ENDBRANCH  18  22
BRANCH  20  26
ATOM     26  C   UNL d   1      -2.749   2.302  -2.666  0.00  0.00     0.417 C 
ATOM     27  F   UNL d   1      -3.330   1.076  -2.582  0.00  0.00    -0.166 F 
ATOM     28  F   UNL d   1      -3.637   3.180  -2.123  0.00  0.00    -0.166 F 
ATOM     29  F   UNL d   1      -2.689   2.601  -3.992  0.00  0.00    -0.166 F 
ENDBRANCH  20  26
ENDBRANCH   1  16
TORSDOF 6
