REMARK  10 active torsions:
REMARK  status: ('A' for Active; 'I' for Inactive)
REMARK    1  A    between atoms: O_4  and  C_1 
REMARK    2  A    between atoms: C_5  and  O_4 
REMARK       I    between atoms: N_11  and  C_5 
REMARK    3  A    between atoms: S_12  and  C_6 
REMARK    4  A    between atoms: C_25  and  C_10 
REMARK    5  A    between atoms: C_26  and  N_11 
REMARK    6  A    between atoms: C_27  and  N_11 
REMARK    7  A    between atoms: C_16  and  S_12 
REMARK    8  A    between atoms: C_13  and  C_16 
REMARK    9  A    between atoms: C_15  and  C_13 
REMARK   10  A    between atoms: C_28  and  C_25 
ROOT
ATOM      1  C   UNL d   1      -0.283  -1.126   0.374  0.00  0.00     0.163 C 
ATOM      2  N   UNL d   1       1.020  -1.241   0.688  0.00  0.00    -0.317 N 
ATOM      3  HN  UNL d   1       1.399  -2.084   1.119  1.00  0.00     0.170 HD
ATOM      4  C   UNL d   1       1.790  -0.183   0.403  0.00  0.00     0.146 C 
ATOM      5  C   UNL d   1      -0.794  -0.050  -0.334  0.00  0.00     0.012 C 
ATOM      6  N   UNL d   1       1.317   1.011   0.018  0.00  0.00    -0.340 N 
ATOM      7  HN  UNL d   1       1.919   1.833  -0.020  1.00  0.00     0.168 HD
ATOM      8  C   UNL d   1       0.010   1.080  -0.319  0.00  0.00     0.021 C 
ATOM      9  C   UNL d   1      -1.957  -0.204  -1.266  0.00  0.00     0.055 C 
ENDROOT
BRANCH   4  10
ATOM     10  S   UNL d   1       3.543  -0.473   0.297  0.00  0.00    -0.086 SA
BRANCH  10  11
ATOM     11  C   UNL d   1       4.183   1.226   0.184  0.00  0.00     0.166 C 
BRANCH  11  12
ATOM     12  C   UNL d   1       5.594   1.221  -0.383  0.00  0.00     0.169 C 
ATOM     13  O   UNL d   1       6.544   0.719   0.219  0.00  0.00    -0.291 OA
BRANCH  12  14
ATOM     14  C   UNL d   1       5.868   1.918  -1.679  0.00  0.00     0.011 A 
ATOM     15  C   UNL d   1       7.147   2.462  -1.885  0.00  0.00     0.017 A 
ATOM     16  C   UNL d   1       7.454   3.131  -3.073  0.00  0.00     0.025 A 
ATOM     17  C   UNL d   1       6.486   3.249  -4.067  0.00  0.00     0.034 A 
ATOM     18  C   UNL d   1       5.216   2.701  -3.884  0.00  0.00     0.025 A 
ATOM     19 CL   UNL d   1       6.858   4.071  -5.533  0.00  0.00    -0.084 Cl
ATOM     20  C   UNL d   1       4.907   2.032  -2.691  0.00  0.00     0.017 A 
ENDBRANCH  12  14
ENDBRANCH  11  12
ENDBRANCH  10  11
ENDBRANCH   4  10
BRANCH   1  21
ATOM     21  O   UNL d   1      -1.060  -2.266   0.677  0.00  0.00    -0.243 OA
BRANCH  21  22
ATOM     22  C   UNL d   1      -2.292  -2.081   1.321  0.00  0.00     0.369 C 
ATOM     23  N   UNL d   1      -3.002  -3.273   1.495  0.00  0.00    -0.328 N 
ATOM     24  O   UNL d   1      -2.742  -0.989   1.641  0.00  0.00    -0.238 OA
BRANCH  23  25
ATOM     25  C   UNL d   1      -4.421  -3.218   1.851  0.00  0.00     0.123 C 
ATOM     26  C   UNL d   1      -4.715  -3.211   3.342  0.00  0.00     0.026 C 
ENDBRANCH  23  25
BRANCH  23  27
ATOM     27  C   UNL d   1      -2.353  -4.582   1.413  0.00  0.00     0.123 C 
ATOM     28  C   UNL d   1      -1.785  -5.043   2.747  0.00  0.00     0.026 C 
ENDBRANCH  23  27
ENDBRANCH  21  22
ENDBRANCH   1  21
BRANCH   8  29
ATOM     29  C   UNL d   1      -0.574   2.472  -0.446  0.00  0.00     0.057 C 
BRANCH  29  30
ATOM     30  C   UNL d   1       0.267   3.481  -1.229  0.00  0.00     0.002 C 
ATOM     31  C   UNL d   1       0.295   3.184  -2.719  0.00  0.00     0.005 C 
ENDBRANCH  29  30
ENDBRANCH   8  29
TORSDOF 10
