REMARK  5 active torsions:
REMARK  status: ('A' for Active; 'I' for Inactive)
REMARK    1  A    between atoms: O_12  and  C_1 
REMARK    2  A    between atoms: C_2  and  C_8 
REMARK       I    between atoms: N_7  and  C_2 
REMARK    3  A    between atoms: O_13  and  C_3 
REMARK    4  A    between atoms: C_8  and  C_5 
REMARK    5  A    between atoms: N_11  and  N_7 
ROOT
ATOM      1  C   UNL d   1       1.401  -0.216   0.015  0.00  0.00     0.102 A 
ATOM      2  C   UNL d   1       0.629  -1.383  -0.074  0.00  0.00     0.101 A 
ATOM      3  C   UNL d   1       0.755   1.024   0.168  0.00  0.00     0.047 A 
ATOM      4  C   UNL d   1      -0.645   1.132   0.158  0.00  0.00    -0.047 A 
ATOM      5  C   UNL d   1      -0.770  -1.275  -0.085  0.00  0.00     0.040 A 
ATOM      6  C   UNL d   1      -1.403  -0.034   0.027  0.00  0.00     0.010 A 
ENDROOT
BRANCH   4   7
ATOM      7  C   UNL d   1      -1.304   2.482   0.324  0.00  0.00     0.142 C 
BRANCH   7   8
ATOM      8  C   UNL d   1      -2.213   2.930  -0.807  0.00  0.00     0.235 C 
ATOM      9  O   UNL d   1      -3.242   3.572  -0.605  0.00  0.00    -0.272 OA
ATOM     10  N   UNL d   1      -1.761   2.648  -2.092  0.00  0.00    -0.294 N 
ATOM     11  H   UNL d   1      -0.864   2.192  -2.245  0.00  0.00     0.183 HD
BRANCH  10  12
ATOM     12  N   UNL d   1      -2.481   3.144  -3.202  0.00  0.00    -0.247 NA
ATOM     13  H   UNL d   1      -3.109   3.878  -2.845  0.00  0.00     0.143 HD
ATOM     14  H   UNL d   1      -3.125   2.409  -3.510  0.00  0.00     0.143 HD
ENDBRANCH  10  12
ENDBRANCH   7   8
ENDBRANCH   4   7
BRANCH   1  15
ATOM     15  O   UNL d   1       2.764  -0.320  -0.055  0.00  0.00    -0.353 OA
ATOM     16  C   UNL d   1       3.461   0.815  -0.558  0.00  0.00     0.210 C 
ENDBRANCH   1  15
BRANCH   2  17
ATOM     17  O   UNL d   1       1.081  -2.660  -0.282  0.00  0.00    -0.353 OA
ATOM     18  C   UNL d   1       2.244  -3.076   0.425  0.00  0.00     0.210 C 
ENDBRANCH   2  17
TORSDOF 5
