REMARK  5 active torsions:
REMARK  status: ('A' for Active; 'I' for Inactive)
REMARK    1  A    between atoms: S_3  and  C_1 
REMARK    2  A    between atoms: N_5  and  C_2 
REMARK    3  A    between atoms: C_11  and  S_3 
REMARK    4  A    between atoms: S_16  and  C_4 
REMARK       I    between atoms: C_9  and  N_5 
REMARK    5  A    between atoms: C_10  and  C_9 
ROOT
ATOM      1  C   UNL d   1       0.880   0.810  -0.326  0.00  0.00     0.144 C 
ATOM      2  C   UNL d   1       1.006  -0.526   0.006  0.00  0.00     0.148 C 
ATOM      3  C   UNL d   1      -0.440   1.147   0.052  0.00  0.00     0.110 C 
ATOM      4  N   UNL d   1      -0.262  -0.932   0.330  0.00  0.00    -0.283 N 
ATOM      5  N   UNL d   1      -1.122   0.080   0.479  0.00  0.00    -0.291 N 
ATOM      6  HN  UNL d   1      -2.077   0.045   0.835  1.00  0.00     0.187 HD
ATOM      7  H   UNL d   1      -0.580  -1.866   0.565  0.00  0.00     0.188 HD
ENDROOT
BRANCH   2   8
ATOM      8  N   UNL d   1       2.102  -1.377   0.026  0.00  0.00    -0.306 N 
ATOM      9  C   UNL d   1       3.334  -1.001   0.665  0.00  0.00     0.259 C 
ATOM     10  O   UNL d   1       3.416   0.105   1.180  0.00  0.00    -0.267 OA
ATOM     11  H   UNL d   1       1.978  -2.344  -0.258  0.00  0.00     0.170 HD
BRANCH   9  12
ATOM     12  C   UNL d   1       4.375  -2.046   0.867  0.00  0.00     0.054 A 
ATOM     13  C   UNL d   1       4.436  -3.261   0.171  0.00  0.00     0.049 A 
ATOM     14 CL   UNL d   1       3.371  -3.678  -1.125  0.00  0.00    -0.083 Cl
ATOM     15  C   UNL d   1       5.395  -4.223   0.517  0.00  0.00     0.025 A 
ATOM     16  C   UNL d   1       6.301  -3.981   1.548  0.00  0.00     0.002 A 
ATOM     17  C   UNL d   1       6.267  -2.770   2.230  0.00  0.00     0.001 A 
ATOM     18  C   UNL d   1       5.314  -1.806   1.890  0.00  0.00     0.019 A 
ENDBRANCH   9  12
ENDBRANCH   2   8
BRANCH   1  19
ATOM     19  S   UNL d   1       1.986   1.780  -1.194  0.00  0.00     0.213 S 
ATOM     20  O   UNL d   1       3.035   0.860  -1.598  0.00  0.00    -0.217 OA
ATOM     21  O   UNL d   1       1.173   2.443  -2.192  0.00  0.00    -0.217 OA
BRANCH  19  22
ATOM     22  C   UNL d   1       2.730   3.021  -0.182  0.00  0.00     0.064 A 
ATOM     23  C   UNL d   1       2.575   3.057   1.205  0.00  0.00     0.025 A 
ATOM     24  C   UNL d   1       3.245   4.038   1.944  0.00  0.00     0.025 A 
ATOM     25  C   UNL d   1       4.053   4.975   1.297  0.00  0.00     0.034 A 
ATOM     26  C   UNL d   1       4.198   4.947  -0.088  0.00  0.00     0.025 A 
ATOM     27 CL   UNL d   1       4.883   6.167   2.218  0.00  0.00    -0.084 Cl
ATOM     28  C   UNL d   1       3.535   3.969  -0.831  0.00  0.00     0.025 A 
ENDBRANCH  19  22
ENDBRANCH   1  19
BRANCH   3  29
ATOM     29  S   UNL d   1      -1.191   2.726   0.051  0.00  0.00    -0.114 SA
ATOM     30  C   UNL d   1      -2.850   2.352   0.676  0.00  0.00     0.097 C 
ENDBRANCH   3  29
TORSDOF 5
