REMARK  8 active torsions:
REMARK  status: ('A' for Active; 'I' for Inactive)
REMARK    1  A    between atoms: N_2  and  C_1 
REMARK    2  A    between atoms: C_3  and  C_1 
REMARK    3  A    between atoms: C_6  and  C_1 
REMARK    4  A    between atoms: O_11  and  C_1 
REMARK       I    between atoms: C_4  and  N_2 
REMARK    5  A    between atoms: C_8  and  C_4 
REMARK    6  A    between atoms: C_5  and  C_7 
REMARK    7  A    between atoms: O_19  and  C_6 
REMARK    8  A    between atoms: C_23  and  O_19 
ROOT
ATOM      1  N   UNL d   1       0.693   0.249   1.433  0.00  0.00    -0.309 N 
ATOM      2  C   UNL d   1       1.050  -0.554   2.482  0.00  0.00     0.254 C 
ATOM      3  O   UNL d   1       1.653  -1.604   2.315  0.00  0.00    -0.268 OA
ATOM      4  H   UNL d   1       0.101   1.063   1.571  0.00  0.00     0.166 HD
ENDROOT
BRANCH   1   5
ATOM      5  C   UNL d   1       1.073  -0.052   0.048  0.00  0.00     0.325 C 
BRANCH   5   6
ATOM      6  C   UNL d   1       2.591   0.041  -0.277  0.00  0.00     0.448 C 
ATOM      7  F   UNL d   1       3.339   0.284   0.830  0.00  0.00    -0.166 F 
ATOM      8  F   UNL d   1       3.056  -1.114  -0.816  0.00  0.00    -0.166 F 
ATOM      9  F   UNL d   1       2.890   1.028  -1.156  0.00  0.00    -0.166 F 
ENDBRANCH   5   6
BRANCH   5  10
ATOM     10  C   UNL d   1       0.382   1.038  -0.788  0.00  0.00     0.325 C 
ATOM     11  O   UNL d   1       0.034   2.123  -0.322  0.00  0.00    -0.259 OA
BRANCH  10  12
ATOM     12  O   UNL d   1       0.118   0.619  -2.057  0.00  0.00    -0.318 OA
BRANCH  12  13
ATOM     13  C   UNL d   1      -0.831   1.413  -2.783  0.00  0.00     0.174 C 
ATOM     14  C   UNL d   1      -2.237   0.968  -2.413  0.00  0.00     0.034 C 
ENDBRANCH  12  13
ENDBRANCH  10  12
ENDBRANCH   5  10
BRANCH   5  15
ATOM     15  O   UNL d   1       0.494  -1.332  -0.224  0.00  0.00    -0.356 OA
ATOM     16  H   UNL d   1       0.939  -1.940   0.403  0.00  0.00     0.213 HD
ENDBRANCH   5  15
ENDBRANCH   1   5
BRANCH   2  17
ATOM     17  C   UNL d   1       0.564  -0.124   3.820  0.00  0.00     0.032 A 
ATOM     18  C   UNL d   1       0.196  -1.109   4.744  0.00  0.00     0.033 A 
ATOM     19  C   UNL d   1      -0.354  -0.747   5.984  0.00  0.00     0.048 A 
ATOM     20  C   UNL d   1      -0.501   0.616   6.292  0.00  0.00     0.016 A 
ATOM     21  C   UNL d   1      -0.104   1.598   5.383  0.00  0.00     0.002 A 
ATOM     22  C   UNL d   1       0.428   1.231   4.148  0.00  0.00     0.017 A 
BRANCH  19  23
ATOM     23  C   UNL d   1      -0.820  -1.793   6.968  0.00  0.00     0.417 C 
ATOM     24  F   UNL d   1      -0.575  -3.070   6.566  0.00  0.00    -0.166 F 
ATOM     25  F   UNL d   1      -0.230  -1.662   8.187  0.00  0.00    -0.166 F 
ATOM     26  F   UNL d   1      -2.162  -1.723   7.192  0.00  0.00    -0.166 F 
ENDBRANCH  19  23
ENDBRANCH   2  17
TORSDOF 8
