REMARK  5 active torsions:
REMARK  status: ('A' for Active; 'I' for Inactive)
REMARK    1  A    between atoms: C_9  and  N_3 
REMARK    2  A    between atoms: C_12  and  C_4 
REMARK    3  A    between atoms: N_8  and  C_11 
REMARK    4  A    between atoms: C_10  and  C_9 
REMARK       I    between atoms: N_17  and  C_10 
REMARK    5  A    between atoms: N_18  and  N_17 
ROOT
ATOM      1  N   UNL d   1      -0.417  -1.219   0.052  0.00  0.00    -0.268 N 
ATOM      2  HN  UNL d   1      -0.661  -2.208   0.116  1.00  0.00     0.190 HD
ATOM      3  N   UNL d   1       0.795  -0.627   0.017  0.00  0.00    -0.207 N 
ATOM      4  C   UNL d   1      -1.214  -0.136  -0.022  0.00  0.00     0.144 A 
ATOM      5  N   UNL d   1      -0.497   1.032  -0.143  0.00  0.00    -0.266 N 
ATOM      6  HN  UNL d   1      -0.882   1.973  -0.233  1.00  0.00     0.186 HD
ATOM      7  N   UNL d   1       0.786   0.705  -0.121  0.00  0.00    -0.002 NA
ENDROOT
BRANCH   4   8
ATOM      8  C   UNL d   1      -2.671  -0.170   0.011  0.00  0.00     0.013 A 
ATOM      9  C   UNL d   1      -3.413   1.007  -0.176  0.00  0.00     0.051 A 
ATOM     10  C   UNL d   1      -4.816   0.963  -0.143  0.00  0.00     0.103 A 
ATOM     11  C   UNL d   1      -5.489  -0.245   0.078  0.00  0.00     0.036 A 
ATOM     12  C   UNL d   1      -4.754  -1.414   0.267  0.00  0.00     0.003 A 
ATOM     13  C   UNL d   1      -3.357  -1.376   0.234  0.00  0.00     0.015 A 
BRANCH  10  14
ATOM     14  N   UNL d   1      -5.589   2.196  -0.345  0.00  0.00    -0.116 N 
ATOM     15  O   UNL d   1      -4.960   3.245  -0.543  0.00  0.00    -0.532 OA
ATOM     16  O   UNL d   1      -6.824   2.114  -0.306  0.00  0.00    -0.532 OA
ENDBRANCH  10  14
ENDBRANCH   4   8
BRANCH   3  17
ATOM     17  C   UNL d   1       2.018  -1.388   0.073  0.00  0.00     0.271 C 
BRANCH  17  18
ATOM     18  C   UNL d   1       2.471  -1.834  -1.292  0.00  0.00     0.252 C 
ATOM     19  O   UNL d   1       3.668  -1.891  -1.588  0.00  0.00    -0.270 OA
ATOM     20  N   UNL d   1       1.478  -2.263  -2.165  0.00  0.00    -0.292 N 
ATOM     21  H   UNL d   1       0.507  -2.362  -1.855  0.00  0.00     0.183 HD
BRANCH  20  22
ATOM     22  N   UNL d   1       1.841  -2.768  -3.432  0.00  0.00    -0.247 NA
ATOM     23  H   UNL d   1       2.862  -2.909  -3.421  0.00  0.00     0.143 HD
ATOM     24  H   UNL d   1       1.705  -2.023  -4.122  0.00  0.00     0.143 HD
ENDBRANCH  20  22
ENDBRANCH  17  18
ENDBRANCH   3  17
TORSDOF 5
