REMARK  4 active torsions:
REMARK  status: ('A' for Active; 'I' for Inactive)
REMARK    1  A    between atoms: N_5  and  C_1 
REMARK    2  A    between atoms: N_9  and  C_1 
REMARK    3  A    between atoms: N_2  and  N_5 
REMARK    4  A    between atoms: C_4  and  N_2 
ROOT
ATOM      1  C   UNL d   1       1.873   0.720  -2.843  0.00  0.00     0.036 C 
ATOM      2  C   UNL d   1       2.447   1.548  -3.957  0.00  0.00    -0.006 A 
ATOM      3  C   UNL d   1       3.592   1.117  -4.649  0.00  0.00    -0.046 A 
ATOM      4  C   UNL d   1       2.533  -0.628  -2.568  0.00  0.00     0.060 C 
ATOM      5  C   UNL d   1       3.301  -1.177  -3.759  0.00  0.00     0.011 C 
ATOM      6  C   UNL d   1       1.836   2.757  -4.315  0.00  0.00     0.014 A 
ATOM      7  C   UNL d   1       4.298  -0.156  -4.275  0.00  0.00     0.040 C 
ATOM      8  C   UNL d   1       4.111   1.909  -5.686  0.00  0.00     0.008 A 
ATOM      9  C   UNL d   1       2.355   3.530  -5.357  0.00  0.00     0.001 A 
ATOM     10  C   UNL d   1       3.489   3.104  -6.042  0.00  0.00     0.001 A 
ENDROOT
BRANCH   1  11
ATOM     11  N   UNL d   1       0.881   1.201  -2.143  0.00  0.00    -0.302 N 
ATOM     12  HN  UNL d   1       0.494   2.121  -2.352  1.00  0.00     0.186 HD
BRANCH  11  13
ATOM     13  N   UNL d   1       0.373   0.446  -1.125  0.00  0.00    -0.276 N 
ATOM     14  H   UNL d   1       0.713  -0.491  -0.940  0.00  0.00     0.189 HD
BRANCH  13  15
ATOM     15  C   UNL d   1      -0.647   0.887  -0.332  0.00  0.00     0.184 C 
ATOM     16  S   UNL d   1      -1.307  -0.061   0.859  0.00  0.00    -0.040 SA
BRANCH  15  17
ATOM     17  N   UNL d   1      -1.083   2.144  -0.570  0.00  0.00    -0.375 N 
ATOM     18  H   UNL d   1      -0.648   2.649  -1.332  0.00  0.00     0.158 HD
ATOM     19  H   UNL d   1      -1.839   2.549  -0.037  0.00  0.00     0.158 HD
ENDBRANCH  15  17
ENDBRANCH  13  15
ENDBRANCH  11  13
ENDBRANCH   1  11
TORSDOF 4
