REMARK  3 active torsions:
REMARK  status: ('A' for Active; 'I' for Inactive)
REMARK    1  A    between atoms: C_6  and  C_1 
REMARK    2  A    between atoms: C_5  and  C_6 
REMARK    3  A    between atoms: N_10  and  C_8 
ROOT
ATOM      1  C   UNL d   1       0.985  -1.615  -0.002  0.00  0.00     0.032 A 
ATOM      2  C   UNL d   1       2.057  -0.739  -0.006  0.00  0.00     0.067 A 
ATOM      3  S   UNL d   1       1.608   0.904  -0.003  0.00  0.00    -0.100 SA
ATOM      4  C   UNL d   1      -0.274  -0.861  -0.002  0.00  0.00    -0.004 A 
ATOM      5  C   UNL d   1      -0.063   0.524  -0.001  0.00  0.00     0.016 A 
ATOM      6  C   UNL d   1      -1.627  -1.300  -0.003  0.00  0.00     0.014 A 
ATOM      7  C   UNL d   1      -1.132   1.446   0.002  0.00  0.00     0.019 A 
ATOM      8  C   UNL d   1      -2.691  -0.391  -0.001  0.00  0.00     0.001 A 
ATOM      9  C   UNL d   1      -2.443   0.972   0.001  0.00  0.00     0.001 A 
ENDROOT
BRANCH   1  10
ATOM     10  C   UNL d   1       1.069  -3.090   0.001  0.00  0.00     0.184 C 
ATOM     11  O   UNL d   1       0.072  -3.808   0.003  0.00  0.00    -0.287 OA
BRANCH  10  12
ATOM     12  C   UNL d   1       2.437  -3.694   0.002  0.00  0.00     0.072 C 
ATOM     13  C   UNL d   1       2.583  -5.029   0.009  0.00  0.00     0.088 C 
BRANCH  13  14
ATOM     14  N   UNL d   1       3.736  -5.806   0.011  0.00  0.00    -0.398 N 
ATOM     15  C   UNL d   1       5.100  -5.282  -0.004  0.00  0.00     0.148 C 
ATOM     16  C   UNL d   1       3.672  -7.271   0.022  0.00  0.00     0.148 C 
ENDBRANCH  13  14
ENDBRANCH  10  12
ENDBRANCH   1  10
TORSDOF 3
