REMARK  6 active torsions:
REMARK  status: ('A' for Active; 'I' for Inactive)
REMARK    1  A    between atoms: C_8  and  C_1 
REMARK    2  A    between atoms: N_13  and  C_3 
REMARK    3  A    between atoms: C_11  and  C_4 
REMARK    4  A    between atoms: C_7  and  C_12 
REMARK    5  A    between atoms: O_22  and  C_8 
REMARK    6  A    between atoms: C_24  and  O_22 
ROOT
ATOM      1  C   UNL d   1      -1.461  -1.474  -0.091  0.00  0.00     0.060 C 
ATOM      2  C   UNL d   1       0.794  -0.335   0.150  0.00  0.00     0.080 C 
ATOM      3  C   UNL d   1       0.150   0.846   0.021  0.00  0.00     0.138 C 
ATOM      4  C   UNL d   1       0.026  -1.645   0.228  0.00  0.00     0.108 C 
ATOM      5  C   UNL d   1      -2.008  -0.236  -0.102  0.00  0.00     0.064 C 
ATOM      6  O   UNL d   1      -1.232   0.903   0.051  0.00  0.00    -0.302 OA
ATOM      7  C   UNL d   1       2.233  -0.349   0.182  0.00  0.00     0.100 C 
ATOM      8  N   UNL d   1       3.388  -0.330   0.231  0.00  0.00    -0.191 NA
ATOM      9  C   UNL d   1      -3.456   0.148  -0.233  0.00  0.00     0.077 C 
ENDROOT
BRANCH   4  10
ATOM     10  C   UNL d   1       0.729  -2.740  -0.583  0.00  0.00    -0.044 A 
ATOM     11  C   UNL d   1       1.210  -3.885   0.076  0.00  0.00     0.009 A 
ATOM     12  C   UNL d   1       1.922  -4.865  -0.618  0.00  0.00     0.017 A 
ATOM     13  C   UNL d   1       2.178  -4.717  -1.986  0.00  0.00     0.047 A 
ATOM     14  C   UNL d   1       1.682  -3.584  -2.651  0.00  0.00     0.017 A 
ATOM     15  C   UNL d   1       0.959  -2.608  -1.960  0.00  0.00     0.009 A 
BRANCH  13  16
ATOM     16  C   UNL d   1       2.983  -5.744  -2.744  0.00  0.00     0.417 C 
ATOM     17  F   UNL d   1       3.418  -6.779  -1.973  0.00  0.00    -0.166 F 
ATOM     18  F   UNL d   1       2.277  -6.309  -3.763  0.00  0.00    -0.166 F 
ATOM     19  F   UNL d   1       4.099  -5.212  -3.315  0.00  0.00    -0.166 F 
ENDBRANCH  13  16
ENDBRANCH   4  10
BRANCH   3  20
ATOM     20  N   UNL d   1       0.725   2.086  -0.127  0.00  0.00    -0.282 NA
ATOM     21  H   UNL d   1       0.123   2.842   0.187  0.00  0.00     0.126 HD
ATOM     22  H   UNL d   1       1.696   2.180   0.154  0.00  0.00     0.126 HD
ENDBRANCH   3  20
BRANCH   1  23
ATOM     23  C   UNL d   1      -2.241  -2.723  -0.341  0.00  0.00     0.292 C 
ATOM     24  O   UNL d   1      -1.951  -3.813   0.127  0.00  0.00    -0.259 OA
BRANCH  23  25
ATOM     25  O   UNL d   1      -3.209  -2.497  -1.264  0.00  0.00    -0.318 OA
BRANCH  25  26
ATOM     26  C   UNL d   1      -3.741  -3.626  -1.973  0.00  0.00     0.174 C 
ATOM     27  C   UNL d   1      -5.098  -4.064  -1.450  0.00  0.00     0.034 C 
ENDBRANCH  25  26
ENDBRANCH  23  25
ENDBRANCH   1  23
TORSDOF 6
