REMARK  4 active torsions:
REMARK  status: ('A' for Active; 'I' for Inactive)
REMARK    1  A    between atoms: N_8  and  C_4 
REMARK    2  A    between atoms: C_12  and  N_8 
REMARK    3  A    between atoms: C_20  and  C_13 
REMARK    4  A    between atoms: C_21  and  C_20 
ROOT
ATOM      1  C   UNL d   1      -2.442  -0.654  -0.076  0.00  0.00     0.103 A 
ATOM      2  C   UNL d   1      -1.325  -1.609   0.135  0.00  0.00     0.200 A 
ATOM      3  C   UNL d   1      -1.875   0.719  -0.159  0.00  0.00     0.200 A 
ATOM      4  C   UNL d   1      -3.725  -1.044  -0.154  0.00  0.00     0.132 C 
ATOM      5  C   UNL d   1      -0.108  -0.796   0.164  0.00  0.00     0.029 A 
ATOM      6  C   UNL d   1      -0.424   0.550  -0.003  0.00  0.00     0.029 A 
ATOM      7  C   UNL d   1      -4.751  -0.044  -0.266  0.00  0.00     0.118 C 
ATOM      8  N   UNL d   1      -5.592   0.752  -0.359  0.00  0.00    -0.190 NA
ATOM      9  O   UNL d   1      -2.449   1.770  -0.327  0.00  0.00    -0.286 OA
ATOM     10  O   UNL d   1      -1.399  -2.813   0.282  0.00  0.00    -0.286 OA
ATOM     11  C   UNL d   1       0.556   1.526  -0.009  0.00  0.00     0.016 A 
ATOM     12  C   UNL d   1       1.194  -1.225   0.335  0.00  0.00     0.016 A 
ATOM     13  C   UNL d   1       1.881   1.111   0.158  0.00  0.00     0.001 A 
ATOM     14  C   UNL d   1       2.197  -0.252   0.329  0.00  0.00     0.001 A 
ENDROOT
BRANCH   4  15
ATOM     15  N   UNL d   1      -4.128  -2.378  -0.057  0.00  0.00    -0.347 N 
ATOM     16  H   UNL d   1      -3.376  -3.026   0.198  0.00  0.00     0.167 HD
BRANCH  15  17
ATOM     17  C   UNL d   1      -5.402  -2.972  -0.104  0.00  0.00     0.033 A 
ATOM     18  C   UNL d   1      -6.460  -2.465  -0.861  0.00  0.00     0.030 A 
ATOM     19  C   UNL d   1      -7.754  -2.974  -0.726  0.00  0.00     0.009 A 
ATOM     20  C   UNL d   1      -8.021  -4.014   0.167  0.00  0.00    -0.058 A 
ATOM     21  C   UNL d   1      -6.953  -4.591   0.861  0.00  0.00     0.009 A 
ATOM     22  C   UNL d   1      -5.661  -4.070   0.730  0.00  0.00     0.030 A 
BRANCH  20  23
ATOM     23  C   UNL d   1      -9.444  -4.457   0.400  0.00  0.00     0.038 C 
BRANCH  23  24
ATOM     24  C   UNL d   1      -9.931  -4.242   1.839  0.00  0.00     0.000 C 
ATOM     25  C   UNL d   1      -9.878  -2.788   2.292  0.00  0.00     0.005 C 
ENDBRANCH  23  24
ENDBRANCH  20  23
ENDBRANCH  15  17
ENDBRANCH   4  15
TORSDOF 4
