REMARK  5 active torsions:
REMARK  status: ('A' for Active; 'I' for Inactive)
REMARK    1  A    between atoms: N_2  and  C_1 
REMARK    2  A    between atoms: N_3  and  C_1 
REMARK    3  A    between atoms: C_4  and  N_2 
REMARK    4  A    between atoms: C_5  and  C_11 
REMARK    5  A    between atoms: C_11  and  N_7 
ROOT
ATOM      1  N   UNL d   1       0.306  -0.880   0.334  0.00  0.00    -0.356 N 
ATOM      2  N   UNL d   1      -2.211  -2.506  -0.834  0.00  0.00     0.094 N 
ATOM      3  C   UNL d   1      -0.348  -0.726  -0.970  0.00  0.00     0.155 C 
ATOM      4  C   UNL d   1      -1.835  -1.099  -0.983  0.00  0.00     0.292 C 
ATOM      5  C   UNL d   1      -0.448  -3.322   0.844  0.00  0.00     0.050 C 
ATOM      6  C   UNL d   1       0.643  -2.253   0.721  0.00  0.00     0.127 C 
ATOM      7  C   UNL d   1      -1.891  -3.028   0.488  0.00  0.00     0.274 C 
ENDROOT
BRANCH   1   8
ATOM      8  C   UNL d   1       1.204   0.104   0.815  0.00  0.00     0.174 C 
ATOM      9  S   UNL d   1       1.229   0.494   2.454  0.00  0.00    -0.041 SA
BRANCH   8  10
ATOM     10  N   UNL d   1       2.003   0.687  -0.164  0.00  0.00    -0.333 N 
ATOM     11  H   UNL d   1       1.587   0.789  -1.076  0.00  0.00     0.168 HD
BRANCH  10  12
ATOM     12  C   UNL d   1       3.292   1.273  -0.032  0.00  0.00     0.041 A 
ATOM     13  C   UNL d   1       4.204   0.790   0.920  0.00  0.00     0.053 A 
ATOM     14  C   UNL d   1       5.504   1.290   0.988  0.00  0.00     0.036 A 
ATOM     15 CL   UNL d   1       6.603   0.665   2.156  0.00  0.00    -0.084 Cl
ATOM     16  C   UNL d   1       5.931   2.271   0.101  0.00  0.00     0.024 A 
ATOM     17  C   UNL d   1       5.045   2.755  -0.857  0.00  0.00     0.011 A 
ATOM     18  C   UNL d   1       3.722   2.272  -0.936  0.00  0.00    -0.035 A 
ATOM     19  C   UNL d   1       2.846   2.895  -1.992  0.00  0.00     0.050 C 
ENDBRANCH  10  12
ENDBRANCH   8  10
ENDBRANCH   1   8
BRANCH   2  20
ATOM     20  C   UNL d   1      -1.873  -3.385  -1.958  0.00  0.00     0.312 C 
BRANCH  20  21
ATOM     21  C   UNL d   1      -2.610  -2.978  -3.228  0.00  0.00    -0.008 A 
ATOM     22  C   UNL d   1      -1.965  -2.488  -4.376  0.00  0.00     0.043 A 
ATOM     23  C   UNL d   1      -2.706  -2.015  -5.465  0.00  0.00     0.048 A 
ATOM     24 CL   UNL d   1      -0.244  -2.405  -4.502  0.00  0.00    -0.084 Cl
ATOM     25  C   UNL d   1      -4.097  -2.037  -5.423  0.00  0.00     0.035 A 
ATOM     26  C   UNL d   1      -4.759  -2.553  -4.315  0.00  0.00     0.024 A 
ATOM     27 CL   UNL d   1      -5.002  -1.405  -6.743  0.00  0.00    -0.084 Cl
ATOM     28  C   UNL d   1      -4.020  -3.025  -3.228  0.00  0.00     0.012 A 
ENDBRANCH  20  21
ENDBRANCH   2  20
TORSDOF 5
