REMARK  6 active torsions:
REMARK  status: ('A' for Active; 'I' for Inactive)
REMARK    1  A    between atoms: C_9  and  N_6 
REMARK    2  A    between atoms: C_11  and  C_9 
REMARK    3  A    between atoms: C_10  and  N_15 
REMARK    4  A    between atoms: N_14  and  C_10 
REMARK       I    between atoms: N_16  and  C_11 
REMARK    5  A    between atoms: C_18  and  N_14 
REMARK    6  A    between atoms: N_15  and  N_16 
ROOT
ATOM      1  C   UNL d   1       2.993   0.389  -0.159  0.00  0.00     0.257 C 
ATOM      2  N   UNL d   1       3.758   0.021   0.904  0.00  0.00    -0.266 N 
ATOM      3  O   UNL d   1       3.350   0.031  -1.291  0.00  0.00    -0.270 OA
ATOM      4  H   UNL d   1       4.625  -0.473   0.701  0.00  0.00     0.190 HD
ENDROOT
BRANCH   1   5
ATOM      5  C   UNL d   1       1.783   1.237   0.029  0.00  0.00     0.272 C 
BRANCH   5   6
ATOM      6  N   UNL d   1       0.577   0.448   0.146  0.00  0.00    -0.194 N 
ATOM      7  N   UNL d   1      -0.499   0.758  -0.603  0.00  0.00    -0.115 N 
ATOM      8  C   UNL d   1      -1.486   0.272   0.153  0.00  0.00     0.709 A 
ATOM      9  HN  UNL d   1      -0.546   1.235  -1.504  1.00  0.00     0.207 HD
ATOM     10  N   UNL d   1      -1.015  -0.341   1.291  0.00  0.00    -0.113 N 
ATOM     11  N   UNL d   1      -2.820   0.420  -0.088  0.00  0.00    -0.215 N 
ATOM     12  N   UNL d   1       0.305  -0.208   1.288  0.00  0.00     0.011 NA
ATOM     13  HN  UNL d   1      -1.576  -0.811   2.002  1.00  0.00     0.203 HD
ATOM     14  C   UNL d   1      -3.223   0.680  -1.475  0.00  0.00     0.141 C 
ATOM     15  C   UNL d   1      -3.756  -0.351   0.729  0.00  0.00     0.141 C 
ATOM     16  C   UNL d   1      -4.645   1.236  -1.564  0.00  0.00     0.020 C 
ATOM     17  C   UNL d   1      -5.644   0.447  -0.728  0.00  0.00     0.003 C 
ATOM     18  C   UNL d   1      -5.140   0.294   0.700  0.00  0.00     0.020 C 
ENDBRANCH   5   6
ENDBRANCH   1   5
BRANCH   2  19
ATOM     19  N   UNL d   1       3.585   0.426   2.225  0.00  0.00    -0.273 N 
ATOM     20  H   UNL d   1       2.775   0.986   2.477  0.00  0.00     0.189 HD
BRANCH  19  21
ATOM     21  C   UNL d   1       4.014  -0.389   3.259  0.00  0.00     0.191 C 
ATOM     22  S   UNL d   1       4.113  -2.053   3.211  0.00  0.00    -0.039 SA
BRANCH  21  23
ATOM     23  N   UNL d   1       4.352   0.302   4.403  0.00  0.00    -0.332 N 
ATOM     24  H   UNL d   1       4.522  -0.288   5.218  0.00  0.00     0.168 HD
BRANCH  23  25
ATOM     25  C   UNL d   1       5.090   1.506   4.388  0.00  0.00     0.036 A 
ATOM     26  C   UNL d   1       4.919   2.407   5.443  0.00  0.00     0.056 A 
ATOM     27  C   UNL d   1       5.689   3.569   5.485  0.00  0.00     0.074 A 
ATOM     28 CL   UNL d   1       5.447   4.698   6.762  0.00  0.00    -0.081 Cl
ATOM     29  C   UNL d   1       6.648   3.813   4.500  0.00  0.00     0.138 A 
ATOM     30  C   UNL d   1       6.828   2.913   3.454  0.00  0.00     0.046 A 
ATOM     31  F   UNL d   1       7.422   4.905   4.549  0.00  0.00    -0.204 F 
ATOM     32  C   UNL d   1       6.051   1.771   3.390  0.00  0.00     0.032 A 
ENDBRANCH  23  25
ENDBRANCH  21  23
ENDBRANCH  19  21
ENDBRANCH   2  19
TORSDOF 6
