REMARK  3 active torsions:
REMARK  status: ('A' for Active; 'I' for Inactive)
REMARK       I    between atoms: N_4  and  C_1 
REMARK       I    between atoms: N_5  and  C_1 
REMARK    1  A    between atoms: C_6  and  N_2 
REMARK    2  A    between atoms: C_7  and  N_4 
REMARK    3  A    between atoms: C_8  and  N_5 
ROOT
ATOM      1  C   UNL d   1       0.804   0.164  -0.042  0.00  0.00     0.683 C 
ATOM      2  N   UNL d   1       0.266   0.798  -1.039  0.00  0.00    -0.192 N 
ATOM      3  HN  UNL d   1      -0.733   0.659  -1.193  1.00  0.00     0.184 HD
ATOM      4  N   UNL d   1       0.025  -0.572   0.824  0.00  0.00    -0.192 N 
ATOM      5  N   UNL d   1       2.119   0.211   0.382  0.00  0.00    -0.192 N 
ATOM      6  H   UNL d   1       0.437  -0.776   1.720  0.00  0.00     0.184 HD
ATOM      7  H   UNL d   1       2.695   0.899  -0.089  0.00  0.00     0.184 HD
ENDROOT
BRANCH   2   8
ATOM      8  C   UNL d   1       0.931   1.651  -1.919  0.00  0.00     0.049 A 
ATOM      9  C   UNL d   1       2.100   1.315  -2.606  0.00  0.00     0.030 A 
ATOM     10  C   UNL d   1       2.646   2.195  -3.548  0.00  0.00     0.002 A 
ATOM     11  C   UNL d   1       2.007   3.403  -3.835  0.00  0.00     0.000 A 
ATOM     12  C   UNL d   1       0.826   3.734  -3.179  0.00  0.00     0.002 A 
ATOM     13  C   UNL d   1       0.297   2.860  -2.228  0.00  0.00     0.030 A 
ENDBRANCH   2   8
BRANCH   4  14
ATOM     14  C   UNL d   1      -1.173  -1.253   0.553  0.00  0.00     0.049 A 
ATOM     15  C   UNL d   1      -1.597  -1.567  -0.743  0.00  0.00     0.030 A 
ATOM     16  C   UNL d   1      -2.808  -2.227  -0.966  0.00  0.00     0.002 A 
ATOM     17  C   UNL d   1      -3.627  -2.558   0.109  0.00  0.00     0.000 A 
ATOM     18  C   UNL d   1      -3.236  -2.231   1.405  0.00  0.00     0.002 A 
ATOM     19  C   UNL d   1      -2.018  -1.583   1.623  0.00  0.00     0.030 A 
ENDBRANCH   4  14
BRANCH   5  20
ATOM     20  C   UNL d   1       2.869  -0.916   0.803  0.00  0.00     0.049 A 
ATOM     21  C   UNL d   1       2.502  -2.233   0.479  0.00  0.00     0.030 A 
ATOM     22  C   UNL d   1       3.195  -3.327   1.002  0.00  0.00     0.002 A 
ATOM     23  C   UNL d   1       4.275  -3.121   1.854  0.00  0.00     0.000 A 
ATOM     24  C   UNL d   1       4.674  -1.822   2.162  0.00  0.00     0.002 A 
ATOM     25  C   UNL d   1       3.980  -0.726   1.633  0.00  0.00     0.030 A 
ENDBRANCH   5  20
TORSDOF 3
