REMARK  5 active torsions:
REMARK  status: ('A' for Active; 'I' for Inactive)
REMARK    1  A    between atoms: S_11  and  C_1 
REMARK    2  A    between atoms: C_8  and  C_2 
REMARK    3  A    between atoms: O_18  and  C_8 
REMARK    4  A    between atoms: C_15  and  S_11 
REMARK    5  A    between atoms: C_25  and  O_18 
ROOT
ATOM      1  C   UNL d   1       1.328   1.454   0.125  0.00  0.00     0.035 A 
ATOM      2  C   UNL d   1       2.502   0.699   0.273  0.00  0.00     0.072 A 
ATOM      3  C   UNL d   1       0.073   0.777   0.030  0.00  0.00     0.012 A 
ATOM      4  C   UNL d   1       0.097  -0.639   0.039  0.00  0.00     0.045 A 
ATOM      5  N   UNL d   1       1.230  -1.346   0.111  0.00  0.00    -0.364 N 
ATOM      6  HN  UNL d   1       1.212  -2.365   0.080  1.00  0.00     0.165 HD
ATOM      7  C   UNL d   1      -1.192   1.416  -0.049  0.00  0.00     0.059 A 
ATOM      8  C   UNL d   1       2.400  -0.679   0.227  0.00  0.00     0.107 A 
ATOM      9  C   UNL d   1      -1.092  -1.353  -0.018  0.00  0.00     0.057 A 
ATOM     10  C   UNL d   1      -2.370   0.676  -0.085  0.00  0.00     0.139 A 
ATOM     11  C   UNL d   1      -2.325  -0.708  -0.069  0.00  0.00     0.074 A 
ATOM     12  F   UNL d   1      -3.540   1.329  -0.122  0.00  0.00    -0.204 F 
ATOM     13 CL   UNL d   1      -3.772  -1.637  -0.095  0.00  0.00    -0.081 Cl
ENDROOT
BRANCH   1  14
ATOM     14  S   UNL d   1       1.411   3.244  -0.062  0.00  0.00    -0.089 SA
BRANCH  14  15
ATOM     15  C   UNL d   1       1.015   3.893   1.556  0.00  0.00     0.005 A 
ATOM     16  C   UNL d   1       0.886   3.115   2.713  0.00  0.00     0.020 A 
ATOM     17  C   UNL d   1       0.588   3.710   3.944  0.00  0.00     0.025 A 
ATOM     18  C   UNL d   1       0.420   5.088   4.024  0.00  0.00     0.034 A 
ATOM     19  C   UNL d   1       0.547   5.879   2.889  0.00  0.00     0.025 A 
ATOM     20 CL   UNL d   1       0.057   5.817   5.542  0.00  0.00    -0.084 Cl
ATOM     21  C   UNL d   1       0.845   5.282   1.661  0.00  0.00     0.020 A 
ENDBRANCH  14  15
ENDBRANCH   1  14
BRANCH   2  22
ATOM     22  C   UNL d   1       3.851   1.229   0.539  0.00  0.00     0.296 C 
ATOM     23  O   UNL d   1       4.867   0.769   0.049  0.00  0.00    -0.259 OA
BRANCH  22  24
ATOM     24  O   UNL d   1       3.771   2.153   1.524  0.00  0.00    -0.318 OA
BRANCH  24  25
ATOM     25  C   UNL d   1       5.006   2.688   2.020  0.00  0.00     0.174 C 
ATOM     26  C   UNL d   1       5.595   3.702   1.058  0.00  0.00     0.034 C 
ENDBRANCH  24  25
ENDBRANCH  22  24
ENDBRANCH   2  22
TORSDOF 5
