REMARK  8 active torsions:
REMARK  status: ('A' for Active; 'I' for Inactive)
REMARK    1  A    between atoms: C_3  and  S_1 
REMARK    2  A    between atoms: N_9  and  S_1 
REMARK    3  A    between atoms: C_2  and  C_4 
REMARK    4  A    between atoms: O_18  and  C_8 
REMARK    5  A    between atoms: C_19  and  N_9 
REMARK    6  A    between atoms: O_20  and  C_10 
REMARK    7  A    between atoms: C_16  and  C_24 
REMARK    8  A    between atoms: C_24  and  C_19 
ROOT
ATOM      1  N   UNL d   1       2.573   0.005  -0.163  0.00  0.00    -0.315 N 
ATOM      2  H   UNL d   1       2.989  -0.570   0.569  0.00  0.00     0.172 HD
ENDROOT
BRANCH   1   3
ATOM      3  S   UNL d   1       0.888   0.029  -0.048  0.00  0.00     0.258 S 
ATOM      4  O   UNL d   1       0.571   0.204   1.352  0.00  0.00    -0.201 OA
ATOM      5  O   UNL d   1       0.363   0.901  -1.075  0.00  0.00    -0.201 OA
BRANCH   3   6
ATOM      6  C   UNL d   1       0.477  -1.649  -0.483  0.00  0.00     0.080 A 
ATOM      7  C   UNL d   1       0.244  -1.986  -1.822  0.00  0.00     0.041 A 
ATOM      8  C   UNL d   1      -0.025  -3.317  -2.171  0.00  0.00     0.049 A 
ATOM      9  C   UNL d   1      -0.096  -4.285  -1.153  0.00  0.00     0.016 A 
ATOM     10  C   UNL d   1       0.102  -3.934   0.184  0.00  0.00     0.002 A 
ATOM     11  C   UNL d   1       0.390  -2.614   0.523  0.00  0.00     0.025 A 
BRANCH   8  12
ATOM     12  C   UNL d   1      -0.222  -3.725  -3.612  0.00  0.00     0.417 C 
ATOM     13  F   UNL d   1      -0.076  -2.696  -4.491  0.00  0.00    -0.166 F 
ATOM     14  F   UNL d   1       0.672  -4.676  -4.002  0.00  0.00    -0.166 F 
ATOM     15  F   UNL d   1      -1.454  -4.250  -3.844  0.00  0.00    -0.166 F 
ENDBRANCH   8  12
ENDBRANCH   3   6
ENDBRANCH   1   3
BRANCH   1  16
ATOM     16  C   UNL d   1       3.162  -0.101  -1.509  0.00  0.00     0.137 C 
BRANCH  16  17
ATOM     17  C   UNL d   1       4.687  -0.061  -1.419  0.00  0.00     0.059 C 
BRANCH  17  18
ATOM     18  C   UNL d   1       5.313  -0.138  -2.790  0.00  0.00    -0.054 A 
ATOM     19  C   UNL d   1       5.533   1.038  -3.525  0.00  0.00     0.046 A 
ATOM     20  C   UNL d   1       6.077   1.001  -4.817  0.00  0.00     0.102 A 
ATOM     21  C   UNL d   1       6.430  -0.243  -5.367  0.00  0.00     0.101 A 
ATOM     22  C   UNL d   1       6.177  -1.418  -4.648  0.00  0.00     0.040 A 
ATOM     23  C   UNL d   1       5.625  -1.370  -3.368  0.00  0.00     0.010 A 
BRANCH  20  24
ATOM     24  O   UNL d   1       6.250   2.115  -5.594  0.00  0.00    -0.353 OA
ATOM     25  C   UNL d   1       5.856   3.372  -5.059  0.00  0.00     0.210 C 
ENDBRANCH  20  24
BRANCH  21  26
ATOM     26  O   UNL d   1       6.965  -0.465  -6.612  0.00  0.00    -0.353 OA
ATOM     27  C   UNL d   1       7.914   0.498  -7.059  0.00  0.00     0.210 C 
ENDBRANCH  21  26
ENDBRANCH  17  18
ENDBRANCH  16  17
ENDBRANCH   1  16
TORSDOF 8
