REMARK  2 active torsions:
REMARK  status: ('A' for Active; 'I' for Inactive)
REMARK       I    between atoms: C_2  and  N_5 
REMARK    1  A    between atoms: C_3  and  C_2 
REMARK    2  A    between atoms: N_5  and  C_8 
ROOT
ATOM      1  C   UNL d   1      -3.007  -2.681   1.298  0.00  0.00     0.255 C 
ATOM      2  N   UNL d   1      -2.805  -1.345   1.006  0.00  0.00    -0.351 N 
ATOM      3  O   UNL d   1      -2.349  -3.571   0.781  0.00  0.00    -0.268 OA
ATOM      4  H   UNL d   1      -3.456  -0.666   1.379  0.00  0.00     0.163 HD
ENDROOT
BRANCH   1   5
ATOM      5  C   UNL d   1      -4.067  -2.986   2.305  0.00  0.00     0.075 A 
ATOM      6  C   UNL d   1      -5.287  -2.281   2.337  0.00  0.00     0.051 A 
ATOM      7 CL   UNL d   1      -5.753  -1.119   1.139  0.00  0.00    -0.083 Cl
ATOM      8  C   UNL d   1      -6.224  -2.516   3.353  0.00  0.00     0.025 A 
ATOM      9  C   UNL d   1      -5.984  -3.480   4.324  0.00  0.00     0.003 A 
ATOM     10  C   UNL d   1      -4.813  -4.228   4.271  0.00  0.00     0.025 A 
ATOM     11  C   UNL d   1      -3.856  -3.987   3.273  0.00  0.00     0.051 A 
ATOM     12 CL   UNL d   1      -2.421  -4.952   3.369  0.00  0.00    -0.083 Cl
ENDBRANCH   1   5
BRANCH   2  13
ATOM     13  C   UNL d   1      -1.796  -0.850   0.077  0.00  0.00     0.099 C 
ATOM     14  C   UNL d   1      -1.871  -1.437  -1.330  0.00  0.00     0.165 C 
ATOM     15  S   UNL d   1      -0.338  -0.925  -2.078  0.00  0.00     0.146 S 
ATOM     16  O   UNL d   1      -0.554   0.364  -2.706  0.00  0.00    -0.228 OA
ATOM     17  O   UNL d   1       0.248  -2.038  -2.789  0.00  0.00    -0.228 OA
ATOM     18  C   UNL d   1       0.566  -0.651  -0.560  0.00  0.00     0.142 C 
ATOM     19  C   UNL d   1      -0.363  -1.071   0.573  0.00  0.00     0.041 C 
ENDBRANCH   2  13
TORSDOF 2
