REMARK  4 active torsions:
REMARK  status: ('A' for Active; 'I' for Inactive)
REMARK    1  A    between atoms: C_2  and  C_1 
REMARK    2  A    between atoms: C_4  and  C_2 
REMARK    3  A    between atoms: C_14  and  C_3 
REMARK    4  A    between atoms: N_10  and  C_8 
ROOT
ATOM      1  C   UNL d   1       0.988  -0.808  -2.010  0.00  0.00     0.098 C 
ATOM      2  C   UNL d   1       0.185  -0.876  -0.930  0.00  0.00     0.038 C 
ATOM      3  C   UNL d   1       0.480  -0.661  -3.331  0.00  0.00     0.103 C 
ATOM      4  N   UNL d   1       0.068  -0.515  -4.409  0.00  0.00    -0.191 NA
ENDROOT
BRANCH   1   5
ATOM      5  C   UNL d   1       2.471  -0.817  -1.785  0.00  0.00     0.226 C 
ATOM      6  O   UNL d   1       2.925  -0.415  -0.711  0.00  0.00    -0.284 OA
BRANCH   5   7
ATOM      7  C   UNL d   1       3.332  -1.274  -2.858  0.00  0.00     0.126 A 
ATOM      8  O   UNL d   1       2.846  -2.154  -3.786  0.00  0.00    -0.319 OA
ATOM      9  C   UNL d   1       3.840  -2.398  -4.675  0.00  0.00     0.142 A 
ATOM     10  C   UNL d   1       4.976  -1.707  -4.326  0.00  0.00     0.027 A 
ATOM     11  C   UNL d   1       4.659  -1.003  -3.139  0.00  0.00     0.043 A 
ENDBRANCH   5   7
ENDBRANCH   1   5
BRANCH   2  12
ATOM     12  C   UNL d   1      -1.279  -0.860  -1.007  0.00  0.00    -0.035 A 
ATOM     13  C   UNL d   1      -1.989  -2.053  -1.091  0.00  0.00     0.013 A 
ATOM     14  C   UNL d   1      -3.389  -2.038  -1.185  0.00  0.00     0.030 A 
ATOM     15  C   UNL d   1      -4.127  -0.843  -1.192  0.00  0.00     0.029 A 
ATOM     16  C   UNL d   1      -3.377   0.344  -1.113  0.00  0.00     0.030 A 
ATOM     17  C   UNL d   1      -1.977   0.344  -1.027  0.00  0.00     0.013 A 
BRANCH  15  18
ATOM     18  N   UNL d   1      -5.517  -0.817  -1.202  0.00  0.00    -0.390 N 
ATOM     19  C   UNL d   1      -6.231   0.228  -1.935  0.00  0.00     0.149 C 
ATOM     20  C   UNL d   1      -6.301  -2.022  -0.948  0.00  0.00     0.149 C 
ENDBRANCH  15  18
ENDBRANCH   2  12
TORSDOF 4
