REMARK  2 active torsions:
REMARK  status: ('A' for Active; 'I' for Inactive)
REMARK    1  A    between atoms: N_9  and  N_5 
REMARK    2  A    between atoms: C_8  and  N_9 
ROOT
ATOM      1  C   UNL d   1       1.414   0.984   0.023  0.00  0.00     0.129 A 
ATOM      2  C   UNL d   1      -0.011   0.424  -0.034  0.00  0.00     0.275 A 
ATOM      3  C   UNL d   1       2.299  -0.172  -0.024  0.00  0.00     0.027 A 
ATOM      4  N   UNL d   1       0.136  -0.946  -0.113  0.00  0.00    -0.321 N 
ATOM      5  N   UNL d   1       1.812   2.214   0.090  0.00  0.00    -0.293 N 
ATOM      6  HN  UNL d   1       2.802   2.456   0.122  1.00  0.00     0.187 HD
ATOM      7  C   UNL d   1       1.482  -1.300  -0.109  0.00  0.00     0.048 A 
ATOM      8  C   UNL d   1       3.675  -0.246  -0.000  0.00  0.00     0.058 A 
ATOM      9  O   UNL d   1      -1.024   1.089  -0.011  0.00  0.00    -0.266 OA
ATOM     10  C   UNL d   1       2.020  -2.568  -0.179  0.00  0.00     0.033 A 
ATOM     11  C   UNL d   1       4.223  -1.521  -0.069  0.00  0.00     0.117 A 
ATOM     12  C   UNL d   1       3.417  -2.671  -0.159  0.00  0.00     0.044 A 
ATOM     13  F   UNL d   1       5.555  -1.661  -0.052  0.00  0.00    -0.206 F 
ATOM     14  H   UNL d   1      -0.648  -1.582  -0.165  0.00  0.00     0.169 HD
ENDROOT
BRANCH   5  15
ATOM     15  N   UNL d   1       0.836   3.173   0.117  0.00  0.00    -0.276 N 
ATOM     16  H   UNL d   1      -0.152   2.908   0.087  0.00  0.00     0.189 HD
BRANCH  15  17
ATOM     17  C   UNL d   1       1.161   4.501   0.172  0.00  0.00     0.184 C 
ATOM     18  S   UNL d   1       0.023   5.706   0.198  0.00  0.00    -0.040 SA
ATOM     19  N   UNL d   1       2.489   4.770   0.204  0.00  0.00    -0.375 N 
ATOM     20  H   UNL d   1       3.119   3.979   0.182  0.00  0.00     0.158 HD
ATOM     21  H   UNL d   1       2.839   5.716   0.243  0.00  0.00     0.158 HD
ENDBRANCH  15  17
ENDBRANCH   5  15
TORSDOF 2
