REMARK  3 active torsions:
REMARK  status: ('A' for Active; 'I' for Inactive)
REMARK    1  A    between atoms: C_2  and  C_1 
REMARK       I    between atoms: N_8  and  C_2 
REMARK    2  A    between atoms: N_9  and  C_3 
REMARK    3  A    between atoms: N_10  and  N_8 
ROOT
ATOM      1  C   UNL d   1      -0.221   1.068   0.032  0.00  0.00     0.100 A 
ATOM      2  C   UNL d   1      -1.145   0.039   0.013  0.00  0.00     0.049 A 
ATOM      3  S   UNL d   1       1.383   0.437   0.047  0.00  0.00    -0.094 SA
ATOM      4  C   UNL d   1      -0.545  -1.249  -0.002  0.00  0.00     0.037 A 
ATOM      5  C   UNL d   1       0.830  -1.177   0.012  0.00  0.00     0.053 A 
ENDROOT
BRANCH   1   6
ATOM      6  C   UNL d   1      -0.468   2.508   0.027  0.00  0.00     0.274 C 
ATOM      7  O   UNL d   1      -1.590   3.013  -0.064  0.00  0.00    -0.266 OA
ATOM      8  N   UNL d   1       0.670   3.315   0.129  0.00  0.00    -0.289 N 
ATOM      9  H   UNL d   1       1.572   2.876   0.301  0.00  0.00     0.183 HD
BRANCH   8  10
ATOM     10  N   UNL d   1       0.559   4.723   0.180  0.00  0.00    -0.247 NA
ATOM     11  H   UNL d   1      -0.441   4.940   0.294  0.00  0.00     0.143 HD
ATOM     12  H   UNL d   1       0.790   5.089  -0.747  0.00  0.00     0.143 HD
ENDBRANCH   8  10
ENDBRANCH   1   6
BRANCH   2  13
ATOM     13  N   UNL d   1      -2.480   0.210   0.007  0.00  0.00    -0.398 N 
ATOM     14  H   UNL d   1      -2.897   1.143   0.003  0.00  0.00     0.156 HD
ATOM     15  H   UNL d   1      -3.150  -0.552  -0.017  0.00  0.00     0.156 HD
ENDBRANCH   2  13
TORSDOF 3
