REMARK  3 active torsions:
REMARK  status: ('A' for Active; 'I' for Inactive)
REMARK    1  A    between atoms: C_2  and  C_1 
REMARK       I    between atoms: N_3  and  C_1 
REMARK    2  A    between atoms: C_10  and  N_3 
REMARK    3  A    between atoms: C_14  and  C_7 
ROOT
ATOM      1  C   UNL d   1       1.046  -2.110   1.042  0.00  0.00     0.274 C 
ATOM      2  N   UNL d   1       0.200  -1.292   0.309  0.00  0.00    -0.322 N 
ATOM      3  O   UNL d   1       0.753  -3.168   1.590  0.00  0.00    -0.266 OA
ATOM      4  H   UNL d   1       0.651  -0.520  -0.174  0.00  0.00     0.169 HD
ENDROOT
BRANCH   2   5
ATOM      5  C   UNL d   1      -1.202  -1.409   0.210  0.00  0.00     0.035 A 
ATOM      6  C   UNL d   1      -1.950  -2.268   1.014  0.00  0.00     0.030 A 
ATOM      7  C   UNL d   1      -3.345  -2.298   0.928  0.00  0.00     0.010 A 
ATOM      8  C   UNL d   1      -4.027  -1.476   0.024  0.00  0.00    -0.055 A 
ATOM      9  C   UNL d   1      -3.275  -0.627  -0.798  0.00  0.00     0.010 A 
ATOM     10  C   UNL d   1      -1.875  -0.588  -0.699  0.00  0.00     0.030 A 
BRANCH   8  11
ATOM     11  C   UNL d   1      -5.545  -1.474  -0.042  0.00  0.00     0.010 C 
ATOM     12  C   UNL d   1      -6.111  -2.865  -0.347  0.00  0.00     0.015 C 
ATOM     13  C   UNL d   1      -6.144  -0.921   1.255  0.00  0.00     0.015 C 
ENDBRANCH   8  11
ENDBRANCH   2   5
BRANCH   1  14
ATOM     14  C   UNL d   1       2.445  -1.617   1.145  0.00  0.00     0.116 A 
ATOM     15  N   UNL d   1       2.740  -0.404   0.593  0.00  0.00    -0.359 N 
ATOM     16  C   UNL d   1       4.014   0.012   0.797  0.00  0.00     0.105 A 
ATOM     17  HN  UNL d   1       2.057   0.145   0.070  1.00  0.00     0.165 HD
ATOM     18  C   UNL d   1       4.948  -0.739   1.499  0.00  0.00     0.104 A 
ATOM     19  N   UNL d   1       4.659  -1.948   2.029  0.00  0.00    -0.372 N 
ATOM     20  C   UNL d   1       3.383  -2.370   1.841  0.00  0.00     0.122 A 
ATOM     21  HN  UNL d   1       5.350  -2.504   2.533  1.00  0.00     0.164 HD
ENDBRANCH   1  14
TORSDOF 3
