REMARK  5 active torsions:
REMARK  status: ('A' for Active; 'I' for Inactive)
REMARK    1  A    between atoms: C_12  and  C_1 
REMARK    2  A    between atoms: O_17  and  C_3 
REMARK       I    between atoms: C_4  and  N_11 
REMARK    3  A    between atoms: C_9  and  C_4 
REMARK    4  A    between atoms: N_11  and  N_6 
REMARK    5  A    between atoms: O_22  and  C_19 
ROOT
ATOM      1  N   UNL d   1      -0.729   5.991   0.180  0.00  0.00    -0.308 N 
ATOM      2  HN  UNL d   1      -0.973   6.964   0.363  1.00  0.00     0.186 HD
ATOM      3  C   UNL d   1      -1.633   5.073   0.072  0.00  0.00     0.121 C 
ENDROOT
BRANCH   1   4
ATOM      4  N   UNL d   1       0.567   5.594   0.037  0.00  0.00    -0.266 N 
ATOM      5  C   UNL d   1       1.581   6.538   0.133  0.00  0.00     0.270 C 
ATOM      6  O   UNL d   1       1.417   7.745   0.287  0.00  0.00    -0.266 OA
ATOM      7  H   UNL d   1       0.764   4.633  -0.214  0.00  0.00     0.190 HD
BRANCH   5   8
ATOM      8  C   UNL d   1       2.968   6.010   0.003  0.00  0.00     0.033 A 
ATOM      9  C   UNL d   1       3.953   6.838  -0.550  0.00  0.00     0.020 A 
ATOM     10  C   UNL d   1       5.268   6.379  -0.693  0.00  0.00     0.038 A 
ATOM     11  C   UNL d   1       5.606   5.093  -0.274  0.00  0.00     0.068 A 
ATOM     12  C   UNL d   1       4.636   4.285   0.322  0.00  0.00     0.038 A 
ATOM     13  C   UNL d   1       3.318   4.734   0.458  0.00  0.00     0.020 A 
BRANCH  11  14
ATOM     14  O   UNL d   1       6.857   4.544  -0.343  0.00  0.00    -0.356 OA
ATOM     15  C   UNL d   1       7.664   4.991  -1.428  0.00  0.00     0.210 C 
ENDBRANCH  11  14
ENDBRANCH   5   8
ENDBRANCH   1   4
BRANCH   3  16
ATOM     16  C   UNL d   1      -3.067   5.408   0.220  0.00  0.00     0.017 A 
ATOM     17  C   UNL d   1      -4.048   4.419   0.119  0.00  0.00     0.099 A 
ATOM     18  C   UNL d   1      -5.397   4.765   0.269  0.00  0.00     0.069 A 
ATOM     19 CL   UNL d   1      -6.624   3.557   0.148  0.00  0.00    -0.081 Cl
ATOM     20  C   UNL d   1      -5.770   6.085   0.518  0.00  0.00     0.050 A 
ATOM     21  C   UNL d   1      -4.785   7.064   0.617  0.00  0.00     0.036 A 
ATOM     22  C   UNL d   1      -3.439   6.736   0.470  0.00  0.00     0.039 A 
ATOM     23 CL   UNL d   1      -5.238   8.695   0.925  0.00  0.00    -0.084 Cl
BRANCH  17  24
ATOM     24  O   UNL d   1      -3.686   3.119  -0.124  0.00  0.00    -0.358 OA
ATOM     25  H   UNL d   1      -4.504   2.586  -0.159  0.00  0.00     0.217 HD
ENDBRANCH  17  24
ENDBRANCH   3  16
TORSDOF 5
