REMARK  5 active torsions:
REMARK  status: ('A' for Active; 'I' for Inactive)
REMARK    1  A    between atoms: C_7  and  N_1 
REMARK    2  A    between atoms: C_6  and  C_3 
REMARK    3  A    between atoms: C_8  and  C_6 
REMARK    4  A    between atoms: C_13  and  C_7 
REMARK    5  A    between atoms: C_15  and  C_13 
ROOT
ATOM      1  N   UNL d   1       0.192  -1.029   0.036  0.00  0.00    -0.298 N 
ATOM      2  C   UNL d   1       0.953   0.121  -0.027  0.00  0.00     0.148 C 
ATOM      3  C   UNL d   1      -1.524   0.616   0.058  0.00  0.00     0.076 C 
ATOM      4  C   UNL d   1      -1.186  -0.834  -0.021  0.00  0.00     0.266 C 
ATOM      5  S   UNL d   1      -0.081   1.545   0.077  0.00  0.00    -0.055 SA
ATOM      6  S   UNL d   1       2.602   0.312  -0.186  0.00  0.00    -0.052 SA
ATOM      7  O   UNL d   1      -2.012  -1.722  -0.164  0.00  0.00    -0.266 OA
ENDROOT
BRANCH   3   8
ATOM      8  C   UNL d   1      -2.745   1.171   0.097  0.00  0.00     0.036 C 
BRANCH   8   9
ATOM      9  C   UNL d   1      -3.993   0.402   0.074  0.00  0.00    -0.024 A 
ATOM     10  C   UNL d   1      -4.682   0.112  -1.135  0.00  0.00    -0.016 A 
ATOM     11  C   UNL d   1      -5.827  -0.714  -1.077  0.00  0.00    -0.025 A 
ATOM     12  C   UNL d   1      -4.277   0.597  -2.404  0.00  0.00     0.013 A 
ATOM     13  C   UNL d   1      -6.520  -1.036  -2.256  0.00  0.00     0.012 A 
ATOM     14  C   UNL d   1      -6.264  -1.220   0.160  0.00  0.00     0.012 A 
ATOM     15  C   UNL d   1      -6.098  -0.547  -3.493  0.00  0.00     0.001 A 
ATOM     16  C   UNL d   1      -4.979   0.271  -3.566  0.00  0.00     0.001 A 
ATOM     17  C   UNL d   1      -5.590  -0.911   1.339  0.00  0.00     0.002 A 
ATOM     18  C   UNL d   1      -4.461  -0.102   1.300  0.00  0.00     0.012 A 
ENDBRANCH   8   9
ENDBRANCH   3   8
BRANCH   1  19
ATOM     19  C   UNL d   1       0.648  -2.428  -0.113  0.00  0.00     0.138 C 
BRANCH  19  20
ATOM     20  C   UNL d   1       1.876  -2.865   0.696  0.00  0.00     0.059 C 
BRANCH  20  21
ATOM     21  C   UNL d   1       2.244  -4.335   0.620  0.00  0.00    -0.057 A 
ATOM     22  C   UNL d   1       3.608  -4.681   0.667  0.00  0.00     0.009 A 
ATOM     23  C   UNL d   1       4.016  -6.015   0.640  0.00  0.00     0.024 A 
ATOM     24  C   UNL d   1       3.062  -7.024   0.576  0.00  0.00     0.034 A 
ATOM     25  C   UNL d   1       1.706  -6.706   0.543  0.00  0.00     0.024 A 
ATOM     26 CL   UNL d   1       3.558  -8.671   0.548  0.00  0.00    -0.084 Cl
ATOM     27  C   UNL d   1       1.298  -5.367   0.573  0.00  0.00     0.009 A 
ENDBRANCH  20  21
ENDBRANCH  19  20
ENDBRANCH   1  19
TORSDOF 5
