REMARK  7 active torsions:
REMARK  status: ('A' for Active; 'I' for Inactive)
REMARK    1  A    between atoms: C_5  and  C_1 
REMARK    2  A    between atoms: C_2  and  C_4 
REMARK       I    between atoms: C_3  and  N_8 
REMARK    3  A    between atoms: C_6  and  C_3 
REMARK    4  A    between atoms: C_7  and  N_12 
REMARK    5  A    between atoms: N_13  and  C_7 
REMARK    6  A    between atoms: N_8  and  N_13 
REMARK    7  A    between atoms: N_12  and  C_10 
ROOT
ATOM      1  N   UNL d   1       0.728  -4.141   1.765  0.00  0.00    -0.332 N 
ATOM      2  H   UNL d   1       0.718  -4.720   2.594  0.00  0.00     0.168 HD
ENDROOT
BRANCH   1   3
ATOM      3  C   UNL d   1       1.563  -4.641   0.778  0.00  0.00     0.191 C 
ATOM      4  S   UNL d   1       2.561  -3.793  -0.264  0.00  0.00    -0.039 SA
BRANCH   3   5
ATOM      5  N   UNL d   1       1.642  -6.014   0.725  0.00  0.00    -0.273 N 
ATOM      6  H   UNL d   1       2.193  -6.347  -0.075  0.00  0.00     0.189 HD
BRANCH   5   7
ATOM      7  N   UNL d   1       0.519  -6.833   0.985  0.00  0.00    -0.262 N 
ATOM      8  C   UNL d   1       0.355  -7.912   0.123  0.00  0.00     0.286 C 
ATOM      9  O   UNL d   1       0.984  -7.987  -0.932  0.00  0.00    -0.264 OA
ATOM     10  H   UNL d   1       0.182  -6.892   1.936  0.00  0.00     0.190 HD
BRANCH   8  11
ATOM     11  C   UNL d   1      -0.533  -8.963   0.564  0.00  0.00     0.102 A 
ATOM     12  N   UNL d   1      -0.690 -10.116  -0.181  0.00  0.00    -0.361 N 
ATOM     13  C   UNL d   1      -1.536 -10.981   0.454  0.00  0.00     0.088 A 
ATOM     14  H   UNL d   1      -0.216 -10.281  -1.062  0.00  0.00     0.165 HD
ATOM     15  C   UNL d   1      -1.958 -10.380   1.616  0.00  0.00     0.019 A 
ATOM     16  C   UNL d   1      -1.337  -9.107   1.683  0.00  0.00     0.036 A 
ENDBRANCH   8  11
ENDBRANCH   5   7
ENDBRANCH   3   5
ENDBRANCH   1   3
BRANCH   1  17
ATOM     17  C   UNL d   1       0.356  -2.788   1.940  0.00  0.00     0.035 A 
ATOM     18  C   UNL d   1       0.044  -1.968   0.851  0.00  0.00     0.045 A 
ATOM     19  C   UNL d   1      -0.226  -0.602   1.022  0.00  0.00     0.050 A 
ATOM     20  C   UNL d   1      -0.237  -0.072   2.320  0.00  0.00     0.032 A 
ATOM     21  C   UNL d   1       0.015  -0.893   3.433  0.00  0.00     0.050 A 
ATOM     22  C   UNL d   1       0.291  -2.259   3.231  0.00  0.00     0.045 A 
BRANCH  19  23
ATOM     23  C   UNL d   1      -0.492   0.259  -0.189  0.00  0.00     0.417 C 
ATOM     24  F   UNL d   1      -0.461   1.593   0.082  0.00  0.00    -0.166 F 
ATOM     25  F   UNL d   1      -1.713   0.016  -0.738  0.00  0.00    -0.166 F 
ATOM     26  F   UNL d   1       0.415   0.061  -1.185  0.00  0.00    -0.166 F 
ENDBRANCH  19  23
BRANCH  21  27
ATOM     27  C   UNL d   1       0.033  -0.314   4.830  0.00  0.00     0.417 C 
ATOM     28  F   UNL d   1      -0.235   1.020   4.871  0.00  0.00    -0.166 F 
ATOM     29  F   UNL d   1      -0.879  -0.906   5.648  0.00  0.00    -0.166 F 
ATOM     30  F   UNL d   1       1.241  -0.471   5.439  0.00  0.00    -0.166 F 
ENDBRANCH  21  27
ENDBRANCH   1  17
TORSDOF 7
