REMARK  6 active torsions:
REMARK  status: ('A' for Active; 'I' for Inactive)
REMARK       I    between atoms: N_2  and  C_1 
REMARK    1  A    between atoms: C_15  and  C_1 
REMARK    2  A    between atoms: C_6  and  N_2 
REMARK    3  A    between atoms: C_3  and  C_16 
REMARK    4  A    between atoms: O_9  and  C_3 
REMARK    5  A    between atoms: O_8  and  C_15 
REMARK    6  A    between atoms: C_16  and  O_8 
ROOT
ATOM      1  C   UNL d   1       1.129  -0.017   0.006  0.00  0.00     0.245 C 
ATOM      2  N   UNL d   1       0.450   0.843   0.858  0.00  0.00    -0.325 N 
ATOM      3  O   UNL d   1       0.621  -0.833  -0.760  0.00  0.00    -0.271 OA
ATOM      4  H   UNL d   1       0.990   1.567   1.318  0.00  0.00     0.169 HD
ENDROOT
BRANCH   1   5
ATOM      5  C   UNL d   1       2.661   0.162   0.071  0.00  0.00     0.271 C 
BRANCH   5   6
ATOM      6  O   UNL d   1       3.389   0.002  -1.146  0.00  0.00    -0.372 OA
BRANCH   6   7
ATOM      7  C   UNL d   1       3.012   0.957  -2.138  0.00  0.00     0.277 C 
BRANCH   7   8
ATOM      8  C   UNL d   1       3.567   2.333  -1.804  0.00  0.00     0.164 C 
ATOM      9  O   UNL d   1       2.924   3.371  -1.833  0.00  0.00    -0.648 OA
BRANCH   8  10
ATOM     10  O   UNL d   1       4.866   2.277  -1.418  0.00  0.00    -0.775 OA
ATOM     11  H   UNL d   1       5.180   1.347  -1.406  0.00  0.00     0.167 HD
ENDBRANCH   8  10
ENDBRANCH   7   8
ENDBRANCH   6   7
ENDBRANCH   5   6
ENDBRANCH   1   5
BRANCH   2  12
ATOM     12  C   UNL d   1      -0.940   0.881   1.096  0.00  0.00     0.034 A 
ATOM     13  C   UNL d   1      -1.839  -0.075   0.615  0.00  0.00     0.031 A 
ATOM     14  C   UNL d   1      -3.204   0.017   0.912  0.00  0.00     0.020 A 
ATOM     15  C   UNL d   1      -3.678   1.069   1.692  0.00  0.00     0.006 A 
ATOM     16  C   UNL d   1      -2.796   2.030   2.179  0.00  0.00     0.020 A 
ATOM     17  I   UNL d   1      -5.703   1.198   2.136  0.00  0.00    -0.045 I 
ATOM     18  C   UNL d   1      -1.432   1.933   1.883  0.00  0.00     0.031 A 
ENDBRANCH   2  12
TORSDOF 6
