REMARK  5 active torsions:
REMARK  status: ('A' for Active; 'I' for Inactive)
REMARK    1  A    between atoms: C_10  and  N_1 
REMARK    2  A    between atoms: S_7  and  C_4 
REMARK    3  A    between atoms: C_9  and  C_6 
REMARK    4  A    between atoms: C_8  and  S_7 
REMARK    5  A    between atoms: O_16  and  C_9 
ROOT
ATOM      1  N   UNL d   1       0.086   0.866   0.120  0.00  0.00    -0.251 N 
ATOM      2  C   UNL d   1      -1.027   0.085   0.329  0.00  0.00     0.232 C 
ATOM      3  C   UNL d   1       1.237   0.106   0.132  0.00  0.00     0.245 C 
ATOM      4  C   UNL d   1       0.867  -1.361   0.104  0.00  0.00     0.154 C 
ATOM      5  C   UNL d   1      -0.596  -1.343   0.501  0.00  0.00     0.129 C 
ATOM      6  O   UNL d   1      -2.199   0.425   0.415  0.00  0.00    -0.273 OA
ATOM      7  O   UNL d   1       2.400   0.495   0.170  0.00  0.00    -0.271 OA
ENDROOT
BRANCH   4   8
ATOM      8  S   UNL d   1       1.246  -1.956  -1.600  0.00  0.00    -0.114 SA
BRANCH   8   9
ATOM      9  C   UNL d   1       0.897  -3.708  -1.493  0.00  0.00     0.018 A 
ATOM     10  C   UNL d   1      -0.320  -4.278  -1.911  0.00  0.00     0.054 A 
ATOM     11  C   UNL d   1      -0.505  -5.670  -1.853  0.00  0.00     0.020 A 
ATOM     12  C   UNL d   1       0.531  -6.505  -1.440  0.00  0.00     0.001 A 
ATOM     13  C   UNL d   1       1.754  -5.953  -1.070  0.00  0.00     0.001 A 
ATOM     14  C   UNL d   1       1.933  -4.565  -1.087  0.00  0.00     0.019 A 
BRANCH  10  15
ATOM     15  C   UNL d   1      -1.471  -3.501  -2.438  0.00  0.00     0.177 C 
ATOM     16  O   UNL d   1      -2.624  -3.804  -2.190  0.00  0.00    -0.646 OA
BRANCH  15  17
ATOM     17  O   UNL d   1      -1.136  -2.486  -3.260  0.00  0.00    -0.773 OA
ATOM     18  H   UNL d   1      -0.171  -2.339  -3.348  0.00  0.00     0.167 HD
ENDBRANCH  15  17
ENDBRANCH  10  15
ENDBRANCH   8   9
ENDBRANCH   4   8
BRANCH   1  19
ATOM     19  C   UNL d   1       0.074   2.288  -0.003  0.00  0.00     0.045 A 
ATOM     20  C   UNL d   1      -0.957   3.069   0.542  0.00  0.00     0.032 A 
ATOM     21  C   UNL d   1      -0.923   4.469   0.468  0.00  0.00     0.026 A 
ATOM     22  C   UNL d   1       0.128   5.106  -0.183  0.00  0.00     0.034 A 
ATOM     23  C   UNL d   1       1.138   4.354  -0.770  0.00  0.00     0.026 A 
ATOM     24 CL   UNL d   1       0.184   6.822  -0.252  0.00  0.00    -0.084 Cl
ATOM     25  C   UNL d   1       1.112   2.957  -0.675  0.00  0.00     0.032 A 
ENDBRANCH   1  19
TORSDOF 5
