REMARK  3 active torsions:
REMARK  status: ('A' for Active; 'I' for Inactive)
REMARK    1  A    between atoms: C_8  and  C_1 
REMARK    2  A    between atoms: O_22  and  C_18 
REMARK    3  A    between atoms: O_23  and  C_20 
ROOT
ATOM      1  C   UNL d   1       1.533  -1.605   0.011  0.00  0.00     0.014 A 
ATOM      2  C   UNL d   1       0.681  -0.365   0.066  0.00  0.00     0.010 A 
ATOM      3  C   UNL d   1       2.892  -1.535   0.017  0.00  0.00     0.124 A 
ATOM      4  C   UNL d   1       1.336   0.822   0.058  0.00  0.00     0.024 A 
ATOM      5  C   UNL d   1       3.545  -0.209   0.041  0.00  0.00     0.267 A 
ATOM      6  N   UNL d   1       2.712   0.871   0.042  0.00  0.00    -0.325 N 
ATOM      7  C   UNL d   1      -0.831  -0.302   0.116  0.00  0.00    -0.017 A 
ATOM      8  C   UNL d   1       3.763  -2.668  -0.017  0.00  0.00     0.106 C 
ATOM      9  C   UNL d   1      -1.520   0.922  -0.021  0.00  0.00    -0.044 A 
ATOM     10  N   UNL d   1       4.444  -3.608  -0.032  0.00  0.00    -0.191 NA
ATOM     11  C   UNL d   1      -1.645  -1.430   0.302  0.00  0.00     0.015 A 
ATOM     12  C   UNL d   1       0.697   2.184   0.076  0.00  0.00     0.062 C 
ATOM     13  O   UNL d   1       4.763  -0.061   0.049  0.00  0.00    -0.267 OA
ATOM     14  C   UNL d   1      -2.939   0.973  -0.065  0.00  0.00     0.044 A 
ATOM     15  C   UNL d   1      -0.806   2.237  -0.138  0.00  0.00     0.045 C 
ATOM     16  C   UNL d   1      -3.704  -0.179   0.059  0.00  0.00     0.068 A 
ATOM     17  C   UNL d   1      -3.045  -1.378   0.260  0.00  0.00     0.037 A 
ATOM     18  H   UNL d   1       3.190   1.766   0.049  0.00  0.00     0.169 HD
ENDROOT
BRANCH   1  19
ATOM     19  C   UNL d   1       0.993  -2.981  -0.091  0.00  0.00    -0.021 A 
ATOM     20  C   UNL d   1       0.640  -3.507  -1.345  0.00  0.00     0.049 A 
ATOM     21  C   UNL d   1       0.142  -4.806  -1.439  0.00  0.00     0.069 A 
ATOM     22  C   UNL d   1       0.027  -5.587  -0.286  0.00  0.00     0.037 A 
ATOM     23  C   UNL d   1       0.369  -5.069   0.963  0.00  0.00     0.004 A 
ATOM     24  C   UNL d   1       0.853  -3.768   1.063  0.00  0.00     0.012 A 
BRANCH  21  25
ATOM     25  O   UNL d   1      -0.231  -5.427  -2.599  0.00  0.00    -0.356 OA
ATOM     26  C   UNL d   1      -0.664  -4.569  -3.648  0.00  0.00     0.210 C 
ENDBRANCH  21  25
ENDBRANCH   1  19
BRANCH  16  27
ATOM     27  O   UNL d   1      -5.064  -0.271   0.017  0.00  0.00    -0.356 OA
ATOM     28  C   UNL d   1      -5.787   0.930  -0.214  0.00  0.00     0.210 C 
ENDBRANCH  16  27
TORSDOF 3
