REMARK  6 active torsions:
REMARK  status: ('A' for Active; 'I' for Inactive)
REMARK    1  A    between atoms: C_5  and  C_1 
REMARK       I    between atoms: C_2  and  N_3 
REMARK    2  A    between atoms: C_8  and  C_2 
REMARK    3  A    between atoms: N_3  and  C_4 
REMARK    4  A    between atoms: O_9  and  C_6 
REMARK    5  A    between atoms: C_18  and  O_9 
REMARK    6  A    between atoms: O_28  and  C_20 
ROOT
ATOM      1  C   UNL d   1      -0.322   1.703  -2.982  0.00  0.00     0.070 A 
ATOM      2  C   UNL d   1       0.395   0.000  -1.363  0.00  0.00     0.050 A 
ATOM      3  C   UNL d   1      -0.483   0.688  -3.948  0.00  0.00     0.102 A 
ATOM      4  C   UNL d   1       0.090   1.332  -1.692  0.00  0.00     0.048 A 
ATOM      5  C   UNL d   1       0.295  -0.979  -2.353  0.00  0.00     0.019 A 
ATOM      6  C   UNL d   1      -0.118  -0.634  -3.638  0.00  0.00     0.040 A 
ENDROOT
BRANCH   1   7
ATOM      7  N   UNL d   1      -0.516   3.063  -3.356  0.00  0.00    -0.320 N 
ATOM      8  C   UNL d   1      -0.340   4.170  -2.535  0.00  0.00     0.256 C 
ATOM      9  O   UNL d   1      -0.163   4.151  -1.320  0.00  0.00    -0.267 OA
ATOM     10  H   UNL d   1      -0.679   3.206  -4.346  0.00  0.00     0.169 HD
BRANCH   8  11
ATOM     11  C   UNL d   1      -0.318   5.509  -3.189  0.00  0.00     0.032 A 
ATOM     12  C   UNL d   1      -1.093   5.822  -4.310  0.00  0.00     0.020 A 
ATOM     13  C   UNL d   1      -1.034   7.109  -4.855  0.00  0.00     0.043 A 
ATOM     14  C   UNL d   1      -0.207   8.073  -4.283  0.00  0.00     0.116 A 
ATOM     15  C   UNL d   1       0.560   7.780  -3.163  0.00  0.00     0.043 A 
ATOM     16  F   UNL d   1      -0.160   9.302  -4.812  0.00  0.00    -0.206 F 
ATOM     17  C   UNL d   1       0.499   6.501  -2.611  0.00  0.00     0.020 A 
ENDBRANCH   8  11
ENDBRANCH   1   7
BRANCH   3  18
ATOM     18  O   UNL d   1      -0.974   1.038  -5.200  0.00  0.00    -0.309 OA
BRANCH  18  19
ATOM     19  C   UNL d   1      -1.649   0.066  -5.920  0.00  0.00     0.076 A 
ATOM     20  C   UNL d   1      -2.650  -0.732  -5.356  0.00  0.00     0.040 A 
ATOM     21  C   UNL d   1      -3.220  -1.778  -6.093  0.00  0.00     0.039 A 
ATOM     22  C   UNL d   1      -2.834  -1.996  -7.415  0.00  0.00     0.068 A 
ATOM     23  C   UNL d   1      -1.894  -1.140  -7.999  0.00  0.00     0.039 A 
ATOM     24  C   UNL d   1      -1.302  -0.110  -7.257  0.00  0.00     0.040 A 
BRANCH  22  25
ATOM     25  O   UNL d   1      -3.294  -2.994  -8.231  0.00  0.00    -0.356 OA
ATOM     26  C   UNL d   1      -4.155  -3.962  -7.643  0.00  0.00     0.210 C 
ENDBRANCH  22  25
ENDBRANCH  18  19
ENDBRANCH   3  18
BRANCH   2  27
ATOM     27  C   UNL d   1       0.849  -0.373   0.026  0.00  0.00     0.417 C 
ATOM     28  F   UNL d   1       1.017   0.688   0.861  0.00  0.00    -0.166 F 
ATOM     29  F   UNL d   1       2.042  -1.032   0.017  0.00  0.00    -0.166 F 
ATOM     30  F   UNL d   1      -0.029  -1.206   0.650  0.00  0.00    -0.166 F 
ENDBRANCH   2  27
TORSDOF 6
