REMARK  6 active torsions:
REMARK  status: ('A' for Active; 'I' for Inactive)
REMARK    1  A    between atoms: S_10  and  C_1 
REMARK    2  A    between atoms: C_8  and  C_3 
REMARK    3  A    between atoms: C_12  and  C_6 
REMARK    4  A    between atoms: O_18  and  C_8 
REMARK    5  A    between atoms: C_16  and  S_10 
REMARK    6  A    between atoms: C_28  and  O_18 
ROOT
ATOM      1  C   UNL d   1      -0.163  -1.054  -0.111  0.00  0.00     0.097 A 
ATOM      2  C   UNL d   1       0.612   0.102  -0.211  0.00  0.00     0.094 A 
ATOM      3  C   UNL d   1      -0.058   1.323  -0.127  0.00  0.00     0.065 A 
ATOM      4  N   UNL d   1      -1.523  -1.030  -0.046  0.00  0.00    -0.349 N 
ATOM      5  HN  UNL d   1      -2.052  -1.900   0.012  1.00  0.00     0.166 HD
ATOM      6  C   UNL d   1      -2.165   0.163  -0.060  0.00  0.00     0.044 A 
ATOM      7  C   UNL d   1      -1.454   1.352  -0.048  0.00  0.00     0.049 A 
ATOM      8  C   UNL d   1       2.016   0.018  -0.449  0.00  0.00     0.103 C 
ATOM      9  N   UNL d   1       3.151  -0.054  -0.689  0.00  0.00    -0.191 NA
ENDROOT
BRANCH   1  10
ATOM     10  S   UNL d   1       0.564  -2.669   0.147  0.00  0.00    -0.071 SA
BRANCH  10  11
ATOM     11  C   UNL d   1       0.613  -3.370  -1.488  0.00  0.00     0.007 A 
ATOM     12  C   UNL d   1       1.843  -3.809  -1.999  0.00  0.00     0.020 A 
ATOM     13  C   UNL d   1       1.903  -4.488  -3.220  0.00  0.00     0.025 A 
ATOM     14  C   UNL d   1       0.732  -4.734  -3.931  0.00  0.00     0.034 A 
ATOM     15  C   UNL d   1      -0.496  -4.294  -3.439  0.00  0.00     0.025 A 
ATOM     16 CL   UNL d   1       0.798  -5.607  -5.412  0.00  0.00    -0.084 Cl
ATOM     17  C   UNL d   1      -0.555  -3.615  -2.217  0.00  0.00     0.020 A 
ENDBRANCH  10  11
ENDBRANCH   1  10
BRANCH   3  18
ATOM     18  C   UNL d   1       0.602   2.649  -0.128  0.00  0.00     0.295 C 
ATOM     19  O   UNL d   1       0.060   3.651  -0.567  0.00  0.00    -0.259 OA
BRANCH  18  20
ATOM     20  O   UNL d   1       1.792   2.589   0.505  0.00  0.00    -0.318 OA
BRANCH  20  21
ATOM     21  C   UNL d   1       2.505   3.832   0.614  0.00  0.00     0.174 C 
ATOM     22  C   UNL d   1       3.195   4.175  -0.694  0.00  0.00     0.034 C 
ENDBRANCH  20  21
ENDBRANCH  18  20
ENDBRANCH   3  18
BRANCH   6  23
ATOM     23  C   UNL d   1      -3.641   0.128  -0.099  0.00  0.00    -0.009 A 
ATOM     24  C   UNL d   1      -4.366  -0.931   0.482  0.00  0.00     0.015 A 
ATOM     25  C   UNL d   1      -5.765  -0.957   0.445  0.00  0.00     0.024 A 
ATOM     26  C   UNL d   1      -6.464   0.073  -0.175  0.00  0.00     0.034 A 
ATOM     27  C   UNL d   1      -5.779   1.123  -0.770  0.00  0.00     0.024 A 
ATOM     28 CL   UNL d   1      -8.184   0.045  -0.217  0.00  0.00    -0.084 Cl
ATOM     29  C   UNL d   1      -4.381   1.145  -0.734  0.00  0.00     0.015 A 
ENDBRANCH   6  23
TORSDOF 6
