REMARK  2 active torsions:
REMARK  status: ('A' for Active; 'I' for Inactive)
REMARK    1  A    between atoms: C_11  and  C_7 
REMARK    2  A    between atoms: C_12  and  C_8 
ROOT
ATOM      1  N   UNL d   1       0.181   0.567   0.011  0.00  0.00    -0.231 N 
ATOM      2  C   UNL d   1      -0.190  -0.751   0.063  0.00  0.00     0.172 A 
ATOM      3  N   UNL d   1      -1.476  -0.918   0.078  0.00  0.00    -0.323 N 
ATOM      4  HN  UNL d   1      -2.016  -1.783   0.113  1.00  0.00     0.169 HD
ATOM      5  N   UNL d   1      -0.946   1.326  -0.008  0.00  0.00    -0.279 N 
ATOM      6  HN  UNL d   1      -1.036   2.342  -0.044  1.00  0.00     0.189 HD
ATOM      7  C   UNL d   1      -1.918   0.387   0.032  0.00  0.00     0.106 A 
ATOM      8  C   UNL d   1       1.566   0.771  -0.025  0.00  0.00     0.075 A 
ATOM      9  S   UNL d   1       1.159  -1.826   0.066  0.00  0.00    -0.061 SA
ATOM     10  C   UNL d   1       2.215  -0.419  -0.020  0.00  0.00     0.085 A 
ENDROOT
BRANCH   8  11
ATOM     11  C   UNL d   1       2.284   2.061  -0.116  0.00  0.00    -0.007 A 
ATOM     12  C   UNL d   1       1.710   3.192  -0.714  0.00  0.00     0.015 A 
ATOM     13  C   UNL d   1       2.442   4.379  -0.867  0.00  0.00     0.024 A 
ATOM     14  C   UNL d   1       3.758   4.453  -0.418  0.00  0.00     0.034 A 
ATOM     15  C   UNL d   1       4.339   3.360   0.209  0.00  0.00     0.024 A 
ATOM     16 CL   UNL d   1       4.671   5.893  -0.644  0.00  0.00    -0.084 Cl
ATOM     17  C   UNL d   1       3.603   2.180   0.368  0.00  0.00     0.015 A 
ENDBRANCH   8  11
BRANCH   7  18
ATOM     18  C   UNL d   1      -3.405   0.671   0.000  0.00  0.00     0.009 C 
ATOM     19  C   UNL d   1      -3.726   2.175   0.007  0.00  0.00     0.023 C 
ATOM     20  C   UNL d   1      -4.018   0.049  -1.273  0.00  0.00     0.023 C 
ATOM     21  C   UNL d   1      -4.084   0.027   1.229  0.00  0.00     0.023 C 
ENDBRANCH   7  18
TORSDOF 2
