REMARK  4 active torsions:
REMARK  status: ('A' for Active; 'I' for Inactive)
REMARK       I    between atoms: N_2  and  C_1 
REMARK    1  A    between atoms: C_10  and  C_1 
REMARK    2  A    between atoms: C_3  and  N_2 
REMARK    3  A    between atoms: O_12  and  C_5 
REMARK    4  A    between atoms: N_11  and  C_6 
ROOT
ATOM      1  C   UNL d   1       0.857  -2.599   0.160  0.00  0.00     0.043 A 
ATOM      2  C   UNL d   1       0.548  -3.569  -0.808  0.00  0.00     0.068 A 
ATOM      3  C   UNL d   1       1.232  -4.788  -0.875  0.00  0.00     0.091 A 
ATOM      4  C   UNL d   1       2.247  -5.064   0.051  0.00  0.00     0.040 A 
ATOM      5  C   UNL d   1       1.867  -2.876   1.099  0.00  0.00    -0.033 A 
ATOM      6  C   UNL d   1       2.570  -4.098   1.008  0.00  0.00     0.035 A 
ATOM      7  C   UNL d   1       2.262  -1.969   2.233  0.00  0.00     0.050 C 
ENDROOT
BRANCH   1   8
ATOM      8  N   UNL d   1       0.228  -1.325   0.131  0.00  0.00    -0.322 N 
ATOM      9  C   UNL d   1      -0.901  -0.987  -0.599  0.00  0.00     0.256 C 
ATOM     10  O   UNL d   1      -1.695  -1.778  -1.096  0.00  0.00    -0.267 OA
ATOM     11  H   UNL d   1       0.630  -0.603   0.708  0.00  0.00     0.169 HD
BRANCH   9  12
ATOM     12  C   UNL d   1      -1.175   0.470  -0.772  0.00  0.00     0.032 A 
ATOM     13  C   UNL d   1      -0.158   1.433  -0.763  0.00  0.00     0.017 A 
ATOM     14  C   UNL d   1      -0.462   2.772  -1.035  0.00  0.00     0.001 A 
ATOM     15  C   UNL d   1      -1.774   3.151  -1.323  0.00  0.00     0.000 A 
ATOM     16  C   UNL d   1      -2.789   2.198  -1.335  0.00  0.00     0.001 A 
ATOM     17  C   UNL d   1      -2.491   0.863  -1.062  0.00  0.00     0.017 A 
ENDBRANCH   9  12
ENDBRANCH   1   8
BRANCH   3  18
ATOM     18  O   UNL d   1       0.987  -5.780  -1.798  0.00  0.00    -0.354 OA
ATOM     19  C   UNL d   1      -0.097  -5.568  -2.695  0.00  0.00     0.210 C 
ENDBRANCH   3  18
BRANCH   4  20
ATOM     20  N   UNL d   1       3.078  -6.188  -0.112  0.00  0.00    -0.300 NA
ATOM     21  H   UNL d   1       3.458  -6.554   0.752  0.00  0.00     0.124 HD
ATOM     22  H   UNL d   1       2.611  -6.895  -0.681  0.00  0.00     0.124 HD
ENDBRANCH   4  20
TORSDOF 4
