REMARK  6 active torsions:
REMARK  status: ('A' for Active; 'I' for Inactive)
REMARK    1  A    between atoms: C_2  and  C_1 
REMARK    2  A    between atoms: C_20  and  C_7 
REMARK    3  A    between atoms: C_17  and  C_8 
REMARK    4  A    between atoms: C_9  and  C_14 
REMARK    5  A    between atoms: C_18  and  O_22 
REMARK    6  A    between atoms: O_22  and  C_28 
ROOT
ATOM      1  C   UNL d   1       0.317  -2.726  -0.100  0.00  0.00     0.054 A 
ATOM      2  N   UNL d   1       1.034  -3.308   0.926  0.00  0.00    -0.349 N 
ATOM      3  HN  UNL d   1       1.315  -2.829   1.782  1.00  0.00     0.166 HD
ATOM      4  C   UNL d   1       1.306  -4.570   0.649  0.00  0.00     0.084 A 
ATOM      5  S   UNL d   1       0.632  -5.132  -0.837  0.00  0.00    -0.081 SA
ATOM      6  C   UNL d   1      -0.013  -3.576  -1.134  0.00  0.00     0.082 A 
ENDROOT
BRANCH   4   7
ATOM      7  C   UNL d   1       2.066  -5.471   1.531  0.00  0.00    -0.002 A 
ATOM      8  C   UNL d   1       2.049  -5.244   2.916  0.00  0.00     0.017 A 
ATOM      9  C   UNL d   1       2.726  -6.096   3.796  0.00  0.00     0.038 A 
ATOM     10  C   UNL d   1       3.474  -7.167   3.301  0.00  0.00     0.077 A 
ATOM     11  C   UNL d   1       3.507  -7.399   1.927  0.00  0.00     0.038 A 
ATOM     12  C   UNL d   1       2.815  -6.557   1.049  0.00  0.00     0.017 A 
BRANCH  10  13
ATOM     13  O   UNL d   1       4.128  -8.090   4.085  0.00  0.00    -0.294 OA
BRANCH  13  14
ATOM     14  C   UNL d   1       4.681  -7.670   5.285  0.00  0.00     0.147 A 
ATOM     15  N   UNL d   1       5.187  -6.421   5.391  0.00  0.00    -0.346 N 
ATOM     16  C   UNL d   1       5.689  -6.062   6.593  0.00  0.00     0.106 A 
ATOM     17  HN  UNL d   1       5.189  -5.778   4.600  1.00  0.00     0.167 HD
ATOM     18  C   UNL d   1       5.732  -6.900   7.697  0.00  0.00     0.063 A 
ATOM     19  C   UNL d   1       5.248  -8.204   7.538  0.00  0.00     0.022 A 
ATOM     20  C   UNL d   1       4.718  -8.599   6.312  0.00  0.00     0.057 A 
BRANCH  18  21
ATOM     21  C   UNL d   1       6.269  -6.412   9.007  0.00  0.00     0.418 C 
ATOM     22  F   UNL d   1       6.648  -5.105   8.989  0.00  0.00    -0.166 F 
ATOM     23  F   UNL d   1       5.357  -6.521  10.012  0.00  0.00    -0.166 F 
ATOM     24  F   UNL d   1       7.361  -7.113   9.417  0.00  0.00    -0.166 F 
ENDBRANCH  18  21
ENDBRANCH  13  14
ENDBRANCH  10  13
ENDBRANCH   4   7
BRANCH   1  25
ATOM     25  C   UNL d   1      -0.024  -1.308  -0.013  0.00  0.00     0.052 A 
ATOM     26  C   UNL d   1       0.777  -0.246   0.515  0.00  0.00     0.080 A 
ATOM     27  N   UNL d   1       0.095   0.913   0.433  0.00  0.00    -0.259 N 
ATOM     28  O   UNL d   1      -1.116   0.625  -0.151  0.00  0.00    -0.241 OA
ATOM     29  HN  UNL d   1       0.415   1.830   0.746  1.00  0.00     0.195 HD
ATOM     30  C   UNL d   1      -1.188  -0.702  -0.423  0.00  0.00     0.087 A 
ATOM     31  C   UNL d   1      -2.445  -1.164  -1.043  0.00  0.00     0.080 C 
BRANCH  26  32
ATOM     32  C   UNL d   1       2.140  -0.248   1.059  0.00  0.00    -0.007 A 
ATOM     33  C   UNL d   1       2.482   0.629   2.101  0.00  0.00     0.014 A 
ATOM     34  C   UNL d   1       3.776   0.643   2.630  0.00  0.00     0.001 A 
ATOM     35  C   UNL d   1       4.745  -0.220   2.124  0.00  0.00     0.000 A 
ATOM     36  C   UNL d   1       4.426  -1.084   1.080  0.00  0.00     0.001 A 
ATOM     37  C   UNL d   1       3.136  -1.088   0.542  0.00  0.00     0.014 A 
ENDBRANCH  26  32
ENDBRANCH   1  25
TORSDOF 6
