REMARK  9 active torsions:
REMARK  status: ('A' for Active; 'I' for Inactive)
REMARK    1  A    between atoms: C_7  and  C_3 
REMARK    2  A    between atoms: C_15  and  C_7 
REMARK       I    between atoms: C_8  and  N_9 
REMARK    3  A    between atoms: C_17  and  C_8 
REMARK    4  A    between atoms: N_9  and  C_11 
REMARK    5  A    between atoms: C_10  and  C_18 
REMARK    6  A    between atoms: O_19  and  C_10 
REMARK    7  A    between atoms: C_22  and  C_15 
REMARK    8  A    between atoms: C_18  and  C_17 
REMARK    9  A    between atoms: C_23  and  C_22 
ROOT
ATOM      1  C   UNL d   1      -5.057   7.127  -1.098  0.00  0.00     0.035 A 
ATOM      2  C   UNL d   1      -4.996   5.761  -0.800  0.00  0.00     0.036 A 
ATOM      3  C   UNL d   1      -3.985   5.233   0.023  0.00  0.00    -0.056 A 
ATOM      4  C   UNL d   1      -3.099   7.476   0.286  0.00  0.00     0.003 A 
ATOM      5  C   UNL d   1      -4.087   7.979  -0.561  0.00  0.00     0.029 A 
ATOM      6  C   UNL d   1      -3.055   6.116   0.587  0.00  0.00     0.007 A 
ENDROOT
BRANCH   3   7
ATOM      7  C   UNL d   1      -3.935   3.734   0.274  0.00  0.00     0.046 C 
BRANCH   7   8
ATOM      8  C   UNL d   1      -2.506   3.175   0.252  0.00  0.00     0.088 C 
BRANCH   8   9
ATOM      9  C   UNL d   1      -2.415   1.702  -0.135  0.00  0.00     0.161 C 
ATOM     10  O   UNL d   1      -3.346   1.086  -0.648  0.00  0.00    -0.292 OA
BRANCH   9  11
ATOM     11  C   UNL d   1      -1.112   0.989   0.098  0.00  0.00     0.023 A 
ATOM     12  C   UNL d   1       0.066   1.428  -0.562  0.00  0.00    -0.041 A 
ATOM     13  C   UNL d   1       0.044   2.605  -1.511  0.00  0.00     0.050 C 
ATOM     14  C   UNL d   1       1.307   0.762  -0.328  0.00  0.00    -0.049 A 
ATOM     15  C   UNL d   1       1.349  -0.367   0.526  0.00  0.00    -0.049 A 
ATOM     16  C   UNL d   1       2.543   1.296  -1.024  0.00  0.00     0.049 C 
ATOM     17  C   UNL d   1       0.152  -0.827   1.151  0.00  0.00    -0.049 A 
ATOM     18  C   UNL d   1       2.625  -1.144   0.788  0.00  0.00     0.049 C 
ATOM     19  C   UNL d   1      -1.083  -0.154   0.936  0.00  0.00    -0.041 A 
ATOM     20  C   UNL d   1       0.230  -2.059   2.038  0.00  0.00     0.049 C 
ATOM     21  C   UNL d   1      -2.331  -0.690   1.602  0.00  0.00     0.050 C 
ENDBRANCH   9  11
ENDBRANCH   8   9
ENDBRANCH   7   8
ENDBRANCH   3   7
BRANCH   1  22
ATOM     22  N   UNL d   1      -6.043   7.710  -1.924  0.00  0.00    -0.327 N 
ATOM     23  C   UNL d   1      -7.208   7.111  -2.358  0.00  0.00     0.222 C 
ATOM     24  O   UNL d   1      -7.589   5.974  -2.095  0.00  0.00    -0.273 OA
ATOM     25  H   UNL d   1      -5.942   8.704  -2.091  0.00  0.00     0.169 HD
BRANCH  23  26
ATOM     26  C   UNL d   1      -8.113   8.036  -3.146  0.00  0.00     0.113 C 
BRANCH  26  27
ATOM     27  C   UNL d   1      -9.549   7.816  -2.687  0.00  0.00     0.119 C 
BRANCH  27  28
ATOM     28  C   UNL d   1      -9.684   8.177  -1.230  0.00  0.00     0.139 C 
ATOM     29  O   UNL d   1      -9.972   9.299  -0.841  0.00  0.00    -0.650 OA
BRANCH  28  30
ATOM     30  O   UNL d   1      -9.384   7.167  -0.384  0.00  0.00    -0.776 OA
ATOM     31  H   UNL d   1      -9.025   6.361  -0.827  0.00  0.00     0.167 HD
ENDBRANCH  28  30
ENDBRANCH  27  28
ENDBRANCH  26  27
ENDBRANCH  23  26
ENDBRANCH   1  22
TORSDOF 9
