REMARK  4 active torsions:
REMARK  status: ('A' for Active; 'I' for Inactive)
REMARK    1  A    between atoms: N_8  and  C_1 
REMARK       I    between atoms: C_9  and  N_8 
REMARK    2  A    between atoms: C_16  and  C_9 
REMARK    3  A    between atoms: O_17  and  C_12 
REMARK    4  A    between atoms: O_18  and  C_13 
ROOT
ATOM      1  C   UNL d   1       2.430   0.662   0.112  0.00  0.00     0.155 C 
ATOM      2  S   UNL d   1       2.744  -1.017   0.390  0.00  0.00    -0.011 SA
ATOM      3  C   UNL d   1       0.006  -0.881  -0.045  0.00  0.00     0.051 A 
ATOM      4  C   UNL d   1       1.229  -1.683  -0.156  0.00  0.00     0.229 C 
ATOM      5  N   UNL d   1       1.282   1.220  -0.029  0.00  0.00    -0.336 N 
ATOM      6  HN  UNL d   1       1.242   2.227  -0.188  1.00  0.00     0.168 HD
ATOM      7  C   UNL d   1       0.085   0.502   0.026  0.00  0.00     0.051 A 
ATOM      8  C   UNL d   1      -1.238  -1.533  -0.022  0.00  0.00     0.058 A 
ATOM      9  C   UNL d   1      -1.110   1.224   0.118  0.00  0.00     0.070 A 
ATOM     10  C   UNL d   1      -2.429  -0.807   0.109  0.00  0.00     0.102 A 
ATOM     11  C   UNL d   1      -2.368   0.593   0.164  0.00  0.00     0.103 A 
ATOM     12  O   UNL d   1       1.175  -2.842  -0.550  0.00  0.00    -0.279 OA
ENDROOT
BRANCH   1  13
ATOM     13  N   UNL d   1       3.621   1.354   0.090  0.00  0.00    -0.303 N 
ATOM     14  C   UNL d   1       3.777   2.720  -0.078  0.00  0.00     0.257 C 
ATOM     15  O   UNL d   1       2.864   3.518  -0.251  0.00  0.00    -0.267 OA
ATOM     16  H   UNL d   1       4.431   0.790   0.284  0.00  0.00     0.171 HD
BRANCH  14  17
ATOM     17  C   UNL d   1       5.173   3.256  -0.018  0.00  0.00     0.032 A 
ATOM     18  C   UNL d   1       6.313   2.492  -0.305  0.00  0.00     0.017 A 
ATOM     19  C   UNL d   1       7.581   3.087  -0.265  0.00  0.00     0.001 A 
ATOM     20  C   UNL d   1       7.719   4.438   0.054  0.00  0.00     0.000 A 
ATOM     21  C   UNL d   1       6.591   5.203   0.337  0.00  0.00     0.001 A 
ATOM     22  C   UNL d   1       5.326   4.615   0.300  0.00  0.00     0.017 A 
ENDBRANCH  14  17
ENDBRANCH   1  13
BRANCH  11  23
ATOM     23  O   UNL d   1      -3.398   1.490   0.272  0.00  0.00    -0.353 OA
ATOM     24  C   UNL d   1      -4.729   1.004   0.373  0.00  0.00     0.210 C 
ENDBRANCH  11  23
BRANCH  10  25
ATOM     25  O   UNL d   1      -3.648  -1.431   0.125  0.00  0.00    -0.353 OA
ATOM     26  C   UNL d   1      -3.690  -2.715   0.742  0.00  0.00     0.210 C 
ENDBRANCH  10  25
TORSDOF 4
