REMARK  2 active torsions:
REMARK  status: ('A' for Active; 'I' for Inactive)
REMARK    1  A    between atoms: N_9  and  C_2 
REMARK       I    between atoms: C_11  and  N_9 
REMARK    2  A    between atoms: C_13  and  C_11 
ROOT
ATOM      1  C   UNL d   1       0.536  -0.606  -0.039  0.00  0.00     0.089 A 
ATOM      2  C   UNL d   1      -1.973   0.536  -0.274  0.00  0.00     0.155 C 
ATOM      3  C   UNL d   1       0.322   0.721  -0.281  0.00  0.00     0.062 A 
ATOM      4  S   UNL d   1      -1.993  -1.177  -0.570  0.00  0.00    -0.010 SA
ATOM      5  C   UNL d   1      -0.471  -1.600   0.163  0.00  0.00     0.235 C 
ATOM      6  N   UNL d   1      -0.944   1.324  -0.215  0.00  0.00    -0.335 N 
ATOM      7  HN  UNL d   1      -1.050   2.335  -0.126  1.00  0.00     0.168 HD
ATOM      8  S   UNL d   1       2.190  -1.000   0.005  0.00  0.00    -0.095 SA
ATOM      9  C   UNL d   1       1.530   1.448  -0.518  0.00  0.00    -0.027 A 
ATOM     10  C   UNL d   1       2.624   0.607  -0.386  0.00  0.00     0.059 A 
ATOM     11  O   UNL d   1      -0.323  -2.686   0.711  0.00  0.00    -0.279 OA
ATOM     12  C   UNL d   1       1.654   2.894  -0.858  0.00  0.00     0.051 C 
ENDROOT
BRANCH   2  13
ATOM     13  N   UNL d   1      -3.194   1.162  -0.079  0.00  0.00    -0.303 N 
ATOM     14  C   UNL d   1      -4.493   0.651  -0.028  0.00  0.00     0.257 C 
ATOM     15  O   UNL d   1      -4.829  -0.483  -0.342  0.00  0.00    -0.267 OA
ATOM     16  H   UNL d   1      -3.077   2.153   0.080  0.00  0.00     0.171 HD
BRANCH  14  17
ATOM     17  C   UNL d   1      -5.562   1.605   0.372  0.00  0.00     0.032 A 
ATOM     18  C   UNL d   1      -6.843   1.420  -0.175  0.00  0.00     0.018 A 
ATOM     19  C   UNL d   1      -7.882   2.299   0.142  0.00  0.00     0.025 A 
ATOM     20  C   UNL d   1      -7.645   3.356   1.017  0.00  0.00     0.034 A 
ATOM     21  C   UNL d   1      -6.387   3.525   1.598  0.00  0.00     0.025 A 
ATOM     22 CL   UNL d   1      -8.912   4.459   1.384  0.00  0.00    -0.084 Cl
ATOM     23  C   UNL d   1      -5.344   2.647   1.282  0.00  0.00     0.018 A 
ENDBRANCH  14  17
ENDBRANCH   2  13
TORSDOF 2
