REMARK  11 active torsions:
REMARK  status: ('A' for Active; 'I' for Inactive)
REMARK    1  A    between atoms: C_5  and  C_1 
REMARK    2  A    between atoms: N_14  and  C_4 
REMARK    3  A    between atoms: C_28  and  N_14 
REMARK    4  A    between atoms: C_15  and  O_17 
REMARK    5  A    between atoms: O_17  and  C_23 
REMARK    6  A    between atoms: C_21  and  C_27 
REMARK    7  A    between atoms: C_23  and  C_21 
REMARK    8  A    between atoms: O_26  and  C_21 
REMARK    9  A    between atoms: N_25  and  C_29 
REMARK   10  A    between atoms: C_27  and  N_25 
REMARK   11  A    between atoms: C_29  and  C_28 
ROOT
ATOM      1  N   UNL d   1       0.797   7.664  -3.413  0.00  0.00     0.087 N 
ATOM      2  H   UNL d   1      -0.183   7.544  -3.671  0.00  0.00     0.316 HD
ENDROOT
BRANCH   1   3
ATOM      3  C   UNL d   1       1.162   6.731  -2.339  0.00  0.00     0.284 C 
BRANCH   3   4
ATOM      4  C   UNL d   1       0.402   6.932  -1.012  0.00  0.00     0.125 C 
BRANCH   4   5
ATOM      5  N   UNL d   1       0.827   5.951  -0.033  0.00  0.00    -0.262 NA
ATOM      6  H   UNL d   1       0.748   4.976  -0.305  0.00  0.00     0.130 HD
BRANCH   5   7
ATOM      7  C   UNL d   1       0.216   6.073   1.204  0.00  0.00     0.157 A 
ATOM      8  N   UNL d   1       0.083   4.931   1.883  0.00  0.00    -0.329 N 
ATOM      9  C   UNL d   1      -0.475   4.989   3.119  0.00  0.00     0.120 A 
ATOM     10  HN  UNL d   1       0.391   4.044   1.486  1.00  0.00     0.168 HD
ATOM     11  C   UNL d   1      -0.915   6.181   3.665  0.00  0.00     0.051 A 
ATOM     12  C   UNL d   1      -0.753   7.295   2.882  0.00  0.00     0.093 A 
ATOM     13  N   UNL d   1      -0.196   7.261   1.659  0.00  0.00    -0.343 N 
ATOM     14  HN  UNL d   1      -0.092   8.108   1.100  1.00  0.00     0.167 HD
BRANCH   9  15
ATOM     15  C   UNL d   1      -0.607   3.711   3.923  0.00  0.00     0.432 C 
ATOM     16  F   UNL d   1      -0.166   2.594   3.278  0.00  0.00    -0.165 F 
ATOM     17  F   UNL d   1      -1.900   3.450   4.274  0.00  0.00    -0.165 F 
ATOM     18  F   UNL d   1       0.086   3.762   5.097  0.00  0.00    -0.165 F 
ENDBRANCH   9  15
ENDBRANCH   5   7
ENDBRANCH   4   5
ENDBRANCH   3   4
ENDBRANCH   1   3
BRANCH   1  19
ATOM     19  C   UNL d   1       1.058   9.065  -3.069  0.00  0.00     0.303 C 
BRANCH  19  20
ATOM     20  C   UNL d   1       0.635  10.028  -4.198  0.00  0.00     0.170 C 
BRANCH  20  21
ATOM     21  C   UNL d   1       0.914  11.473  -3.764  0.00  0.00     0.209 C 
BRANCH  21  22
ATOM     22  O   UNL d   1       0.458  12.372  -4.777  0.00  0.00    -0.349 OA
BRANCH  22  23
ATOM     23  C   UNL d   1       0.732  13.698  -4.584  0.00  0.00     0.070 A 
ATOM     24  C   UNL d   1       1.277  14.255  -3.429  0.00  0.00     0.062 A 
ATOM     25  C   UNL d   1       1.504  15.634  -3.351  0.00  0.00     0.058 A 
ATOM     26 CL   UNL d   1       2.179  16.246  -1.882  0.00  0.00    -0.082 Cl
ATOM     27  C   UNL d   1       1.185  16.461  -4.433  0.00  0.00     0.056 A 
ATOM     28  C   UNL d   1       0.642  15.902  -5.592  0.00  0.00     0.028 A 
ATOM     29 CL   UNL d   1       1.434  18.169  -4.397  0.00  0.00    -0.083 Cl
ATOM     30  C   UNL d   1       0.417  14.526  -5.665  0.00  0.00     0.038 A 
ENDBRANCH  22  23
ENDBRANCH  21  22
ENDBRANCH  20  21
BRANCH  20  31
ATOM     31  O   UNL d   1       1.341   9.738  -5.410  0.00  0.00    -0.392 OA
ATOM     32  H   UNL d   1       2.274   9.588  -5.185  0.00  0.00     0.210 HD
ENDBRANCH  20  31
ENDBRANCH  19  20
ENDBRANCH   1  19
TORSDOF 11
