REMARK  6 active torsions:
REMARK  status: ('A' for Active; 'I' for Inactive)
REMARK    1  A    between atoms: C_5  and  C_1 
REMARK    2  A    between atoms: C_9  and  N_4 
REMARK       I    between atoms: C_8  and  N_13 
REMARK    3  A    between atoms: C_10  and  C_8 
REMARK    4  A    between atoms: C_11  and  C_12 
REMARK    5  A    between atoms: O_22  and  C_11 
REMARK    6  A    between atoms: N_13  and  C_21 
ROOT
ATOM      1  C   UNL d   1       1.743   1.763   0.155  0.00  0.00     0.056 A 
ATOM      2  C   UNL d   1       2.432   1.806  -1.064  0.00  0.00     0.034 A 
ATOM      3  C   UNL d   1       2.200   2.540   1.223  0.00  0.00     0.034 A 
ATOM      4  C   UNL d   1       4.057   3.355  -0.121  0.00  0.00     0.035 A 
ATOM      5  C   UNL d   1       3.572   2.610  -1.202  0.00  0.00     0.032 A 
ATOM      6  C   UNL d   1       3.347   3.328   1.081  0.00  0.00     0.032 A 
ENDROOT
BRANCH   1   7
ATOM      7  N   UNL d   1       0.589   0.942   0.291  0.00  0.00    -0.267 N 
ATOM      8  N   UNL d   1       0.211   0.093  -0.700  0.00  0.00    -0.290 N 
ATOM      9  C   UNL d   1      -0.923  -0.488  -0.263  0.00  0.00     0.134 A 
ATOM     10  HN  UNL d   1       0.685  -0.069  -1.588  1.00  0.00     0.187 HD
ATOM     11  C   UNL d   1      -1.277  -0.002   1.018  0.00  0.00     0.055 A 
ATOM     12  C   UNL d   1      -0.283   0.882   1.356  0.00  0.00     0.119 A 
BRANCH   9  13
ATOM     13  C   UNL d   1      -1.698  -1.501  -1.063  0.00  0.00     0.434 C 
ATOM     14  F   UNL d   1      -1.099  -1.855  -2.230  0.00  0.00    -0.165 F 
ATOM     15  F   UNL d   1      -1.890  -2.651  -0.358  0.00  0.00    -0.165 F 
ATOM     16  F   UNL d   1      -2.938  -1.039  -1.382  0.00  0.00    -0.165 F 
ENDBRANCH   9  13
ENDBRANCH   1   7
BRANCH   4  17
ATOM     17  N   UNL d   1       5.273   4.053  -0.294  0.00  0.00    -0.324 N 
ATOM     18  C   UNL d   1       5.990   4.701   0.689  0.00  0.00     0.245 C 
ATOM     19  O   UNL d   1       5.648   4.907   1.849  0.00  0.00    -0.268 OA
ATOM     20  H   UNL d   1       5.693   3.978  -1.213  0.00  0.00     0.169 HD
BRANCH  18  21
ATOM     21  C   UNL d   1       7.332   5.135   0.226  0.00  0.00     0.081 C 
ATOM     22  C   UNL d   1       8.148   5.730   1.110  0.00  0.00     0.086 C 
BRANCH  22  23
ATOM     23  C   UNL d   1       9.502   6.115   0.685  0.00  0.00     0.165 C 
ATOM     24  O   UNL d   1       9.954   5.901  -0.425  0.00  0.00    -0.647 OA
BRANCH  23  25
ATOM     25  O   UNL d   1      10.190   6.726   1.666  0.00  0.00    -0.773 OA
ATOM     26  H   UNL d   1       9.715   6.840   2.509  0.00  0.00     0.167 HD
ENDBRANCH  23  25
ENDBRANCH  22  23
ENDBRANCH  18  21
ENDBRANCH   4  17
TORSDOF 6
