REMARK  5 active torsions:
REMARK  status: ('A' for Active; 'I' for Inactive)
REMARK    1  A    between atoms: C_5  and  O_8 
REMARK    2  A    between atoms: O_7  and  C_6 
REMARK    3  A    between atoms: C_14  and  O_7 
REMARK    4  A    between atoms: O_8  and  C_13 
REMARK    5  A    between atoms: C_13  and  C_14 
ROOT
ATOM      1  C   UNL d   1      -1.867   4.685  -0.031  0.00  0.00     0.204 C 
ENDROOT
BRANCH   1   2
ATOM      2  O   UNL d   1      -1.221   5.960  -0.018  0.00  0.00    -0.334 OA
BRANCH   2   3
ATOM      3  C   UNL d   1      -2.107   7.016  -0.061  0.00  0.00     0.141 A 
ATOM      4  N   UNL d   1      -3.436   6.780  -0.058  0.00  0.00    -0.347 N 
ATOM      5  C   UNL d   1      -4.242   7.863  -0.106  0.00  0.00     0.090 A 
ATOM      6  HN  UNL d   1      -3.813   5.833  -0.020  1.00  0.00     0.167 HD
ATOM      7  C   UNL d   1      -3.780   9.168  -0.159  0.00  0.00     0.017 A 
ATOM      8  C   UNL d   1      -2.406   9.380  -0.159  0.00  0.00     0.006 A 
ATOM      9  C   UNL d   1      -1.550   8.285  -0.107  0.00  0.00     0.056 A 
ENDBRANCH   2   3
ENDBRANCH   1   2
BRANCH   1  10
ATOM     10  C   UNL d   1      -0.796   3.601  -0.031  0.00  0.00     0.204 C 
BRANCH  10  11
ATOM     11  O   UNL d   1      -1.430   2.320  -0.056  0.00  0.00    -0.334 OA
BRANCH  11  12
ATOM     12  C   UNL d   1      -0.525   1.277  -0.063  0.00  0.00     0.141 A 
ATOM     13  N   UNL d   1       0.800   1.536  -0.044  0.00  0.00    -0.347 N 
ATOM     14  C   UNL d   1       1.627   0.469  -0.052  0.00  0.00     0.090 A 
ATOM     15  HN  UNL d   1       1.158   2.491  -0.024  1.00  0.00     0.167 HD
ATOM     16  C   UNL d   1       1.190  -0.845  -0.077  0.00  0.00     0.017 A 
ATOM     17  C   UNL d   1      -0.179  -1.083  -0.096  0.00  0.00     0.006 A 
ATOM     18  C   UNL d   1      -1.057  -0.003  -0.090  0.00  0.00     0.056 A 
ENDBRANCH  11  12
ENDBRANCH  10  11
ENDBRANCH   1  10
TORSDOF 5
