REMARK  2 active torsions:
REMARK  status: ('A' for Active; 'I' for Inactive)
REMARK    1  A    between atoms: N_5  and  C_1 
REMARK    2  A    between atoms: N_9  and  C_6 
ROOT
ATOM      1  C   UNL d   1       0.979  -1.466  -0.002  0.00  0.00     0.118 A 
ATOM      2  C   UNL d   1      -0.243  -0.781   0.067  0.00  0.00    -0.009 A 
ATOM      3  C   UNL d   1      -0.219   0.622   0.100  0.00  0.00    -0.038 A 
ATOM      4  C   UNL d   1       2.232  -0.783  -0.038  0.00  0.00    -0.001 A 
ATOM      5  C   UNL d   1       2.212   0.637  -0.034  0.00  0.00     0.047 A 
ATOM      6  C   UNL d   1      -1.678  -1.287   0.118  0.00  0.00    -0.017 C 
ATOM      7  C   UNL d   1      -1.602   1.230   0.153  0.00  0.00    -0.019 C 
ATOM      8  C   UNL d   1       0.986   1.323   0.066  0.00  0.00     0.039 A 
ATOM      9  C   UNL d   1      -2.470   0.009  -0.229  0.00  0.00     0.027 C 
ATOM     10  C   UNL d   1       3.525  -1.568  -0.008  0.00  0.00     0.053 C 
ATOM     11  C   UNL d   1      -2.081  -1.793   1.512  0.00  0.00     0.020 C 
ATOM     12  C   UNL d   1      -2.013  -2.355  -0.933  0.00  0.00     0.020 C 
ATOM     13  C   UNL d   1      -1.926   1.778   1.548  0.00  0.00     0.020 C 
ATOM     14  C   UNL d   1      -1.800   2.352  -0.880  0.00  0.00     0.020 C 
ENDROOT
BRANCH   5  15
ATOM     15  N   UNL d   1       3.399   1.435  -0.116  0.00  0.00    -0.332 N 
ATOM     16  C   UNL d   1       4.561   1.151  -0.807  0.00  0.00     0.096 A 
ATOM     17  C   UNL d   1       5.494   2.132  -0.561  0.00  0.00     0.019 A 
ATOM     18  C   UNL d   1       4.868   3.106   0.239  0.00  0.00     0.019 A 
ATOM     19  C   UNL d   1       3.577   2.680   0.464  0.00  0.00     0.096 A 
ENDBRANCH   5  15
BRANCH   1  20
ATOM     20  N   UNL d   1       0.980  -2.918  -0.032  0.00  0.00    -0.114 N 
ATOM     21  O   UNL d   1       0.664  -3.511   1.007  0.00  0.00    -0.532 OA
ATOM     22  O   UNL d   1       1.344  -3.460  -1.087  0.00  0.00    -0.532 OA
ENDBRANCH   1  20
TORSDOF 2
