REMARK  1 active torsions:
REMARK  status: ('A' for Active; 'I' for Inactive)
REMARK    1  A    between atoms: C_11  and  C_4 
ROOT
ATOM      1  C   UNL d   1      -0.719  -0.859  -0.006  0.00  0.00     0.058 C 
ATOM      2  C   UNL d   1       0.729  -1.313   0.066  0.00  0.00     0.174 C 
ATOM      3  N   UNL d   1      -0.803   0.550  -0.034  0.00  0.00    -0.280 NA
ATOM      4  C   UNL d   1      -1.715  -1.753  -0.017  0.00  0.00     0.038 C 
ATOM      5  C   UNL d   1       1.661  -0.100   0.116  0.00  0.00     0.064 C 
ATOM      6  C   UNL d   1      -0.240   1.170   1.201  0.00  0.00     0.096 C 
ATOM      7  C   UNL d   1      -0.101   1.135  -1.214  0.00  0.00     0.096 C 
ATOM      8  O   UNL d   1       1.100  -2.476   0.081  0.00  0.00    -0.291 OA
ATOM      9  C   UNL d   1       1.390   0.730  -1.154  0.00  0.00     0.027 C 
ATOM     10  C   UNL d   1       1.236   0.730   1.345  0.00  0.00     0.027 C 
ENDROOT
BRANCH   4  11
ATOM     11  C   UNL d   1      -3.125  -1.367  -0.083  0.00  0.00    -0.034 A 
ATOM     12  C   UNL d   1      -3.751  -1.207  -1.325  0.00  0.00     0.013 A 
ATOM     13  C   UNL d   1      -5.103  -0.862  -1.392  0.00  0.00     0.024 A 
ATOM     14  C   UNL d   1      -5.828  -0.673  -0.217  0.00  0.00     0.034 A 
ATOM     15  C   UNL d   1      -5.210  -0.812   1.025  0.00  0.00     0.024 A 
ATOM     16 CL   UNL d   1      -7.500  -0.273  -0.300  0.00  0.00    -0.084 Cl
ATOM     17  C   UNL d   1      -3.857  -1.156   1.092  0.00  0.00     0.013 A 
ENDBRANCH   4  11
TORSDOF 1
