REMARK  1 active torsions:
REMARK  status: ('A' for Active; 'I' for Inactive)
REMARK    1  A    between atoms: C_6  and  C_9 
ROOT
ATOM      1  C   UNL d   1      -1.285  -0.611  -0.010  0.00  0.00     0.033 A 
ATOM      2  C   UNL d   1       0.012  -1.326  -0.058  0.00  0.00     0.195 A 
ATOM      3  S   UNL d   1       0.015   1.874  -0.120  0.00  0.00    -0.089 SA
ATOM      4  C   UNL d   1       1.311  -0.613  -0.022  0.00  0.00     0.032 A 
ATOM      5  C   UNL d   1      -1.377   0.781  -0.042  0.00  0.00     0.019 A 
ATOM      6  C   UNL d   1       1.404   0.779  -0.023  0.00  0.00     0.019 A 
ATOM      7  C   UNL d   1      -2.457  -1.389   0.074  0.00  0.00     0.033 A 
ATOM      8  C   UNL d   1      -3.725  -0.793   0.123  0.00  0.00     0.048 A 
ATOM      9  O   UNL d   1       0.007  -2.555  -0.114  0.00  0.00    -0.287 OA
ATOM     10  C   UNL d   1      -2.648   1.377  -0.010  0.00  0.00     0.021 A 
ATOM     11  C   UNL d   1      -3.808   0.602   0.071  0.00  0.00     0.017 A 
ATOM     12  C   UNL d   1       2.482  -1.392   0.021  0.00  0.00     0.017 A 
ATOM     13  C   UNL d   1       2.676   1.374   0.041  0.00  0.00     0.020 A 
ATOM     14  C   UNL d   1       3.738  -0.789   0.077  0.00  0.00     0.001 A 
ATOM     15  C   UNL d   1       3.835   0.597   0.093  0.00  0.00     0.001 A 
ENDROOT
BRANCH   8  16
ATOM     16  C   UNL d   1      -4.980  -1.625   0.239  0.00  0.00     0.417 C 
ATOM     17  F   UNL d   1      -4.747  -2.965   0.289  0.00  0.00    -0.166 F 
ATOM     18  F   UNL d   1      -5.693  -1.327   1.361  0.00  0.00    -0.166 F 
ATOM     19  F   UNL d   1      -5.830  -1.430  -0.806  0.00  0.00    -0.166 F 
ENDBRANCH   8  16
TORSDOF 1
