REMARK  5 active torsions:
REMARK  status: ('A' for Active; 'I' for Inactive)
REMARK    1  A    between atoms: C_3  and  N_1 
REMARK       I    between atoms: C_2  and  N_4 
REMARK    2  A    between atoms: C_10  and  C_2 
REMARK    3  A    between atoms: N_4  and  C_11 
REMARK    4  A    between atoms: C_8  and  C_6 
REMARK    5  A    between atoms: C_11  and  C_8 
ROOT
ATOM      1  C   UNL d   1      -0.569  -0.054   6.078  0.00  0.00     0.206 C 
ENDROOT
BRANCH   1   2
ATOM      2  N   UNL d   1      -1.955  -0.428   5.862  0.00  0.00    -0.350 N 
ATOM      3  C   UNL d   1      -2.377  -1.734   5.992  0.00  0.00     0.252 C 
ATOM      4  O   UNL d   1      -1.666  -2.619   6.455  0.00  0.00    -0.268 OA
ATOM      5  H   UNL d   1      -2.536   0.247   5.390  0.00  0.00     0.163 HD
BRANCH   3   6
ATOM      6  C   UNL d   1      -3.782  -2.036   5.582  0.00  0.00     0.032 A 
ATOM      7  C   UNL d   1      -4.488  -1.255   4.655  0.00  0.00     0.018 A 
ATOM      8  C   UNL d   1      -5.810  -1.578   4.325  0.00  0.00     0.025 A 
ATOM      9  C   UNL d   1      -6.423  -2.686   4.908  0.00  0.00     0.034 A 
ATOM     10  C   UNL d   1      -5.725  -3.481   5.813  0.00  0.00     0.025 A 
ATOM     11 CL   UNL d   1      -8.048  -3.077   4.499  0.00  0.00    -0.084 Cl
ATOM     12  C   UNL d   1      -4.406  -3.158   6.147  0.00  0.00     0.018 A 
ENDBRANCH   3   6
ENDBRANCH   1   2
BRANCH   1  13
ATOM     13  C   UNL d   1       0.184   0.039   4.750  0.00  0.00     0.177 C 
ATOM     14  O   UNL d   1      -0.372  -0.111   3.662  0.00  0.00    -0.291 OA
BRANCH  13  15
ATOM     15  C   UNL d   1       1.637   0.396   4.779  0.00  0.00     0.014 A 
ATOM     16  C   UNL d   1       2.354   0.385   3.571  0.00  0.00     0.051 A 
ATOM     17  C   UNL d   1       3.705   0.758   3.559  0.00  0.00     0.103 A 
ATOM     18  C   UNL d   1       4.349   1.143   4.742  0.00  0.00     0.036 A 
ATOM     19  C   UNL d   1       3.637   1.149   5.941  0.00  0.00     0.003 A 
ATOM     20  C   UNL d   1       2.289   0.776   5.961  0.00  0.00     0.015 A 
BRANCH  17  21
ATOM     21  N   UNL d   1       4.455   0.755   2.296  0.00  0.00    -0.116 N 
ATOM     22  O   UNL d   1       3.840   0.470   1.261  0.00  0.00    -0.532 OA
ATOM     23  O   UNL d   1       5.660   1.045   2.343  0.00  0.00    -0.532 OA
ENDBRANCH  17  21
ENDBRANCH  13  15
ENDBRANCH   1  13
TORSDOF 5
