REMARK  13 active torsions:
REMARK  status: ('A' for Active; 'I' for Inactive)
REMARK    1  A    between atoms: C_9  and  C_1 
REMARK    2  A    between atoms: C_2  and  O_13 
REMARK    3  A    between atoms: C_3  and  C_2 
REMARK    4  A    between atoms: C_4  and  C_2 
REMARK    5  A    between atoms: C_3  and  O_14 
REMARK    6  A    between atoms: C_3  and  C_12 
REMARK    7  A    between atoms: C_4  and  O_15 
REMARK    8  A    between atoms: C_4  and  C_11 
REMARK    9  A    between atoms: N_10  and  C_9 
REMARK   10  A    between atoms: C_11  and  N_10 
REMARK   11  A    between atoms: C_12  and  O_16 
REMARK   12  A    between atoms: C_18  and  C_12 
REMARK   13  A    between atoms: O_17  and  C_18 
ROOT
ATOM      1  C   UNL d   1       2.805  -0.471   2.045  0.00  0.00     0.139 C 
ATOM      2  C   UNL d   1       2.775  -0.279   3.448  0.00  0.00     0.112 C 
ATOM      3  C   UNL d   1       3.837  -1.306   1.517  0.00  0.00     0.112 C 
ATOM      4  N   UNL d   1       2.763  -0.141   4.602  0.00  0.00    -0.191 NA
ATOM      5  N   UNL d   1       4.661  -1.982   1.060  0.00  0.00    -0.191 NA
ENDROOT
BRANCH   1   6
ATOM      6  C   UNL d   1       1.916   0.072   1.186  0.00  0.00     0.119 C 
BRANCH   6   7
ATOM      7  N   UNL d   1       0.803   0.917   1.267  0.00  0.00    -0.390 N 
ATOM      8  C   UNL d   1       0.127   1.356   0.025  0.00  0.00     0.149 C 
BRANCH   7   9
ATOM      9  C   UNL d   1       0.338   1.663   2.476  0.00  0.00     0.156 C 
BRANCH   9  10
ATOM     10  C   UNL d   1      -1.079   1.195   2.882  0.00  0.00     0.167 C 
BRANCH  10  11
ATOM     11  O   UNL d   1      -1.011  -0.174   3.316  0.00  0.00    -0.391 OA
ATOM     12  H   UNL d   1      -0.466  -0.627   2.643  0.00  0.00     0.210 HD
ENDBRANCH  10  11
BRANCH  10  13
ATOM     13  C   UNL d   1      -1.695   2.043   4.008  0.00  0.00     0.179 C 
BRANCH  13  14
ATOM     14  O   UNL d   1      -0.874   1.949   5.191  0.00  0.00    -0.390 OA
ATOM     15  H   UNL d   1      -0.693   0.995   5.317  0.00  0.00     0.210 HD
ENDBRANCH  13  14
BRANCH  13  16
ATOM     16  C   UNL d   1      -3.116   1.577   4.403  0.00  0.00     0.180 C 
BRANCH  16  17
ATOM     17  O   UNL d   1      -3.551   2.348   5.541  0.00  0.00    -0.390 OA
ATOM     18  H   UNL d   1      -2.733   2.579   6.027  0.00  0.00     0.210 HD
ENDBRANCH  16  17
BRANCH  16  19
ATOM     19  C   UNL d   1      -4.142   1.698   3.263  0.00  0.00     0.173 C 
BRANCH  19  20
ATOM     20  O   UNL d   1      -4.197   3.047   2.770  0.00  0.00    -0.391 OA
ATOM     21  H   UNL d   1      -5.093   3.140   2.388  0.00  0.00     0.210 HD
ENDBRANCH  19  20
BRANCH  19  22
ATOM     22  C   UNL d   1      -5.544   1.257   3.698  0.00  0.00     0.198 C 
BRANCH  22  23
ATOM     23  O   UNL d   1      -6.420   1.391   2.572  0.00  0.00    -0.398 OA
ATOM     24  H   UNL d   1      -7.280   1.026   2.846  0.00  0.00     0.209 HD
ENDBRANCH  22  23
ENDBRANCH  19  22
ENDBRANCH  16  19
ENDBRANCH  13  16
ENDBRANCH  10  13
ENDBRANCH   9  10
ENDBRANCH   7   9
ENDBRANCH   6   7
ENDBRANCH   1   6
TORSDOF 13
