REMARK  5 active torsions:
REMARK  status: ('A' for Active; 'I' for Inactive)
REMARK    1  A    between atoms: C_7  and  S_1 
REMARK    2  A    between atoms: C_11  and  S_1 
REMARK    3  A    between atoms: C_6  and  C_4 
REMARK    4  A    between atoms: C_5  and  C_7 
REMARK    5  A    between atoms: O_26  and  C_19 
ROOT
ATOM      1  N   UNL d   1       0.182   3.603  -1.085  0.00  0.00    -0.322 N 
ATOM      2  HN  UNL d   1      -0.644   3.623  -1.684  1.00  0.00     0.169 HD
ATOM      3  C   UNL d   1       0.840   4.612  -0.560  0.00  0.00     0.183 A 
ATOM      4  C   UNL d   1       0.880   2.517  -0.631  0.00  0.00     0.118 A 
ATOM      5  N   UNL d   1       1.944   2.812   0.125  0.00  0.00    -0.246 N 
ATOM      6  HN  UNL d   1       2.616   2.173   0.550  1.00  0.00     0.196 HD
ATOM      7  O   UNL d   1       1.911   4.207   0.191  0.00  0.00    -0.217 OA
ENDROOT
BRANCH   4   8
ATOM      8  C   UNL d   1       0.531   1.150  -1.038  0.00  0.00     0.224 C 
BRANCH   8   9
ATOM      9  S   UNL d   1      -0.678   0.421   0.036  0.00  0.00     0.182 S 
ATOM     10  O   UNL d   1      -0.190   0.460   1.403  0.00  0.00    -0.222 OA
ATOM     11  O   UNL d   1      -1.085  -0.844  -0.550  0.00  0.00    -0.222 OA
BRANCH   9  12
ATOM     12  C   UNL d   1      -2.112   1.477  -0.055  0.00  0.00     0.059 A 
ATOM     13  C   UNL d   1      -2.749   1.645  -1.288  0.00  0.00     0.026 A 
ATOM     14  C   UNL d   1      -3.882   2.455  -1.372  0.00  0.00     0.044 A 
ATOM     15  C   UNL d   1      -4.371   3.070  -0.224  0.00  0.00     0.116 A 
ATOM     16  C   UNL d   1      -3.750   2.891   1.009  0.00  0.00     0.044 A 
ATOM     17  F   UNL d   1      -5.465   3.838  -0.307  0.00  0.00    -0.206 F 
ATOM     18  C   UNL d   1      -2.611   2.089   1.101  0.00  0.00     0.026 A 
ENDBRANCH   9  12
ENDBRANCH   8   9
ENDBRANCH   4   8
BRANCH   3  19
ATOM     19  C   UNL d   1       0.621   6.050  -0.664  0.00  0.00     0.037 A 
ATOM     20  C   UNL d   1       0.029   6.649  -1.791  0.00  0.00     0.025 A 
ATOM     21  C   UNL d   1      -0.140   8.036  -1.847  0.00  0.00     0.023 A 
ATOM     22 BR   UNL d   1      -0.557   5.676  -3.319  0.00  0.00    -0.050 Br
ATOM     23  C   UNL d   1       0.266   8.837  -0.781  0.00  0.00     0.038 A 
ATOM     24  C   UNL d   1       0.836   8.267   0.355  0.00  0.00     0.069 A 
ATOM     25  C   UNL d   1       1.011   6.882   0.409  0.00  0.00     0.054 A 
BRANCH  24  26
ATOM     26  O   UNL d   1       1.173   9.160   1.332  0.00  0.00    -0.356 OA
ATOM     27  C   UNL d   1       1.755   8.638   2.521  0.00  0.00     0.210 C 
ENDBRANCH  24  26
ENDBRANCH   3  19
TORSDOF 5
