REMARK  4 active torsions:
REMARK  status: ('A' for Active; 'I' for Inactive)
REMARK    1  A    between atoms: S_3  and  C_1 
REMARK    2  A    between atoms: C_8  and  S_3 
REMARK    3  A    between atoms: C_11  and  N_4 
REMARK    4  A    between atoms: S_13  and  C_5 
ROOT
ATOM      1  C   UNL d   1      -0.189  -1.348   0.030  0.00  0.00     0.144 C 
ATOM      2  C   UNL d   1       1.093  -0.835   0.024  0.00  0.00     0.146 C 
ATOM      3  N   UNL d   1       0.946   0.552   0.023  0.00  0.00    -0.238 N 
ATOM      4  C   UNL d   1      -1.040  -0.221   0.052  0.00  0.00     0.110 C 
ATOM      5  N   UNL d   1      -0.352   0.919   0.172  0.00  0.00    -0.284 N 
ATOM      6  HN  UNL d   1      -0.720   1.855   0.339  1.00  0.00     0.188 HD
ATOM      7  N   UNL d   1       2.288  -1.479   0.063  0.00  0.00    -0.383 N 
ATOM      8  H   UNL d   1       2.323  -2.504   0.096  0.00  0.00     0.157 HD
ATOM      9  H   UNL d   1       3.172  -1.027   0.284  0.00  0.00     0.157 HD
ENDROOT
BRANCH   1  10
ATOM     10  S   UNL d   1      -0.570  -3.020   0.046  0.00  0.00     0.213 S 
ATOM     11  O   UNL d   1      -1.478  -3.201  -1.072  0.00  0.00    -0.217 OA
ATOM     12  O   UNL d   1       0.695  -3.725   0.119  0.00  0.00    -0.217 OA
BRANCH  10  13
ATOM     13  C   UNL d   1      -1.424  -3.374   1.554  0.00  0.00     0.064 A 
ATOM     14  C   UNL d   1      -2.646  -4.052   1.513  0.00  0.00     0.025 A 
ATOM     15  C   UNL d   1      -3.338  -4.290   2.701  0.00  0.00     0.025 A 
ATOM     16  C   UNL d   1      -2.802  -3.860   3.916  0.00  0.00     0.034 A 
ATOM     17  C   UNL d   1      -1.555  -3.234   3.960  0.00  0.00     0.025 A 
ATOM     18 CL   UNL d   1      -3.689  -4.095   5.371  0.00  0.00    -0.084 Cl
ATOM     19  C   UNL d   1      -0.853  -2.999   2.776  0.00  0.00     0.025 A 
ENDBRANCH  10  13
ENDBRANCH   1  10
BRANCH   4  20
ATOM     20  S   UNL d   1      -2.793  -0.185   0.021  0.00  0.00    -0.114 SA
ATOM     21  C   UNL d   1      -3.190   1.589  -0.097  0.00  0.00     0.097 C 
ENDBRANCH   4  20
BRANCH   3  22
ATOM     22  C   UNL d   1       1.974   1.524  -0.072  0.00  0.00     0.058 A 
ATOM     23  C   UNL d   1       3.123   1.254  -0.829  0.00  0.00     0.031 A 
ATOM     24  C   UNL d   1       4.184   2.154  -0.835  0.00  0.00     0.002 A 
ATOM     25  C   UNL d   1       4.095   3.332  -0.098  0.00  0.00     0.000 A 
ATOM     26  C   UNL d   1       2.931   3.628   0.616  0.00  0.00     0.002 A 
ATOM     27  C   UNL d   1       1.857   2.735   0.617  0.00  0.00     0.031 A 
ENDBRANCH   3  22
TORSDOF 4
