REMARK  3 active torsions:
REMARK  status: ('A' for Active; 'I' for Inactive)
REMARK    1  A    between atoms: C_8  and  N_4 
REMARK    2  A    between atoms: C_18  and  C_9 
REMARK    3  A    between atoms: C_17  and  C_10 
ROOT
ATOM      1  C   UNL d   1      -0.485  -1.133   0.167  0.00  0.00     0.146 C 
ATOM      2  S   UNL d   1       1.187  -1.352   0.687  0.00  0.00    -0.057 SA
ATOM      3  N   UNL d   1      -0.905   0.134   0.493  0.00  0.00    -0.357 N 
ATOM      4  N   UNL d   1      -1.279  -2.002  -0.364  0.00  0.00    -0.336 N 
ATOM      5  HN  UNL d   1      -2.257  -1.746  -0.496  1.00  0.00     0.168 HD
ATOM      6  C   UNL d   1       0.970  -0.087   1.886  0.00  0.00     0.004 C 
ATOM      7  C   UNL d   1      -0.077   0.915   1.411  0.00  0.00     0.058 C 
ATOM      8  C   UNL d   1       1.540  -0.180   3.095  0.00  0.00     0.029 C 
ATOM      9  C   UNL d   1      -0.967   1.503   2.510  0.00  0.00     0.044 C 
ATOM     10  C   UNL d   1       0.605   2.048   0.631  0.00  0.00     0.044 C 
ATOM     11  H   UNL d   1      -1.901   0.281   0.465  0.00  0.00     0.162 HD
ENDROOT
BRANCH   4  12
ATOM     12  C   UNL d   1      -0.864  -3.286  -0.770  0.00  0.00     0.046 A 
ATOM     13  C   UNL d   1      -0.517  -4.322   0.135  0.00  0.00    -0.031 A 
ATOM     14  C   UNL d   1      -0.140  -5.577  -0.385  0.00  0.00     0.009 A 
ATOM     15  C   UNL d   1      -0.172  -5.837  -1.752  0.00  0.00     0.001 A 
ATOM     16  C   UNL d   1      -0.570  -4.843  -2.633  0.00  0.00     0.009 A 
ATOM     17  C   UNL d   1      -0.915  -3.568  -2.159  0.00  0.00    -0.031 A 
BRANCH  13  18
ATOM     18  C   UNL d   1      -0.481  -4.101   1.636  0.00  0.00     0.036 C 
ATOM     19  C   UNL d   1      -0.878  -5.288   2.510  0.00  0.00     0.010 C 
ENDBRANCH  13  18
BRANCH  17  20
ATOM     20  C   UNL d   1      -1.396  -2.543  -3.166  0.00  0.00     0.036 C 
ATOM     21  C   UNL d   1      -2.880  -2.703  -3.470  0.00  0.00     0.010 C 
ENDBRANCH  17  20
ENDBRANCH   4  12
TORSDOF 3
