REMARK  6 active torsions:
REMARK  status: ('A' for Active; 'I' for Inactive)
REMARK    1  A    between atoms: C_7  and  C_1 
REMARK    2  A    between atoms: O_16  and  C_2 
REMARK    3  A    between atoms: C_3  and  N_9 
REMARK    4  A    between atoms: N_10  and  C_3 
REMARK    5  A    between atoms: N_9  and  N_5 
REMARK    6  A    between atoms: C_14  and  N_10 
ROOT
ATOM      1  N   UNL d   1      -1.622   3.513   0.199  0.00  0.00    -0.302 N 
ATOM      2  HN  UNL d   1      -1.795   4.447  -0.171  1.00  0.00     0.186 HD
ATOM      3  C   UNL d   1      -0.431   3.173   0.600  0.00  0.00     0.035 C 
ATOM      4  C   UNL d   1      -0.070   1.824   1.202  0.00  0.00     0.070 C 
ENDROOT
BRANCH   1   5
ATOM      5  N   UNL d   1      -2.631   2.605   0.280  0.00  0.00    -0.276 N 
ATOM      6  H   UNL d   1      -2.404   1.626   0.192  0.00  0.00     0.189 HD
BRANCH   5   7
ATOM      7  C   UNL d   1      -3.937   2.918   0.013  0.00  0.00     0.187 C 
ATOM      8  S   UNL d   1      -4.487   4.326  -0.698  0.00  0.00    -0.040 SA
BRANCH   7   9
ATOM      9  N   UNL d   1      -4.870   1.990   0.410  0.00  0.00    -0.358 N 
ATOM     10  H   UNL d   1      -5.798   2.336   0.184  0.00  0.00     0.162 HD
BRANCH   9  11
ATOM     11  C   UNL d   1      -4.838   1.125   1.619  0.00  0.00     0.021 C 
ATOM     12  C   UNL d   1      -4.672   1.994   2.876  0.00  0.00     0.037 C 
ATOM     13  C   UNL d   1      -6.188   0.386   1.699  0.00  0.00     0.037 C 
ATOM     14  C   UNL d   1      -3.741   0.051   1.587  0.00  0.00     0.037 C 
ENDBRANCH   9  11
ENDBRANCH   7   9
ENDBRANCH   5   7
ENDBRANCH   1   5
BRANCH   3  15
ATOM     15  C   UNL d   1       0.658   4.212   0.536  0.00  0.00     0.027 A 
ATOM     16  C   UNL d   1       0.450   5.456  -0.086  0.00  0.00     0.116 A 
ATOM     17  C   UNL d   1       1.482   6.402  -0.116  0.00  0.00     0.153 A 
ATOM     18  F   UNL d   1       1.292   7.591  -0.706  0.00  0.00    -0.203 F 
ATOM     19  C   UNL d   1       2.713   6.143   0.467  0.00  0.00     0.087 A 
ATOM     20  C   UNL d   1       2.913   4.923   1.086  0.00  0.00     0.120 A 
ATOM     21  C   UNL d   1       1.905   3.961   1.129  0.00  0.00     0.058 A 
ATOM     22  F   UNL d   1       4.092   4.654   1.660  0.00  0.00    -0.206 F 
BRANCH  16  23
ATOM     23  O   UNL d   1      -0.732   5.810  -0.679  0.00  0.00    -0.357 OA
ATOM     24  H   UNL d   1      -1.400   5.106  -0.512  0.00  0.00     0.218 HD
ENDBRANCH  16  23
ENDBRANCH   3  15
TORSDOF 6
