REMARK  6 active torsions:
REMARK  status: ('A' for Active; 'I' for Inactive)
REMARK    1  A    between atoms: C_7  and  S_1 
REMARK    2  A    between atoms: C_8  and  S_1 
REMARK    3  A    between atoms: C_13  and  C_6 
REMARK    4  A    between atoms: C_11  and  N_19 
REMARK    5  A    between atoms: S_23  and  C_12 
REMARK    6  A    between atoms: N_19  and  C_14 
ROOT
ATOM      1  C   UNL d   1       0.142   1.072  -1.241  0.00  0.00     0.160 C 
ATOM      2  C   UNL d   1      -0.486   0.411  -2.232  0.00  0.00     0.141 C 
ATOM      3  C   UNL d   1       0.337   0.530   0.043  0.00  0.00     0.113 C 
ATOM      4  N   UNL d   1       0.502   0.061   1.093  0.00  0.00    -0.191 NA
ENDROOT
BRANCH   1   5
ATOM      5  S   UNL d   1       0.628   2.713  -1.506  0.00  0.00     0.219 S 
ATOM      6  O   UNL d   1      -0.424   3.566  -0.978  0.00  0.00    -0.216 OA
ATOM      7  O   UNL d   1       1.062   2.906  -2.878  0.00  0.00    -0.216 OA
BRANCH   5   8
ATOM      8  C   UNL d   1       2.069   3.000  -0.493  0.00  0.00     0.086 A 
ATOM      9  C   UNL d   1       3.269   2.318  -0.713  0.00  0.00     0.056 A 
ATOM     10 CL   UNL d   1       3.450   1.038  -1.855  0.00  0.00    -0.083 Cl
ATOM     11  C   UNL d   1       4.401   2.660   0.039  0.00  0.00     0.025 A 
ATOM     12  C   UNL d   1       4.338   3.667   1.004  0.00  0.00     0.002 A 
ATOM     13  C   UNL d   1       3.137   4.332   1.234  0.00  0.00     0.002 A 
ATOM     14  C   UNL d   1       2.004   4.005   0.488  0.00  0.00     0.025 A 
ENDBRANCH   5   8
ENDBRANCH   1   5
BRANCH   2  15
ATOM     15  N   UNL d   1      -1.005  -0.863  -2.216  0.00  0.00    -0.199 N 
ATOM     16  H   UNL d   1      -0.957  -1.422  -1.374  0.00  0.00     0.183 HD
BRANCH  15  17
ATOM     17  C   UNL d   1      -1.673  -1.544  -3.235  0.00  0.00     0.685 A 
ATOM     18  N   UNL d   1      -1.833  -0.991  -4.433  0.00  0.00    -0.180 N 
ATOM     19  C   UNL d   1      -2.475  -1.723  -5.349  0.00  0.00     0.103 A 
ATOM     20  HN  UNL d   1      -1.483  -0.056  -4.643  1.00  0.00     0.185 HD
ATOM     21  N   UNL d   1      -2.962  -2.936  -5.098  0.00  0.00    -0.325 N 
ATOM     22  C   UNL d   1      -2.762  -3.398  -3.872  0.00  0.00     0.160 A 
ATOM     23  HN  UNL d   1      -3.460  -3.476  -5.806  1.00  0.00     0.169 HD
ATOM     24  N   UNL d   1      -2.119  -2.749  -2.908  0.00  0.00    -0.170 N 
ATOM     25  HN  UNL d   1      -1.978  -3.149  -1.980  1.00  0.00     0.186 HD
BRANCH  19  26
ATOM     26  C   UNL d   1      -2.683  -1.159  -6.734  0.00  0.00     0.054 A 
ATOM     27  C   UNL d   1      -2.052  -1.853  -7.923  0.00  0.00     0.013 A 
ATOM     28  C   UNL d   1      -1.547  -0.509  -7.490  0.00  0.00     0.013 A 
ENDBRANCH  19  26
BRANCH  22  29
ATOM     29  S   UNL d   1      -3.448  -5.005  -3.534  0.00  0.00    -0.098 SA
ATOM     30  C   UNL d   1      -2.959  -5.229  -1.807  0.00  0.00     0.099 C 
ENDBRANCH  22  29
ENDBRANCH  15  17
ENDBRANCH   2  15
TORSDOF 6
