REMARK  2 active torsions:
REMARK  status: ('A' for Active; 'I' for Inactive)
REMARK    1  A    between atoms: C_8  and  C_3 
REMARK    2  A    between atoms: C_9  and  C_4 
ROOT
ATOM      1  N   UNL d   1       1.037   0.725  -0.140  0.00  0.00    -0.359 N 
ATOM      2  HN  UNL d   1       1.779   1.410  -0.285  1.00  0.00     0.166 HD
ATOM      3  C   UNL d   1      -1.357   0.412   0.013  0.00  0.00     0.012 C 
ATOM      4  C   UNL d   1       1.358  -0.526  -0.032  0.00  0.00     0.080 C 
ATOM      5  C   UNL d   1      -0.253   1.162  -0.068  0.00  0.00     0.100 C 
ATOM      6  S   UNL d   1       0.238  -1.854   0.182  0.00  0.00    -0.107 SA
ATOM      7  C   UNL d   1      -1.362  -1.074   0.023  0.00  0.00     0.124 C 
ENDROOT
BRANCH   4   8
ATOM      8  C   UNL d   1       2.808  -0.919  -0.129  0.00  0.00    -0.003 A 
ATOM      9  C   UNL d   1       3.317  -2.068   0.500  0.00  0.00     0.016 A 
ATOM     10  C   UNL d   1       4.656  -2.436   0.335  0.00  0.00     0.024 A 
ATOM     11  C   UNL d   1       5.500  -1.646  -0.445  0.00  0.00     0.034 A 
ATOM     12  C   UNL d   1       5.019  -0.480  -1.039  0.00  0.00     0.024 A 
ATOM     13 CL   UNL d   1       7.135  -2.120  -0.679  0.00  0.00    -0.084 Cl
ATOM     14  C   UNL d   1       3.678  -0.112  -0.874  0.00  0.00     0.016 A 
ENDBRANCH   4   8
BRANCH   3  15
ATOM     15  C   UNL d   1      -2.733   1.008   0.064  0.00  0.00     0.153 C 
ATOM     16  O   UNL d   1      -3.704   0.292  -0.189  0.00  0.00    -0.293 OA
ATOM     17  C   UNL d   1      -2.951   2.454   0.431  0.00  0.00     0.096 C 
ENDBRANCH   3  15
TORSDOF 2
