REMARK  4 active torsions:
REMARK  status: ('A' for Active; 'I' for Inactive)
REMARK    1  A    between atoms: N_10  and  C_2 
REMARK    2  A    between atoms: C_9  and  C_3 
REMARK    3  A    between atoms: C_5  and  C_17 
REMARK    4  A    between atoms: C_17  and  N_10 
ROOT
ATOM      1  C   UNL d   1       0.248  -1.292   0.296  0.00  0.00     0.069 C 
ATOM      2  C   UNL d   1      -1.087  -1.327   0.166  0.00  0.00    -0.010 C 
ATOM      3  C   UNL d   1      -1.106   1.164  -0.422  0.00  0.00     0.031 C 
ATOM      4  C   UNL d   1       0.977  -0.005   0.394  0.00  0.00     0.151 C 
ATOM      5  C   UNL d   1      -1.905  -0.051   0.099  0.00  0.00     0.060 C 
ATOM      6  C   UNL d   1       0.182   1.282   0.406  0.00  0.00     0.092 C 
ATOM      7  O   UNL d   1       2.202  -0.009   0.502  0.00  0.00    -0.293 OA
ENDROOT
BRANCH   2   8
ATOM      8  N   UNL d   1      -1.772  -2.525  -0.011  0.00  0.00    -0.290 NA
ATOM      9  H   UNL d   1      -2.553  -2.403  -0.659  0.00  0.00     0.127 HD
BRANCH   8  10
ATOM     10  C   UNL d   1      -2.287  -3.292   1.132  0.00  0.00     0.157 C 
BRANCH  10  11
ATOM     11  C   UNL d   1      -3.002  -4.526   0.701  0.00  0.00     0.065 A 
ATOM     12  O   UNL d   1      -4.346  -4.411   0.478  0.00  0.00    -0.326 OA
ATOM     13  C   UNL d   1      -4.778  -5.623   0.044  0.00  0.00     0.142 A 
ATOM     14  C   UNL d   1      -3.734  -6.517  -0.017  0.00  0.00     0.027 A 
ATOM     15  C   UNL d   1      -2.586  -5.806   0.407  0.00  0.00     0.036 A 
ENDBRANCH  10  11
ENDBRANCH   8  10
ENDBRANCH   2   8
BRANCH   3  16
ATOM     16  C   UNL d   1      -0.934   1.153  -1.944  0.00  0.00    -0.053 A 
ATOM     17  C   UNL d   1       0.318   1.218  -2.578  0.00  0.00     0.009 A 
ATOM     18  C   UNL d   1       0.424   1.210  -3.973  0.00  0.00     0.024 A 
ATOM     19  C   UNL d   1      -0.721   1.141  -4.758  0.00  0.00     0.034 A 
ATOM     20  C   UNL d   1      -1.974   1.094  -4.158  0.00  0.00     0.024 A 
ATOM     21 CL   UNL d   1      -0.587   1.121  -6.472  0.00  0.00    -0.084 Cl
ATOM     22  C   UNL d   1      -2.079   1.110  -2.764  0.00  0.00     0.009 A 
ENDBRANCH   3  16
TORSDOF 4
