REMARK  6 active torsions:
REMARK  status: ('A' for Active; 'I' for Inactive)
REMARK    1  A    between atoms: C_6  and  N_1 
REMARK    2  A    between atoms: S_12  and  C_5 
REMARK    3  A    between atoms: C_7  and  C_10 
REMARK    4  A    between atoms: O_14  and  C_7 
REMARK    5  A    between atoms: C_10  and  C_13 
REMARK    6  A    between atoms: C_13  and  S_12 
ROOT
ATOM      1  N   UNL d   1       0.010   0.849  -0.092  0.00  0.00    -0.251 N 
ATOM      2  C   UNL d   1      -1.116   0.067  -0.006  0.00  0.00     0.232 C 
ATOM      3  C   UNL d   1       1.152   0.085  -0.036  0.00  0.00     0.245 C 
ATOM      4  C   UNL d   1      -0.717  -1.382  -0.013  0.00  0.00     0.128 C 
ATOM      5  C   UNL d   1       0.789  -1.369  -0.188  0.00  0.00     0.149 C 
ATOM      6  O   UNL d   1      -2.288   0.409   0.078  0.00  0.00    -0.273 OA
ATOM      7  O   UNL d   1       2.300   0.462   0.170  0.00  0.00    -0.271 OA
ENDROOT
BRANCH   5   8
ATOM      8  S   UNL d   1       1.295  -2.003  -1.834  0.00  0.00    -0.154 SA
BRANCH   8   9
ATOM      9  C   UNL d   1       3.111  -1.790  -1.714  0.00  0.00     0.085 C 
BRANCH   9  10
ATOM     10  C   UNL d   1       3.783  -2.337  -2.967  0.00  0.00     0.120 C 
BRANCH  10  11
ATOM     11  C   UNL d   1       5.275  -2.123  -2.904  0.00  0.00     0.140 C 
ATOM     12  O   UNL d   1       5.881  -1.649  -1.959  0.00  0.00    -0.650 OA
BRANCH  11  13
ATOM     13  O   UNL d   1       5.901  -2.532  -4.033  0.00  0.00    -0.776 OA
ATOM     14  H   UNL d   1       5.301  -2.895  -4.711  0.00  0.00     0.167 HD
ENDBRANCH  11  13
ENDBRANCH  10  11
ENDBRANCH   9  10
ENDBRANCH   8   9
ENDBRANCH   5   8
BRANCH   1  15
ATOM     15  C   UNL d   1       0.029   2.274  -0.111  0.00  0.00     0.045 A 
ATOM     16  C   UNL d   1      -1.024   3.038   0.407  0.00  0.00     0.030 A 
ATOM     17  C   UNL d   1      -0.965   4.437   0.412  0.00  0.00     0.002 A 
ATOM     18  C   UNL d   1       0.135   5.097  -0.130  0.00  0.00     0.000 A 
ATOM     19  C   UNL d   1       1.175   4.359  -0.679  0.00  0.00     0.002 A 
ATOM     20  C   UNL d   1       1.123   2.962  -0.665  0.00  0.00     0.030 A 
ENDBRANCH   1  15
TORSDOF 6
