REMARK  2 active torsions:
REMARK  status: ('A' for Active; 'I' for Inactive)
REMARK    1  A    between atoms: C_12  and  C_6 
REMARK    2  A    between atoms: S_18  and  C_7 
ROOT
ATOM      1  N   UNL d   1      -2.155  -1.751   0.337  0.00  0.00    -0.236 N 
ATOM      2  C   UNL d   1      -1.165  -0.873   0.671  0.00  0.00     0.145 C 
ATOM      3  N   UNL d   1       0.037  -1.362   0.822  0.00  0.00    -0.347 N 
ATOM      4  HN  UNL d   1       0.857  -0.954   1.271  1.00  0.00     0.163 HD
ATOM      5  N   UNL d   1      -1.582  -3.028   0.178  0.00  0.00    -0.197 NA
ATOM      6  C   UNL d   1      -0.132  -2.693   0.148  0.00  0.00     0.127 C 
ATOM      7  C   UNL d   1      -3.375  -1.336  -0.145  0.00  0.00     0.162 C 
ATOM      8  C   UNL d   1      -1.497   0.563   0.719  0.00  0.00     0.105 C 
ATOM      9  N   UNL d   1      -3.692  -0.064  -0.189  0.00  0.00    -0.344 N 
ATOM     10  HN  UNL d   1      -4.602   0.247  -0.528  1.00  0.00     0.167 HD
ATOM     11  C   UNL d   1      -2.730   0.842   0.247  0.00  0.00     0.116 C 
ATOM     12  C   UNL d   1      -0.519   1.536   1.009  0.00  0.00     0.104 C 
ATOM     13  N   UNL d   1       0.285   2.352   1.202  0.00  0.00    -0.191 NA
ATOM     14  C   UNL d   1       0.714  -3.703   0.925  0.00  0.00     0.064 C 
ATOM     15  H   UNL d   1      -1.876  -3.429  -0.710  0.00  0.00     0.150 HD
ENDROOT
BRANCH   7  16
ATOM     16  S   UNL d   1      -4.536  -2.509  -0.747  0.00  0.00    -0.097 SA
ATOM     17  C   UNL d   1      -5.560  -1.444  -1.794  0.00  0.00     0.099 C 
ENDBRANCH   7  16
BRANCH   6  18
ATOM     18  C   UNL d   1       0.343  -2.570  -1.325  0.00  0.00    -0.013 A 
ATOM     19  C   UNL d   1       0.871  -1.353  -1.811  0.00  0.00     0.036 A 
ATOM     20  C   UNL d   1       1.106  -1.149  -3.172  0.00  0.00     0.056 A 
ATOM     21 CL   UNL d   1       1.648   0.417  -3.662  0.00  0.00    -0.083 Cl
ATOM     22  C   UNL d   1       0.857  -2.183  -4.077  0.00  0.00     0.055 A 
ATOM     23  C   UNL d   1       0.403  -3.416  -3.608  0.00  0.00     0.026 A 
ATOM     24 CL   UNL d   1       1.059  -1.982  -5.779  0.00  0.00    -0.083 Cl
ATOM     25  C   UNL d   1       0.153  -3.614  -2.245  0.00  0.00     0.013 A 
ENDBRANCH   6  18
TORSDOF 2
