REMARK  9 active torsions:
REMARK  status: ('A' for Active; 'I' for Inactive)
REMARK    1  A    between atoms: S_8  and  C_1 
REMARK    2  A    between atoms: N_3  and  C_2 
REMARK       I    between atoms: C_6  and  N_10 
REMARK    3  A    between atoms: C_18  and  C_6 
REMARK       I    between atoms: C_7  and  N_9 
REMARK    4  A    between atoms: C_19  and  C_7 
REMARK    5  A    between atoms: C_13  and  S_8 
REMARK    6  A    between atoms: N_9  and  C_15 
REMARK    7  A    between atoms: N_10  and  C_14 
REMARK    8  A    between atoms: S_12  and  C_11 
REMARK    9  A    between atoms: C_17  and  S_12 
ROOT
ATOM      1  C   UNL d   1      -1.150   0.836   1.019  0.00  0.00     0.109 A 
ATOM      2  C   UNL d   1       0.217   0.962   0.762  0.00  0.00     0.136 A 
ATOM      3  N   UNL d   1      -1.888  -0.190   0.435  0.00  0.00    -0.343 N 
ATOM      4  HN  UNL d   1      -2.882  -0.290   0.641  1.00  0.00     0.167 HD
ATOM      5  C   UNL d   1      -1.277  -1.049  -0.407  0.00  0.00     0.075 A 
ATOM      6  C   UNL d   1       0.842   0.042  -0.094  0.00  0.00     0.042 A 
ATOM      7  C   UNL d   1       0.087  -0.955  -0.683  0.00  0.00     0.040 A 
ENDROOT
BRANCH   1   8
ATOM      8  S   UNL d   1      -2.257   1.979   1.756  0.00  0.00    -0.068 SA
BRANCH   8   9
ATOM      9  C   UNL d   1      -2.049   2.683   3.375  0.00  0.00     0.034 C 
ATOM     10  C   UNL d   1      -1.637   2.243   4.648  0.00  0.00     0.052 C 
ATOM     11  C   UNL d   1      -2.124   2.949   5.795  0.00  0.00     0.031 C 
ATOM     12  C   UNL d   1      -2.885   4.110   5.726  0.00  0.00     0.002 C 
ATOM     13  C   UNL d   1      -3.149   4.641   4.489  0.00  0.00     0.002 C 
ATOM     14  C   UNL d   1      -2.744   3.936   3.351  0.00  0.00     0.021 C 
BRANCH  10  15
ATOM     15  N   UNL d   1      -0.709   1.264   5.073  0.00  0.00    -0.325 N 
ATOM     16  C   UNL d   1       0.024   0.300   4.446  0.00  0.00     0.229 C 
ATOM     17  O   UNL d   1      -0.217  -0.157   3.339  0.00  0.00    -0.272 OA
ATOM     18  H   UNL d   1      -0.482   1.357   6.050  0.00  0.00     0.169 HD
BRANCH  16  19
ATOM     19  C   UNL d   1       1.310  -0.120   5.233  0.00  0.00     0.030 C 
ATOM     20  C   UNL d   1       1.089  -0.457   6.723  0.00  0.00     0.025 C 
ATOM     21  C   UNL d   1       1.931  -1.363   4.571  0.00  0.00     0.025 C 
ATOM     22  C   UNL d   1       2.308   1.049   5.131  0.00  0.00     0.025 C 
ENDBRANCH  16  19
ENDBRANCH  10  15
ENDBRANCH   8   9
ENDBRANCH   1   8
BRANCH   2  23
ATOM     23  N   UNL d   1       1.068   2.003   1.315  0.00  0.00    -0.113 N 
ATOM     24  O   UNL d   1       0.571   3.111   1.571  0.00  0.00    -0.532 OA
ATOM     25  O   UNL d   1       2.276   1.746   1.446  0.00  0.00    -0.532 OA
ENDBRANCH   2  23
BRANCH   5  26
ATOM     26  S   UNL d   1      -2.015  -2.511  -1.080  0.00  0.00    -0.070 SA
BRANCH  26  27
ATOM     27  C   UNL d   1      -3.714  -2.524  -1.561  0.00  0.00     0.033 A 
ATOM     28  C   UNL d   1      -4.616  -1.607  -2.127  0.00  0.00     0.052 A 
ATOM     29  C   UNL d   1      -5.944  -2.056  -2.434  0.00  0.00     0.031 A 
ATOM     30  C   UNL d   1      -6.345  -3.382  -2.321  0.00  0.00     0.002 A 
ATOM     31  C   UNL d   1      -5.449  -4.304  -1.836  0.00  0.00     0.002 A 
ATOM     32  C   UNL d   1      -4.181  -3.869  -1.444  0.00  0.00     0.021 A 
BRANCH  28  33
ATOM     33  N   UNL d   1      -4.446  -0.278  -2.588  0.00  0.00    -0.325 N 
ATOM     34  C   UNL d   1      -3.322   0.406  -2.995  0.00  0.00     0.229 C 
ATOM     35  O   UNL d   1      -2.157   0.074  -2.794  0.00  0.00    -0.272 OA
ATOM     36  H   UNL d   1      -5.304   0.129  -2.909  0.00  0.00     0.169 HD
BRANCH  34  37
ATOM     37  C   UNL d   1      -3.641   1.533  -4.023  0.00  0.00     0.030 C 
ATOM     38  C   UNL d   1      -4.868   2.424  -3.721  0.00  0.00     0.025 C 
ATOM     39  C   UNL d   1      -2.425   2.465  -4.155  0.00  0.00     0.025 C 
ATOM     40  C   UNL d   1      -3.864   0.809  -5.368  0.00  0.00     0.025 C 
ENDBRANCH  34  37
ENDBRANCH  28  33
ENDBRANCH  26  27
ENDBRANCH   5  26
TORSDOF 9
