REMARK  4 active torsions:
REMARK  status: ('A' for Active; 'I' for Inactive)
REMARK    1  A    between atoms: C_5  and  C_1 
REMARK    2  A    between atoms: N_4  and  C_2 
REMARK       I    between atoms: C_3  and  N_4 
REMARK    3  A    between atoms: C_6  and  C_3 
REMARK    4  A    between atoms: O_10  and  C_5 
ROOT
ATOM      1  C   UNL d   1       0.171  -0.925   0.527  0.00  0.00     0.102 A 
ATOM      2  C   UNL d   1      -1.201  -1.234   0.436  0.00  0.00     0.054 A 
ATOM      3  C   UNL d   1       0.574   0.410   0.436  0.00  0.00     0.135 A 
ATOM      4  F   UNL d   1       1.877   0.732   0.434  0.00  0.00    -0.205 F 
ATOM      5  C   UNL d   1      -2.133  -0.180   0.439  0.00  0.00     0.031 A 
ATOM      6  C   UNL d   1      -1.711   1.152   0.399  0.00  0.00     0.005 A 
ATOM      7  C   UNL d   1      -0.353   1.446   0.353  0.00  0.00     0.043 A 
ENDROOT
BRANCH   2   8
ATOM      8  N   UNL d   1      -1.743  -2.535   0.283  0.00  0.00    -0.325 N 
ATOM      9  C   UNL d   1      -1.093  -3.579  -0.363  0.00  0.00     0.229 C 
ATOM     10  O   UNL d   1      -0.030  -3.430  -0.967  0.00  0.00    -0.272 OA
ATOM     11  H   UNL d   1      -2.744  -2.630   0.402  0.00  0.00     0.169 HD
BRANCH   9  12
ATOM     12  C   UNL d   1      -1.907  -4.885  -0.496  0.00  0.00     0.030 C 
ATOM     13  C   UNL d   1      -2.741  -4.773  -1.783  0.00  0.00     0.025 C 
ATOM     14  C   UNL d   1      -0.934  -6.071  -0.628  0.00  0.00     0.025 C 
ATOM     15  C   UNL d   1      -2.830  -5.154   0.702  0.00  0.00     0.025 C 
ENDBRANCH   9  12
ENDBRANCH   2   8
BRANCH   1  16
ATOM     16  C   UNL d   1       1.168  -1.924   0.984  0.00  0.00     0.181 C 
ATOM     17  O   UNL d   1       0.902  -2.763   1.837  0.00  0.00    -0.646 OA
BRANCH  16  18
ATOM     18  O   UNL d   1       2.404  -1.788   0.455  0.00  0.00    -0.773 OA
ATOM     19  H   UNL d   1       2.481  -1.079  -0.212  0.00  0.00     0.167 HD
ENDBRANCH  16  18
ENDBRANCH   1  16
TORSDOF 4
