REMARK  2 active torsions:
REMARK  status: ('A' for Active; 'I' for Inactive)
REMARK    1  A    between atoms: C_16  and  N_5 
REMARK    2  A    between atoms: C_14  and  C_10 
ROOT
ATOM      1  C   UNL d   1      -0.335  -1.358   0.154  0.00  0.00     0.123 A 
ATOM      2  C   UNL d   1      -0.625  -2.750   0.267  0.00  0.00     0.202 A 
ATOM      3  N   UNL d   1      -1.729  -3.306  -0.179  0.00  0.00    -0.317 N 
ATOM      4  HN  UNL d   1      -2.488  -2.869  -0.703  1.00  0.00     0.169 HD
ATOM      5  N   UNL d   1       0.923  -0.806   0.110  0.00  0.00    -0.287 N 
ATOM      6  N   UNL d   1       0.915   0.546   0.081  0.00  0.00    -0.301 N 
ATOM      7  HN  UNL d   1       1.717   1.176   0.083  1.00  0.00     0.187 HD
ATOM      8  C   UNL d   1      -1.192  -0.281   0.072  0.00  0.00     0.067 A 
ATOM      9  C   UNL d   1      -0.384   0.873   0.047  0.00  0.00     0.042 A 
ATOM     10  C   UNL d   1      -1.621  -4.616   0.227  0.00  0.00     0.138 A 
ATOM     11  N   UNL d   1      -0.478  -4.882   0.879  0.00  0.00    -0.242 N 
ATOM     12  HN  UNL d   1      -0.166  -5.773   1.266  1.00  0.00     0.196 HD
ATOM     13  O   UNL d   1       0.183  -3.656   0.901  0.00  0.00    -0.215 OA
ATOM     14 BR   UNL d   1      -3.070  -0.284   0.051  0.00  0.00    -0.046 Br
ATOM     15  C   UNL d   1      -0.771   2.305  -0.005  0.00  0.00     0.071 C 
ENDROOT
BRANCH   5  16
ATOM     16  C   UNL d   1       2.208  -1.472  -0.027  0.00  0.00     0.145 C 
ATOM     17  C   UNL d   1       2.908  -1.699   1.300  0.00  0.00     0.028 C 
ENDBRANCH   5  16
BRANCH  10  18
ATOM     18  C   UNL d   1      -2.671  -5.598  -0.035  0.00  0.00     0.010 A 
ATOM     19  C   UNL d   1      -3.771  -5.255  -0.837  0.00  0.00     0.015 A 
ATOM     20  C   UNL d   1      -4.784  -6.183  -1.095  0.00  0.00     0.001 A 
ATOM     21  C   UNL d   1      -4.711  -7.464  -0.550  0.00  0.00     0.000 A 
ATOM     22  C   UNL d   1      -3.628  -7.816   0.253  0.00  0.00     0.001 A 
ATOM     23  C   UNL d   1      -2.612  -6.889   0.509  0.00  0.00     0.015 A 
ENDBRANCH  10  18
TORSDOF 2
