REMARK  7 active torsions:
REMARK  status: ('A' for Active; 'I' for Inactive)
REMARK    1  A    between atoms: C_4  and  C_1 
REMARK    2  A    between atoms: N_2  and  C_6 
REMARK    3  A    between atoms: C_9  and  N_3 
REMARK    4  A    between atoms: C_5  and  C_9 
REMARK    5  A    between atoms: C_11  and  C_5 
REMARK    6  A    between atoms: C_27  and  C_24 
REMARK    7  A    between atoms: C_29  and  C_27 
ROOT
ATOM      1  N   UNL d   1      -0.118  -4.199   3.468  0.00  0.00    -0.364 N 
ATOM      2  N   UNL d   1      -0.830  -7.047   3.815  0.00  0.00     0.103 N 
ATOM      3  C   UNL d   1       0.497  -6.626   3.294  0.00  0.00     0.293 C 
ATOM      4  C   UNL d   1       0.919  -5.209   3.731  0.00  0.00     0.154 C 
ATOM      5  C   UNL d   1      -1.800  -6.062   3.277  0.00  0.00     0.293 C 
ATOM      6  C   UNL d   1      -1.528  -4.595   3.675  0.00  0.00     0.154 C 
ENDROOT
BRANCH   2   7
ATOM      7  C   UNL d   1      -0.876  -7.115   5.309  0.00  0.00     0.293 C 
ATOM      8  C   UNL d   1       0.190  -8.031   5.924  0.00  0.00     0.051 C 
BRANCH   7   9
ATOM      9  C   UNL d   1      -2.263  -7.513   5.858  0.00  0.00     0.192 C 
ATOM     10  O   UNL d   1      -2.875  -6.780   6.640  0.00  0.00    -0.290 OA
BRANCH   9  11
ATOM     11  C   UNL d   1      -2.908  -8.821   5.469  0.00  0.00     0.012 A 
ATOM     12  C   UNL d   1      -3.790  -9.418   6.380  0.00  0.00     0.016 A 
ATOM     13  C   UNL d   1      -4.413 -10.633   6.078  0.00  0.00     0.008 A 
ATOM     14  C   UNL d   1      -4.203 -11.256   4.838  0.00  0.00    -0.058 A 
ATOM     15  C   UNL d   1      -3.358 -10.635   3.915  0.00  0.00     0.008 A 
ATOM     16  C   UNL d   1      -2.703  -9.444   4.233  0.00  0.00     0.016 A 
BRANCH  14  17
ATOM     17  C   UNL d   1      -4.937 -12.529   4.486  0.00  0.00     0.042 C 
BRANCH  17  18
ATOM     18  C   UNL d   1      -4.046 -13.706   4.039  0.00  0.00    -0.019 C 
ATOM     19  C   UNL d   1      -3.073 -14.154   5.132  0.00  0.00     0.010 C 
ATOM     20  C   UNL d   1      -4.926 -14.891   3.628  0.00  0.00     0.010 C 
ENDBRANCH  17  18
ENDBRANCH  14  17
ENDBRANCH   9  11
ENDBRANCH   7   9
ENDBRANCH   2   7
BRANCH   1  21
ATOM     21  C   UNL d   1       0.110  -3.314   2.419  0.00  0.00     0.103 A 
ATOM     22  C   UNL d   1      -0.517  -2.068   2.444  0.00  0.00     0.049 A 
ATOM     23  C   UNL d   1      -0.317  -1.164   1.404  0.00  0.00     0.021 A 
ATOM     24  C   UNL d   1       0.511  -1.521   0.344  0.00  0.00     0.063 A 
ATOM     25  C   UNL d   1       1.124  -2.761   0.407  0.00  0.00     0.106 A 
ATOM     26  N   UNL d   1       0.947  -3.650   1.416  0.00  0.00    -0.352 N 
ATOM     27  HN  UNL d   1       1.432  -4.547   1.416  1.00  0.00     0.166 HD
BRANCH  24  28
ATOM     28  C   UNL d   1       0.711  -0.612  -0.827  0.00  0.00     0.418 C 
ATOM     29  F   UNL d   1       1.528  -1.126  -1.787  0.00  0.00    -0.166 F 
ATOM     30  F   UNL d   1       1.254   0.586  -0.475  0.00  0.00    -0.166 F 
ATOM     31  F   UNL d   1      -0.461  -0.318  -1.456  0.00  0.00    -0.166 F 
ENDBRANCH  24  28
ENDBRANCH   1  21
TORSDOF 7
