REMARK  8 active torsions:
REMARK  status: ('A' for Active; 'I' for Inactive)
REMARK    1  A    between atoms: N_2  and  S_1 
REMARK    2  A    between atoms: C_6  and  S_1 
REMARK    3  A    between atoms: C_3  and  N_2 
REMARK    4  A    between atoms: C_4  and  C_12 
REMARK    5  A    between atoms: C_5  and  N_11 
REMARK    6  A    between atoms: N_10  and  C_5 
REMARK    7  A    between atoms: C_24  and  N_10 
REMARK    8  A    between atoms: N_11  and  C_25 
ROOT
ATOM      1  C   UNL d   1      -0.038  -1.275   0.841  0.00  0.00     0.075 A 
ATOM      2  C   UNL d   1      -0.181  -2.329  -0.065  0.00  0.00     0.027 A 
ATOM      3  C   UNL d   1      -0.136  -1.510   2.216  0.00  0.00     0.027 A 
ATOM      4  C   UNL d   1      -0.438  -3.880   1.788  0.00  0.00     0.034 A 
ATOM      5  C   UNL d   1      -0.356  -2.811   2.685  0.00  0.00     0.031 A 
ATOM      6  C   UNL d   1      -0.367  -3.630   0.412  0.00  0.00     0.031 A 
ENDROOT
BRANCH   4   7
ATOM      7  N   UNL d   1      -0.416  -5.223   2.208  0.00  0.00    -0.333 N 
ATOM      8  H   UNL d   1      -0.122  -5.907   1.519  0.00  0.00     0.168 HD
BRANCH   7   9
ATOM      9  C   UNL d   1      -0.867  -5.790   3.375  0.00  0.00     0.176 C 
ATOM     10  S   UNL d   1      -2.190  -5.298   4.271  0.00  0.00    -0.041 SA
BRANCH   9  11
ATOM     11  N   UNL d   1      -0.249  -6.971   3.717  0.00  0.00    -0.333 N 
ATOM     12  H   UNL d   1      -0.804  -7.562   4.330  0.00  0.00     0.168 HD
BRANCH  11  13
ATOM     13  C   UNL d   1       1.139  -7.245   3.733  0.00  0.00     0.034 A 
ATOM     14  C   UNL d   1       2.119  -6.268   3.535  0.00  0.00     0.030 A 
ATOM     15  C   UNL d   1       3.472  -6.566   3.739  0.00  0.00     0.018 A 
ATOM     16  C   UNL d   1       3.871  -7.850   4.135  0.00  0.00     0.048 A 
ATOM     17  C   UNL d   1       2.890  -8.840   4.283  0.00  0.00     0.018 A 
ATOM     18  C   UNL d   1       1.536  -8.536   4.095  0.00  0.00     0.030 A 
BRANCH  16  19
ATOM     19  C   UNL d   1       5.317  -8.166   4.434  0.00  0.00     0.417 C 
ATOM     20  F   UNL d   1       6.137  -7.080   4.380  0.00  0.00    -0.166 F 
ATOM     21  F   UNL d   1       5.484  -8.695   5.679  0.00  0.00    -0.166 F 
ATOM     22  F   UNL d   1       5.842  -9.077   3.568  0.00  0.00    -0.166 F 
ENDBRANCH  16  19
ENDBRANCH  11  13
ENDBRANCH   9  11
ENDBRANCH   7   9
ENDBRANCH   4   7
BRANCH   1  23
ATOM     23  S   UNL d   1       0.495   0.319   0.243  0.00  0.00     0.246 S 
ATOM     24  O   UNL d   1       1.198   0.982   1.322  0.00  0.00    -0.206 OA
ATOM     25  O   UNL d   1       1.134   0.096  -1.036  0.00  0.00    -0.206 OA
BRANCH  23  26
ATOM     26  N   UNL d   1      -0.940   1.148  -0.084  0.00  0.00    -0.178 NA
ATOM     27  H   UNL d   1      -1.412   0.738  -0.892  0.00  0.00     0.146 HD
BRANCH  26  28
ATOM     28  C   UNL d   1      -1.789   1.463   1.019  0.00  0.00     0.064 A 
ATOM     29  C   UNL d   1      -1.481   2.537   1.854  0.00  0.00     0.069 A 
ATOM     30  C   UNL d   1      -2.310   2.811   2.936  0.00  0.00     0.118 A 
ATOM     31  F   UNL d   1      -2.040   3.856   3.727  0.00  0.00    -0.206 F 
ATOM     32  C   UNL d   1      -3.426   2.019   3.211  0.00  0.00     0.045 A 
ATOM     33  C   UNL d   1      -3.721   0.935   2.386  0.00  0.00     0.047 A 
ATOM     34  C   UNL d   1      -2.903   0.667   1.295  0.00  0.00     0.138 A 
ATOM     35  F   UNL d   1      -3.187  -0.372   0.496  0.00  0.00    -0.204 F 
ENDBRANCH  26  28
ENDBRANCH  23  26
ENDBRANCH   1  23
TORSDOF 8
