REMARK  3 active torsions:
REMARK  status: ('A' for Active; 'I' for Inactive)
REMARK    1  A    between atoms: C_4  and  C_1 
REMARK    2  A    between atoms: N_7  and  C_10 
REMARK    3  A    between atoms: O_20  and  C_11 
ROOT
ATOM      1  C   UNL d   1      -2.345   0.662  -0.334  0.00  0.00     0.199 C 
ATOM      2  C   UNL d   1      -1.259  -1.446   0.158  0.00  0.00     0.258 C 
ATOM      3  N   UNL d   1      -2.380  -0.652   0.222  0.00  0.00    -0.336 N 
ATOM      4  C   UNL d   1       0.030  -0.726   0.061  0.00  0.00     0.091 A 
ATOM      5  N   UNL d   1      -1.234   1.363   0.292  0.00  0.00    -0.266 NA
ATOM      6  C   UNL d   1      -0.008   0.678   0.122  0.00  0.00     0.029 A 
ATOM      7  O   UNL d   1      -1.353  -2.663   0.199  0.00  0.00    -0.267 OA
ATOM      8  C   UNL d   1       1.246  -1.395  -0.058  0.00  0.00     0.133 A 
ATOM      9  F   UNL d   1       1.307  -2.730  -0.154  0.00  0.00    -0.205 F 
ATOM     10  C   UNL d   1       1.200   1.385   0.151  0.00  0.00     0.025 A 
ATOM     11  C   UNL d   1       2.419   0.710   0.033  0.00  0.00     0.005 A 
ATOM     12  C   UNL d   1       2.440  -0.679  -0.083  0.00  0.00     0.043 A 
ATOM     13  H   UNL d   1      -3.245  -1.174   0.191  0.00  0.00     0.164 HD
ATOM     14  H   UNL d   1      -1.167   2.327  -0.028  0.00  0.00     0.130 HD
ENDROOT
BRANCH   1  15
ATOM     15  C   UNL d   1      -3.630   1.419  -0.087  0.00  0.00     0.014 A 
ATOM     16  C   UNL d   1      -4.401   1.833  -1.191  0.00  0.00     0.049 A 
ATOM     17  C   UNL d   1      -5.591   2.554  -1.002  0.00  0.00     0.103 A 
ATOM     18  C   UNL d   1      -6.039   2.862   0.287  0.00  0.00     0.039 A 
ATOM     19  C   UNL d   1      -5.288   2.446   1.386  0.00  0.00     0.039 A 
ATOM     20  C   UNL d   1      -4.096   1.742   1.197  0.00  0.00     0.075 A 
BRANCH  17  21
ATOM     21  N   UNL d   1      -6.362   2.997  -2.171  0.00  0.00    -0.116 N 
ATOM     22  O   UNL d   1      -5.933   2.685  -3.291  0.00  0.00    -0.532 OA
ATOM     23  O   UNL d   1      -7.389   3.659  -1.969  0.00  0.00    -0.532 OA
ENDBRANCH  17  21
BRANCH  20  24
ATOM     24  O   UNL d   1      -3.410   1.403   2.329  0.00  0.00    -0.360 OA
ATOM     25  H   UNL d   1      -2.535   1.047   2.073  0.00  0.00     0.217 HD
ENDBRANCH  20  24
ENDBRANCH   1  15
TORSDOF 3
