REMARK  4 active torsions:
REMARK  status: ('A' for Active; 'I' for Inactive)
REMARK    1  A    between atoms: N_3  and  S_1 
REMARK    2  A    between atoms: N_4  and  S_1 
REMARK    3  A    between atoms: C_2  and  C_5 
REMARK    4  A    between atoms: C_8  and  N_3 
ROOT
ATOM      1  C   UNL d   1       2.674  -3.676  -1.791  0.00  0.00     0.049 A 
ATOM      2  C   UNL d   1       0.998  -2.618  -0.395  0.00  0.00     0.024 A 
ATOM      3  C   UNL d   1       2.293  -2.650  -0.910  0.00  0.00     0.040 A 
ATOM      4  C   UNL d   1       1.726  -4.646  -2.160  0.00  0.00     0.016 A 
ATOM      5  C   UNL d   1       0.422  -4.586  -1.671  0.00  0.00     0.003 A 
ATOM      6  C   UNL d   1       0.056  -3.567  -0.794  0.00  0.00     0.024 A 
ENDROOT
BRANCH   2   7
ATOM      7  N   UNL d   1       0.612  -1.593   0.527  0.00  0.00    -0.172 NA
ATOM      8  H   UNL d   1      -0.176  -1.892   1.101  0.00  0.00     0.147 HD
BRANCH   7   9
ATOM      9  S   UNL d   1       0.121  -0.140  -0.182  0.00  0.00     0.284 S 
ATOM     10  O   UNL d   1      -1.121  -0.395  -0.875  0.00  0.00    -0.194 OA
ATOM     11  O   UNL d   1       1.243   0.509  -0.812  0.00  0.00    -0.194 OA
BRANCH   9  12
ATOM     12  N   UNL d   1      -0.246   0.689   1.255  0.00  0.00    -0.206 NA
ATOM     13  C   UNL d   1       0.921   1.008   2.107  0.00  0.00     0.130 C 
ATOM     14  C   UNL d   1      -1.118   1.867   1.062  0.00  0.00     0.130 C 
ENDBRANCH   9  12
ENDBRANCH   7   9
ENDBRANCH   2   7
BRANCH   1  15
ATOM     15  C   UNL d   1       4.078  -3.763  -2.337  0.00  0.00     0.417 C 
ATOM     16  F   UNL d   1       4.899  -2.764  -1.911  0.00  0.00    -0.166 F 
ATOM     17  F   UNL d   1       4.696  -4.926  -1.984  0.00  0.00    -0.166 F 
ATOM     18  F   UNL d   1       4.112  -3.724  -3.698  0.00  0.00    -0.166 F 
ENDBRANCH   1  15
TORSDOF 4
