REMARK  6 active torsions:
REMARK  status: ('A' for Active; 'I' for Inactive)
REMARK    1  A    between atoms: C_9  and  N_1 
REMARK    2  A    between atoms: C_10  and  C_4 
REMARK    3  A    between atoms: C_11  and  C_6 
REMARK       I    between atoms: C_7  and  N_8 
REMARK    4  A    between atoms: C_12  and  C_7 
REMARK    5  A    between atoms: N_8  and  C_22 
REMARK    6  A    between atoms: C_13  and  C_14 
ROOT
ATOM      1  C   UNL d   1       2.138  -1.407   0.090  0.00  0.00     0.056 A 
ATOM      2  C   UNL d   1       2.226  -2.375  -0.921  0.00  0.00     0.034 A 
ATOM      3  C   UNL d   1       3.196  -1.309   0.985  0.00  0.00     0.034 A 
ATOM      4  C   UNL d   1       4.443  -3.034  -0.155  0.00  0.00     0.035 A 
ATOM      5  C   UNL d   1       3.367  -3.188  -1.033  0.00  0.00     0.032 A 
ATOM      6  C   UNL d   1       4.346  -2.088   0.856  0.00  0.00     0.032 A 
ENDROOT
BRANCH   1   7
ATOM      7  N   UNL d   1       0.951  -0.623   0.234  0.00  0.00    -0.260 N 
ATOM      8  N   UNL d   1      -0.196  -1.165  -0.266  0.00  0.00    -0.297 N 
ATOM      9  C   UNL d   1      -1.199  -0.486   0.288  0.00  0.00     0.036 C 
ATOM     10  HN  UNL d   1      -0.271  -1.935  -0.930  1.00  0.00     0.187 HD
ATOM     11  C   UNL d   1      -0.700   0.642   0.970  0.00  0.00     0.055 C 
ATOM     12  C   UNL d   1       0.689   0.609   0.865  0.00  0.00     0.044 C 
BRANCH   9  13
ATOM     13  C   UNL d   1      -2.647  -0.931   0.122  0.00  0.00    -0.007 C 
ATOM     14  C   UNL d   1      -2.763  -2.252  -0.673  0.00  0.00     0.021 C 
ATOM     15  C   UNL d   1      -3.288  -1.163   1.507  0.00  0.00     0.021 C 
ATOM     16  C   UNL d   1      -3.465   0.142  -0.623  0.00  0.00     0.021 C 
ENDBRANCH   9  13
BRANCH  12  17
ATOM     17  C   UNL d   1       1.672   1.724   1.277  0.00  0.00    -0.007 C 
ATOM     18  C   UNL d   1       2.832   1.908   0.275  0.00  0.00     0.021 C 
ATOM     19  C   UNL d   1       0.932   3.098   1.287  0.00  0.00     0.021 C 
ATOM     20  C   UNL d   1       2.168   1.572   2.733  0.00  0.00     0.021 C 
ENDBRANCH  12  17
ENDBRANCH   1   7
BRANCH   4  21
ATOM     21  N   UNL d   1       5.570  -3.869  -0.312  0.00  0.00    -0.323 N 
ATOM     22  C   UNL d   1       6.747  -3.824   0.413  0.00  0.00     0.256 C 
ATOM     23  O   UNL d   1       7.043  -3.025   1.299  0.00  0.00    -0.267 OA
ATOM     24  H   UNL d   1       5.465  -4.608  -0.995  0.00  0.00     0.169 HD
BRANCH  22  25
ATOM     25  C   UNL d   1       7.714  -4.911   0.105  0.00  0.00     0.032 A 
ATOM     26  C   UNL d   1       7.871  -5.435  -1.179  0.00  0.00     0.017 A 
ATOM     27  C   UNL d   1       8.706  -6.542  -1.386  0.00  0.00     0.009 A 
ATOM     28  C   UNL d   1       9.406  -7.144  -0.322  0.00  0.00    -0.051 A 
ATOM     29  C   UNL d   1       9.297  -6.538   0.943  0.00  0.00     0.009 A 
ATOM     30  C   UNL d   1       8.464  -5.438   1.156  0.00  0.00     0.017 A 
BRANCH  28  31
ATOM     31  C   UNL d   1      10.210  -8.440  -0.540  0.00  0.00    -0.024 C 
ATOM     32  C   UNL d   1      10.877  -8.959   0.755  0.00  0.00     0.019 C 
ATOM     33  C   UNL d   1       9.264  -9.554  -1.042  0.00  0.00     0.019 C 
ATOM     34  C   UNL d   1      11.326  -8.238  -1.584  0.00  0.00     0.019 C 
ENDBRANCH  28  31
ENDBRANCH  22  25
ENDBRANCH   4  21
TORSDOF 6
