REMARK  4 active torsions:
REMARK  status: ('A' for Active; 'I' for Inactive)
REMARK    1  A    between atoms: N_12  and  C_3 
REMARK    2  A    between atoms: S_17  and  C_11 
REMARK    3  A    between atoms: C_16  and  C_14 
REMARK    4  A    between atoms: N_18  and  C_15 
ROOT
ATOM      1  N   UNL d   1      -0.248  -0.590   0.038  0.00  0.00    -0.069 N 
ATOM      2  C   UNL d   1      -0.191   0.775   0.004  0.00  0.00     0.149 A 
ATOM      3  C   UNL d   1       0.938  -1.347   0.048  0.00  0.00     0.708 A 
ATOM      4  N   UNL d   1       1.002   1.411  -0.003  0.00  0.00    -0.321 N 
ATOM      5  HN  UNL d   1       1.064   2.429  -0.021  1.00  0.00     0.169 HD
ATOM      6  N   UNL d   1      -1.510  -1.084   0.061  0.00  0.00    -0.277 N 
ATOM      7  HN  UNL d   1      -1.802  -2.060   0.108  1.00  0.00     0.188 HD
ATOM      8  N   UNL d   1       2.079  -0.714   0.035  0.00  0.00    -0.168 N 
ATOM      9  HN  UNL d   1       2.961  -1.227   0.039  1.00  0.00     0.186 HD
ATOM     10  C   UNL d   1      -1.494   1.196  -0.022  0.00  0.00     0.083 A 
ATOM     11  C   UNL d   1       2.067   0.666   0.014  0.00  0.00     0.160 A 
ATOM     12  C   UNL d   1      -2.287   0.014   0.006  0.00  0.00     0.063 A 
ENDROOT
BRANCH   3  13
ATOM     13  N   UNL d   1       0.898  -2.727   0.064  0.00  0.00    -0.186 N 
ATOM     14  C   UNL d   1       1.992  -3.407   0.045  0.00  0.00     0.195 C 
ATOM     15  HN  UNL d   1      -0.000  -3.209   0.091  1.00  0.00     0.185 HD
BRANCH  14  16
ATOM     16  N   UNL d   1       2.077  -4.781   0.047  0.00  0.00    -0.385 N 
ATOM     17  C   UNL d   1       0.889  -5.622   0.044  0.00  0.00     0.149 C 
ATOM     18  C   UNL d   1       3.348  -5.482   0.030  0.00  0.00     0.149 C 
ENDBRANCH  14  16
ENDBRANCH   3  13
BRANCH  11  19
ATOM     19  S   UNL d   1       3.591   1.542   0.008  0.00  0.00    -0.098 SA
ATOM     20  C   UNL d   1       4.788   0.204   0.020  0.00  0.00     0.099 C 
ENDBRANCH  11  19
BRANCH  12  21
ATOM     21  C   UNL d   1      -3.750  -0.057  -0.006  0.00  0.00    -0.008 A 
ATOM     22  C   UNL d   1      -4.423  -1.127   0.599  0.00  0.00     0.014 A 
ATOM     23  C   UNL d   1      -5.822  -1.163   0.625  0.00  0.00     0.001 A 
ATOM     24  C   UNL d   1      -6.559  -0.136   0.038  0.00  0.00     0.000 A 
ATOM     25  C   UNL d   1      -5.903   0.924  -0.583  0.00  0.00     0.001 A 
ATOM     26  C   UNL d   1      -4.506   0.963  -0.605  0.00  0.00     0.014 A 
ENDBRANCH  12  21
TORSDOF 4
