REMARK  4 active torsions:
REMARK  status: ('A' for Active; 'I' for Inactive)
REMARK    1  A    between atoms: C_15  and  C_1 
REMARK    2  A    between atoms: C_3  and  C_10 
REMARK    3  A    between atoms: N_7  and  O_17 
REMARK    4  A    between atoms: O_17  and  C_15 
ROOT
ATOM      1  N   UNL d   1      -1.115   4.433   0.101  0.00  0.00    -0.277 N 
ATOM      2  HN  UNL d   1      -0.390   4.872  -0.466  1.00  0.00     0.193 HD
ATOM      3  C   UNL d   1      -1.973   5.054   0.847  0.00  0.00     0.127 C 
ENDROOT
BRANCH   1   4
ATOM      4  O   UNL d   1      -1.355   3.053   0.205  0.00  0.00    -0.276 OA
BRANCH   4   5
ATOM      5  C   UNL d   1      -0.117   2.352   0.068  0.00  0.00     0.244 C 
BRANCH   5   6
ATOM      6  C   UNL d   1      -0.363   0.872   0.164  0.00  0.00     0.028 A 
ATOM      7  C   UNL d   1      -0.937   0.264   1.290  0.00  0.00     0.045 A 
ATOM      8 CL   UNL d   1      -1.389   1.169   2.692  0.00  0.00    -0.084 Cl
ATOM      9  C   UNL d   1      -1.146  -1.122   1.327  0.00  0.00     0.024 A 
ATOM     10  C   UNL d   1      -0.773  -1.921   0.248  0.00  0.00     0.005 A 
ATOM     11  C   UNL d   1      -0.187  -1.334  -0.869  0.00  0.00     0.043 A 
ATOM     12  C   UNL d   1       0.010   0.046  -0.901  0.00  0.00     0.126 A 
ATOM     13  F   UNL d   1       0.587   0.575  -1.990  0.00  0.00    -0.205 F 
ENDBRANCH   5   6
ENDBRANCH   4   5
ENDBRANCH   1   4
BRANCH   3  14
ATOM     14  C   UNL d   1      -1.995   6.526   0.939  0.00  0.00     0.003 A 
ATOM     15  C   UNL d   1      -2.517   7.182   2.061  0.00  0.00     0.047 A 
ATOM     16  C   UNL d   1      -2.535   8.579   2.107  0.00  0.00     0.048 A 
ATOM     17 CL   UNL d   1      -3.118   6.333   3.441  0.00  0.00    -0.083 Cl
ATOM     18  C   UNL d   1      -2.040   9.316   1.032  0.00  0.00     0.035 A 
ATOM     19  C   UNL d   1      -1.518   8.671  -0.088  0.00  0.00     0.025 A 
ATOM     20 CL   UNL d   1      -2.075  11.034   1.087  0.00  0.00    -0.084 Cl
ATOM     21  C   UNL d   1      -1.489   7.276  -0.133  0.00  0.00     0.016 A 
ENDBRANCH   3  14
TORSDOF 4
