REMARK  3 active torsions:
REMARK  status: ('A' for Active; 'I' for Inactive)
REMARK    1  A    between atoms: C_7  and  O_9 
REMARK    2  A    between atoms: C_14  and  C_7 
REMARK    3  A    between atoms: O_9  and  C_11 
ROOT
ATOM      1  C   UNL d   1      -0.539   2.091   0.013  0.00  0.00     0.299 A 
ATOM      2  C   UNL d   1       1.476   0.675   0.030  0.00  0.00     0.093 A 
ATOM      3  O   UNL d   1       0.840   1.936   0.042  0.00  0.00    -0.274 OA
ATOM      4  C   UNL d   1       0.724  -0.504  -0.004  0.00  0.00     0.009 A 
ATOM      5  C   UNL d   1      -0.740  -0.415  -0.004  0.00  0.00    -0.007 A 
ATOM      6  C   UNL d   1      -1.352   0.849   0.001  0.00  0.00     0.051 A 
ATOM      7  C   UNL d   1       2.875   0.686   0.048  0.00  0.00     0.075 A 
ATOM      8  C   UNL d   1       1.444  -1.709  -0.044  0.00  0.00     0.018 A 
ATOM      9  C   UNL d   1       3.553  -0.528   0.033  0.00  0.00     0.082 A 
ATOM     10  O   UNL d   1      -1.060   3.202   0.001  0.00  0.00    -0.259 OA
ATOM     11  C   UNL d   1       2.844  -1.723  -0.041  0.00  0.00     0.038 A 
ATOM     12  C   UNL d   1      -1.584  -1.543  -0.004  0.00  0.00     0.013 A 
ATOM     13  C   UNL d   1      -2.754   0.975  -0.003  0.00  0.00     0.018 A 
ATOM     14  C   UNL d   1      -2.977  -1.417  -0.005  0.00  0.00     0.001 A 
ATOM     15  C   UNL d   1      -3.563  -0.159  -0.007  0.00  0.00     0.001 A 
ENDROOT
BRANCH   9  16
ATOM     16  O   UNL d   1       4.961  -0.482   0.020  0.00  0.00    -0.275 OA
BRANCH  16  17
ATOM     17  C   UNL d   1       5.665  -1.418   0.765  0.00  0.00     0.298 C 
ATOM     18  O   UNL d   1       5.203  -2.286   1.492  0.00  0.00    -0.259 OA
BRANCH  17  19
ATOM     19  C   UNL d   1       7.127  -1.197   0.621  0.00  0.00     0.039 A 
ATOM     20  C   UNL d   1       7.688  -0.532  -0.476  0.00  0.00     0.017 A 
ATOM     21  C   UNL d   1       9.074  -0.365  -0.553  0.00  0.00     0.001 A 
ATOM     22  C   UNL d   1       9.899  -0.856   0.461  0.00  0.00     0.000 A 
ATOM     23  C   UNL d   1       9.345  -1.527   1.549  0.00  0.00     0.001 A 
ATOM     24  C   UNL d   1       7.963  -1.702   1.627  0.00  0.00     0.017 A 
ENDBRANCH  17  19
ENDBRANCH  16  17
ENDBRANCH   9  16
TORSDOF 3
