REMARK  2 active torsions:
REMARK  status: ('A' for Active; 'I' for Inactive)
REMARK    1  A    between atoms: C_2  and  S_1 
REMARK    2  A    between atoms: N_7  and  S_1 
ROOT
ATOM      1  S   UNL d   1       1.012  -0.071  -0.105  0.00  0.00     0.250 S 
ATOM      2  O   UNL d   1       0.233  -0.961  -0.941  0.00  0.00    -0.205 OA
ATOM      3  O   UNL d   1       2.456  -0.089  -0.140  0.00  0.00    -0.205 OA
ENDROOT
BRANCH   1   4
ATOM      4  C   UNL d   1       0.519  -0.539   1.546  0.00  0.00     0.118 A 
ATOM      5  S   UNL d   1       1.655  -0.303   2.810  0.00  0.00    -0.064 SA
ATOM      6  C   UNL d   1       0.643  -1.060   3.941  0.00  0.00     0.093 A 
ATOM      7 CL   UNL d   1       1.198  -1.259   5.556  0.00  0.00    -0.075 Cl
ATOM      8  C   UNL d   1      -0.551  -1.451   3.398  0.00  0.00     0.041 A 
ATOM      9  C   UNL d   1      -0.637  -1.144   2.015  0.00  0.00     0.053 A 
ATOM     10 BR   UNL d   1      -1.958  -2.334   4.294  0.00  0.00    -0.049 Br
ENDBRANCH   1   4
BRANCH   1  11
ATOM     11  N   UNL d   1       0.491   1.533  -0.431  0.00  0.00    -0.206 NA
ATOM     12  C   UNL d   1       1.235   2.588   0.316  0.00  0.00     0.107 C 
ATOM     13  C   UNL d   1       0.552   3.939   0.102  0.00  0.00     0.015 C 
ATOM     14  C   UNL d   1       0.496   4.295  -1.380  0.00  0.00     0.002 C 
ATOM     15  C   UNL d   1      -0.167   3.174  -2.171  0.00  0.00     0.015 C 
ATOM     16  C   UNL d   1       0.496   1.826  -1.900  0.00  0.00     0.107 C 
ENDBRANCH   1  11
TORSDOF 2
