REMARK  4 active torsions:
REMARK  status: ('A' for Active; 'I' for Inactive)
REMARK    1  A    between atoms: C_10  and  C_1 
REMARK    2  A    between atoms: C_12  and  C_4 
REMARK    3  A    between atoms: N_5  and  C_11 
REMARK    4  A    between atoms: S_7  and  C_10 
ROOT
ATOM      1  C   UNL d   1      -0.310   1.095   0.008  0.00  0.00     0.154 A 
ATOM      2  N   UNL d   1       0.996  -0.616   0.101  0.00  0.00    -0.277 N 
ATOM      3  HN  UNL d   1       1.829  -1.201   0.160  1.00  0.00     0.189 HD
ATOM      4  C   UNL d   1      -0.250  -1.032  -0.015  0.00  0.00     0.174 A 
ATOM      5  O   UNL d   1      -1.143   0.010  -0.073  0.00  0.00    -0.276 OA
ATOM      6  N   UNL d   1       0.956   0.760   0.128  0.00  0.00    -0.280 N 
ATOM      7  HN  UNL d   1       1.750   1.394   0.222  1.00  0.00     0.189 HD
ENDROOT
BRANCH   4   8
ATOM      8  C   UNL d   1      -0.781  -2.389  -0.069  0.00  0.00     0.019 A 
ATOM      9  C   UNL d   1      -2.154  -2.647  -0.201  0.00  0.00     0.052 A 
ATOM     10  C   UNL d   1      -2.619  -3.971  -0.238  0.00  0.00     0.103 A 
ATOM     11  C   UNL d   1      -1.729  -5.048  -0.148  0.00  0.00     0.036 A 
ATOM     12  C   UNL d   1      -0.365  -4.796  -0.019  0.00  0.00     0.003 A 
ATOM     13  C   UNL d   1       0.102  -3.479   0.021  0.00  0.00     0.016 A 
BRANCH  10  14
ATOM     14  N   UNL d   1      -4.059  -4.233  -0.365  0.00  0.00    -0.116 N 
ATOM     15  O   UNL d   1      -4.819  -3.255  -0.412  0.00  0.00    -0.532 OA
ATOM     16  O   UNL d   1      -4.429  -5.414  -0.411  0.00  0.00    -0.532 OA
ENDBRANCH  10  14
ENDBRANCH   4   8
BRANCH   1  17
ATOM     17  C   UNL d   1      -0.909   2.433   0.008  0.00  0.00     0.225 C 
BRANCH  17  18
ATOM     18  S   UNL d   1      -0.918   3.052  -1.659  0.00  0.00     0.148 S 
ATOM     19  O   UNL d   1      -1.752   2.184  -2.470  0.00  0.00    -0.228 OA
ATOM     20  O   UNL d   1      -1.213   4.473  -1.579  0.00  0.00    -0.228 OA
ATOM     21  C   UNL d   1       0.756   2.905  -2.250  0.00  0.00     0.161 C 
ENDBRANCH  17  18
ENDBRANCH   1  17
TORSDOF 4
