REMARK  2 active torsions:
REMARK  status: ('A' for Active; 'I' for Inactive)
REMARK    1  A    between atoms: N_9  and  C_2 
REMARK       I    between atoms: C_10  and  N_9 
REMARK    2  A    between atoms: C_11  and  C_10 
ROOT
ATOM      1  C   UNL d   1       0.536  -0.501  -0.033  0.00  0.00     0.089 A 
ATOM      2  C   UNL d   1      -1.997   0.565  -0.340  0.00  0.00     0.155 C 
ATOM      3  C   UNL d   1       0.293   0.794  -0.398  0.00  0.00     0.062 A 
ATOM      4  S   UNL d   1      -1.975  -1.163  -0.518  0.00  0.00    -0.010 SA
ATOM      5  C   UNL d   1      -0.457  -1.482   0.272  0.00  0.00     0.235 C 
ATOM      6  N   UNL d   1      -0.984   1.378  -0.353  0.00  0.00    -0.335 N 
ATOM      7  HN  UNL d   1      -1.110   2.390  -0.332  1.00  0.00     0.168 HD
ATOM      8  S   UNL d   1       2.194  -0.860   0.022  0.00  0.00    -0.095 SA
ATOM      9  C   UNL d   1       1.483   1.507  -0.743  0.00  0.00    -0.027 A 
ATOM     10  C   UNL d   1       2.593   0.701  -0.548  0.00  0.00     0.059 A 
ATOM     11  O   UNL d   1      -0.296  -2.496   0.937  0.00  0.00    -0.279 OA
ATOM     12  C   UNL d   1       1.576   2.908  -1.247  0.00  0.00     0.051 C 
ENDROOT
BRANCH   2  13
ATOM     13  N   UNL d   1      -3.232   1.168  -0.144  0.00  0.00    -0.303 N 
ATOM     14  C   UNL d   1      -4.514   0.627  -0.027  0.00  0.00     0.259 C 
ATOM     15  O   UNL d   1      -4.827  -0.525  -0.299  0.00  0.00    -0.267 OA
ATOM     16  H   UNL d   1      -3.131   2.160   0.018  0.00  0.00     0.171 HD
BRANCH  14  17
ATOM     17  C   UNL d   1      -5.585   1.518   0.504  0.00  0.00     0.054 A 
ATOM     18  C   UNL d   1      -5.686   2.896   0.267  0.00  0.00     0.052 A 
ATOM     19  C   UNL d   1      -6.725   3.634   0.846  0.00  0.00     0.067 A 
ATOM     20 CL   UNL d   1      -4.599   3.761  -0.761  0.00  0.00    -0.083 Cl
ATOM     21  C   UNL d   1      -7.666   2.998   1.646  0.00  0.00     0.118 A 
ATOM     22  C   UNL d   1      -7.605   1.630   1.871  0.00  0.00     0.043 A 
ATOM     23  F   UNL d   1      -8.650   3.714   2.202  0.00  0.00    -0.206 F 
ATOM     24  C   UNL d   1      -6.569   0.891   1.298  0.00  0.00     0.022 A 
ENDBRANCH  14  17
ENDBRANCH   2  13
TORSDOF 2
