REMARK  6 active torsions:
REMARK  status: ('A' for Active; 'I' for Inactive)
REMARK    1  A    between atoms: N_7  and  C_1 
REMARK    2  A    between atoms: N_8  and  C_2 
REMARK    3  A    between atoms: C_11  and  N_7 
REMARK    4  A    between atoms: C_12  and  N_8 
REMARK    5  A    between atoms: C_15  and  C_11 
REMARK    6  A    between atoms: C_16  and  C_12 
ROOT
ATOM      1  C   UNL d   1       2.246  -0.937   0.052  0.00  0.00     0.085 A 
ATOM      2  C   UNL d   1       2.365   0.405   0.082  0.00  0.00     0.085 A 
ATOM      3  C   UNL d   1       0.896  -1.600   0.068  0.00  0.00     0.206 A 
ATOM      4  C   UNL d   1       1.162   1.290   0.097  0.00  0.00     0.206 A 
ATOM      5  C   UNL d   1      -0.299  -0.728   0.050  0.00  0.00     0.030 A 
ATOM      6  C   UNL d   1      -0.169   0.659   0.053  0.00  0.00     0.030 A 
ATOM      7  O   UNL d   1       0.763  -2.820   0.109  0.00  0.00    -0.285 OA
ATOM      8  O   UNL d   1       1.287   2.511   0.143  0.00  0.00    -0.285 OA
ATOM      9  C   UNL d   1      -1.578  -1.302   0.035  0.00  0.00     0.016 A 
ATOM     10  C   UNL d   1      -1.313   1.473   0.035  0.00  0.00     0.016 A 
ATOM     11  C   UNL d   1      -2.717  -0.490   0.025  0.00  0.00     0.001 A 
ATOM     12  C   UNL d   1      -2.584   0.897   0.021  0.00  0.00     0.001 A 
ENDROOT
BRANCH   1  13
ATOM     13  N   UNL d   1       3.397  -1.743   0.006  0.00  0.00    -0.284 NA
ATOM     14  H   UNL d   1       4.169  -1.129  -0.272  0.00  0.00     0.128 HD
BRANCH  13  15
ATOM     15  C   UNL d   1       3.856  -2.420   1.216  0.00  0.00     0.131 C 
BRANCH  15  16
ATOM     16  C   UNL d   1       5.043  -3.280   0.861  0.00  0.00    -0.045 A 
ATOM     17  C   UNL d   1       6.336  -2.960   1.298  0.00  0.00     0.008 A 
ATOM     18  C   UNL d   1       7.417  -3.772   0.941  0.00  0.00     0.001 A 
ATOM     19  C   UNL d   1       7.221  -4.894   0.143  0.00  0.00     0.000 A 
ATOM     20  C   UNL d   1       5.940  -5.211  -0.310  0.00  0.00     0.001 A 
ATOM     21  C   UNL d   1       4.858  -4.407   0.047  0.00  0.00     0.008 A 
ENDBRANCH  15  16
ENDBRANCH  13  15
ENDBRANCH   1  13
BRANCH   2  22
ATOM     22  N   UNL d   1       3.631   1.018   0.195  0.00  0.00    -0.284 NA
ATOM     23  H   UNL d   1       3.543   1.738   0.916  0.00  0.00     0.128 HD
BRANCH  22  24
ATOM     24  C   UNL d   1       4.222   1.692  -0.963  0.00  0.00     0.131 C 
BRANCH  24  25
ATOM     25  C   UNL d   1       5.694   1.363  -1.023  0.00  0.00    -0.045 A 
ATOM     26  C   UNL d   1       6.137   0.228  -1.720  0.00  0.00     0.008 A 
ATOM     27  C   UNL d   1       7.497  -0.084  -1.781  0.00  0.00     0.001 A 
ATOM     28  C   UNL d   1       8.428   0.733  -1.145  0.00  0.00     0.000 A 
ATOM     29  C   UNL d   1       8.001   1.854  -0.435  0.00  0.00     0.001 A 
ATOM     30  C   UNL d   1       6.640   2.164  -0.367  0.00  0.00     0.008 A 
ENDBRANCH  24  25
ENDBRANCH  22  24
ENDBRANCH   2  22
TORSDOF 6
