REMARK  1 active torsions:
REMARK  status: ('A' for Active; 'I' for Inactive)
REMARK    1  A    between atoms: C_2  and  N_1 
ROOT
ATOM      1  C   UNL d   1      -0.780  -2.451  -0.014  0.00  0.00     0.059 A 
ATOM      2  N   UNL d   1      -2.494  -1.664  -3.081  0.00  0.00    -0.191 NA
ATOM      3  C   UNL d   1      -2.098  -2.231  -2.147  0.00  0.00     0.102 C 
ATOM      4  C   UNL d   1      -1.638  -2.969  -1.005  0.00  0.00     0.071 A 
ATOM      5  C   UNL d   1      -0.307  -3.312   0.997  0.00  0.00     0.031 A 
ATOM      6  C   UNL d   1      -2.011  -4.326  -0.951  0.00  0.00     0.025 A 
ATOM      7  C   UNL d   1      -0.694  -4.654   1.036  0.00  0.00     0.002 A 
ATOM      8  C   UNL d   1      -1.546  -5.161   0.063  0.00  0.00     0.002 A 
ENDROOT
BRANCH   1   9
ATOM      9  N   UNL d   1      -0.355  -1.087   0.014  0.00  0.00    -0.331 N 
ATOM     10  C   UNL d   1      -1.046   0.020  -0.437  0.00  0.00     0.096 A 
ATOM     11  C   UNL d   1      -0.273   1.147  -0.257  0.00  0.00     0.019 A 
ATOM     12  C   UNL d   1       0.924   0.737   0.359  0.00  0.00     0.019 A 
ATOM     13  C   UNL d   1       0.840  -0.626   0.542  0.00  0.00     0.096 A 
ENDBRANCH   1   9
TORSDOF 1
