REMARK  3 active torsions:
REMARK  status: ('A' for Active; 'I' for Inactive)
REMARK    1  A    between atoms: C_8  and  N_3 
REMARK    2  A    between atoms: N_12  and  C_4 
REMARK    3  A    between atoms: C_7  and  C_5 
ROOT
ATOM      1  N   UNL d   1       0.967  -0.533  -0.164  0.00  0.00    -0.291 N 
ATOM      2  HN  UNL d   1       1.795  -1.084  -0.392  1.00  0.00     0.187 HD
ATOM      3  N   UNL d   1       0.865   0.821  -0.081  0.00  0.00    -0.240 N 
ATOM      4  C   UNL d   1      -0.470   1.224   0.021  0.00  0.00     0.123 C 
ATOM      5  C   UNL d   1      -0.262  -0.981   0.119  0.00  0.00     0.069 C 
ATOM      6  C   UNL d   1      -1.200   0.069   0.173  0.00  0.00     0.082 C 
ENDROOT
BRANCH   3   7
ATOM      7  C   UNL d   1       2.047   1.611  -0.046  0.00  0.00     0.058 A 
ATOM      8  C   UNL d   1       3.215   1.131  -0.663  0.00  0.00     0.034 A 
ATOM      9  C   UNL d   1       4.388   1.888  -0.614  0.00  0.00     0.044 A 
ATOM     10  C   UNL d   1       4.402   3.092   0.075  0.00  0.00     0.116 A 
ATOM     11  C   UNL d   1       3.260   3.566   0.713  0.00  0.00     0.044 A 
ATOM     12  F   UNL d   1       5.534   3.804   0.138  0.00  0.00    -0.206 F 
ATOM     13  C   UNL d   1       2.076   2.830   0.648  0.00  0.00     0.034 A 
ENDBRANCH   3   7
BRANCH   4  14
ATOM     14  N   UNL d   1      -0.917   2.505  -0.044  0.00  0.00    -0.384 N 
ATOM     15  H   UNL d   1      -0.356   3.216  -0.513  0.00  0.00     0.157 HD
ATOM     16  H   UNL d   1      -1.914   2.675  -0.158  0.00  0.00     0.157 HD
ENDBRANCH   4  14
BRANCH   5  17
ATOM     17  C   UNL d   1      -0.540  -2.432   0.377  0.00  0.00     0.033 A 
ATOM     18  S   UNL d   1      -2.090  -3.074   0.705  0.00  0.00    -0.100 SA
ATOM     19  C   UNL d   1      -1.455  -4.638   0.984  0.00  0.00     0.050 A 
ATOM     20  C   UNL d   1      -0.090  -4.678   0.808  0.00  0.00     0.008 A 
ATOM     21  C   UNL d   1       0.437  -3.406   0.437  0.00  0.00     0.021 A 
ENDBRANCH   5  17
TORSDOF 3
