REMARK  2 active torsions:
REMARK  status: ('A' for Active; 'I' for Inactive)
REMARK    1  A    between atoms: C_8  and  C_2 
REMARK    2  A    between atoms: C_9  and  C_3 
ROOT
ATOM      1  N   UNL d   1       0.004  -1.082   0.156  0.00  0.00    -0.179 NA
ATOM      2  C   UNL d   1      -1.145  -0.652  -0.701  0.00  0.00     0.122 C 
ATOM      3  C   UNL d   1       1.319  -0.677  -0.425  0.00  0.00     0.122 C 
ATOM      4  O   UNL d   1      -0.111  -0.056   1.216  0.00  0.00    -0.297 OA
ATOM      5  C   UNL d   1      -0.000   1.111   0.399  0.00  0.00     0.149 C 
ATOM      6  C   UNL d   1       1.327   0.855  -0.290  0.00  0.00     0.060 C 
ATOM      7  C   UNL d   1      -1.148   0.884  -0.565  0.00  0.00     0.060 C 
ENDROOT
BRANCH   2   8
ATOM      8  C   UNL d   1      -1.208  -1.224  -2.108  0.00  0.00    -0.038 A 
ATOM      9  C   UNL d   1      -0.725  -2.516  -2.380  0.00  0.00     0.009 A 
ATOM     10  C   UNL d   1      -0.825  -3.071  -3.658  0.00  0.00     0.001 A 
ATOM     11  C   UNL d   1      -1.435  -2.356  -4.684  0.00  0.00     0.000 A 
ATOM     12  C   UNL d   1      -1.951  -1.089  -4.430  0.00  0.00     0.001 A 
ATOM     13  C   UNL d   1      -1.848  -0.534  -3.152  0.00  0.00     0.009 A 
ENDBRANCH   2   8
BRANCH   3  14
ATOM     14  C   UNL d   1       2.523  -1.315   0.269  0.00  0.00    -0.038 A 
ATOM     15  C   UNL d   1       2.397  -2.197   1.353  0.00  0.00     0.009 A 
ATOM     16  C   UNL d   1       3.524  -2.758   1.961  0.00  0.00     0.001 A 
ATOM     17  C   UNL d   1       4.796  -2.449   1.490  0.00  0.00     0.000 A 
ATOM     18  C   UNL d   1       4.945  -1.584   0.410  0.00  0.00     0.001 A 
ATOM     19  C   UNL d   1       3.817  -1.026  -0.199  0.00  0.00     0.009 A 
ENDBRANCH   3  14
TORSDOF 2
