REMARK  4 active torsions:
REMARK  status: ('A' for Active; 'I' for Inactive)
REMARK    1  A    between atoms: C_5  and  C_1 
REMARK    2  A    between atoms: C_6  and  C_2 
REMARK    3  A    between atoms: N_3  and  C_9 
REMARK    4  A    between atoms: O_22  and  C_5 
ROOT
ATOM      1  C   UNL d   1       0.787   0.759   1.145  0.00  0.00     0.047 C 
ATOM      2  C   UNL d   1      -1.519   0.258   0.114  0.00  0.00    -0.011 C 
ATOM      3  C   UNL d   1      -0.748   1.008   1.239  0.00  0.00     0.035 C 
ATOM      4  C   UNL d   1       1.041  -0.757   1.272  0.00  0.00     0.025 C 
ATOM      5  C   UNL d   1       1.274   1.243  -0.240  0.00  0.00     0.025 C 
ATOM      6  C   UNL d   1      -1.181  -1.257   0.252  0.00  0.00     0.019 C 
ATOM      7  C   UNL d   1      -0.962   0.738  -1.257  0.00  0.00     0.019 C 
ATOM      8  C   UNL d   1       0.549   0.482  -1.361  0.00  0.00    -0.012 C 
ATOM      9  C   UNL d   1       0.326  -1.514   0.147  0.00  0.00    -0.012 C 
ATOM     10  C   UNL d   1       0.824  -1.021  -1.217  0.00  0.00     0.009 C 
ENDROOT
BRANCH   2  11
ATOM     11  C   UNL d   1      -3.031   0.541   0.181  0.00  0.00    -0.049 A 
ATOM     12  C   UNL d   1      -3.515   1.859   0.060  0.00  0.00     0.010 A 
ATOM     13  C   UNL d   1      -4.887   2.137   0.065  0.00  0.00     0.036 A 
ATOM     14  C   UNL d   1      -5.802   1.090   0.195  0.00  0.00     0.102 A 
ATOM     15  C   UNL d   1      -5.353  -0.225   0.325  0.00  0.00     0.036 A 
ATOM     16  C   UNL d   1      -3.981  -0.488   0.326  0.00  0.00     0.010 A 
BRANCH  14  17
ATOM     17  N   UNL d   1      -7.243   1.365   0.190  0.00  0.00    -0.116 N 
ATOM     18  O   UNL d   1      -8.016   0.406   0.305  0.00  0.00    -0.532 OA
ATOM     19  O   UNL d   1      -7.602   2.546   0.069  0.00  0.00    -0.532 OA
ENDBRANCH  14  17
ENDBRANCH   2  11
BRANCH   1  20
ATOM     20  C   UNL d   1       1.511   1.506   2.266  0.00  0.00     0.148 C 
ATOM     21  O   UNL d   1       0.956   2.182   3.118  0.00  0.00    -0.649 OA
BRANCH  20  22
ATOM     22  O   UNL d   1       2.858   1.355   2.257  0.00  0.00    -0.776 OA
ATOM     23  H   UNL d   1       3.213   0.793   1.544  0.00  0.00     0.167 HD
ENDBRANCH  20  22
ENDBRANCH   1  20
TORSDOF 4
