REMARK  1 active torsions:
REMARK  status: ('A' for Active; 'I' for Inactive)
REMARK    1  A    between atoms: C_11  and  N_3 
ROOT
ATOM      1  C   UNL d   1      -1.271  -0.054   0.146  0.00  0.00     0.281 C 
ATOM      2  C   UNL d   1      -0.382   1.155   0.164  0.00  0.00     0.081 C 
ATOM      3  N   UNL d   1      -0.361  -1.115   0.282  0.00  0.00    -0.220 N 
ATOM      4  N   UNL d   1       0.965  -0.734   0.206  0.00  0.00    -0.294 N 
ATOM      5  HN  UNL d   1       1.778  -1.349   0.245  1.00  0.00     0.187 HD
ATOM      6  C   UNL d   1       0.979   0.566   0.076  0.00  0.00     0.040 C 
ATOM      7  C   UNL d   1      -0.800   2.425   0.321  0.00  0.00     0.054 C 
ATOM      8  S   UNL d   1       0.281   3.796   0.456  0.00  0.00    -0.121 SA
ATOM      9  S   UNL d   1      -2.486   2.879   0.481  0.00  0.00    -0.121 SA
ATOM     10  O   UNL d   1      -2.480  -0.076   0.037  0.00  0.00    -0.265 OA
ATOM     11  C   UNL d   1       2.272   1.275  -0.163  0.00  0.00     0.071 C 
ATOM     12  C   UNL d   1      -2.265   4.597  -0.035  0.00  0.00     0.090 C 
ATOM     13  C   UNL d   1      -0.981   5.096   0.594  0.00  0.00     0.090 C 
ENDROOT
BRANCH   3  14
ATOM     14  C   UNL d   1      -0.652  -2.497   0.448  0.00  0.00     0.060 A 
ATOM     15  C   UNL d   1      -1.955  -2.999   0.362  0.00  0.00     0.031 A 
ATOM     16  C   UNL d   1      -2.214  -4.360   0.562  0.00  0.00     0.002 A 
ATOM     17  C   UNL d   1      -1.175  -5.235   0.865  0.00  0.00     0.000 A 
ATOM     18  C   UNL d   1       0.126  -4.753   0.956  0.00  0.00     0.002 A 
ATOM     19  C   UNL d   1       0.385  -3.397   0.742  0.00  0.00     0.031 A 
ENDBRANCH   3  14
TORSDOF 1
