REMARK  3 active torsions:
REMARK  status: ('A' for Active; 'I' for Inactive)
REMARK    1  A    between atoms: C_2  and  C_1 
REMARK       I    between atoms: N_3  and  C_2 
REMARK    2  A    between atoms: C_6  and  N_3 
REMARK    3  A    between atoms: C_9  and  C_6 
ROOT
ATOM      1  C   UNL d   1       0.829   2.493  -0.038  0.00  0.00     0.253 C 
ATOM      2  N   UNL d   1       1.409   3.734   0.077  0.00  0.00    -0.353 N 
ATOM      3  O   UNL d   1       1.482   1.456  -0.102  0.00  0.00    -0.268 OA
ATOM      4  H   UNL d   1       0.827   4.561   0.092  0.00  0.00     0.163 HD
ENDROOT
BRANCH   2   5
ATOM      5  C   UNL d   1       2.843   3.918   0.093  0.00  0.00     0.161 C 
BRANCH   5   6
ATOM      6  C   UNL d   1       3.318   4.713  -1.098  0.00  0.00    -0.040 A 
ATOM      7  C   UNL d   1       3.964   5.946  -0.926  0.00  0.00     0.010 A 
ATOM      8  C   UNL d   1       4.439   6.660  -2.030  0.00  0.00     0.024 A 
ATOM      9  C   UNL d   1       4.268   6.146  -3.313  0.00  0.00     0.034 A 
ATOM     10  C   UNL d   1       3.626   4.924  -3.503  0.00  0.00     0.024 A 
ATOM     11 CL   UNL d   1       4.862   7.021  -4.670  0.00  0.00    -0.084 Cl
ATOM     12  C   UNL d   1       3.156   4.209  -2.399  0.00  0.00     0.010 A 
ENDBRANCH   5   6
ENDBRANCH   2   5
BRANCH   1  13
ATOM     13  C   UNL d   1      -0.661   2.420  -0.004  0.00  0.00     0.048 A 
ATOM     14  C   UNL d   1      -1.558   3.338  -0.572  0.00  0.00     0.022 A 
ATOM     15  I   UNL d   1      -1.010   5.013  -1.718  0.00  0.00    -0.043 I 
ATOM     16  C   UNL d   1      -2.943   3.128  -0.447  0.00  0.00     0.019 A 
ATOM     17  C   UNL d   1      -3.439   2.008   0.223  0.00  0.00     0.001 A 
ATOM     18  C   UNL d   1      -2.559   1.086   0.774  0.00  0.00     0.001 A 
ATOM     19  C   UNL d   1      -1.183   1.290   0.659  0.00  0.00     0.018 A 
ENDBRANCH   1  13
TORSDOF 3
