REMARK  4 active torsions:
REMARK  status: ('A' for Active; 'I' for Inactive)
REMARK    1  A    between atoms: C_5  and  C_1 
REMARK    2  A    between atoms: C_6  and  C_2 
REMARK       I    between atoms: N_7  and  C_5 
REMARK       I    between atoms: C_11  and  N_10 
REMARK    3  A    between atoms: O_19  and  C_11 
REMARK    4  A    between atoms: C_24  and  O_19 
ROOT
ATOM      1  C   UNL d   1       0.797  -2.645   1.624  0.00  0.00     0.092 C 
ATOM      2  C   UNL d   1       2.143  -2.268   1.977  0.00  0.00     0.085 C 
ATOM      3  N   UNL d   1       2.345  -2.526   3.282  0.00  0.00    -0.259 N 
ATOM      4  HN  UNL d   1       3.238  -2.504   3.773  1.00  0.00     0.195 HD
ATOM      5  O   UNL d   1       1.126  -2.822   3.826  0.00  0.00    -0.241 OA
ATOM      6  C   UNL d   1       0.188  -2.836   2.852  0.00  0.00     0.090 C 
ATOM      7  C   UNL d   1      -1.199  -3.023   3.320  0.00  0.00     0.080 C 
ENDROOT
BRANCH   1   8
ATOM      8  C   UNL d   1       0.136  -2.663   0.332  0.00  0.00     0.258 C 
ATOM      9  N   UNL d   1      -0.666  -3.761   0.004  0.00  0.00    -0.345 N 
ATOM     10  C   UNL d   1      -1.372  -3.785  -1.282  0.00  0.00     0.146 C 
ATOM     11  C   UNL d   1      -0.674  -5.066   0.680  0.00  0.00     0.146 C 
ATOM     12  C   UNL d   1      -2.813  -4.311  -1.139  0.00  0.00     0.148 C 
ATOM     13  N   UNL d   1      -2.917  -5.519  -0.306  0.00  0.00    -0.325 N 
ATOM     14  C   UNL d   1      -2.114  -5.539   0.915  0.00  0.00     0.148 C 
ATOM     15  C   UNL d   1      -4.034  -6.344  -0.346  0.00  0.00     0.362 C 
ATOM     16  O   UNL d   1      -4.273  -7.194   0.504  0.00  0.00    -0.238 OA
ATOM     17  O   UNL d   1       0.292  -1.730  -0.457  0.00  0.00    -0.267 OA
BRANCH  15  18
ATOM     18  O   UNL d   1      -4.813  -6.121  -1.437  0.00  0.00    -0.304 OA
BRANCH  18  19
ATOM     19  C   UNL d   1      -5.887  -7.051  -1.659  0.00  0.00     0.176 C 
ATOM     20  C   UNL d   1      -7.219  -6.417  -1.306  0.00  0.00     0.034 C 
ENDBRANCH  18  19
ENDBRANCH  15  18
ENDBRANCH   1   8
BRANCH   2  21
ATOM     21  C   UNL d   1       3.239  -1.718   1.161  0.00  0.00     0.015 A 
ATOM     22  C   UNL d   1       4.151  -0.756   1.655  0.00  0.00     0.046 A 
ATOM     23 CL   UNL d   1       4.072  -0.070   3.248  0.00  0.00    -0.083 Cl
ATOM     24  C   UNL d   1       5.176  -0.250   0.842  0.00  0.00     0.025 A 
ATOM     25  C   UNL d   1       5.305  -0.673  -0.476  0.00  0.00     0.002 A 
ATOM     26  C   UNL d   1       4.415  -1.614  -0.983  0.00  0.00     0.001 A 
ATOM     27  C   UNL d   1       3.401  -2.139  -0.171  0.00  0.00     0.015 A 
ENDBRANCH   2  21
TORSDOF 4
