REMARK  8 active torsions:
REMARK  status: ('A' for Active; 'I' for Inactive)
REMARK    1  A    between atoms: N_6  and  C_1 
REMARK    2  A    between atoms: C_4  and  N_6 
REMARK    3  A    between atoms: N_5  and  C_4 
REMARK       I    between atoms: C_8  and  N_5 
REMARK    4  A    between atoms: C_18  and  C_7 
REMARK    5  A    between atoms: C_10  and  C_8 
REMARK    6  A    between atoms: O_22  and  C_11 
REMARK    7  A    between atoms: O_25  and  C_13 
REMARK    8  A    between atoms: O_24  and  C_14 
ROOT
ATOM      1  C   UNL d   1       3.076  -4.073   0.453  0.00  0.00     0.180 C 
ATOM      2  S   UNL d   1       2.201  -5.414   0.947  0.00  0.00    -0.040 SA
ENDROOT
BRANCH   1   3
ATOM      3  N   UNL d   1       4.431  -3.998   0.294  0.00  0.00    -0.313 N 
ATOM      4  H   UNL d   1       4.796  -3.392  -0.434  0.00  0.00     0.170 HD
BRANCH   3   5
ATOM      5  C   UNL d   1       5.349  -4.731   1.005  0.00  0.00     0.151 C 
ATOM      6  N   UNL d   1       5.294  -5.116   2.258  0.00  0.00    -0.335 N 
ATOM      7  C   UNL d   1       6.505  -5.693   2.604  0.00  0.00     0.051 C 
ATOM      8  HN  UNL d   1       4.490  -5.009   2.877  1.00  0.00     0.168 HD
ATOM      9  C   UNL d   1       7.402  -5.858   1.566  0.00  0.00     0.083 C 
ATOM     10  S   UNL d   1       6.798  -5.065   0.166  0.00  0.00    -0.063 SA
BRANCH   7  11
ATOM     11  C   UNL d   1       6.872  -5.975   3.984  0.00  0.00    -0.009 A 
ATOM     12  C   UNL d   1       6.888  -7.279   4.490  0.00  0.00     0.017 A 
ATOM     13  C   UNL d   1       7.323  -7.520   5.800  0.00  0.00     0.043 A 
ATOM     14  C   UNL d   1       7.745  -6.453   6.592  0.00  0.00     0.116 A 
ATOM     15  C   UNL d   1       7.730  -5.157   6.105  0.00  0.00     0.043 A 
ATOM     16  F   UNL d   1       8.175  -6.692   7.841  0.00  0.00    -0.206 F 
ATOM     17  C   UNL d   1       7.291  -4.914   4.803  0.00  0.00     0.017 A 
ENDBRANCH   7  11
ENDBRANCH   3   5
ENDBRANCH   1   3
BRANCH   1  18
ATOM     18  N   UNL d   1       2.349  -2.943   0.119  0.00  0.00    -0.299 N 
ATOM     19  C   UNL d   1       2.832  -1.653  -0.062  0.00  0.00     0.258 C 
ATOM     20  O   UNL d   1       3.996  -1.385  -0.344  0.00  0.00    -0.267 OA
ATOM     21  H   UNL d   1       1.363  -3.055   0.316  0.00  0.00     0.171 HD
BRANCH  19  22
ATOM     22  C   UNL d   1       1.842  -0.551   0.124  0.00  0.00     0.037 A 
ATOM     23  C   UNL d   1       2.261   0.592   0.814  0.00  0.00     0.057 A 
ATOM     24  C   UNL d   1       1.371   1.649   1.080  0.00  0.00     0.105 A 
ATOM     25  C   UNL d   1       0.043   1.585   0.601  0.00  0.00     0.135 A 
ATOM     26  C   UNL d   1      -0.349   0.455  -0.156  0.00  0.00     0.105 A 
ATOM     27  C   UNL d   1       0.538  -0.615  -0.363  0.00  0.00     0.057 A 
BRANCH  24  28
ATOM     28  O   UNL d   1       1.763   2.766   1.771  0.00  0.00    -0.353 OA
ATOM     29  C   UNL d   1       2.896   2.658   2.623  0.00  0.00     0.210 C 
ENDBRANCH  24  28
BRANCH  25  30
ATOM     30  O   UNL d   1      -0.950   2.496   0.853  0.00  0.00    -0.351 OA
ATOM     31  C   UNL d   1      -0.663   3.743   1.465  0.00  0.00     0.210 C 
ENDBRANCH  25  30
BRANCH  26  32
ATOM     32  O   UNL d   1      -1.581   0.237  -0.729  0.00  0.00    -0.353 OA
ATOM     33  C   UNL d   1      -2.325   1.386  -1.129  0.00  0.00     0.210 C 
ENDBRANCH  26  32
ENDBRANCH  19  22
ENDBRANCH   1  18
TORSDOF 8
