REMARK  3 active torsions:
REMARK  status: ('A' for Active; 'I' for Inactive)
REMARK    1  A    between atoms: C_9  and  N_6 
REMARK    2  A    between atoms: C_10  and  C_9 
REMARK    3  A    between atoms: C_11  and  C_10 
ROOT
ATOM      1  C   UNL d   1      -0.335  -1.334   0.253  0.00  0.00     0.709 A 
ATOM      2  N   UNL d   1       0.722  -0.754   0.833  0.00  0.00    -0.116 N 
ATOM      3  HN  UNL d   1       1.375  -1.129   1.520  1.00  0.00     0.207 HD
ATOM      4  N   UNL d   1      -0.967  -0.503  -0.640  0.00  0.00    -0.113 N 
ATOM      5  HN  UNL d   1      -1.789  -0.728  -1.201  1.00  0.00     0.203 HD
ATOM      6  N   UNL d   1       0.684   0.466   0.255  0.00  0.00    -0.196 N 
ATOM      7  N   UNL d   1      -0.309   0.646  -0.637  0.00  0.00     0.011 NA
ATOM      8  N   UNL d   1      -0.751  -2.600   0.438  0.00  0.00    -0.215 N 
ATOM      9  C   UNL d   1      -1.866  -3.184  -0.282  0.00  0.00     0.141 C 
ATOM     10  C   UNL d   1      -0.370  -3.380   1.601  0.00  0.00     0.141 C 
ATOM     11  C   UNL d   1      -2.416  -4.224   0.688  0.00  0.00     0.022 C 
ATOM     12  C   UNL d   1      -1.182  -4.667   1.460  0.00  0.00     0.022 C 
ENDROOT
BRANCH   6  13
ATOM     13  C   UNL d   1       1.887   1.268   0.156  0.00  0.00     0.251 C 
BRANCH  13  14
ATOM     14  C   UNL d   1       1.968   2.362   1.184  0.00  0.00     0.180 C 
ATOM     15  O   UNL d   1       1.137   2.529   2.075  0.00  0.00    -0.290 OA
BRANCH  14  16
ATOM     16  C   UNL d   1       3.136   3.302   1.096  0.00  0.00     0.012 A 
ATOM     17  C   UNL d   1       4.149   3.150   0.136  0.00  0.00     0.017 A 
ATOM     18  C   UNL d   1       5.205   4.066   0.071  0.00  0.00     0.025 A 
ATOM     19  C   UNL d   1       5.257   5.134   0.963  0.00  0.00     0.034 A 
ATOM     20  C   UNL d   1       4.266   5.290   1.929  0.00  0.00     0.025 A 
ATOM     21 CL   UNL d   1       6.548   6.265   0.864  0.00  0.00    -0.084 Cl
ATOM     22  C   UNL d   1       3.208   4.375   1.996  0.00  0.00     0.017 A 
ENDBRANCH  14  16
ENDBRANCH  13  14
ENDBRANCH   6  13
TORSDOF 3
