REMARK  6 active torsions:
REMARK  status: ('A' for Active; 'I' for Inactive)
REMARK    1  A    between atoms: C_5  and  C_1 
REMARK    2  A    between atoms: N_4  and  C_11 
REMARK    3  A    between atoms: O_12  and  C_5 
REMARK    4  A    between atoms: N_8  and  O_12 
REMARK    5  A    between atoms: C_13  and  C_10 
REMARK    6  A    between atoms: N_19  and  C_10 
ROOT
ATOM      1  N   UNL d   1       3.823  -2.534   0.351  0.00  0.00    -0.246 N 
ATOM      2  HN  UNL d   1       4.311  -1.710   0.703  1.00  0.00     0.196 HD
ATOM      3  C   UNL d   1       4.416  -3.651   0.059  0.00  0.00     0.109 C 
ENDROOT
BRANCH   1   4
ATOM      4  O   UNL d   1       2.424  -2.583   0.130  0.00  0.00    -0.193 OA
BRANCH   4   5
ATOM      5  C   UNL d   1       1.863  -1.377   0.499  0.00  0.00     0.323 C 
ATOM      6  O   UNL d   1       2.481  -0.471   1.054  0.00  0.00    -0.257 OA
BRANCH   5   7
ATOM      7  C   UNL d   1       0.448  -1.307   0.149  0.00  0.00     0.105 A 
ATOM      8  S   UNL d   1      -0.360   0.163   0.528  0.00  0.00    -0.082 SA
ATOM      9  C   UNL d   1      -1.856  -0.365  -0.115  0.00  0.00     0.018 A 
ATOM     10  C   UNL d   1      -3.058   0.373  -0.149  0.00  0.00     0.020 A 
ATOM     11  C   UNL d   1      -1.763  -1.657  -0.629  0.00  0.00     0.004 A 
ATOM     12  C   UNL d   1      -4.190  -0.201  -0.725  0.00  0.00     0.001 A 
ATOM     13  C   UNL d   1      -4.131  -1.479  -1.258  0.00  0.00     0.001 A 
ATOM     14  C   UNL d   1      -2.937  -2.208  -1.214  0.00  0.00     0.014 A 
ATOM     15  C   UNL d   1      -0.427  -2.197  -0.450  0.00  0.00     0.069 A 
ATOM     16 CL   UNL d   1      -0.052  -3.799  -0.959  0.00  0.00    -0.082 Cl
ENDBRANCH   5   7
ENDBRANCH   4   5
ENDBRANCH   1   4
BRANCH   3  17
ATOM     17  C   UNL d   1       5.910  -3.696   0.198  0.00  0.00     0.006 A 
ATOM     18  C   UNL d   1       6.667  -4.530  -0.631  0.00  0.00     0.050 A 
ATOM     19  C   UNL d   1       8.064  -4.545  -0.501  0.00  0.00     0.103 A 
ATOM     20  C   UNL d   1       8.706  -3.743   0.454  0.00  0.00     0.036 A 
ATOM     21  C   UNL d   1       7.944  -2.910   1.273  0.00  0.00     0.003 A 
ATOM     22  C   UNL d   1       6.551  -2.881   1.142  0.00  0.00     0.015 A 
BRANCH  19  23
ATOM     23  N   UNL d   1       8.865  -5.406  -1.380  0.00  0.00    -0.116 N 
ATOM     24  O   UNL d   1       8.259  -6.125  -2.188  0.00  0.00    -0.532 OA
ATOM     25  O   UNL d   1      10.098  -5.371  -1.256  0.00  0.00    -0.532 OA
ENDBRANCH  19  23
ENDBRANCH   3  17
BRANCH   3  26
ATOM     26  N   UNL d   1       3.761  -4.784  -0.361  0.00  0.00    -0.286 NA
ATOM     27  H   UNL d   1       2.760  -4.744  -0.199  0.00  0.00     0.125 HD
ATOM     28  H   UNL d   1       4.161  -5.666  -0.060  0.00  0.00     0.125 HD
ENDBRANCH   3  26
TORSDOF 6
