REMARK  11 active torsions:
REMARK  status: ('A' for Active; 'I' for Inactive)
REMARK    1  A    between atoms: N_2  and  C_1 
REMARK    2  A    between atoms: O_14  and  C_3 
REMARK    3  A    between atoms: C_4  and  C_8 
REMARK    4  A    between atoms: C_5  and  C_11 
REMARK    5  A    between atoms: O_18  and  C_7 
REMARK    6  A    between atoms: C_8  and  O_13 
REMARK    7  A    between atoms: O_13  and  N_9 
REMARK    8  A    between atoms: C_12  and  C_20 
REMARK    9  A    between atoms: N_29  and  C_12 
REMARK   10  A    between atoms: C_31  and  O_14 
REMARK   11  A    between atoms: C_30  and  O_18 
ROOT
ATOM      1  N   UNL d   1       8.249   2.212  -0.184  0.00  0.00    -0.246 N 
ATOM      2  HN  UNL d   1       9.252   2.172  -0.369  1.00  0.00     0.196 HD
ATOM      3  C   UNL d   1       7.355   1.541  -0.849  0.00  0.00     0.109 C 
ENDROOT
BRANCH   3   4
ATOM      4  C   UNL d   1       7.824   0.688  -1.984  0.00  0.00     0.004 A 
ATOM      5  C   UNL d   1       7.158  -0.501  -2.313  0.00  0.00     0.017 A 
ATOM      6  C   UNL d   1       7.604  -1.275  -3.390  0.00  0.00     0.038 A 
ATOM      7  C   UNL d   1       8.709  -0.865  -4.138  0.00  0.00     0.076 A 
ATOM      8  C   UNL d   1       9.338   0.351  -3.842  0.00  0.00     0.038 A 
ATOM      9  C   UNL d   1       8.915   1.109  -2.749  0.00  0.00     0.017 A 
BRANCH   7  10
ATOM     10  O   UNL d   1       9.098  -1.692  -5.171  0.00  0.00    -0.308 OA
BRANCH  10  11
ATOM     11  C   UNL d   1      10.443  -1.790  -5.450  0.00  0.00     0.109 A 
ATOM     12  C   UNL d   1      10.884  -1.808  -6.777  0.00  0.00     0.137 A 
ATOM     13  C   UNL d   1      12.248  -1.895  -7.097  0.00  0.00     0.055 A 
ATOM     14  C   UNL d   1      13.200  -1.973  -6.069  0.00  0.00     0.050 A 
ATOM     15  C   UNL d   1      12.756  -2.005  -4.737  0.00  0.00     0.019 A 
ATOM     16  C   UNL d   1      11.393  -1.937  -4.433  0.00  0.00     0.040 A 
BRANCH  12  17
ATOM     17  N   UNL d   1       9.932  -1.731  -7.868  0.00  0.00    -0.113 N 
ATOM     18  O   UNL d   1      10.006  -2.610  -8.736  0.00  0.00    -0.532 OA
ATOM     19  O   UNL d   1       9.154  -0.768  -7.883  0.00  0.00    -0.532 OA
ENDBRANCH  12  17
BRANCH  14  20
ATOM     20  C   UNL d   1      14.682  -2.008  -6.365  0.00  0.00     0.417 C 
ATOM     21  F   UNL d   1      14.965  -2.111  -7.692  0.00  0.00    -0.166 F 
ATOM     22  F   UNL d   1      15.317  -0.885  -5.931  0.00  0.00    -0.166 F 
ATOM     23  F   UNL d   1      15.310  -3.053  -5.762  0.00  0.00    -0.166 F 
ENDBRANCH  14  20
ENDBRANCH  10  11
ENDBRANCH   7  10
ENDBRANCH   3   4
BRANCH   3  24
ATOM     24  N   UNL d   1       6.003   1.595  -0.595  0.00  0.00    -0.286 NA
ATOM     25  H   UNL d   1       5.748   2.413  -0.055  0.00  0.00     0.125 HD
ATOM     26  H   UNL d   1       5.406   1.470  -1.406  0.00  0.00     0.125 HD
ENDBRANCH   3  24
BRANCH   1  27
ATOM     27  O   UNL d   1       7.660   3.001   0.823  0.00  0.00    -0.193 OA
BRANCH  27  28
ATOM     28  C   UNL d   1       8.615   3.495   1.676  0.00  0.00     0.319 C 
ATOM     29  O   UNL d   1       9.811   3.264   1.655  0.00  0.00    -0.257 OA
BRANCH  28  30
ATOM     30  C   UNL d   1       7.941   4.378   2.668  0.00  0.00     0.092 A 
ATOM     31  C   UNL d   1       8.664   5.264   3.466  0.00  0.00     0.164 A 
ATOM     32  N   UNL d   1       8.081   6.039   4.426  0.00  0.00    -0.346 N 
ATOM     33  C   UNL d   1       6.744   5.987   4.561  0.00  0.00     0.090 A 
ATOM     34  HN  UNL d   1       8.644   6.642   5.025  1.00  0.00     0.167 HD
ATOM     35  C   UNL d   1       5.938   5.175   3.791  0.00  0.00     0.018 A 
ATOM     36  C   UNL d   1       6.546   4.352   2.845  0.00  0.00     0.023 A 
BRANCH  31  37
ATOM     37  O   UNL d   1      10.037   5.383   3.292  0.00  0.00    -0.293 OA
BRANCH  37  38
ATOM     38  C   UNL d   1      10.631   6.559   3.701  0.00  0.00     0.077 A 
ATOM     39  C   UNL d   1      11.807   6.459   4.446  0.00  0.00     0.037 A 
ATOM     40  C   UNL d   1      12.449   7.617   4.892  0.00  0.00     0.003 A 
ATOM     41  C   UNL d   1      11.925   8.872   4.581  0.00  0.00     0.000 A 
ATOM     42  C   UNL d   1      10.772   8.973   3.803  0.00  0.00     0.003 A 
ATOM     43  C   UNL d   1      10.136   7.818   3.347  0.00  0.00     0.037 A 
ENDBRANCH  37  38
ENDBRANCH  31  37
ENDBRANCH  28  30
ENDBRANCH  27  28
ENDBRANCH   1  27
TORSDOF 11
