REMARK  5 active torsions:
REMARK  status: ('A' for Active; 'I' for Inactive)
REMARK    1  A    between atoms: C_10  and  C_1 
REMARK    2  A    between atoms: C_7  and  C_2 
REMARK    3  A    between atoms: C_6  and  O_9 
REMARK    4  A    between atoms: O_19  and  C_8 
REMARK    5  A    between atoms: O_9  and  C_10 
ROOT
ATOM      1  C   UNL d   1       1.401  -0.299   0.056  0.00  0.00     0.000 A 
ATOM      2  C   UNL d   1      -0.909  -1.122  -0.033  0.00  0.00     0.010 A 
ATOM      3  C   UNL d   1       0.469  -1.361   0.007  0.00  0.00     0.027 A 
ATOM      4  C   UNL d   1       0.912   1.022   0.019  0.00  0.00     0.076 A 
ATOM      5  C   UNL d   1      -1.376   0.194  -0.087  0.00  0.00     0.018 A 
ATOM      6  C   UNL d   1      -0.469   1.251  -0.049  0.00  0.00     0.038 A 
ENDROOT
BRANCH   1   7
ATOM      7  C   UNL d   1       2.880  -0.601   0.148  0.00  0.00     0.217 C 
BRANCH   7   8
ATOM      8  O   UNL d   1       3.171  -1.995   0.304  0.00  0.00    -0.345 OA
BRANCH   8   9
ATOM      9  C   UNL d   1       4.506  -2.310   0.379  0.00  0.00     0.090 A 
ATOM     10  C   UNL d   1       4.862  -3.459   1.105  0.00  0.00     0.069 A 
ATOM     11  C   UNL d   1       6.202  -3.843   1.216  0.00  0.00     0.050 A 
ATOM     12 CL   UNL d   1       3.668  -4.424   1.895  0.00  0.00    -0.081 Cl
ATOM     13  C   UNL d   1       7.188  -3.090   0.589  0.00  0.00     0.035 A 
ATOM     14  C   UNL d   1       6.851  -1.965  -0.157  0.00  0.00     0.026 A 
ATOM     15 CL   UNL d   1       8.840  -3.553   0.724  0.00  0.00    -0.084 Cl
ATOM     16  C   UNL d   1       5.511  -1.580  -0.265  0.00  0.00     0.040 A 
ENDBRANCH   8   9
ENDBRANCH   7   8
ENDBRANCH   1   7
BRANCH   4  17
ATOM     17  O   UNL d   1       1.642   2.172   0.155  0.00  0.00    -0.355 OA
ATOM     18  C   UNL d   1       2.844   2.296  -0.591  0.00  0.00     0.210 C 
ENDBRANCH   4  17
BRANCH   2  19
ATOM     19  C   UNL d   1      -1.913  -2.228  -0.013  0.00  0.00     0.155 C 
ATOM     20  O   UNL d   1      -3.023  -2.037  -0.501  0.00  0.00    -0.293 OA
ATOM     21  C   UNL d   1      -1.566  -3.538   0.645  0.00  0.00     0.096 C 
ENDBRANCH   2  19
TORSDOF 5
