REMARK  8 active torsions:
REMARK  status: ('A' for Active; 'I' for Inactive)
REMARK    1  A    between atoms: C_5  and  C_1 
REMARK    2  A    between atoms: C_7  and  C_1 
REMARK    3  A    between atoms: C_2  and  C_6 
REMARK    4  A    between atoms: N_8  and  N_3 
REMARK    5  A    between atoms: C_9  and  C_5 
REMARK       I    between atoms: C_6  and  N_8 
REMARK    6  A    between atoms: O_15  and  C_7 
REMARK    7  A    between atoms: O_16  and  C_9 
REMARK    8  A    between atoms: N_14  and  C_10 
ROOT
ATOM      1  C   UNL d   1       0.216   3.192  -1.481  0.00  0.00     0.271 C 
ATOM      2  N   UNL d   1       0.910   2.019  -1.202  0.00  0.00    -0.265 N 
ATOM      3  O   UNL d   1       0.821   4.107  -2.039  0.00  0.00    -0.266 OA
ATOM      4  H   UNL d   1       1.872   2.016  -1.518  0.00  0.00     0.190 HD
ENDROOT
BRANCH   2   5
ATOM      5  N   UNL d   1       0.380   0.987  -0.508  0.00  0.00    -0.296 N 
ATOM      6  C   UNL d   1       1.125   0.065   0.026  0.00  0.00     0.110 C 
ATOM      7  HN  UNL d   1      -0.633   0.929  -0.400  1.00  0.00     0.187 HD
BRANCH   6   8
ATOM      8  C   UNL d   1       2.626  -0.002   0.057  0.00  0.00     0.176 C 
BRANCH   8   9
ATOM      9  C   UNL d   1       3.155   0.118   1.457  0.00  0.00     0.264 C 
ATOM     10  O   UNL d   1       2.466   0.257   2.456  0.00  0.00    -0.265 OA
BRANCH   9  11
ATOM     11  O   UNL d   1       4.516   0.080   1.436  0.00  0.00    -0.326 OA
ATOM     12  C   UNL d   1       5.140   0.243   2.712  0.00  0.00     0.213 C 
ENDBRANCH   9  11
ENDBRANCH   8   9
ENDBRANCH   6   8
BRANCH   6  13
ATOM     13  C   UNL d   1       0.413  -1.092   0.731  0.00  0.00     0.307 C 
ATOM     14  O   UNL d   1       0.932  -2.190   0.828  0.00  0.00    -0.258 OA
BRANCH  13  15
ATOM     15  O   UNL d   1      -0.805  -0.714   1.163  0.00  0.00    -0.322 OA
ATOM     16  C   UNL d   1      -1.555  -1.745   1.802  0.00  0.00     0.213 C 
ENDBRANCH  13  15
ENDBRANCH   6  13
ENDBRANCH   2   5
BRANCH   1  17
ATOM     17  C   UNL d   1      -1.203   3.369  -1.019  0.00  0.00     0.054 A 
ATOM     18  C   UNL d   1      -1.653   4.638  -0.587  0.00  0.00     0.021 A 
ATOM     19  C   UNL d   1      -2.964   4.756  -0.095  0.00  0.00     0.024 A 
ATOM     20  C   UNL d   1      -3.802   3.645   0.013  0.00  0.00     0.002 A 
ATOM     21  C   UNL d   1      -3.365   2.405  -0.432  0.00  0.00     0.001 A 
ATOM     22  C   UNL d   1      -2.084   2.275  -0.968  0.00  0.00     0.019 A 
BRANCH  18  23
ATOM     23  N   UNL d   1      -0.936   5.825  -0.810  0.00  0.00    -0.302 NA
ATOM     24  H   UNL d   1       0.047   5.675  -1.047  0.00  0.00     0.124 HD
ATOM     25  H   UNL d   1      -1.099   6.572  -0.146  0.00  0.00     0.124 HD
ENDBRANCH  18  23
ENDBRANCH   1  17
TORSDOF 8
