REMARK  3 active torsions:
REMARK  status: ('A' for Active; 'I' for Inactive)
REMARK    1  A    between atoms: C_6  and  N_1 
REMARK    2  A    between atoms: N_7  and  C_6 
REMARK    3  A    between atoms: C_11  and  N_7 
ROOT
ATOM      1  N   UNL d   1       0.814  -1.487  -0.002  0.00  0.00    -0.293 N 
ATOM      2  C   UNL d   1       0.338  -0.619  -0.973  0.00  0.00     0.300 A 
ATOM      3  C   UNL d   1       0.230   0.760  -0.270  0.00  0.00     0.252 A 
ATOM      4  C   UNL d   1       0.648   0.529   1.111  0.00  0.00     0.047 A 
ATOM      5  C   UNL d   1       0.970  -0.822   1.226  0.00  0.00     0.053 A 
ATOM      6  O   UNL d   1       0.037  -0.842  -2.125  0.00  0.00    -0.263 OA
ATOM      7  O   UNL d   1      -0.136   1.809  -0.760  0.00  0.00    -0.281 OA
ATOM      8  C   UNL d   1       0.722   1.412   2.170  0.00  0.00     0.018 A 
ATOM      9  C   UNL d   1       1.377  -1.340   2.442  0.00  0.00     0.031 A 
ATOM     10  C   UNL d   1       1.145   0.898   3.397  0.00  0.00     0.001 A 
ATOM     11  C   UNL d   1       1.467  -0.466   3.533  0.00  0.00     0.002 A 
ENDROOT
BRANCH   1  12
ATOM     12  C   UNL d   1       0.945  -2.905  -0.202  0.00  0.00     0.256 C 
BRANCH  12  13
ATOM     13  N   UNL d   1       2.314  -3.273   0.091  0.00  0.00    -0.371 N 
ATOM     14  H   UNL d   1       2.988  -2.542  -0.104  0.00  0.00     0.161 HD
BRANCH  13  15
ATOM     15  C   UNL d   1       2.778  -4.577  -0.068  0.00  0.00     0.068 A 
ATOM     16  C   UNL d   1       1.971  -5.690  -0.375  0.00  0.00     0.145 A 
ATOM     17  C   UNL d   1       2.470  -6.992  -0.380  0.00  0.00     0.086 A 
ATOM     18  F   UNL d   1       0.674  -5.525  -0.678  0.00  0.00    -0.204 F 
ATOM     19  C   UNL d   1       3.798  -7.204  -0.049  0.00  0.00     0.119 A 
ATOM     20  C   UNL d   1       4.631  -6.139   0.266  0.00  0.00     0.044 A 
ATOM     21  F   UNL d   1       4.281  -8.453  -0.017  0.00  0.00    -0.206 F 
ATOM     22  C   UNL d   1       4.122  -4.836   0.254  0.00  0.00     0.035 A 
ENDBRANCH  13  15
ENDBRANCH  12  13
ENDBRANCH   1  12
TORSDOF 3
