REMARK  4 active torsions:
REMARK  status: ('A' for Active; 'I' for Inactive)
REMARK    1  A    between atoms: N_2  and  C_1 
REMARK       I    between atoms: N_3  and  C_4 
REMARK       I    between atoms: C_5  and  N_3 
REMARK       I    between atoms: C_4  and  N_7 
REMARK    2  A    between atoms: C_9  and  C_5 
REMARK    3  A    between atoms: N_10  and  C_6 
REMARK    4  A    between atoms: C_8  and  C_12 
ROOT
ATOM      1  N   UNL d   1       2.158  -7.331  -0.441  0.00  0.00    -0.275 N 
ATOM      2  C   UNL d   1       2.927  -6.395   0.229  0.00  0.00     0.325 C 
ATOM      3  C   UNL d   1       2.457  -8.622  -0.857  0.00  0.00     0.262 C 
ATOM      4  N   UNL d   1       2.263  -5.160   0.367  0.00  0.00    -0.331 N 
ATOM      5  N   UNL d   1       1.131  -2.513   0.472  0.00  0.00    -0.376 N 
ATOM      6  O   UNL d   1       4.027  -6.615   0.722  0.00  0.00    -0.247 OA
ATOM      7  O   UNL d   1       3.572  -9.117  -0.922  0.00  0.00    -0.267 OA
ATOM      8  C   UNL d   1       1.298  -4.668  -0.638  0.00  0.00     0.147 C 
ATOM      9  C   UNL d   1       2.973  -4.083   1.084  0.00  0.00     0.147 C 
ATOM     10  C   UNL d   1       0.339  -3.625  -0.062  0.00  0.00     0.143 C 
ATOM     11  C   UNL d   1       2.040  -2.940   1.568  0.00  0.00     0.143 C 
ATOM     12  H   UNL d   1       1.181  -7.119  -0.389  0.00  0.00     0.173 HD
ENDROOT
BRANCH   3  13
ATOM     13  C   UNL d   1       1.258  -9.425  -1.284  0.00  0.00     0.070 A 
ATOM     14  C   UNL d   1      -0.004  -8.849  -1.480  0.00  0.00     0.132 A 
ATOM     15  F   UNL d   1      -0.188  -7.527  -1.358  0.00  0.00    -0.205 F 
ATOM     16  C   UNL d   1      -1.123  -9.621  -1.783  0.00  0.00     0.043 A 
ATOM     17  C   UNL d   1      -0.995 -10.993  -1.907  0.00  0.00     0.003 A 
ATOM     18  C   UNL d   1       0.259 -11.588  -1.761  0.00  0.00     0.001 A 
ATOM     19  C   UNL d   1       1.383 -10.808  -1.455  0.00  0.00     0.020 A 
ENDBRANCH   3  13
BRANCH   5  20
ATOM     20  C   UNL d   1       0.627  -1.222   0.417  0.00  0.00     0.063 A 
ATOM     21  C   UNL d   1       1.431  -0.069   0.324  0.00  0.00     0.130 A 
ATOM     22  C   UNL d   1       0.905   1.237   0.268  0.00  0.00     0.054 A 
ATOM     23  C   UNL d   1      -0.479   1.432   0.272  0.00  0.00     0.050 A 
ATOM     24  C   UNL d   1      -1.306   0.304   0.298  0.00  0.00     0.018 A 
ATOM     25  C   UNL d   1      -0.761  -0.987   0.380  0.00  0.00     0.032 A 
BRANCH  21  26
ATOM     26  N   UNL d   1       2.869  -0.185   0.169  0.00  0.00    -0.113 N 
ATOM     27  O   UNL d   1       3.297  -0.738  -0.850  0.00  0.00    -0.532 OA
ATOM     28  O   UNL d   1       3.565   0.332   1.057  0.00  0.00    -0.532 OA
ENDBRANCH  21  26
BRANCH  23  29
ATOM     29  C   UNL d   1      -1.089   2.812   0.255  0.00  0.00     0.417 C 
ATOM     30  F   UNL d   1      -0.167   3.812   0.308  0.00  0.00    -0.166 F 
ATOM     31  F   UNL d   1      -1.833   3.042  -0.861  0.00  0.00    -0.166 F 
ATOM     32  F   UNL d   1      -1.923   3.015   1.312  0.00  0.00    -0.166 F 
ENDBRANCH  23  29
ENDBRANCH   5  20
TORSDOF 4
