REMARK  4 active torsions:
REMARK  status: ('A' for Active; 'I' for Inactive)
REMARK    1  A    between atoms: C_4  and  C_1 
REMARK    2  A    between atoms: C_2  and  C_6 
REMARK    3  A    between atoms: C_3  and  C_5 
REMARK       I    between atoms: N_7  and  C_4 
REMARK    4  A    between atoms: C_8  and  N_7 
ROOT
ATOM      1  C   UNL d   1      -1.355  -3.078  -1.268  0.00  0.00     0.050 A 
ATOM      2  C   UNL d   1      -0.684  -2.909  -3.604  0.00  0.00     0.050 A 
ATOM      3  C   UNL d   1      -0.464  -0.973  -2.125  0.00  0.00     0.036 A 
ATOM      4  C   UNL d   1      -1.201  -3.656  -2.537  0.00  0.00     0.032 A 
ATOM      5  C   UNL d   1      -0.984  -1.734  -1.077  0.00  0.00     0.045 A 
ATOM      6  C   UNL d   1      -0.330  -1.565  -3.386  0.00  0.00     0.045 A 
ENDROOT
BRANCH   3   7
ATOM      7  N   UNL d   1      -0.051   0.370  -2.001  0.00  0.00    -0.323 N 
ATOM      8  C   UNL d   1       0.003   1.150  -0.846  0.00  0.00     0.277 C 
ATOM      9  O   UNL d   1      -0.309   0.729   0.271  0.00  0.00    -0.268 OA
ATOM     10  H   UNL d   1       0.268   0.818  -2.857  0.00  0.00     0.169 HD
BRANCH   8  11
ATOM     11  C   UNL d   1       0.556   2.591  -1.039  0.00  0.00     0.269 C 
ATOM     12 CL   UNL d   1       0.599   3.049  -2.771  0.00  0.00    -0.073 Cl
ATOM     13 CL   UNL d   1       2.215   2.629  -0.389  0.00  0.00    -0.073 Cl
ATOM     14 CL   UNL d   1      -0.486   3.741  -0.166  0.00  0.00    -0.073 Cl
ENDBRANCH   8  11
ENDBRANCH   3   7
BRANCH   1  15
ATOM     15  C   UNL d   1      -1.921  -3.868  -0.110  0.00  0.00     0.417 C 
ATOM     16  F   UNL d   1      -2.093  -5.189  -0.393  0.00  0.00    -0.166 F 
ATOM     17  F   UNL d   1      -1.125  -3.825   0.994  0.00  0.00    -0.166 F 
ATOM     18  F   UNL d   1      -3.140  -3.409   0.283  0.00  0.00    -0.166 F 
ENDBRANCH   1  15
BRANCH   2  19
ATOM     19  C   UNL d   1      -0.505  -3.519  -4.974  0.00  0.00     0.417 C 
ATOM     20  F   UNL d   1      -0.740  -4.859  -5.009  0.00  0.00    -0.166 F 
ATOM     21  F   UNL d   1      -1.336  -2.965  -5.898  0.00  0.00    -0.166 F 
ATOM     22  F   UNL d   1       0.757  -3.346  -5.455  0.00  0.00    -0.166 F 
ENDBRANCH   2  19
TORSDOF 4
