REMARK  1 active torsions:
REMARK  status: ('A' for Active; 'I' for Inactive)
REMARK    1  A    between atoms: N_9  and  C_1 
ROOT
ATOM      1  C   UNL d   1      -0.672   1.169  -0.129  0.00  0.00     0.154 A 
ATOM      2  N   UNL d   1      -1.389   0.041  -0.073  0.00  0.00    -0.342 N 
ATOM      3  HN  UNL d   1      -2.408   0.053  -0.078  1.00  0.00     0.167 HD
ATOM      4  N   UNL d   1       0.663   1.229  -0.083  0.00  0.00    -0.342 N 
ATOM      5  HN  UNL d   1       1.162   2.118  -0.095  1.00  0.00     0.167 HD
ATOM      6  C   UNL d   1       0.681  -1.169   0.014  0.00  0.00     0.041 A 
ATOM      7  C   UNL d   1      -0.691  -1.114  -0.010  0.00  0.00     0.111 A 
ATOM      8  C   UNL d   1       1.317   0.048  -0.019  0.00  0.00     0.111 A 
ATOM      9 BR   UNL d   1       1.621  -2.792   0.086  0.00  0.00    -0.048 Br
ENDROOT
BRANCH   1  10
ATOM     10  N   UNL d   1      -1.361   2.359  -0.204  0.00  0.00    -0.274 NA
ATOM     11  H   UNL d   1      -2.292   2.246   0.171  0.00  0.00     0.127 HD
ATOM     12  H   UNL d   1      -0.796   3.112   0.164  0.00  0.00     0.127 HD
ENDBRANCH   1  10
TORSDOF 1
