REMARK  1 active torsions:
REMARK  status: ('A' for Active; 'I' for Inactive)
REMARK    1  A    between atoms: C_9  and  C_2 
ROOT
ATOM      1  N   UNL d   1      -5.974  -2.508   5.695  0.00  0.00    -0.191 NA
ATOM      2  C   UNL d   1      -5.396  -2.155   4.755  0.00  0.00     0.099 C 
ATOM      3  C   UNL d   1      -3.229  -0.923   1.306  0.00  0.00    -0.015 A 
ATOM      4  C   UNL d   1      -2.851  -0.484   2.586  0.00  0.00     0.012 A 
ATOM      5  C   UNL d   1      -4.347  -1.767   1.189  0.00  0.00     0.012 A 
ATOM      6  C   UNL d   1      -4.674  -1.727   3.589  0.00  0.00     0.044 A 
ATOM      7  C   UNL d   1      -5.066  -2.163   2.322  0.00  0.00     0.023 A 
ATOM      8  C   UNL d   1      -3.569  -0.883   3.719  0.00  0.00     0.023 A 
ENDROOT
BRANCH   3   9
ATOM      9  C   UNL d   1      -2.409  -0.582   0.066  0.00  0.00     0.239 C 
ATOM     10  N   UNL d   1      -1.379  -1.615  -0.145  0.00  0.00    -0.260 NA
ATOM     11  C   UNL d   1      -0.207  -0.847  -0.040  0.00  0.00     0.046 A 
ATOM     12  H   UNL d   1      -1.397  -2.362   0.544  0.00  0.00     0.130 HD
ATOM     13  C   UNL d   1      -0.480   0.505   0.056  0.00  0.00     0.092 A 
ATOM     14  C   UNL d   1       1.096  -1.304  -0.071  0.00  0.00     0.050 A 
ATOM     15  C   UNL d   1       0.513   1.463   0.092  0.00  0.00     0.040 A 
ATOM     16  O   UNL d   1      -1.822   0.747   0.150  0.00  0.00    -0.324 OA
ATOM     17  C   UNL d   1       1.837   1.020   0.047  0.00  0.00     0.026 A 
ATOM     18  C   UNL d   1       2.121  -0.355  -0.021  0.00  0.00     0.035 A 
ATOM     19 CL   UNL d   1       3.762  -0.878  -0.045  0.00  0.00    -0.084 Cl
ENDBRANCH   3   9
TORSDOF 1
