REMARK  3 active torsions:
REMARK  status: ('A' for Active; 'I' for Inactive)
REMARK       I    between atoms: C_2  and  N_1 
REMARK    1  A    between atoms: C_3  and  N_1 
REMARK    2  A    between atoms: C_4  and  C_2 
REMARK    3  A    between atoms: O_12  and  N_6 
ROOT
ATOM      1  N   UNL d   1       1.157   0.262   0.216  0.00  0.00    -0.322 N 
ATOM      2  C   UNL d   1       0.441   1.397   0.531  0.00  0.00     0.263 C 
ATOM      3  O   UNL d   1       0.839   2.523   0.781  0.00  0.00    -0.267 OA
ATOM      4  H   UNL d   1       0.640  -0.607   0.308  0.00  0.00     0.169 HD
ENDROOT
BRANCH   1   5
ATOM      5  C   UNL d   1       2.560   0.127   0.091  0.00  0.00     0.041 A 
ATOM      6  C   UNL d   1       3.473   1.139  -0.260  0.00  0.00    -0.034 A 
ATOM      7  C   UNL d   1       4.857   0.862  -0.198  0.00  0.00     0.032 A 
ATOM      8  C   UNL d   1       3.102   2.510  -0.758  0.00  0.00     0.050 C 
ATOM      9  C   UNL d   1       5.324  -0.412   0.111  0.00  0.00     0.034 A 
ATOM     10  C   UNL d   1       4.425  -1.439   0.351  0.00  0.00     0.026 A 
ATOM     11 CL   UNL d   1       7.015  -0.717   0.168  0.00  0.00    -0.084 Cl
ATOM     12  C   UNL d   1       3.054  -1.169   0.339  0.00  0.00     0.032 A 
ENDBRANCH   1   5
BRANCH   2  13
ATOM     13  C   UNL d   1      -1.047   1.151   0.580  0.00  0.00     0.188 C 
ATOM     14  N   UNL d   1      -1.718   1.400   1.656  0.00  0.00    -0.275 N 
ATOM     15  HN  UNL d   1      -1.326   1.747   2.532  1.00  0.00     0.193 HD
BRANCH  14  16
ATOM     16  O   UNL d   1      -3.069   1.117   1.426  0.00  0.00    -0.290 OA
ATOM     17  H   UNL d   1      -3.499   1.503   2.214  0.00  0.00     0.244 HD
ENDBRANCH  14  16
ENDBRANCH   2  13
TORSDOF 3
