REMARK  6 active torsions:
REMARK  status: ('A' for Active; 'I' for Inactive)
REMARK    1  A    between atoms: C_10  and  C_2 
REMARK    2  A    between atoms: N_5  and  C_9 
REMARK    3  A    between atoms: S_12  and  C_6 
REMARK    4  A    between atoms: C_16  and  S_12 
REMARK    5  A    between atoms: C_13  and  C_16 
REMARK    6  A    between atoms: C_15  and  C_13 
ROOT
ATOM      1  S   UNL d   1      -0.849  -2.657  -0.654  0.00  0.00    -0.085 SA
ENDROOT
BRANCH   1   2
ATOM      2  C   UNL d   1      -0.351  -1.073  -0.191  0.00  0.00     0.160 A 
ATOM      3  N   UNL d   1      -1.163   0.017  -0.129  0.00  0.00    -0.324 N 
ATOM      4  C   UNL d   1      -0.341   1.104   0.027  0.00  0.00     0.105 A 
ATOM      5  H   UNL d   1      -2.169   0.043  -0.238  0.00  0.00     0.169 HD
ATOM      6  N   UNL d   1       0.897   0.672   0.150  0.00  0.00    -0.286 N 
ATOM      7  N   UNL d   1       0.892  -0.698  -0.001  0.00  0.00    -0.278 N 
ATOM      8  HN  UNL d   1       1.718   1.251   0.327  1.00  0.00     0.188 HD
ATOM      9  HN  UNL d   1       1.707  -1.309   0.030  1.00  0.00     0.189 HD
BRANCH   4  10
ATOM     10  C   UNL d   1      -0.833   2.530   0.013  0.00  0.00     0.009 C 
ATOM     11  C   UNL d   1      -1.850   2.755   1.143  0.00  0.00     0.023 C 
ATOM     12  C   UNL d   1       0.354   3.492   0.211  0.00  0.00     0.023 C 
ATOM     13  C   UNL d   1      -1.496   2.847  -1.341  0.00  0.00     0.023 C 
ENDBRANCH   4  10
ENDBRANCH   1   2
BRANCH   1  14
ATOM     14  C   UNL d   1      -2.532  -2.865  -0.046  0.00  0.00     0.166 C 
BRANCH  14  15
ATOM     15  C   UNL d   1      -3.503  -1.913  -0.705  0.00  0.00     0.169 C 
ATOM     16  O   UNL d   1      -3.727  -0.800  -0.219  0.00  0.00    -0.291 OA
BRANCH  15  17
ATOM     17  C   UNL d   1      -4.177  -2.264  -1.984  0.00  0.00     0.011 A 
ATOM     18  C   UNL d   1      -5.420  -1.663  -2.245  0.00  0.00     0.017 A 
ATOM     19  C   UNL d   1      -6.064  -1.862  -3.468  0.00  0.00     0.037 A 
ATOM     20  C   UNL d   1      -5.453  -2.656  -4.445  0.00  0.00     0.102 A 
ATOM     21  C   UNL d   1      -4.218  -3.271  -4.190  0.00  0.00     0.037 A 
ATOM     22  C   UNL d   1      -3.585  -3.079  -2.955  0.00  0.00     0.017 A 
BRANCH  20  23
ATOM     23  N   UNL d   1      -6.101  -2.828  -5.753  0.00  0.00    -0.116 N 
ATOM     24  O   UNL d   1      -7.191  -2.268  -5.931  0.00  0.00    -0.532 OA
ATOM     25  O   UNL d   1      -5.515  -3.518  -6.597  0.00  0.00    -0.532 OA
ENDBRANCH  20  23
ENDBRANCH  15  17
ENDBRANCH  14  15
ENDBRANCH   1  14
TORSDOF 6
