REMARK  1 active torsions:
REMARK  status: ('A' for Active; 'I' for Inactive)
REMARK    1  A    between atoms: C_8  and  C_6 
ROOT
ATOM      1  C   UNL d   1       2.099   1.262   0.045  0.00  0.00     0.026 C 
ATOM      2  N   UNL d   1       1.020   1.398  -0.651  0.00  0.00    -0.357 N 
ATOM      3  HN  UNL d   1       1.045   2.113  -1.378  1.00  0.00     0.166 HD
ATOM      4  C   UNL d   1       2.486   0.214   1.034  0.00  0.00     0.056 C 
ATOM      5  S   UNL d   1       0.581  -1.841   0.686  0.00  0.00    -0.117 SA
ATOM      6  C   UNL d   1       2.260  -1.203   0.540  0.00  0.00     0.102 C 
ATOM      7  C   UNL d   1       3.039   2.395   0.134  0.00  0.00    -0.007 A 
ATOM      8  C   UNL d   1      -0.184   0.683  -0.534  0.00  0.00     0.049 A 
ATOM      9  C   UNL d   1      -0.469  -0.606  -0.051  0.00  0.00     0.028 A 
ATOM     10  C   UNL d   1       1.980   0.761   2.366  0.00  0.00     0.017 C 
ATOM     11  C   UNL d   1       3.379   2.767   1.454  0.00  0.00    -0.046 A 
ATOM     12  C   UNL d   1       2.683   2.124   2.651  0.00  0.00     0.040 C 
ATOM     13  C   UNL d   1       3.671   2.931  -0.982  0.00  0.00     0.014 A 
ATOM     14  C   UNL d   1      -1.286   1.476  -0.937  0.00  0.00     0.031 A 
ATOM     15  C   UNL d   1      -1.817  -1.055  -0.048  0.00  0.00     0.021 A 
ATOM     16  C   UNL d   1       4.408   3.693   1.631  0.00  0.00     0.008 A 
ATOM     17  C   UNL d   1       4.711   3.837  -0.779  0.00  0.00     0.001 A 
ATOM     18  C   UNL d   1      -2.611   1.035  -0.885  0.00  0.00     0.002 A 
ATOM     19  C   UNL d   1      -2.877  -0.248  -0.454  0.00  0.00     0.002 A 
ATOM     20  C   UNL d   1       5.083   4.208   0.519  0.00  0.00     0.001 A 
ENDROOT
BRANCH   6  21
ATOM     21  C   UNL d   1       3.219  -2.114   1.309  0.00  0.00    -0.003 A 
ATOM     22  S   UNL d   1       4.786  -2.438   0.674  0.00  0.00    -0.105 SA
ATOM     23  C   UNL d   1       5.277  -3.231   2.106  0.00  0.00     0.050 A 
ATOM     24  C   UNL d   1       4.259  -3.311   3.028  0.00  0.00     0.008 A 
ATOM     25  C   UNL d   1       3.073  -2.677   2.567  0.00  0.00     0.016 A 
ENDBRANCH   6  21
TORSDOF 1
