REMARK  5 active torsions:
REMARK  status: ('A' for Active; 'I' for Inactive)
REMARK    1  A    between atoms: N_12  and  C_5 
REMARK    2  A    between atoms: O_17  and  C_6 
REMARK    3  A    between atoms: C_14  and  N_12 
REMARK    4  A    between atoms: C_22  and  C_13 
REMARK    5  A    between atoms: O_23  and  C_22 
ROOT
ATOM      1  N   UNL d   1       0.194   0.768  -0.091  0.00  0.00    -0.049 N 
ATOM      2  C   UNL d   1       0.255  -0.620  -0.150  0.00  0.00     0.721 A 
ATOM      3  N   UNL d   1       1.521  -0.975  -0.244  0.00  0.00    -0.019 N 
ATOM      4  HN  UNL d   1       1.904  -1.914  -0.345  1.00  0.00     0.203 HD
ATOM      5  C   UNL d   1       2.200   0.208  -0.174  0.00  0.00     0.713 A 
ATOM      6  C   UNL d   1      -1.016   1.452  -0.036  0.00  0.00     0.182 A 
ATOM      7  N   UNL d   1       1.431   1.295  -0.088  0.00  0.00    -0.108 N 
ATOM      8  HN  UNL d   1       1.710   2.275  -0.034  1.00  0.00     0.207 HD
ATOM      9  N   UNL d   1      -0.880  -1.383  -0.108  0.00  0.00    -0.191 N 
ATOM     10  HN  UNL d   1      -0.842  -2.402  -0.121  1.00  0.00     0.184 HD
ATOM     11  C   UNL d   1      -2.160   0.757  -0.023  0.00  0.00     0.086 A 
ATOM     12  C   UNL d   1      -2.015  -0.738  -0.049  0.00  0.00     0.054 A 
ENDROOT
BRANCH   5  13
ATOM     13  N   UNL d   1       3.546   0.182  -0.205  0.00  0.00    -0.189 N 
ATOM     14  H   UNL d   1       3.968  -0.716  -0.407  0.00  0.00     0.184 HD
BRANCH  13  15
ATOM     15  C   UNL d   1       4.442   1.098   0.395  0.00  0.00     0.056 A 
ATOM     16  C   UNL d   1       4.042   1.857   1.512  0.00  0.00     0.054 A 
ATOM     17  C   UNL d   1       4.901   2.778   2.106  0.00  0.00     0.036 A 
ATOM     18 CL   UNL d   1       4.374   3.678   3.475  0.00  0.00    -0.084 Cl
ATOM     19  C   UNL d   1       6.179   2.970   1.600  0.00  0.00     0.024 A 
ATOM     20  C   UNL d   1       6.590   2.241   0.485  0.00  0.00     0.011 A 
ATOM     21  C   UNL d   1       5.729   1.315  -0.138  0.00  0.00    -0.035 A 
ATOM     22  C   UNL d   1       6.241   0.610  -1.365  0.00  0.00     0.050 C 
ENDBRANCH  13  15
ENDBRANCH   5  13
BRANCH   6  23
ATOM     23  O   UNL d   1      -1.016   2.837  -0.007  0.00  0.00    -0.344 OA
ATOM     24  H   UNL d   1      -0.073   3.109  -0.052  0.00  0.00     0.219 HD
ENDBRANCH   6  23
BRANCH  12  25
ATOM     25  C   UNL d   1      -3.314  -1.533   0.017  0.00  0.00     0.224 C 
BRANCH  25  26
ATOM     26  O   UNL d   1      -4.133  -1.167  -1.089  0.00  0.00    -0.390 OA
ATOM     27  C   UNL d   1      -5.352  -1.897  -1.103  0.00  0.00     0.201 C 
ENDBRANCH  25  26
ENDBRANCH  12  25
TORSDOF 5
