REMARK  7 active torsions:
REMARK  status: ('A' for Active; 'I' for Inactive)
REMARK    1  A    between atoms: O_5  and  C_1 
REMARK    2  A    between atoms: C_9  and  C_1 
REMARK    3  A    between atoms: C_2  and  O_5 
REMARK    4  A    between atoms: C_3  and  C_10 
REMARK    5  A    between atoms: C_18  and  N_6 
REMARK    6  A    between atoms: O_22  and  C_8 
REMARK    7  A    between atoms: C_11  and  C_19 
ROOT
ATOM      1  C   UNL d   1      -1.041  -1.283   0.161  0.00  0.00     0.112 A 
ATOM      2  C   UNL d   1      -1.747  -0.895  -0.985  0.00  0.00     0.102 A 
ATOM      3  C   UNL d   1      -3.141  -1.013  -0.985  0.00  0.00     0.052 A 
ATOM      4  C   UNL d   1      -1.702  -1.811   1.275  0.00  0.00     0.041 A 
ATOM      5  C   UNL d   1      -3.812  -1.508   0.141  0.00  0.00    -0.018 A 
ATOM      6  C   UNL d   1      -3.096  -1.920   1.269  0.00  0.00     0.016 A 
ENDROOT
BRANCH   1   7
ATOM      7  O   UNL d   1       0.364  -1.234   0.228  0.00  0.00    -0.273 OA
BRANCH   7   8
ATOM      8  C   UNL d   1       0.928   0.030   0.176  0.00  0.00     0.288 C 
ATOM      9  O   UNL d   1       0.350   1.102   0.054  0.00  0.00    -0.260 OA
BRANCH   8  10
ATOM     10  C   UNL d   1       2.396  -0.019   0.394  0.00  0.00     0.084 C 
ATOM     11  C   UNL d   1       3.101  -1.127   0.671  0.00  0.00     0.025 C 
BRANCH  11  12
ATOM     12  C   UNL d   1       4.494  -1.081   0.996  0.00  0.00     0.005 A 
ATOM     13  S   UNL d   1       5.338  -2.572   1.231  0.00  0.00    -0.102 SA
ATOM     14  C   UNL d   1       6.797  -1.783   1.635  0.00  0.00     0.050 A 
ATOM     15  C   UNL d   1       6.672  -0.415   1.585  0.00  0.00     0.008 A 
ATOM     16  C   UNL d   1       5.355  -0.014   1.209  0.00  0.00     0.019 A 
ENDBRANCH  11  12
ENDBRANCH   8  10
ENDBRANCH   7   8
ENDBRANCH   1   7
BRANCH   2  17
ATOM     17  O   UNL d   1      -1.020  -0.454  -2.058  0.00  0.00    -0.353 OA
ATOM     18  C   UNL d   1      -1.721   0.395  -2.965  0.00  0.00     0.210 C 
ENDBRANCH   2  17
BRANCH   5  19
ATOM     19  C   UNL d   1      -5.292  -1.566   0.148  0.00  0.00     0.100 C 
ATOM     20  N   UNL d   1      -5.977  -1.033  -0.810  0.00  0.00    -0.365 N 
ATOM     21  HN  UNL d   1      -5.494  -0.617  -1.606  1.00  0.00     0.165 HD
BRANCH  20  22
ATOM     22  C   UNL d   1      -7.379  -1.020  -0.766  0.00  0.00     0.032 A 
ATOM     23  C   UNL d   1      -8.111  -0.741   0.394  0.00  0.00     0.031 A 
ATOM     24  C   UNL d   1      -9.506  -0.637   0.352  0.00  0.00     0.026 A 
ATOM     25  C   UNL d   1     -10.177  -0.797  -0.858  0.00  0.00     0.034 A 
ATOM     26  C   UNL d   1      -9.466  -1.066  -2.023  0.00  0.00     0.026 A 
ATOM     27 CL   UNL d   1     -11.889  -0.633  -0.916  0.00  0.00    -0.084 Cl
ATOM     28  C   UNL d   1      -8.072  -1.176  -1.972  0.00  0.00     0.031 A 
ENDBRANCH  20  22
ENDBRANCH   5  19
TORSDOF 7
