REMARK  7 active torsions:
REMARK  status: ('A' for Active; 'I' for Inactive)
REMARK    1  A    between atoms: N_2  and  C_1 
REMARK    2  A    between atoms: C_3  and  C_1 
REMARK    3  A    between atoms: C_5  and  C_1 
REMARK    4  A    between atoms: O_8  and  C_1 
REMARK       I    between atoms: C_4  and  N_2 
REMARK       I    between atoms: N_6  and  C_4 
REMARK    5  A    between atoms: O_13  and  C_5 
REMARK    6  A    between atoms: C_14  and  N_6 
REMARK    7  A    between atoms: C_15  and  O_13 
ROOT
ATOM      1  C   UNL d   1       0.913  -0.181   0.150  0.00  0.00     0.326 C 
ENDROOT
BRANCH   1   2
ATOM      2  N   UNL d   1       0.691  -0.585  -1.246  0.00  0.00    -0.295 N 
ATOM      3  C   UNL d   1       1.176   0.182  -2.270  0.00  0.00     0.323 C 
ATOM      4  N   UNL d   1       0.985  -0.403  -3.497  0.00  0.00    -0.309 N 
ATOM      5  O   UNL d   1       1.663   1.276  -2.026  0.00  0.00    -0.247 OA
ATOM      6  H   UNL d   1       0.511  -1.295  -3.506  0.00  0.00     0.170 HD
ATOM      7  H   UNL d   1       0.405  -1.541  -1.404  0.00  0.00     0.168 HD
BRANCH   4   8
ATOM      8  C   UNL d   1       1.288   0.149  -4.762  0.00  0.00     0.036 A 
ATOM      9  C   UNL d   1       1.938   1.370  -4.940  0.00  0.00     0.029 A 
ATOM     10  C   UNL d   1       2.154   1.880  -6.225  0.00  0.00     0.002 A 
ATOM     11  C   UNL d   1       1.728   1.168  -7.342  0.00  0.00     0.000 A 
ATOM     12  C   UNL d   1       1.102  -0.065  -7.176  0.00  0.00     0.002 A 
ATOM     13  C   UNL d   1       0.888  -0.575  -5.893  0.00  0.00     0.029 A 
ENDBRANCH   4   8
ENDBRANCH   1   2
BRANCH   1  14
ATOM     14  C   UNL d   1       2.408  -0.079   0.606  0.00  0.00     0.448 C 
ATOM     15  F   UNL d   1       3.275  -0.355  -0.399  0.00  0.00    -0.166 F 
ATOM     16  F   UNL d   1       2.706   1.168   1.053  0.00  0.00    -0.166 F 
ATOM     17  F   UNL d   1       2.721  -0.932   1.613  0.00  0.00    -0.166 F 
ENDBRANCH   1  14
BRANCH   1  18
ATOM     18  C   UNL d   1       0.323  -1.304   1.020  0.00  0.00     0.325 C 
ATOM     19  O   UNL d   1       0.260  -2.476   0.652  0.00  0.00    -0.259 OA
BRANCH  18  20
ATOM     20  O   UNL d   1      -0.112  -0.842   2.226  0.00  0.00    -0.318 OA
BRANCH  20  21
ATOM     21  C   UNL d   1      -0.642  -1.822   3.131  0.00  0.00     0.174 C 
ATOM     22  C   UNL d   1      -2.057  -2.216   2.750  0.00  0.00     0.034 C 
ENDBRANCH  20  21
ENDBRANCH  18  20
ENDBRANCH   1  18
BRANCH   1  23
ATOM     23  O   UNL d   1       0.181   1.037   0.304  0.00  0.00    -0.356 OA
ATOM     24  H   UNL d   1       0.618   1.660  -0.314  0.00  0.00     0.213 HD
ENDBRANCH   1  23
TORSDOF 7
