REMARK  7 active torsions:
REMARK  status: ('A' for Active; 'I' for Inactive)
REMARK    1  A    between atoms: N_2  and  C_1 
REMARK    2  A    between atoms: N_4  and  C_1 
REMARK       I    between atoms: C_3  and  N_2 
REMARK    3  A    between atoms: O_11  and  C_3 
REMARK    4  A    between atoms: C_8  and  N_4 
REMARK    5  A    between atoms: O_7  and  C_10 
REMARK    6  A    between atoms: C_9  and  O_7 
REMARK    7  A    between atoms: C_22  and  O_11 
ROOT
ATOM      1  C   UNL d   1      -1.109  -0.991  -0.693  0.00  0.00     0.034 A 
ATOM      2  C   UNL d   1      -3.885  -0.868  -1.032  0.00  0.00     0.076 A 
ATOM      3  C   UNL d   1      -1.732   0.232  -0.957  0.00  0.00     0.032 A 
ATOM      4  C   UNL d   1      -1.874  -2.161  -0.701  0.00  0.00     0.032 A 
ATOM      5  C   UNL d   1      -3.258  -2.100  -0.875  0.00  0.00     0.039 A 
ATOM      6  C   UNL d   1      -3.118   0.295  -1.128  0.00  0.00     0.039 A 
ENDROOT
BRANCH   1   7
ATOM      7  N   UNL d   1       0.287  -1.000  -0.514  0.00  0.00    -0.333 N 
ATOM      8  H   UNL d   1       0.786  -0.204  -0.909  0.00  0.00     0.168 HD
BRANCH   7   9
ATOM      9  C   UNL d   1       1.073  -1.897   0.172  0.00  0.00     0.180 C 
ATOM     10  S   UNL d   1       0.624  -2.886   1.443  0.00  0.00    -0.040 SA
BRANCH   9  11
ATOM     11  N   UNL d   1       2.383  -1.971  -0.242  0.00  0.00    -0.279 N 
ATOM     12  C   UNL d   1       2.889  -1.466  -1.410  0.00  0.00     0.366 C 
ATOM     13  O   UNL d   1       2.474  -0.464  -1.982  0.00  0.00    -0.238 OA
ATOM     14  H   UNL d   1       2.903  -2.748   0.141  0.00  0.00     0.173 HD
BRANCH  12  15
ATOM     15  O   UNL d   1       3.916  -2.242  -1.828  0.00  0.00    -0.304 OA
BRANCH  15  16
ATOM     16  C   UNL d   1       4.332  -2.016  -3.182  0.00  0.00     0.176 C 
ATOM     17  C   UNL d   1       3.447  -2.831  -4.111  0.00  0.00     0.034 C 
ENDBRANCH  15  16
ENDBRANCH  12  15
ENDBRANCH   9  11
ENDBRANCH   7   9
ENDBRANCH   1   7
BRANCH   2  18
ATOM     18  O   UNL d   1      -5.256  -0.887  -1.139  0.00  0.00    -0.311 OA
BRANCH  18  19
ATOM     19  C   UNL d   1      -5.985   0.073  -0.472  0.00  0.00     0.076 A 
ATOM     20  C   UNL d   1      -7.211   0.414  -1.048  0.00  0.00     0.039 A 
ATOM     21  C   UNL d   1      -8.007   1.404  -0.468  0.00  0.00     0.026 A 
ATOM     22  C   UNL d   1      -7.576   2.044   0.693  0.00  0.00     0.034 A 
ATOM     23  C   UNL d   1      -6.378   1.675   1.301  0.00  0.00     0.026 A 
ATOM     24 CL   UNL d   1      -8.529   3.301   1.381  0.00  0.00    -0.084 Cl
ATOM     25  C   UNL d   1      -5.593   0.670   0.731  0.00  0.00     0.039 A 
ENDBRANCH  18  19
ENDBRANCH   2  18
TORSDOF 7
