REMARK  9 active torsions:
REMARK  status: ('A' for Active; 'I' for Inactive)
REMARK    1  A    between atoms: N_4  and  C_1 
REMARK    2  A    between atoms: N_2  and  C_3 
REMARK    3  A    between atoms: C_8  and  C_6 
REMARK    4  A    between atoms: C_7  and  C_11 
REMARK    5  A    between atoms: O_16  and  C_8 
REMARK    6  A    between atoms: C_13  and  N_17 
REMARK    7  A    between atoms: C_27  and  O_16 
REMARK    8  A    between atoms: N_17  and  C_26 
REMARK    9  A    between atoms: C_26  and  C_27 
ROOT
ATOM      1  N   UNL d   1      -1.628  -0.486  -1.685  0.00  0.00    -0.385 N 
ATOM      2  H   UNL d   1      -1.013  -0.472  -0.859  0.00  0.00     0.159 HD
ENDROOT
BRANCH   1   3
ATOM      3  C   UNL d   1      -1.383   0.546  -2.598  0.00  0.00     0.061 A 
ATOM      4  C   UNL d   1      -0.161   1.249  -2.642  0.00  0.00     0.130 A 
ATOM      5  C   UNL d   1       0.127   2.237  -3.603  0.00  0.00     0.054 A 
ATOM      6  C   UNL d   1      -0.819   2.550  -4.582  0.00  0.00     0.050 A 
ATOM      7  C   UNL d   1      -2.023   1.834  -4.593  0.00  0.00     0.018 A 
ATOM      8  C   UNL d   1      -2.289   0.846  -3.628  0.00  0.00     0.032 A 
BRANCH   4   9
ATOM      9  N   UNL d   1       0.857   1.015  -1.633  0.00  0.00    -0.113 N 
ATOM     10  O   UNL d   1       1.983   0.687  -2.031  0.00  0.00    -0.532 OA
ATOM     11  O   UNL d   1       0.536   1.213  -0.453  0.00  0.00    -0.532 OA
ENDBRANCH   4   9
BRANCH   6  12
ATOM     12  C   UNL d   1      -0.561   3.633  -5.603  0.00  0.00     0.417 C 
ATOM     13  F   UNL d   1       0.625   4.275  -5.422  0.00  0.00    -0.166 F 
ATOM     14  F   UNL d   1      -0.541   3.157  -6.877  0.00  0.00    -0.166 F 
ATOM     15  F   UNL d   1      -1.517   4.603  -5.578  0.00  0.00    -0.166 F 
ENDBRANCH   6  12
ENDBRANCH   1   3
BRANCH   1  16
ATOM     16  C   UNL d   1      -3.001  -0.882  -1.347  0.00  0.00     0.152 C 
BRANCH  16  17
ATOM     17  C   UNL d   1      -3.058  -1.702  -0.036  0.00  0.00     0.145 C 
ATOM     18  C   UNL d   1      -4.511  -1.946   0.363  0.00  0.00     0.042 C 
BRANCH  17  19
ATOM     19  O   UNL d   1      -2.442  -3.005  -0.170  0.00  0.00    -0.309 OA
BRANCH  19  20
ATOM     20  C   UNL d   1      -1.097  -3.042   0.065  0.00  0.00     0.317 C 
ATOM     21  O   UNL d   1      -0.399  -2.050   0.232  0.00  0.00    -0.257 OA
BRANCH  20  22
ATOM     22  C   UNL d   1      -0.617  -4.404   0.182  0.00  0.00     0.153 A 
ATOM     23  O   UNL d   1      -1.476  -5.476   0.116  0.00  0.00    -0.282 OA
ATOM     24  C   UNL d   1      -0.724  -6.585   0.368  0.00  0.00     0.215 A 
ATOM     25  C   UNL d   1       0.597  -6.269   0.576  0.00  0.00     0.066 A 
ATOM     26  C   UNL d   1       0.668  -4.861   0.440  0.00  0.00     0.048 A 
BRANCH  24  27
ATOM     27  N   UNL d   1      -1.408  -7.838   0.417  0.00  0.00    -0.090 N 
ATOM     28  O   UNL d   1      -0.761  -8.800   0.849  0.00  0.00    -0.530 OA
ATOM     29  O   UNL d   1      -2.582  -7.870   0.024  0.00  0.00    -0.530 OA
ENDBRANCH  24  27
ENDBRANCH  20  22
ENDBRANCH  19  20
ENDBRANCH  17  19
ENDBRANCH  16  17
ENDBRANCH   1  16
TORSDOF 9
