REMARK  3 active torsions:
REMARK  status: ('A' for Active; 'I' for Inactive)
REMARK    1  A    between atoms: C_8  and  C_2 
REMARK    2  A    between atoms: S_11  and  C_5 
REMARK    3  A    between atoms: C_9  and  C_10 
ROOT
ATOM      1  N   UNL d   1      -0.266  -1.079  -0.469  0.00  0.00    -0.315 N 
ATOM      2  C   UNL d   1       0.954  -0.595  -0.030  0.00  0.00     0.134 A 
ATOM      3  N   UNL d   1       0.742   0.587   0.527  0.00  0.00    -0.283 N 
ATOM      4  HN  UNL d   1       1.451   1.165   0.977  1.00  0.00     0.188 HD
ATOM      5  C   UNL d   1      -1.176  -0.086  -0.208  0.00  0.00     0.159 A 
ATOM      6  N   UNL d   1      -0.584   0.909   0.402  0.00  0.00    -0.278 N 
ATOM      7  HN  UNL d   1      -1.029   1.768   0.726  1.00  0.00     0.189 HD
ATOM      8  C   UNL d   1      -0.560  -2.379  -1.013  0.00  0.00     0.160 C 
ENDROOT
BRANCH   2   9
ATOM      9  C   UNL d   1       2.266  -1.249  -0.089  0.00  0.00     0.009 A 
ATOM     10  C   UNL d   1       2.682  -2.042  -1.161  0.00  0.00     0.016 A 
ATOM     11  C   UNL d   1       3.939  -2.662  -1.150  0.00  0.00     0.009 A 
ATOM     12  C   UNL d   1       4.847  -2.480  -0.090  0.00  0.00    -0.051 A 
ATOM     13  C   UNL d   1       4.441  -1.637   0.955  0.00  0.00     0.009 A 
ATOM     14  C   UNL d   1       3.175  -1.036   0.955  0.00  0.00     0.016 A 
BRANCH  12  15
ATOM     15  C   UNL d   1       6.213  -3.189  -0.106  0.00  0.00    -0.024 C 
ATOM     16  C   UNL d   1       7.116  -2.824   1.096  0.00  0.00     0.019 C 
ATOM     17  C   UNL d   1       5.996  -4.715  -0.070  0.00  0.00     0.019 C 
ATOM     18  C   UNL d   1       6.991  -2.816  -1.385  0.00  0.00     0.019 C 
ENDBRANCH  12  15
ENDBRANCH   2   9
BRANCH   5  19
ATOM     19  S   UNL d   1      -2.857  -0.124  -0.612  0.00  0.00    -0.105 SA
ATOM     20  H   UNL d   1      -2.933  -1.296  -1.251  0.00  0.00     0.110 HD
ENDBRANCH   5  19
TORSDOF 3
