REMARK  5 active torsions:
REMARK  status: ('A' for Active; 'I' for Inactive)
REMARK    1  A    between atoms: C_4  and  C_1 
REMARK    2  A    between atoms: N_5  and  C_2 
REMARK       I    between atoms: C_3  and  N_7 
REMARK    3  A    between atoms: C_6  and  C_3 
REMARK    4  A    between atoms: O_19  and  C_4 
REMARK    5  A    between atoms: N_7  and  C_11 
ROOT
ATOM      1  C   UNL d   1       1.494  -0.247   0.027  0.00  0.00     0.068 A 
ATOM      2  C   UNL d   1       0.696  -1.393  -0.186  0.00  0.00     0.046 A 
ATOM      3  C   UNL d   1       0.907   1.038   0.088  0.00  0.00     0.049 A 
ATOM      4  C   UNL d   1      -0.670  -1.156  -0.448  0.00  0.00     0.032 A 
ATOM      5  C   UNL d   1      -0.460   1.235  -0.087  0.00  0.00     0.036 A 
ATOM      6  C   UNL d   1      -1.238   0.130  -0.410  0.00  0.00     0.032 A 
ENDROOT
BRANCH   5   7
ATOM      7  N   UNL d   1      -1.098   2.482   0.109  0.00  0.00    -0.321 N 
ATOM      8  C   UNL d   1      -0.514   3.645   0.592  0.00  0.00     0.279 C 
ATOM      9  O   UNL d   1       0.690   3.807   0.776  0.00  0.00    -0.265 OA
ATOM     10  H   UNL d   1      -2.107   2.514   0.006  0.00  0.00     0.169 HD
BRANCH   8  11
ATOM     11  C   UNL d   1      -1.455   4.697   0.921  0.00  0.00     0.142 A 
ATOM     12  O   UNL d   1      -2.798   4.532   0.701  0.00  0.00    -0.317 OA
ATOM     13  C   UNL d   1      -3.410   5.661   1.148  0.00  0.00     0.143 A 
ATOM     14  C   UNL d   1      -2.490   6.550   1.654  0.00  0.00     0.027 A 
ATOM     15  C   UNL d   1      -1.229   5.933   1.498  0.00  0.00     0.045 A 
ENDBRANCH   8  11
ENDBRANCH   5   7
BRANCH   1  16
ATOM     16  C   UNL d   1       2.957  -0.300   0.323  0.00  0.00     0.295 C 
ATOM     17  O   UNL d   1       3.534  -1.147   0.985  0.00  0.00    -0.259 OA
BRANCH  16  18
ATOM     18  O   UNL d   1       3.551   0.760  -0.291  0.00  0.00    -0.322 OA
ATOM     19  C   UNL d   1       4.951   0.906  -0.050  0.00  0.00     0.213 C 
ENDBRANCH  16  18
ENDBRANCH   1  16
BRANCH   2  20
ATOM     20  N   UNL d   1       1.170  -2.693  -0.086  0.00  0.00    -0.376 N 
ATOM     21  C   UNL d   1       0.305  -3.793   0.374  0.00  0.00     0.149 C 
ATOM     22  C   UNL d   1       1.171  -4.856   1.074  0.00  0.00     0.187 C 
ATOM     23  O   UNL d   1       2.219  -5.335   0.213  0.00  0.00    -0.388 OA
ATOM     24  C   UNL d   1       3.072  -4.240  -0.178  0.00  0.00     0.187 C 
ATOM     25  C   UNL d   1       2.279  -3.160  -0.937  0.00  0.00     0.149 C 
ENDBRANCH   2  20
TORSDOF 5
