REMARK  1 active torsions:
REMARK  status: ('A' for Active; 'I' for Inactive)
REMARK    1  A    between atoms: C_12  and  C_8 
ROOT
ATOM      1  C   UNL d   1      -0.203   0.764   0.002  0.00  0.00     0.129 A 
ATOM      2  N   UNL d   1      -0.255  -0.634   0.001  0.00  0.00    -0.244 N 
ATOM      3  N   UNL d   1      -1.541  -1.077  -0.005  0.00  0.00    -0.296 N 
ATOM      4  HN  UNL d   1      -1.860  -2.046  -0.021  1.00  0.00     0.187 HD
ATOM      5  C   UNL d   1      -1.507   1.195   0.000  0.00  0.00     0.077 A 
ATOM      6  N   UNL d   1       0.973   1.460   0.004  0.00  0.00    -0.345 N 
ATOM      7  HN  UNL d   1       0.994   2.480   0.002  1.00  0.00     0.167 HD
ATOM      8  C   UNL d   1      -2.302   0.027   0.013  0.00  0.00     0.037 A 
ATOM      9  C   UNL d   1       0.930  -1.388   0.004  0.00  0.00     0.034 A 
ATOM     10  C   UNL d   1       2.112  -0.744   0.007  0.00  0.00     0.051 A 
ATOM     11  C   UNL d   1       2.063   0.752   0.008  0.00  0.00     0.009 A 
ATOM     12  C   UNL d   1       0.860  -2.883   0.002  0.00  0.00     0.070 C 
ATOM     13  C   UNL d   1       3.380   1.486   0.013  0.00  0.00     0.068 C 
ENDROOT
BRANCH   8  14
ATOM     14  C   UNL d   1      -3.822  -0.068   0.001  0.00  0.00    -0.007 C 
ATOM     15  C   UNL d   1      -4.329  -0.082  -1.454  0.00  0.00     0.021 C 
ATOM     16  C   UNL d   1      -4.317  -1.348   0.710  0.00  0.00     0.021 C 
ATOM     17  C   UNL d   1      -4.462   1.136   0.728  0.00  0.00     0.021 C 
ENDBRANCH   8  14
TORSDOF 1
