REMARK  2 active torsions:
REMARK  status: ('A' for Active; 'I' for Inactive)
REMARK    1  A    between atoms: N_8  and  N_4 
REMARK    2  A    between atoms: C_10  and  C_14 
ROOT
ATOM      1  N   UNL d   1       2.932   1.246   1.685  0.00  0.00    -0.309 N 
ATOM      2  HN  UNL d   1       2.320   2.060   1.742  1.00  0.00     0.186 HD
ATOM      3  C   UNL d   1       4.161   1.257   2.086  0.00  0.00     0.120 C 
ENDROOT
BRANCH   1   4
ATOM      4  N   UNL d   1       2.523   0.025   1.169  0.00  0.00    -0.280 N 
ATOM      5  C   UNL d   1       1.246  -0.028   0.950  0.00  0.00     0.161 C 
ATOM      6  N   UNL d   1       0.760  -1.142   0.310  0.00  0.00    -0.306 N 
ATOM      7  S   UNL d   1       0.084   1.197   1.397  0.00  0.00    -0.092 SA
ATOM      8  C   UNL d   1      -0.476  -1.394  -0.230  0.00  0.00     0.224 C 
ATOM      9  H   UNL d   1       1.458  -1.846   0.112  0.00  0.00     0.171 HD
ATOM     10  C   UNL d   1      -1.564  -0.370  -0.041  0.00  0.00     0.114 C 
ATOM     11  O   UNL d   1      -0.683  -2.447  -0.833  0.00  0.00    -0.273 OA
ATOM     12  C   UNL d   1      -1.020   1.039  -0.009  0.00  0.00     0.091 C 
ATOM     13  HN  UNL d   1       3.160  -0.750   0.983  1.00  0.00     0.189 HD
ENDBRANCH   1   4
BRANCH   3  14
ATOM     14  C   UNL d   1       4.741   2.516   2.605  0.00  0.00     0.003 A 
ATOM     15  C   UNL d   1       6.006   2.567   3.201  0.00  0.00     0.047 A 
ATOM     16  C   UNL d   1       6.500   3.786   3.679  0.00  0.00     0.048 A 
ATOM     17 CL   UNL d   1       7.005   1.172   3.397  0.00  0.00    -0.083 Cl
ATOM     18  C   UNL d   1       5.738   4.948   3.556  0.00  0.00     0.035 A 
ATOM     19  C   UNL d   1       4.482   4.910   2.957  0.00  0.00     0.025 A 
ATOM     20 CL   UNL d   1       6.349   6.441   4.149  0.00  0.00    -0.084 Cl
ATOM     21  C   UNL d   1       3.985   3.695   2.484  0.00  0.00     0.016 A 
ENDBRANCH   3  14
TORSDOF 2
