REMARK  5 active torsions:
REMARK  status: ('A' for Active; 'I' for Inactive)
REMARK    1  A    between atoms: N_15  and  C_7 
REMARK    2  A    between atoms: C_8  and  N_17 
REMARK    3  A    between atoms: N_13  and  C_8 
REMARK    4  A    between atoms: C_14  and  N_13 
REMARK    5  A    between atoms: N_17  and  N_15 
ROOT
ATOM      1  N   UNL d   1      -1.937   2.598  -0.992  0.00  0.00    -0.187 NA
ATOM      2  H   UNL d   1      -2.921   2.788  -1.191  0.00  0.00     0.154 HD
ENDROOT
BRANCH   1   3
ATOM      3  C   UNL d   1      -1.779   1.425  -0.228  0.00  0.00     0.115 A 
ATOM      4  C   UNL d   1      -2.639   0.332  -0.385  0.00  0.00     0.066 A 
ATOM      5  C   UNL d   1      -2.428  -0.774   0.418  0.00  0.00     0.137 A 
ATOM      6  C   UNL d   1      -3.744  -0.018  -1.187  0.00  0.00     0.126 A 
ATOM      7  N   UNL d   1      -3.405  -1.672   0.078  0.00  0.00    -0.281 N 
ATOM      8  N   UNL d   1      -1.461  -0.919   1.340  0.00  0.00    -0.337 N 
ATOM      9  C   UNL d   1      -3.642  -2.966   0.665  0.00  0.00     0.179 C 
ATOM     10  N   UNL d   1      -4.219  -1.237  -0.913  0.00  0.00    -0.307 N 
ATOM     11  HN  UNL d   1      -5.005  -1.722  -1.345  1.00  0.00     0.186 HD
ATOM     12  C   UNL d   1      -0.673   0.171   1.398  0.00  0.00     0.183 A 
ATOM     13  HN  UNL d   1      -1.340  -1.748   1.922  1.00  0.00     0.168 HD
ATOM     14  N   UNL d   1      -0.768   1.311   0.680  0.00  0.00    -0.341 N 
ATOM     15  HN  UNL d   1      -0.099   2.069   0.813  1.00  0.00     0.167 HD
ENDBRANCH   1   3
BRANCH   1  16
ATOM     16  N   UNL d   1      -1.256   3.710  -0.470  0.00  0.00    -0.292 N 
ATOM     17  H   UNL d   1      -0.387   3.469   0.009  0.00  0.00     0.183 HD
BRANCH  16  18
ATOM     18  C   UNL d   1      -1.953   4.803  -0.007  0.00  0.00     0.187 C 
ATOM     19  S   UNL d   1      -3.623   4.912   0.076  0.00  0.00    -0.040 SA
BRANCH  18  20
ATOM     20  N   UNL d   1      -1.206   5.865   0.428  0.00  0.00    -0.330 N 
ATOM     21  H   UNL d   1      -1.708   6.526   1.015  0.00  0.00     0.168 HD
BRANCH  20  22
ATOM     22  C   UNL d   1       0.091   6.274   0.038  0.00  0.00     0.073 A 
ATOM     23  C   UNL d   1       0.693   7.309   0.770  0.00  0.00     0.145 A 
ATOM     24  C   UNL d   1       1.948   7.805   0.435  0.00  0.00     0.086 A 
ATOM     25  F   UNL d   1       0.049   7.837   1.822  0.00  0.00    -0.204 F 
ATOM     26  C   UNL d   1       2.604   7.274  -0.664  0.00  0.00     0.119 A 
ATOM     27  C   UNL d   1       2.022   6.268  -1.428  0.00  0.00     0.044 A 
ATOM     28  F   UNL d   1       3.808   7.748  -1.009  0.00  0.00    -0.206 F 
ATOM     29  C   UNL d   1       0.763   5.770  -1.080  0.00  0.00     0.036 A 
ENDBRANCH  20  22
ENDBRANCH  18  20
ENDBRANCH  16  18
ENDBRANCH   1  16
TORSDOF 5
