REMARK  6 active torsions:
REMARK  status: ('A' for Active; 'I' for Inactive)
REMARK    1  A    between atoms: C_16  and  N_3 
REMARK    2  A    between atoms: C_12  and  C_5 
REMARK    3  A    between atoms: C_9  and  C_18 
REMARK    4  A    between atoms: C_25  and  C_16 
REMARK    5  A    between atoms: C_18  and  S_21 
REMARK    6  A    between atoms: S_21  and  C_25 
ROOT
ATOM      1  C   UNL d   1       0.127   0.744   0.011  0.00  0.00     0.070 A 
ATOM      2  C   UNL d   1       0.208  -0.659   0.034  0.00  0.00     0.026 A 
ATOM      3  N   UNL d   1       2.288   0.179   0.000  0.00  0.00    -0.348 N 
ATOM      4  C   UNL d   1       1.412   1.262   0.006  0.00  0.00     0.025 A 
ATOM      5  C   UNL d   1       1.549  -1.042   0.018  0.00  0.00     0.058 A 
ATOM      6  C   UNL d   1      -1.149   1.426  -0.001  0.00  0.00     0.273 A 
ATOM      7  N   UNL d   1      -2.181  -0.827   0.042  0.00  0.00    -0.308 N 
ATOM      8  HN  UNL d   1      -3.042  -1.374   0.052  1.00  0.00     0.186 HD
ATOM      9  N   UNL d   1      -2.228   0.559  -0.005  0.00  0.00    -0.266 N 
ATOM     10  C   UNL d   1      -1.016  -1.421   0.072  0.00  0.00     0.122 A 
ATOM     11  O   UNL d   1      -1.288   2.649  -0.010  0.00  0.00    -0.266 OA
ATOM     12  C   UNL d   1       1.702   2.728   0.003  0.00  0.00     0.069 C 
ATOM     13  H   UNL d   1      -3.151   0.976  -0.012  0.00  0.00     0.190 HD
ENDROOT
BRANCH   3  14
ATOM     14  C   UNL d   1       3.751   0.194  -0.025  0.00  0.00     0.139 C 
BRANCH  14  15
ATOM     15  C   UNL d   1       4.521   1.497  -0.104  0.00  0.00     0.094 C 
BRANCH  15  16
ATOM     16  S   UNL d   1       6.322   1.212  -0.121  0.00  0.00    -0.163 SA
BRANCH  16  17
ATOM     17  C   UNL d   1       6.823   2.961  -0.135  0.00  0.00     0.117 C 
BRANCH  17  18
ATOM     18  C   UNL d   1       8.316   3.118  -0.099  0.00  0.00     0.011 A 
ATOM     19  C   UNL d   1       9.027   3.176  -1.303  0.00  0.00     0.125 A 
ATOM     20  F   UNL d   1       8.366   3.095  -2.469  0.00  0.00    -0.205 F 
ATOM     21  C   UNL d   1      10.409   3.324  -1.335  0.00  0.00     0.043 A 
ATOM     22  C   UNL d   1      11.119   3.419  -0.143  0.00  0.00     0.005 A 
ATOM     23  C   UNL d   1      10.439   3.356   1.073  0.00  0.00     0.024 A 
ATOM     24  C   UNL d   1       9.046   3.203   1.095  0.00  0.00     0.044 A 
ATOM     25 CL   UNL d   1       8.283   3.131   2.644  0.00  0.00    -0.084 Cl
ENDBRANCH  17  18
ENDBRANCH  16  17
ENDBRANCH  15  16
ENDBRANCH  14  15
ENDBRANCH   3  14
BRANCH   5  26
ATOM     26  C   UNL d   1       2.123  -2.424  -0.022  0.00  0.00    -0.008 A 
ATOM     27  C   UNL d   1       1.460  -3.457  -0.709  0.00  0.00     0.014 A 
ATOM     28  C   UNL d   1       1.969  -4.764  -0.750  0.00  0.00     0.001 A 
ATOM     29  C   UNL d   1       3.193  -5.059  -0.160  0.00  0.00     0.000 A 
ATOM     30  C   UNL d   1       3.877  -4.060   0.512  0.00  0.00     0.001 A 
ATOM     31  C   UNL d   1       3.321  -2.779   0.617  0.00  0.00     0.014 A 
ENDBRANCH   5  26
TORSDOF 6
