REMARK  6 active torsions:
REMARK  status: ('A' for Active; 'I' for Inactive)
REMARK    1  A    between atoms: C_4  and  C_1 
REMARK    2  A    between atoms: C_8  and  C_1 
REMARK    3  A    between atoms: N_5  and  N_2 
REMARK    4  A    between atoms: O_13  and  C_4 
REMARK       I    between atoms: C_6  and  N_5 
REMARK    5  A    between atoms: C_7  and  C_6 
REMARK    6  A    between atoms: O_17  and  C_14 
ROOT
ATOM      1  C   UNL d   1       1.179  -0.221  -0.408  0.00  0.00     0.132 C 
ATOM      2  N   UNL d   1       0.462  -1.221   0.032  0.00  0.00    -0.291 N 
ATOM      3  HN  UNL d   1      -0.536  -1.089   0.197  1.00  0.00     0.187 HD
ENDROOT
BRANCH   2   4
ATOM      4  N   UNL d   1       1.025  -2.436   0.275  0.00  0.00    -0.265 N 
ATOM      5  C   UNL d   1       0.250  -3.582   0.145  0.00  0.00     0.270 C 
ATOM      6  O   UNL d   1      -0.943  -3.580  -0.152  0.00  0.00    -0.266 OA
ATOM      7  H   UNL d   1       2.025  -2.487   0.437  0.00  0.00     0.190 HD
BRANCH   5   8
ATOM      8  C   UNL d   1       0.981  -4.875   0.276  0.00  0.00     0.033 A 
ATOM      9  C   UNL d   1       2.136  -5.011   1.057  0.00  0.00     0.020 A 
ATOM     10  C   UNL d   1       2.826  -6.230   1.091  0.00  0.00     0.038 A 
ATOM     11  C   UNL d   1       2.364  -7.320   0.352  0.00  0.00     0.068 A 
ATOM     12  C   UNL d   1       1.184  -7.201  -0.383  0.00  0.00     0.038 A 
ATOM     13  C   UNL d   1       0.497  -5.985  -0.428  0.00  0.00     0.020 A 
BRANCH  11  14
ATOM     14  O   UNL d   1       2.954  -8.553   0.319  0.00  0.00    -0.356 OA
ATOM     15  C   UNL d   1       4.370  -8.560   0.475  0.00  0.00     0.210 C 
ENDBRANCH  11  14
ENDBRANCH   5   8
ENDBRANCH   2   4
BRANCH   1  16
ATOM     16  C   UNL d   1       0.365   1.092  -0.505  0.00  0.00     0.195 C 
ATOM     17  O   UNL d   1       0.834   2.212  -0.455  0.00  0.00    -0.645 OA
BRANCH  16  18
ATOM     18  O   UNL d   1      -0.946   0.816  -0.640  0.00  0.00    -0.772 OA
ATOM     19  H   UNL d   1      -1.080  -0.158  -0.522  0.00  0.00     0.167 HD
ENDBRANCH  16  18
ENDBRANCH   1  16
BRANCH   1  20
ATOM     20  C   UNL d   1       2.585  -0.241  -0.922  0.00  0.00    -0.001 A 
ATOM     21  C   UNL d   1       3.078  -1.369  -1.600  0.00  0.00     0.014 A 
ATOM     22  C   UNL d   1       4.367  -1.376  -2.140  0.00  0.00     0.001 A 
ATOM     23  C   UNL d   1       5.163  -0.238  -2.057  0.00  0.00     0.000 A 
ATOM     24  C   UNL d   1       4.683   0.894  -1.405  0.00  0.00     0.001 A 
ATOM     25  C   UNL d   1       3.410   0.887  -0.825  0.00  0.00     0.014 A 
ENDBRANCH   1  20
TORSDOF 6
