REMARK  5 active torsions:
REMARK  status: ('A' for Active; 'I' for Inactive)
REMARK    1  A    between atoms: S_8  and  C_1 
REMARK    2  A    between atoms: C_9  and  S_8 
REMARK    3  A    between atoms: C_10  and  C_9 
REMARK    4  A    between atoms: C_12  and  C_10 
REMARK    5  A    between atoms: C_11  and  C_12 
ROOT
ATOM      1  C   UNL d   1      -0.444   1.156   0.001  0.00  0.00     0.160 A 
ATOM      2  N   UNL d   1       0.848   0.729   0.006  0.00  0.00    -0.331 N 
ATOM      3  N   UNL d   1      -1.255   0.128   0.001  0.00  0.00    -0.279 N 
ATOM      4  HN  UNL d   1      -2.275   0.162  -0.001  1.00  0.00     0.189 HD
ATOM      5  N   UNL d   1      -0.473  -1.010   0.005  0.00  0.00    -0.294 N 
ATOM      6  HN  UNL d   1      -0.811  -1.973   0.006  1.00  0.00     0.187 HD
ATOM      7  C   UNL d   1       0.786  -0.630   0.008  0.00  0.00     0.199 A 
ATOM      8  H   UNL d   1       1.669   1.314   0.007  0.00  0.00     0.168 HD
ENDROOT
BRANCH   1   9
ATOM      9  S   UNL d   1      -0.806   2.836  -0.003  0.00  0.00    -0.092 SA
BRANCH   9  10
ATOM     10  C   UNL d   1      -2.627   2.806  -0.006  0.00  0.00     0.082 C 
BRANCH  10  11
ATOM     11  C   UNL d   1      -3.150   4.244  -0.009  0.00  0.00     0.010 C 
BRANCH  11  12
ATOM     12  C   UNL d   1      -4.681   4.295  -0.011  0.00  0.00     0.000 C 
BRANCH  12  13
ATOM     13  C   UNL d   1      -5.182   5.741  -0.012  0.00  0.00    -0.005 C 
ATOM     14  C   UNL d   1      -6.701   5.814  -0.014  0.00  0.00     0.005 C 
ENDBRANCH  12  13
ENDBRANCH  11  12
ENDBRANCH  10  11
ENDBRANCH   9  10
ENDBRANCH   1   9
TORSDOF 5
