REMARK  3 active torsions:
REMARK  status: ('A' for Active; 'I' for Inactive)
REMARK    1  A    between atoms: N_2  and  C_1 
REMARK    2  A    between atoms: N_3  and  C_1 
REMARK    3  A    between atoms: C_4  and  C_1 
ROOT
ATOM      1  C   UNL d   1       2.311  -0.114   0.353  0.00  0.00     0.361 C 
ENDROOT
BRANCH   1   2
ATOM      2  N   UNL d   1       0.993  -0.166  -0.298  0.00  0.00    -0.377 N 
ATOM      3  C   UNL d   1       0.064  -1.212   0.139  0.00  0.00     0.149 C 
ATOM      4  C   UNL d   1      -1.288  -1.209  -0.616  0.00  0.00     0.291 C 
ATOM      5  N   UNL d   1      -1.944   0.107  -0.738  0.00  0.00     0.087 N 
ATOM      6  C   UNL d   1      -0.975   1.052  -1.320  0.00  0.00     0.291 C 
ATOM      7  C   UNL d   1      -2.461   0.574   0.547  0.00  0.00     0.310 C 
ATOM      8  C   UNL d   1       0.385   1.133  -0.587  0.00  0.00     0.149 C 
ENDBRANCH   1   2
BRANCH   1   9
ATOM      9  N   UNL d   1       2.285  -0.259   1.828  0.00  0.00     0.119 N 
ATOM     10  C   UNL d   1       3.647  -0.146   2.429  0.00  0.00     0.305 C 
ATOM     11  C   UNL d   1       4.219   1.292   2.538  0.00  0.00     0.302 C 
ATOM     12  N   UNL d   1       3.296   2.205   3.232  0.00  0.00     0.087 N 
ATOM     13  C   UNL d   1       1.976   2.161   2.587  0.00  0.00     0.302 C 
ATOM     14  C   UNL d   1       3.818   3.564   3.289  0.00  0.00     0.310 C 
ATOM     15  C   UNL d   1       1.437   0.715   2.547  0.00  0.00     0.305 C 
ENDBRANCH   1   9
BRANCH   1  16
ATOM     16  C   UNL d   1       3.172  -1.213  -0.290  0.00  0.00     0.035 A 
ATOM     17  S   UNL d   1       4.198  -0.842  -1.621  0.00  0.00    -0.102 SA
ATOM     18  C   UNL d   1       4.772  -2.450  -1.717  0.00  0.00     0.050 A 
ATOM     19  C   UNL d   1       4.201  -3.264  -0.765  0.00  0.00     0.008 A 
ATOM     20  C   UNL d   1       3.278  -2.554   0.051  0.00  0.00     0.019 A 
ENDBRANCH   1  16
TORSDOF 3
