REMARK  2 active torsions:
REMARK  status: ('A' for Active; 'I' for Inactive)
REMARK    1  A    between atoms: C_7  and  N_1 
REMARK    2  A    between atoms: C_12  and  C_7 
ROOT
ATOM      1  N   UNL d   1       2.361  -0.474  -0.154  0.00  0.00    -0.286 N 
ATOM      2  C   UNL d   1       2.248   0.912  -0.269  0.00  0.00     0.181 C 
ATOM      3  C   UNL d   1       1.255  -1.310   0.061  0.00  0.00     0.262 C 
ATOM      4  C   UNL d   1      -0.082  -0.693   0.031  0.00  0.00     0.059 A 
ATOM      5  N   UNL d   1       0.993   1.446  -0.141  0.00  0.00    -0.332 N 
ATOM      6  C   UNL d   1      -0.170   0.690  -0.027  0.00  0.00     0.050 A 
ATOM      7  S   UNL d   1       3.480   2.018  -0.537  0.00  0.00    -0.040 SA
ATOM      8  O   UNL d   1       1.336  -2.517   0.300  0.00  0.00    -0.267 OA
ATOM      9  C   UNL d   1      -1.246  -1.469   0.067  0.00  0.00     0.019 A 
ATOM     10  C   UNL d   1      -1.413   1.320  -0.003  0.00  0.00     0.030 A 
ATOM     11  C   UNL d   1      -2.494  -0.845   0.049  0.00  0.00     0.001 A 
ATOM     12  C   UNL d   1      -2.577   0.548   0.025  0.00  0.00     0.002 A 
ATOM     13  H   UNL d   1       0.925   2.456  -0.208  0.00  0.00     0.168 HD
ENDROOT
BRANCH   1  14
ATOM     14  C   UNL d   1       3.668  -1.145  -0.116  0.00  0.00     0.174 C 
BRANCH  14  15
ATOM     15  C   UNL d   1       4.097  -1.764  -1.425  0.00  0.00    -0.024 A 
ATOM     16  C   UNL d   1       3.704  -3.055  -1.771  0.00  0.00     0.096 A 
ATOM     17  N   UNL d   1       4.113  -3.705  -2.887  0.00  0.00    -0.375 N 
ATOM     18  C   UNL d   1       4.952  -3.039  -3.705  0.00  0.00     0.087 A 
ATOM     19  HN  UNL d   1       3.801  -4.653  -3.097  1.00  0.00     0.164 HD
ATOM     20  C   UNL d   1       5.388  -1.748  -3.469  0.00  0.00     0.018 A 
ATOM     21  C   UNL d   1       4.949  -1.102  -2.314  0.00  0.00     0.011 A 
ENDBRANCH  14  15
ENDBRANCH   1  14
TORSDOF 2
