REMARK  5 active torsions:
REMARK  status: ('A' for Active; 'I' for Inactive)
REMARK    1  A    between atoms: C_1  and  C_5 
REMARK    2  A    between atoms: N_2  and  C_8 
REMARK    3  A    between atoms: C_3  and  C_10 
REMARK    4  A    between atoms: C_11  and  C_5 
REMARK    5  A    between atoms: O_25  and  C_20 
ROOT
ATOM      1  C   UNL d   1      -1.569   0.763   0.028  0.00  0.00     0.233 C 
ATOM      2  C   UNL d   1      -1.577  -0.765  -0.061  0.00  0.00     0.195 C 
ATOM      3  O   UNL d   1      -0.190   1.156   0.055  0.00  0.00    -0.340 OA
ATOM      4  C   UNL d   1       0.581  -0.036  -0.070  0.00  0.00     0.159 C 
ATOM      5  O   UNL d   1      -0.232  -1.172   0.213  0.00  0.00    -0.343 OA
ATOM      6  C   UNL d   1       1.089  -0.116  -1.510  0.00  0.00     0.078 C 
ATOM      7  C   UNL d   1       1.745   0.004   0.908  0.00  0.00     0.078 C 
ENDROOT
BRANCH   1   8
ATOM      8  C   UNL d   1      -2.270   1.365   1.249  0.00  0.00     0.191 C 
ATOM      9  O   UNL d   1      -1.821   1.275   2.391  0.00  0.00    -0.289 OA
BRANCH   8  10
ATOM     10  C   UNL d   1      -3.511   2.168   1.029  0.00  0.00     0.013 A 
ATOM     11  C   UNL d   1      -3.813   3.187   1.942  0.00  0.00     0.018 A 
ATOM     12  C   UNL d   1      -4.955   3.981   1.777  0.00  0.00     0.037 A 
ATOM     13  C   UNL d   1      -5.816   3.753   0.704  0.00  0.00     0.068 A 
ATOM     14  C   UNL d   1      -5.514   2.739  -0.208  0.00  0.00     0.037 A 
ATOM     15  C   UNL d   1      -4.372   1.946  -0.050  0.00  0.00     0.018 A 
BRANCH  13  16
ATOM     16  O   UNL d   1      -6.969   4.435   0.435  0.00  0.00    -0.356 OA
ATOM     17  C   UNL d   1      -7.373   5.418   1.380  0.00  0.00     0.210 C 
ENDBRANCH  13  16
ENDBRANCH   8  10
ENDBRANCH   1   8
BRANCH   2  18
ATOM     18  C   UNL d   1      -2.566  -1.512   0.807  0.00  0.00    -0.026 A 
ATOM     19  C   UNL d   1      -3.861  -1.772   0.330  0.00  0.00     0.012 A 
ATOM     20  C   UNL d   1      -4.815  -2.381   1.150  0.00  0.00     0.037 A 
ATOM     21  C   UNL d   1      -4.473  -2.744   2.458  0.00  0.00     0.102 A 
ATOM     22  C   UNL d   1      -3.177  -2.529   2.938  0.00  0.00     0.037 A 
ATOM     23  C   UNL d   1      -2.232  -1.916   2.111  0.00  0.00     0.012 A 
BRANCH  21  24
ATOM     24  N   UNL d   1      -5.487  -3.336   3.340  0.00  0.00    -0.116 N 
ATOM     25  O   UNL d   1      -5.157  -3.616   4.499  0.00  0.00    -0.532 OA
ATOM     26  O   UNL d   1      -6.622  -3.516   2.869  0.00  0.00    -0.532 OA
ENDBRANCH  21  24
ENDBRANCH   2  18
TORSDOF 5
