REMARK  8 active torsions:
REMARK  status: ('A' for Active; 'I' for Inactive)
REMARK    1  A    between atoms: N_2  and  C_1 
REMARK    2  A    between atoms: C_3  and  C_1 
REMARK    3  A    between atoms: C_4  and  C_1 
REMARK    4  A    between atoms: N_6  and  C_1 
REMARK       I    between atoms: C_5  and  N_2 
REMARK    5  A    between atoms: C_7  and  C_5 
REMARK    6  A    between atoms: C_15  and  N_6 
REMARK    7  A    between atoms: O_27  and  C_18 
REMARK    8  A    between atoms: O_26  and  C_19 
ROOT
ATOM      1  C   UNL d   1       0.883  -0.046   0.117  0.00  0.00     0.306 C 
ENDROOT
BRANCH   1   2
ATOM      2  N   UNL d   1       0.444   1.364  -0.113  0.00  0.00    -0.315 N 
ATOM      3  C   UNL d   1       0.683   2.417   0.729  0.00  0.00     0.254 C 
ATOM      4  O   UNL d   1       1.169   2.309   1.845  0.00  0.00    -0.268 OA
ATOM      5  H   UNL d   1      -0.003   1.547  -1.001  0.00  0.00     0.165 HD
BRANCH   3   6
ATOM      6  C   UNL d   1       0.229   3.738   0.210  0.00  0.00     0.032 A 
ATOM      7  C   UNL d   1      -0.492   4.591   1.050  0.00  0.00     0.020 A 
ATOM      8  C   UNL d   1      -1.003   5.801   0.557  0.00  0.00     0.038 A 
ATOM      9  C   UNL d   1      -0.780   6.166  -0.772  0.00  0.00     0.068 A 
ATOM     10  C   UNL d   1      -0.010   5.339  -1.593  0.00  0.00     0.038 A 
ATOM     11  C   UNL d   1       0.490   4.124  -1.111  0.00  0.00     0.020 A 
BRANCH   9  12
ATOM     12  O   UNL d   1      -1.216   7.322  -1.353  0.00  0.00    -0.356 OA
ATOM     13  C   UNL d   1      -2.484   7.794  -0.904  0.00  0.00     0.210 C 
ENDBRANCH   9  12
ENDBRANCH   3   6
ENDBRANCH   1   2
BRANCH   1  14
ATOM     14  C   UNL d   1       0.138  -1.009  -0.881  0.00  0.00     0.441 C 
ATOM     15  F   UNL d   1      -0.392  -0.277  -1.910  0.00  0.00    -0.166 F 
ATOM     16  F   UNL d   1       0.972  -1.910  -1.456  0.00  0.00    -0.166 F 
ATOM     17  F   UNL d   1      -0.905  -1.692  -0.373  0.00  0.00    -0.166 F 
ENDBRANCH   1  14
BRANCH   1  18
ATOM     18  C   UNL d   1       0.558  -0.599   1.558  0.00  0.00     0.441 C 
ATOM     19  F   UNL d   1      -0.395   0.125   2.193  0.00  0.00    -0.166 F 
ATOM     20  F   UNL d   1       0.132  -1.884   1.572  0.00  0.00    -0.166 F 
ATOM     21  F   UNL d   1       1.668  -0.596   2.347  0.00  0.00    -0.166 F 
ENDBRANCH   1  18
BRANCH   1  22
ATOM     22  N   UNL d   1       2.369  -0.016  -0.113  0.00  0.00    -0.349 N 
ATOM     23  H   UNL d   1       2.888  -0.608   0.537  0.00  0.00     0.162 HD
BRANCH  22  24
ATOM     24  C   UNL d   1       3.058   0.288  -1.271  0.00  0.00     0.030 A 
ATOM     25  C   UNL d   1       2.466   0.758  -2.438  0.00  0.00     0.032 A 
ATOM     26  C   UNL d   1       3.208   1.132  -3.564  0.00  0.00     0.039 A 
ATOM     27  C   UNL d   1       4.591   1.055  -3.537  0.00  0.00     0.068 A 
ATOM     28  C   UNL d   1       5.222   0.608  -2.382  0.00  0.00     0.039 A 
ATOM     29  C   UNL d   1       4.466   0.237  -1.260  0.00  0.00     0.032 A 
BRANCH  27  30
ATOM     30  O   UNL d   1       5.409   1.395  -4.575  0.00  0.00    -0.356 OA
ATOM     31  C   UNL d   1       4.793   1.906  -5.746  0.00  0.00     0.210 C 
ENDBRANCH  27  30
ENDBRANCH  22  24
ENDBRANCH   1  22
TORSDOF 8
