REMARK  2 active torsions:
REMARK  status: ('A' for Active; 'I' for Inactive)
REMARK    1  A    between atoms: C_11  and  C_3 
REMARK    2  A    between atoms: O_14  and  C_11 
ROOT
ATOM      1  N   UNL d   1      -0.201  -0.638  -0.009  0.00  0.00    -0.243 N 
ATOM      2  C   UNL d   1      -0.178   0.761   0.016  0.00  0.00     0.129 A 
ATOM      3  C   UNL d   1       2.171  -0.731   0.063  0.00  0.00     0.077 A 
ATOM      4  C   UNL d   1       0.990  -1.391   0.008  0.00  0.00     0.050 A 
ATOM      5  N   UNL d   1      -1.477  -1.104  -0.049  0.00  0.00    -0.297 N 
ATOM      6  HN  UNL d   1      -1.780  -2.078  -0.088  1.00  0.00     0.187 HD
ATOM      7  N   UNL d   1       0.984   1.472   0.076  0.00  0.00    -0.350 N 
ATOM      8  HN  UNL d   1       1.000   2.492   0.086  1.00  0.00     0.166 HD
ATOM      9  C   UNL d   1      -1.489   1.169  -0.005  0.00  0.00     0.076 A 
ATOM     10  C   UNL d   1       2.065   0.760   0.119  0.00  0.00     0.110 A 
ATOM     11  C   UNL d   1      -2.251  -0.014  -0.027  0.00  0.00     0.026 A 
ATOM     12  C   UNL d   1       0.810  -2.885  -0.042  0.00  0.00     0.071 C 
ATOM     13  C   UNL d   1      -3.728  -0.139  -0.022  0.00  0.00     0.070 C 
ENDROOT
BRANCH   3  14
ATOM     14  C   UNL d   1       3.489  -1.400   0.122  0.00  0.00     0.179 C 
ATOM     15  O   UNL d   1       3.700  -2.442   0.718  0.00  0.00    -0.646 OA
BRANCH  14  16
ATOM     16  O   UNL d   1       4.469  -0.736  -0.526  0.00  0.00    -0.773 OA
ATOM     17  H   UNL d   1       4.208   0.004  -1.105  0.00  0.00     0.167 HD
ENDBRANCH  14  16
ENDBRANCH   3  14
TORSDOF 2
