REMARK  1 active torsions:
REMARK  status: ('A' for Active; 'I' for Inactive)
REMARK    1  A    between atoms: C_11  and  C_4 
ROOT
ATOM      1  N   UNL d   1      -8.295   4.801  -1.248  0.00  0.00    -0.191 NA
ATOM      2  C   UNL d   1      -7.426   4.048  -1.100  0.00  0.00     0.099 C 
ATOM      3  C   UNL d   1      -4.324   1.197  -0.632  0.00  0.00    -0.035 A 
ATOM      4  C   UNL d   1      -6.356   3.108  -0.926  0.00  0.00     0.044 A 
ATOM      5  C   UNL d   1      -4.345   2.038  -1.751  0.00  0.00     0.013 A 
ATOM      6  C   UNL d   1      -5.303   1.338   0.356  0.00  0.00     0.013 A 
ATOM      7  C   UNL d   1      -5.359   2.989  -1.899  0.00  0.00     0.023 A 
ATOM      8  C   UNL d   1      -6.318   2.289   0.209  0.00  0.00     0.023 A 
ENDROOT
BRANCH   3   9
ATOM      9  C   UNL d   1      -3.291   0.167  -0.510  0.00  0.00     0.022 C 
ATOM     10  C   UNL d   1      -2.081   0.365   0.040  0.00  0.00    -0.006 C 
ATOM     11  C   UNL d   1      -1.105  -0.772  -0.003  0.00  0.00     0.189 C 
ATOM     12  C   UNL d   1      -1.564   1.627   0.663  0.00  0.00     0.047 C 
ATOM     13  C   UNL d   1       0.340  -0.398   0.006  0.00  0.00     0.021 A 
ATOM     14  O   UNL d   1      -1.465  -1.941  -0.060  0.00  0.00    -0.287 OA
ATOM     15  C   UNL d   1       1.306  -1.411   0.019  0.00  0.00     0.016 A 
ATOM     16  C   UNL d   1       0.734   0.953  -0.033  0.00  0.00    -0.044 A 
ATOM     17  C   UNL d   1       2.662  -1.083  -0.023  0.00  0.00     0.001 A 
ATOM     18  C   UNL d   1       3.056   0.252  -0.090  0.00  0.00     0.001 A 
ATOM     19  C   UNL d   1       2.098   1.267  -0.100  0.00  0.00     0.008 A 
ATOM     20  C   UNL d   1      -0.289   2.059  -0.051  0.00  0.00     0.044 C 
ENDBRANCH   3   9
TORSDOF 1
