REMARK  5 active torsions:
REMARK  status: ('A' for Active; 'I' for Inactive)
REMARK    1  A    between atoms: C_2  and  C_1 
REMARK    2  A    between atoms: O_6  and  C_2 
REMARK    3  A    between atoms: C_9  and  C_3 
REMARK    4  A    between atoms: C_8  and  O_6 
REMARK    5  A    between atoms: O_15  and  C_10 
ROOT
ATOM      1  C   UNL d   1       0.909  -0.110   0.080  0.00  0.00     0.120 C 
ATOM      2  C   UNL d   1       0.168   0.774  -0.627  0.00  0.00     0.040 C 
ATOM      3  C   UNL d   1       0.331  -1.109   0.906  0.00  0.00     0.105 C 
ATOM      4  N   UNL d   1      -0.159  -1.917   1.582  0.00  0.00    -0.191 NA
ENDROOT
BRANCH   1   5
ATOM      5  C   UNL d   1       2.388   0.024  -0.024  0.00  0.00     0.304 C 
ATOM      6  O   UNL d   1       2.939   0.934  -0.624  0.00  0.00    -0.258 OA
BRANCH   5   7
ATOM      7  O   UNL d   1       3.023  -0.980   0.635  0.00  0.00    -0.307 OA
BRANCH   7   8
ATOM      8  C   UNL d   1       4.479  -1.009   0.719  0.00  0.00     0.060 C 
ATOM      9  C   UNL d   1       5.023   0.237   1.429  0.00  0.00     0.046 C 
ATOM     10  C   UNL d   1       4.809  -2.244   1.574  0.00  0.00     0.046 C 
ATOM     11  C   UNL d   1       5.120  -1.192  -0.662  0.00  0.00     0.046 C 
ENDBRANCH   7   8
ENDBRANCH   5   7
ENDBRANCH   1   5
BRANCH   2  12
ATOM     12  C   UNL d   1      -1.298   0.827  -0.641  0.00  0.00    -0.034 A 
ATOM     13  C   UNL d   1      -1.987   1.597   0.303  0.00  0.00     0.014 A 
ATOM     14  C   UNL d   1      -3.387   1.644   0.297  0.00  0.00     0.037 A 
ATOM     15  C   UNL d   1      -4.108   0.924  -0.655  0.00  0.00     0.068 A 
ATOM     16  C   UNL d   1      -3.419   0.177  -1.613  0.00  0.00     0.037 A 
ATOM     17  C   UNL d   1      -2.022   0.120  -1.605  0.00  0.00     0.014 A 
BRANCH  15  18
ATOM     18  O   UNL d   1      -5.470   0.903  -0.774  0.00  0.00    -0.356 OA
ATOM     19  C   UNL d   1      -6.208   1.194   0.407  0.00  0.00     0.210 C 
ENDBRANCH  15  18
ENDBRANCH   2  12
TORSDOF 5
