REMARK  9 active torsions:
REMARK  status: ('A' for Active; 'I' for Inactive)
REMARK    1  A    between atoms: N_8  and  C_3 
REMARK    2  A    between atoms: C_12  and  C_4 
REMARK    3  A    between atoms: C_9  and  C_11 
REMARK    4  A    between atoms: C_19  and  N_10 
REMARK    5  A    between atoms: C_23  and  C_19 
REMARK    6  A    between atoms: O_22  and  C_25 
REMARK    7  A    between atoms: C_24  and  O_22 
REMARK    8  A    between atoms: C_25  and  C_23 
REMARK    9  A    between atoms: O_26  and  C_23 
ROOT
ATOM      1  N   UNL d   1      -0.153  -2.421  -0.325  0.00  0.00    -0.357 N 
ATOM      2  N   UNL d   1      -0.654  -5.354  -0.459  0.00  0.00     0.094 N 
ATOM      3  C   UNL d   1       0.667  -3.349   0.470  0.00  0.00     0.155 C 
ATOM      4  C   UNL d   1      -1.483  -2.935  -0.698  0.00  0.00     0.155 C 
ATOM      5  C   UNL d   1      -1.398  -4.369  -1.275  0.00  0.00     0.292 C 
ATOM      6  C   UNL d   1       0.683  -4.763  -0.169  0.00  0.00     0.292 C 
ENDROOT
BRANCH   2   7
ATOM      7  C   UNL d   1      -1.337  -5.715   0.796  0.00  0.00     0.306 C 
BRANCH   7   8
ATOM      8  C   UNL d   1      -2.723  -6.398   0.704  0.00  0.00     0.170 C 
BRANCH   8   9
ATOM      9  C   UNL d   1      -2.718  -7.702  -0.115  0.00  0.00     0.209 C 
BRANCH   9  10
ATOM     10  O   UNL d   1      -4.048  -8.250  -0.111  0.00  0.00    -0.349 OA
BRANCH  10  11
ATOM     11  C   UNL d   1      -4.237  -9.420  -0.796  0.00  0.00     0.069 A 
ATOM     12  C   UNL d   1      -5.284 -10.230  -0.339  0.00  0.00     0.052 A 
ATOM     13  C   UNL d   1      -5.593 -11.444  -0.980  0.00  0.00     0.050 A 
ATOM     14  C   UNL d   1      -4.838 -11.827  -2.099  0.00  0.00     0.016 A 
ATOM     15  C   UNL d   1      -3.811 -11.013  -2.568  0.00  0.00     0.004 A 
ATOM     16  C   UNL d   1      -3.509  -9.812  -1.918  0.00  0.00     0.037 A 
BRANCH  13  17
ATOM     17  C   UNL d   1      -6.709 -12.336  -0.497  0.00  0.00     0.417 C 
ATOM     18  F   UNL d   1      -7.380 -11.845   0.582  0.00  0.00    -0.166 F 
ATOM     19  F   UNL d   1      -7.651 -12.553  -1.455  0.00  0.00    -0.166 F 
ATOM     20  F   UNL d   1      -6.264 -13.569  -0.128  0.00  0.00    -0.166 F 
ENDBRANCH  13  17
ENDBRANCH  10  11
ENDBRANCH   9  10
ENDBRANCH   8   9
BRANCH   8  21
ATOM     21  O   UNL d   1      -3.163  -6.646   2.052  0.00  0.00    -0.392 OA
ATOM     22  H   UNL d   1      -2.660  -7.403   2.397  0.00  0.00     0.210 HD
ENDBRANCH   8  21
ENDBRANCH   7   8
ENDBRANCH   2   7
BRANCH   1  23
ATOM     23  C   UNL d   1       0.025  -1.080  -0.101  0.00  0.00     0.165 A 
ATOM     24  N   UNL d   1       0.991  -0.547   0.625  0.00  0.00    -0.321 N 
ATOM     25  C   UNL d   1       0.920   0.854   0.573  0.00  0.00     0.123 A 
ATOM     26  HN  UNL d   1       1.689  -1.077   1.147  1.00  0.00     0.169 HD
ATOM     27  N   UNL d   1      -0.075   1.408  -0.127  0.00  0.00    -0.309 N 
ATOM     28  S   UNL d   1      -0.953   0.177  -0.796  0.00  0.00     0.024 SA
ATOM     29  HN  UNL d   1      -0.258   2.406  -0.230  1.00  0.00     0.176 HD
BRANCH  25  30
ATOM     30  C   UNL d   1       1.931   1.688   1.240  0.00  0.00     0.009 A 
ATOM     31  C   UNL d   1       2.876   1.126   2.111  0.00  0.00     0.015 A 
ATOM     32  C   UNL d   1       3.854   1.928   2.711  0.00  0.00     0.001 A 
ATOM     33  C   UNL d   1       3.903   3.296   2.446  0.00  0.00     0.000 A 
ATOM     34  C   UNL d   1       2.965   3.872   1.590  0.00  0.00     0.001 A 
ATOM     35  C   UNL d   1       1.987   3.072   0.996  0.00  0.00     0.015 A 
ENDBRANCH  25  30
ENDBRANCH   1  23
TORSDOF 9
