REMARK  4 active torsions:
REMARK  status: ('A' for Active; 'I' for Inactive)
REMARK    1  A    between atoms: C_6  and  C_1 
REMARK    2  A    between atoms: C_15  and  C_9 
REMARK    3  A    between atoms: C_12  and  O_14 
REMARK    4  A    between atoms: O_14  and  C_15 
ROOT
ATOM      1  C   UNL d   1      -1.774   2.802  -0.713  0.00  0.00     0.127 C 
ATOM      2  N   UNL d   1      -3.459   1.165  -1.789  0.00  0.00    -0.191 NA
ATOM      3  N   UNL d   1      -2.308   5.324  -0.883  0.00  0.00    -0.191 NA
ATOM      4  C   UNL d   1      -0.611   2.436  -0.141  0.00  0.00     0.071 C 
ATOM      5  C   UNL d   1      -2.693   1.884  -1.294  0.00  0.00     0.111 C 
ATOM      6  C   UNL d   1      -2.086   4.189  -0.803  0.00  0.00     0.111 C 
ENDROOT
BRANCH   4   7
ATOM      7  C   UNL d   1      -0.153   1.092  -0.056  0.00  0.00     0.077 A 
ATOM      8  O   UNL d   1      -0.972  -0.013  -0.060  0.00  0.00    -0.313 OA
ATOM      9  C   UNL d   1      -0.199  -1.131   0.005  0.00  0.00     0.078 A 
ATOM     10  C   UNL d   1       1.129  -0.776   0.055  0.00  0.00     0.038 A 
ATOM     11  C   UNL d   1       1.156   0.637   0.043  0.00  0.00     0.040 A 
BRANCH   9  12
ATOM     12  C   UNL d   1      -0.893  -2.442   0.019  0.00  0.00     0.243 C 
BRANCH  12  13
ATOM     13  O   UNL d   1      -1.727  -2.505   1.184  0.00  0.00    -0.315 OA
BRANCH  13  14
ATOM     14  C   UNL d   1      -1.089  -2.833   2.337  0.00  0.00     0.255 C 
ATOM     15  O   UNL d   1       0.103  -3.090   2.444  0.00  0.00    -0.266 OA
ATOM     16  C   UNL d   1      -2.048  -2.843   3.489  0.00  0.00     0.126 C 
ENDBRANCH  13  14
ENDBRANCH  12  13
ENDBRANCH   9  12
ENDBRANCH   4   7
TORSDOF 4
