REMARK  10 active torsions:
REMARK  status: ('A' for Active; 'I' for Inactive)
REMARK    1  A    between atoms: C_3  and  S_1 
REMARK    2  A    between atoms: N_4  and  S_1 
REMARK    3  A    between atoms: C_2  and  C_8 
REMARK       I    between atoms: N_5  and  C_2 
REMARK    4  A    between atoms: C_28  and  N_4 
REMARK    5  A    between atoms: C_29  and  N_4 
REMARK    6  A    between atoms: C_15  and  N_5 
REMARK    7  A    between atoms: O_14  and  C_16 
REMARK    8  A    between atoms: C_17  and  O_14 
REMARK    9  A    between atoms: C_31  and  C_28 
REMARK   10  A    between atoms: C_30  and  C_29 
ROOT
ATOM      1  C   UNL d   1      -1.116  -5.679  -0.116  0.00  0.00     0.256 C 
ATOM      2  N   UNL d   1      -2.478  -5.868  -0.326  0.00  0.00    -0.323 N 
ATOM      3  O   UNL d   1      -0.298  -6.577   0.053  0.00  0.00    -0.267 OA
ATOM      4  H   UNL d   1      -2.967  -5.140  -0.827  0.00  0.00     0.169 HD
ENDROOT
BRANCH   1   5
ATOM      5  C   UNL d   1      -0.624  -4.270  -0.202  0.00  0.00     0.032 A 
ATOM      6  C   UNL d   1      -1.472  -3.171  -0.004  0.00  0.00     0.018 A 
ATOM      7  C   UNL d   1      -0.955  -1.872  -0.032  0.00  0.00     0.026 A 
ATOM      8  C   UNL d   1       0.410  -1.668  -0.258  0.00  0.00     0.074 A 
ATOM      9  C   UNL d   1       1.269  -2.752  -0.451  0.00  0.00     0.026 A 
ATOM     10  C   UNL d   1       0.747  -4.050  -0.427  0.00  0.00     0.018 A 
BRANCH   8  11
ATOM     11  S   UNL d   1       1.079  -0.027  -0.088  0.00  0.00     0.243 S 
ATOM     12  O   UNL d   1       2.357  -0.171   0.578  0.00  0.00    -0.206 OA
ATOM     13  O   UNL d   1       0.045   0.814   0.467  0.00  0.00    -0.206 OA
BRANCH  11  14
ATOM     14  N   UNL d   1       1.356   0.530  -1.719  0.00  0.00    -0.206 NA
BRANCH  14  15
ATOM     15  C   UNL d   1       0.131   0.433  -2.586  0.00  0.00     0.107 C 
BRANCH  15  16
ATOM     16  C   UNL d   1       0.347   0.830  -4.052  0.00  0.00     0.011 C 
ATOM     17  C   UNL d   1       1.494   0.099  -4.732  0.00  0.00     0.006 C 
ENDBRANCH  15  16
ENDBRANCH  14  15
BRANCH  14  18
ATOM     18  C   UNL d   1       1.942   1.923  -1.732  0.00  0.00     0.107 C 
BRANCH  18  19
ATOM     19  C   UNL d   1       3.381   2.004  -1.224  0.00  0.00     0.011 C 
ATOM     20  C   UNL d   1       4.327   1.059  -1.946  0.00  0.00     0.006 C 
ENDBRANCH  18  19
ENDBRANCH  14  18
ENDBRANCH  11  14
ENDBRANCH   8  11
ENDBRANCH   1   5
BRANCH   2  21
ATOM     21  C   UNL d   1      -3.063  -7.149  -0.364  0.00  0.00     0.035 C 
ATOM     22  C   UNL d   1      -2.691  -8.161   0.522  0.00  0.00     0.032 C 
ATOM     23  C   UNL d   1      -3.193  -9.452   0.361  0.00  0.00     0.039 C 
ATOM     24  C   UNL d   1      -3.990  -9.753  -0.745  0.00  0.00     0.076 C 
ATOM     25  C   UNL d   1      -4.456  -8.721  -1.561  0.00  0.00     0.039 C 
ATOM     26  C   UNL d   1      -4.016  -7.411  -1.351  0.00  0.00     0.032 C 
BRANCH  24  27
ATOM     27  O   UNL d   1      -4.365 -11.032  -1.093  0.00  0.00    -0.311 OA
BRANCH  27  28
ATOM     28  C   UNL d   1      -3.471 -12.066  -0.896  0.00  0.00     0.076 A 
ATOM     29  C   UNL d   1      -4.033 -13.318  -0.640  0.00  0.00     0.039 A 
ATOM     30  C   UNL d   1      -3.210 -14.408  -0.343  0.00  0.00     0.026 A 
ATOM     31  C   UNL d   1      -1.826 -14.241  -0.306  0.00  0.00     0.034 A 
ATOM     32  C   UNL d   1      -1.256 -13.011  -0.625  0.00  0.00     0.026 A 
ATOM     33 CL   UNL d   1      -0.816 -15.560   0.141  0.00  0.00    -0.084 Cl
ATOM     34  C   UNL d   1      -2.078 -11.932  -0.955  0.00  0.00     0.039 A 
ENDBRANCH  27  28
ENDBRANCH  24  27
ENDBRANCH   2  21
TORSDOF 10
