REMARK  3 active torsions:
REMARK  status: ('A' for Active; 'I' for Inactive)
REMARK    1  A    between atoms: C_6  and  C_1 
REMARK    2  A    between atoms: N_12  and  C_2 
REMARK       I    between atoms: C_5  and  N_7 
REMARK    3  A    between atoms: C_8  and  C_5 
REMARK       I    between atoms: N_7  and  C_9 
REMARK       I    between atoms: C_9  and  N_12 
ROOT
ATOM      1  C   UNL d   1       1.110  -5.248  -1.283  0.00  0.00     0.263 C 
ATOM      2  N   UNL d   1       1.647  -4.524  -0.227  0.00  0.00    -0.275 N 
ATOM      3  C   UNL d   1       1.420  -3.224   0.163  0.00  0.00     0.327 C 
ATOM      4  N   UNL d   1       0.443  -2.546  -0.524  0.00  0.00    -0.304 N 
ATOM      5  O   UNL d   1       0.335  -4.730  -2.082  0.00  0.00    -0.267 OA
ATOM      6  O   UNL d   1       2.060  -2.806   1.127  0.00  0.00    -0.247 OA
ATOM      7  H   UNL d   1       2.339  -4.960   0.361  0.00  0.00     0.173 HD
ATOM      8  H   UNL d   1      -0.183  -3.149  -1.052  0.00  0.00     0.171 HD
ENDROOT
BRANCH   4   9
ATOM      9  C   UNL d   1      -0.072  -1.330  -0.077  0.00  0.00     0.097 A 
ATOM     10  C   UNL d   1      -1.455  -0.939  -0.013  0.00  0.00     0.097 A 
ATOM     11  N   UNL d   1      -1.559   0.292   0.514  0.00  0.00    -0.258 N 
ATOM     12  O   UNL d   1      -0.281   0.736   0.733  0.00  0.00    -0.240 OA
ATOM     13  HN  UNL d   1      -2.422   0.798   0.712  1.00  0.00     0.195 HD
ATOM     14  C   UNL d   1       0.614  -0.226   0.389  0.00  0.00     0.101 A 
ATOM     15  C   UNL d   1       2.024   0.193   0.525  0.00  0.00     0.081 C 
BRANCH  10  16
ATOM     16  C   UNL d   1      -2.682  -1.684  -0.328  0.00  0.00     0.038 A 
ATOM     17  C   UNL d   1      -2.945  -2.955   0.224  0.00  0.00     0.048 A 
ATOM     18 CL   UNL d   1      -1.856  -3.789   1.283  0.00  0.00    -0.083 Cl
ATOM     19  C   UNL d   1      -4.164  -3.610  -0.013  0.00  0.00     0.025 A 
ATOM     20  C   UNL d   1      -5.159  -3.001  -0.767  0.00  0.00     0.003 A 
ATOM     21  C   UNL d   1      -4.927  -1.746  -1.317  0.00  0.00     0.025 A 
ATOM     22  C   UNL d   1      -3.697  -1.099  -1.118  0.00  0.00     0.048 A 
ATOM     23 CL   UNL d   1      -3.517   0.429  -1.921  0.00  0.00    -0.083 Cl
ENDBRANCH  10  16
ENDBRANCH   4   9
BRANCH   1  24
ATOM     24  C   UNL d   1       1.500  -6.698  -1.385  0.00  0.00     0.075 A 
ATOM     25  C   UNL d   1       0.595  -7.629  -1.940  0.00  0.00     0.051 A 
ATOM     26 CL   UNL d   1      -1.008  -7.234  -2.468  0.00  0.00    -0.083 Cl
ATOM     27  C   UNL d   1       0.935  -8.989  -2.052  0.00  0.00     0.025 A 
ATOM     28  C   UNL d   1       2.163  -9.454  -1.599  0.00  0.00     0.003 A 
ATOM     29  C   UNL d   1       3.065  -8.556  -1.044  0.00  0.00     0.025 A 
ATOM     30  C   UNL d   1       2.749  -7.190  -0.949  0.00  0.00     0.051 A 
ATOM     31 CL   UNL d   1       4.012  -6.199  -0.296  0.00  0.00    -0.083 Cl
ENDBRANCH   1  24
TORSDOF 3
