REMARK  6 active torsions:
REMARK  status: ('A' for Active; 'I' for Inactive)
REMARK    1  A    between atoms: C_2  and  C_1 
REMARK    2  A    between atoms: O_10  and  C_2 
REMARK    3  A    between atoms: C_5  and  C_7 
REMARK    4  A    between atoms: C_8  and  O_12 
REMARK    5  A    between atoms: C_20  and  O_10 
REMARK    6  A    between atoms: O_12  and  C_21 
ROOT
ATOM      1  C   UNL d   1      -3.244   0.333   0.086  0.00  0.00     0.300 C 
ATOM      2  O   UNL d   1      -4.023  -0.603   0.226  0.00  0.00    -0.259 OA
ENDROOT
BRANCH   1   3
ATOM      3  C   UNL d   1      -1.767   0.151   0.162  0.00  0.00     0.062 A 
ATOM      4  C   UNL d   1      -0.789   1.141   0.015  0.00  0.00     0.022 A 
ATOM      5  N   UNL d   1       0.546   0.845   0.005  0.00  0.00    -0.355 N 
ATOM      6  C   UNL d   1      -1.071   2.601  -0.170  0.00  0.00     0.069 C 
ATOM      7  C   UNL d   1       0.957  -0.444   0.145  0.00  0.00     0.117 A 
ATOM      8  HN  UNL d   1       1.233   1.590  -0.107  1.00  0.00     0.166 HD
ATOM      9  C   UNL d   1       0.042  -1.472   0.337  0.00  0.00     0.035 A 
ATOM     10  C   UNL d   1      -1.320  -1.169   0.343  0.00  0.00     0.022 A 
BRANCH   7  11
ATOM     11  C   UNL d   1       2.444  -0.777   0.074  0.00  0.00     0.432 C 
ATOM     12  F   UNL d   1       3.247   0.296  -0.177  0.00  0.00    -0.165 F 
ATOM     13  F   UNL d   1       2.912  -1.331   1.230  0.00  0.00    -0.165 F 
ATOM     14  F   UNL d   1       2.722  -1.686  -0.905  0.00  0.00    -0.165 F 
ENDBRANCH   7  11
ENDBRANCH   1   3
BRANCH   1  15
ATOM     15  O   UNL d   1      -3.581   1.639  -0.233  0.00  0.00    -0.275 OA
BRANCH  15  16
ATOM     16  C   UNL d   1      -4.832   2.063  -0.746  0.00  0.00     0.079 A 
ATOM     17  C   UNL d   1      -5.996   1.306  -0.719  0.00  0.00     0.040 A 
ATOM     18  C   UNL d   1      -7.135   1.776  -1.377  0.00  0.00     0.040 A 
ATOM     19  C   UNL d   1      -7.101   2.980  -2.081  0.00  0.00     0.078 A 
ATOM     20  C   UNL d   1      -5.958   3.777  -2.025  0.00  0.00     0.040 A 
ATOM     21  C   UNL d   1      -4.820   3.319  -1.358  0.00  0.00     0.040 A 
BRANCH  19  22
ATOM     22  O   UNL d   1      -8.190   3.481  -2.727  0.00  0.00    -0.255 OA
BRANCH  22  23
ATOM     23  C   UNL d   1      -8.733   2.654  -3.757  0.00  0.00     0.530 C 
ATOM     24  F   UNL d   1      -8.527   1.333  -3.570  0.00  0.00    -0.144 F 
ATOM     25  F   UNL d   1     -10.068   2.859  -3.806  0.00  0.00    -0.144 F 
ATOM     26  F   UNL d   1      -8.210   3.008  -4.950  0.00  0.00    -0.144 F 
ENDBRANCH  22  23
ENDBRANCH  19  22
ENDBRANCH  15  16
ENDBRANCH   1  15
TORSDOF 6
