REMARK  8 active torsions:
REMARK  status: ('A' for Active; 'I' for Inactive)
REMARK    1  A    between atoms: N_8  and  C_1 
REMARK    2  A    between atoms: C_9  and  C_2 
REMARK    3  A    between atoms: C_10  and  C_5 
REMARK    4  A    between atoms: O_19  and  C_9 
REMARK    5  A    between atoms: O_20  and  C_10 
REMARK    6  A    between atoms: C_15  and  N_11 
REMARK    7  A    between atoms: C_18  and  C_15 
REMARK    8  A    between atoms: C_30  and  O_19 
ROOT
ATOM      1  C   UNL d   1      -0.964   1.200  -0.065  0.00  0.00     0.099 A 
ATOM      2  C   UNL d   1      -0.105   0.327   0.608  0.00  0.00     0.079 A 
ATOM      3  N   UNL d   1      -1.424   0.866  -1.301  0.00  0.00    -0.349 N 
ATOM      4  HN  UNL d   1      -2.141   1.445  -1.737  1.00  0.00     0.167 HD
ATOM      5  C   UNL d   1      -0.004  -1.052  -1.406  0.00  0.00     0.062 A 
ATOM      6  C   UNL d   1       0.374  -0.804  -0.082  0.00  0.00     0.040 A 
ATOM      7  C   UNL d   1      -0.955  -0.218  -1.971  0.00  0.00     0.022 A 
ATOM      8  C   UNL d   1      -1.551  -0.363  -3.337  0.00  0.00     0.069 C 
ENDROOT
BRANCH   1   9
ATOM      9  N   UNL d   1      -1.315   2.486   0.409  0.00  0.00    -0.267 NA
ATOM     10  C   UNL d   1      -1.772   3.338  -0.718  0.00  0.00     0.127 C 
ATOM     11  C   UNL d   1      -1.675   4.840  -0.433  0.00  0.00     0.287 C 
ATOM     12  N   UNL d   1      -2.502   5.404   0.641  0.00  0.00     0.093 N 
ATOM     13  C   UNL d   1      -1.942   5.059   1.949  0.00  0.00     0.274 C 
ATOM     14  C   UNL d   1      -2.061   3.633   2.504  0.00  0.00     0.045 C 
ATOM     15  C   UNL d   1      -2.233   2.447   1.553  0.00  0.00     0.099 C 
BRANCH  12  16
ATOM     16  C   UNL d   1      -3.945   5.176   0.538  0.00  0.00     0.311 C 
BRANCH  16  17
ATOM     17  C   UNL d   1      -4.567   5.584  -0.785  0.00  0.00    -0.030 A 
ATOM     18  C   UNL d   1      -5.251   4.636  -1.567  0.00  0.00     0.012 A 
ATOM     19  C   UNL d   1      -5.843   5.007  -2.775  0.00  0.00     0.043 A 
ATOM     20  C   UNL d   1      -5.759   6.325  -3.202  0.00  0.00     0.116 A 
ATOM     21  C   UNL d   1      -5.092   7.280  -2.441  0.00  0.00     0.043 A 
ATOM     22  F   UNL d   1      -6.329   6.681  -4.360  0.00  0.00    -0.206 F 
ATOM     23  C   UNL d   1      -4.496   6.911  -1.237  0.00  0.00     0.012 A 
ENDBRANCH  16  17
ENDBRANCH  12  16
ENDBRANCH   1   9
BRANCH   2  24
ATOM     24  C   UNL d   1       0.440   0.605   1.958  0.00  0.00     0.296 C 
ATOM     25  O   UNL d   1       0.660   1.708   2.431  0.00  0.00    -0.259 OA
BRANCH  24  26
ATOM     26  O   UNL d   1       0.707  -0.578   2.579  0.00  0.00    -0.318 OA
BRANCH  26  27
ATOM     27  C   UNL d   1       1.504  -0.472   3.768  0.00  0.00     0.174 C 
ATOM     28  C   UNL d   1       2.966  -0.367   3.370  0.00  0.00     0.034 C 
ENDBRANCH  26  27
ENDBRANCH  24  26
ENDBRANCH   2  24
BRANCH   5  29
ATOM     29  C   UNL d   1       0.669  -2.169  -2.102  0.00  0.00     0.294 C 
ATOM     30  O   UNL d   1       1.034  -3.186  -1.533  0.00  0.00    -0.259 OA
BRANCH  29  31
ATOM     31  O   UNL d   1       0.911  -1.845  -3.393  0.00  0.00    -0.322 OA
ATOM     32  C   UNL d   1       1.572  -2.863  -4.147  0.00  0.00     0.213 C 
ENDBRANCH  29  31
ENDBRANCH   5  29
TORSDOF 8
