REMARK  3 active torsions:
REMARK  status: ('A' for Active; 'I' for Inactive)
REMARK    1  A    between atoms: S_2  and  C_1 
REMARK       I    between atoms: N_3  and  C_1 
REMARK    2  A    between atoms: C_4  and  S_2 
REMARK    3  A    between atoms: C_7  and  N_3 
ROOT
ATOM      1  C   UNL d   1       0.972   0.227   0.123  0.00  0.00     0.289 C 
ATOM      2  N   UNL d   1       0.279  -0.912   0.435  0.00  0.00    -0.318 N 
ATOM      3  O   UNL d   1       2.148   0.482   0.310  0.00  0.00    -0.260 OA
ATOM      4  H   UNL d   1      -0.642  -0.967   0.014  0.00  0.00     0.169 HD
ENDROOT
BRANCH   1   5
ATOM      5  S   UNL d   1      -0.140   1.414  -0.548  0.00  0.00    -0.028 SA
BRANCH   5   6
ATOM      6  C   UNL d   1       0.097   1.235  -2.310  0.00  0.00     0.031 A 
ATOM      7  C   UNL d   1      -0.412   0.169  -3.072  0.00  0.00     0.051 A 
ATOM      8 CL   UNL d   1      -1.255  -1.168  -2.366  0.00  0.00    -0.083 Cl
ATOM      9  C   UNL d   1      -0.301   0.177  -4.468  0.00  0.00     0.025 A 
ATOM     10  C   UNL d   1       0.298   1.252  -5.122  0.00  0.00     0.002 A 
ATOM     11  C   UNL d   1       0.802   2.317  -4.380  0.00  0.00     0.001 A 
ATOM     12  C   UNL d   1       0.705   2.307  -2.985  0.00  0.00     0.021 A 
ENDBRANCH   5   6
ENDBRANCH   1   5
BRANCH   2  13
ATOM     13  C   UNL d   1       0.682  -1.984   1.250  0.00  0.00     0.035 A 
ATOM     14  C   UNL d   1       1.803  -1.933   2.081  0.00  0.00     0.031 A 
ATOM     15  C   UNL d   1       2.092  -3.002   2.938  0.00  0.00     0.026 A 
ATOM     16  C   UNL d   1       1.275  -4.130   2.948  0.00  0.00     0.034 A 
ATOM     17  C   UNL d   1       0.167  -4.198   2.107  0.00  0.00     0.026 A 
ATOM     18 CL   UNL d   1       1.624  -5.436   4.012  0.00  0.00    -0.084 Cl
ATOM     19  C   UNL d   1      -0.131  -3.123   1.266  0.00  0.00     0.031 A 
ENDBRANCH   2  13
TORSDOF 3
