REMARK  2 active torsions:
REMARK  status: ('A' for Active; 'I' for Inactive)
REMARK    1  A    between atoms: C_12  and  C_7 
REMARK    2  A    between atoms: O_13  and  C_11 
ROOT
ATOM      1  N   UNL d   1       0.141  -0.639  -0.009  0.00  0.00    -0.164 N 
ATOM      2  C   UNL d   1       0.257   0.733  -0.060  0.00  0.00     0.158 A 
ATOM      3  N   UNL d   1      -0.988  -1.388   0.002  0.00  0.00    -0.276 N 
ATOM      4  HN  UNL d   1      -0.984  -2.407   0.029  1.00  0.00     0.189 HD
ATOM      5  N   UNL d   1       1.366  -1.181   0.026  0.00  0.00     0.016 NA
ATOM      6  C   UNL d   1      -0.931   1.484  -0.050  0.00  0.00     0.091 A 
ATOM      7  C   UNL d   1      -2.080  -0.677  -0.025  0.00  0.00     0.093 A 
ATOM      8  N   UNL d   1       2.208  -0.155  -0.012  0.00  0.00    -0.005 NA
ATOM      9  N   UNL d   1       1.534   1.045  -0.065  0.00  0.00    -0.269 N 
ATOM     10  HN  UNL d   1       1.941   1.980  -0.100  1.00  0.00     0.185 HD
ATOM     11  C   UNL d   1      -2.111   0.847   0.002  0.00  0.00     0.098 A 
ENDROOT
BRANCH   7  12
ATOM     12  C   UNL d   1      -3.382  -1.412  -0.074  0.00  0.00    -0.005 A 
ATOM     13  C   UNL d   1      -3.491  -2.623   0.624  0.00  0.00     0.014 A 
ATOM     14  C   UNL d   1      -4.690  -3.340   0.609  0.00  0.00     0.001 A 
ATOM     15  C   UNL d   1      -5.785  -2.851  -0.101  0.00  0.00     0.000 A 
ATOM     16  C   UNL d   1      -5.674  -1.663  -0.823  0.00  0.00     0.001 A 
ATOM     17  C   UNL d   1      -4.470  -0.955  -0.828  0.00  0.00     0.014 A 
ENDBRANCH   7  12
BRANCH  11  18
ATOM     18  O   UNL d   1      -3.271   1.576   0.150  0.00  0.00    -0.358 OA
ATOM     19  H   UNL d   1      -3.930   1.028   0.613  0.00  0.00     0.217 HD
ENDBRANCH  11  18
TORSDOF 2
