REMARK  7 active torsions:
REMARK  status: ('A' for Active; 'I' for Inactive)
REMARK    1  A    between atoms: C_4  and  C_1 
REMARK    2  A    between atoms: C_2  and  C_3 
REMARK    3  A    between atoms: C_6  and  C_18 
REMARK    4  A    between atoms: O_19  and  C_6 
REMARK    5  A    between atoms: N_10  and  C_9 
REMARK    6  A    between atoms: C_18  and  N_10 
REMARK    7  A    between atoms: C_20  and  O_19 
ROOT
ATOM      1  C   UNL d   1      -1.045  -2.731  -1.774  0.00  0.00     0.050 A 
ATOM      2  C   UNL d   1       0.507  -1.325  -0.529  0.00  0.00     0.050 A 
ATOM      3  C   UNL d   1      -0.594  -1.462  -1.385  0.00  0.00     0.032 A 
ATOM      4  C   UNL d   1       1.171  -2.485  -0.086  0.00  0.00     0.039 A 
ATOM      5  C   UNL d   1      -0.359  -3.867  -1.311  0.00  0.00     0.039 A 
ATOM      6  C   UNL d   1       0.774  -3.763  -0.499  0.00  0.00     0.010 A 
ENDROOT
BRANCH   6   7
ATOM      7  N   UNL d   1       1.447  -4.880  -0.002  0.00  0.00    -0.284 NA
ATOM      8  H   UNL d   1       2.370  -4.660   0.381  0.00  0.00     0.128 HD
BRANCH   7   9
ATOM      9  C   UNL d   1       1.502  -6.086  -0.847  0.00  0.00     0.203 C 
BRANCH   9  10
ATOM     10  C   UNL d   1       2.851  -6.780  -0.703  0.00  0.00     0.272 C 
ATOM     11  O   UNL d   1       3.761  -6.389   0.018  0.00  0.00    -0.264 OA
BRANCH  10  12
ATOM     12  O   UNL d   1       2.926  -7.817  -1.587  0.00  0.00    -0.321 OA
BRANCH  12  13
ATOM     13  C   UNL d   1       4.255  -8.263  -1.885  0.00  0.00     0.174 C 
ATOM     14  C   UNL d   1       4.822  -7.373  -2.978  0.00  0.00     0.034 C 
ENDBRANCH  12  13
ENDBRANCH  10  12
ENDBRANCH   9  10
ENDBRANCH   7   9
ENDBRANCH   6   7
BRANCH   1  15
ATOM     15  C   UNL d   1      -2.240  -2.906  -2.678  0.00  0.00     0.417 C 
ATOM     16  F   UNL d   1      -2.828  -1.731  -3.037  0.00  0.00    -0.166 F 
ATOM     17  F   UNL d   1      -1.919  -3.535  -3.843  0.00  0.00    -0.166 F 
ATOM     18  F   UNL d   1      -3.219  -3.658  -2.105  0.00  0.00    -0.166 F 
ENDBRANCH   1  15
BRANCH   2  19
ATOM     19  C   UNL d   1       0.997   0.029  -0.083  0.00  0.00     0.417 C 
ATOM     20  F   UNL d   1       0.245   1.061  -0.564  0.00  0.00    -0.166 F 
ATOM     21  F   UNL d   1       2.273   0.280  -0.485  0.00  0.00    -0.166 F 
ATOM     22  F   UNL d   1       0.995   0.166   1.271  0.00  0.00    -0.166 F 
ENDBRANCH   2  19
TORSDOF 7
