REMARK  6 active torsions:
REMARK  status: ('A' for Active; 'I' for Inactive)
REMARK    1  A    between atoms: C_2  and  C_1 
REMARK    2  A    between atoms: C_3  and  C_1 
REMARK    3  A    between atoms: C_5  and  C_1 
REMARK    4  A    between atoms: C_6  and  C_2 
REMARK    5  A    between atoms: C_7  and  C_3 
REMARK    6  A    between atoms: C_4  and  C_5 
ROOT
ATOM      1  C   UNL d   1       0.970   0.132   0.124  0.00  0.00     0.131 C 
ENDROOT
BRANCH   1   2
ATOM      2  C   UNL d   1       0.368   0.065   1.516  0.00  0.00     0.146 C 
ATOM      3  O   UNL d   1       0.961   0.576   2.468  0.00  0.00    -0.296 OA
BRANCH   2   4
ATOM      4  C   UNL d   1      -0.926  -0.743   1.772  0.00  0.00     0.010 C 
ATOM      5  C   UNL d   1      -0.536  -2.206   2.028  0.00  0.00     0.022 C 
ATOM      6  C   UNL d   1      -1.602  -0.181   3.038  0.00  0.00     0.022 C 
ATOM      7  C   UNL d   1      -1.940  -0.674   0.624  0.00  0.00     0.022 C 
ENDBRANCH   2   4
ENDBRANCH   1   2
BRANCH   1   8
ATOM      8  C   UNL d   1       0.561   1.353  -0.706  0.00  0.00     0.146 C 
ATOM      9  O   UNL d   1      -0.064   1.125  -1.758  0.00  0.00    -0.296 OA
BRANCH   8  10
ATOM     10  C   UNL d   1       0.959   2.822  -0.373  0.00  0.00     0.010 C 
ATOM     11  C   UNL d   1       2.372   3.133  -0.890  0.00  0.00     0.022 C 
ATOM     12  C   UNL d   1      -0.018   3.761  -1.130  0.00  0.00     0.022 C 
ATOM     13  C   UNL d   1       0.864   3.202   1.105  0.00  0.00     0.022 C 
ENDBRANCH   8  10
ENDBRANCH   1   8
BRANCH   1  14
ATOM     14  C   UNL d   1       2.495  -0.087   0.139  0.00  0.00     0.063 C 
BRANCH  14  15
ATOM     15  C   UNL d   1       2.948  -1.478   0.559  0.00  0.00     0.003 A 
ATOM     16  C   UNL d   1       2.567  -2.589  -0.206  0.00  0.00     0.124 A 
ATOM     17  F   UNL d   1       1.803  -2.417  -1.295  0.00  0.00    -0.205 F 
ATOM     18  C   UNL d   1       2.950  -3.891   0.118  0.00  0.00     0.043 A 
ATOM     19  C   UNL d   1       3.758  -4.112   1.226  0.00  0.00     0.005 A 
ATOM     20  C   UNL d   1       4.178  -3.029   1.994  0.00  0.00     0.024 A 
ATOM     21  C   UNL d   1       3.781  -1.722   1.664  0.00  0.00     0.043 A 
ATOM     22 CL   UNL d   1       4.393  -0.453   2.665  0.00  0.00    -0.084 Cl
ENDBRANCH  14  15
ENDBRANCH   1  14
TORSDOF 6
