REMARK  7 active torsions:
REMARK  status: ('A' for Active; 'I' for Inactive)
REMARK    1  A    between atoms: C_2  and  N_1 
REMARK    2  A    between atoms: C_16  and  C_2 
REMARK    3  A    between atoms: C_7  and  C_3 
REMARK    4  A    between atoms: O_8  and  C_4 
REMARK    5  A    between atoms: C_13  and  O_8 
REMARK    6  A    between atoms: O_14  and  C_10 
REMARK    7  A    between atoms: C_15  and  C_13 
ROOT
ATOM      1  C   UNL d   1      -2.233  -2.276  -0.947  0.00  0.00     0.103 A 
ATOM      2  C   UNL d   1      -1.853  -0.080   0.044  0.00  0.00    -0.031 A 
ATOM      3  C   UNL d   1      -1.497  -1.425  -0.111  0.00  0.00     0.051 A 
ATOM      4  C   UNL d   1      -3.368  -1.773  -1.602  0.00  0.00     0.101 A 
ATOM      5  C   UNL d   1      -3.697  -0.416  -1.466  0.00  0.00     0.040 A 
ATOM      6  C   UNL d   1      -2.947   0.430  -0.647  0.00  0.00     0.014 A 
ENDROOT
BRANCH   1   7
ATOM      7  O   UNL d   1      -1.903  -3.597  -1.103  0.00  0.00    -0.344 OA
BRANCH   7   8
ATOM      8  C   UNL d   1      -0.506  -3.900  -1.082  0.00  0.00     0.214 C 
BRANCH   8   9
ATOM      9  C   UNL d   1      -0.319  -5.365  -1.393  0.00  0.00    -0.034 A 
ATOM     10  C   UNL d   1       0.479  -5.776  -2.469  0.00  0.00     0.009 A 
ATOM     11  C   UNL d   1       0.681  -7.135  -2.719  0.00  0.00     0.001 A 
ATOM     12  C   UNL d   1       0.092  -8.093  -1.896  0.00  0.00     0.000 A 
ATOM     13  C   UNL d   1      -0.704  -7.696  -0.824  0.00  0.00     0.001 A 
ATOM     14  C   UNL d   1      -0.908  -6.340  -0.572  0.00  0.00     0.009 A 
ENDBRANCH   8   9
ENDBRANCH   7   8
ENDBRANCH   1   7
BRANCH   4  15
ATOM     15  O   UNL d   1      -4.215  -2.447  -2.443  0.00  0.00    -0.353 OA
ATOM     16  C   UNL d   1      -4.388  -3.838  -2.208  0.00  0.00     0.210 C 
ENDBRANCH   4  15
BRANCH   2  17
ATOM     17  C   UNL d   1      -1.090   0.758   0.973  0.00  0.00     0.043 C 
ATOM     18  C   UNL d   1       0.013   1.477   0.703  0.00  0.00     0.081 C 
BRANCH  18  19
ATOM     19  N   UNL d   1       0.491   1.486  -0.664  0.00  0.00    -0.120 N 
ATOM     20  O   UNL d   1       1.314   0.614  -0.970  0.00  0.00    -0.532 OA
ATOM     21  O   UNL d   1       0.080   2.396  -1.392  0.00  0.00    -0.532 OA
ENDBRANCH  18  19
BRANCH  18  22
ATOM     22  C   UNL d   1       0.878   2.290   1.618  0.00  0.00     0.059 C 
ATOM     23  C   UNL d   1       0.453   2.268   3.083  0.00  0.00     0.011 C 
ENDBRANCH  18  22
ENDBRANCH   2  17
TORSDOF 7
