REMARK  3 active torsions:
REMARK  status: ('A' for Active; 'I' for Inactive)
REMARK    1  A    between atoms: C_7  and  C_3 
REMARK    2  A    between atoms: C_11  and  C_4 
REMARK    3  A    between atoms: C_23  and  C_13 
ROOT
ATOM      1  C   UNL d   1       4.488   2.374  -1.147  0.00  0.00    -0.042 A 
ATOM      2  C   UNL d   1       4.654   3.373  -0.173  0.00  0.00    -0.043 A 
ATOM      3  C   UNL d   1       2.426   1.593  -0.001  0.00  0.00    -0.002 A 
ATOM      4  C   UNL d   1       3.345   1.548  -1.068  0.00  0.00     0.022 A 
ATOM      5  C   UNL d   1       3.745   3.405   0.910  0.00  0.00     0.016 A 
ATOM      6  C   UNL d   1       2.656   2.514   1.032  0.00  0.00    -0.045 A 
ATOM      7  C   UNL d   1       5.477   2.162  -2.299  0.00  0.00    -0.020 C 
ATOM      8  C   UNL d   1       5.796   4.397  -0.236  0.00  0.00    -0.020 C 
ATOM      9  C   UNL d   1       6.793   2.935  -2.067  0.00  0.00     0.015 C 
ATOM     10  C   UNL d   1       6.542   4.355  -1.591  0.00  0.00     0.015 C 
ATOM     11  C   UNL d   1       4.815   2.613  -3.619  0.00  0.00     0.020 C 
ATOM     12  C   UNL d   1       6.790   4.119   0.913  0.00  0.00     0.020 C 
ATOM     13  C   UNL d   1       5.258   5.839  -0.085  0.00  0.00     0.020 C 
ATOM     14  C   UNL d   1       5.872   0.670  -2.434  0.00  0.00     0.020 C 
ENDROOT
BRANCH   3  15
ATOM     15  C   UNL d   1       1.288   0.669  -0.026  0.00  0.00     0.050 A 
ATOM     16  N   UNL d   1       0.029   1.017   0.442  0.00  0.00    -0.348 N 
ATOM     17  C   UNL d   1      -0.827   0.023   0.270  0.00  0.00     0.102 A 
ATOM     18  HN  UNL d   1      -0.205   1.916   0.862  1.00  0.00     0.166 HD
ATOM     19  S   UNL d   1      -0.155  -1.377  -0.481  0.00  0.00    -0.080 SA
ATOM     20  C   UNL d   1       1.368  -0.610  -0.546  0.00  0.00     0.082 A 
BRANCH  17  21
ATOM     21  C   UNL d   1      -2.242   0.049   0.675  0.00  0.00     0.081 A 
ATOM     22  N   UNL d   1      -3.003  -1.050   0.401  0.00  0.00    -0.361 N 
ATOM     23  C   UNL d   1      -4.292  -0.991   0.805  0.00  0.00     0.105 A 
ATOM     24  HN  UNL d   1      -2.623  -1.866  -0.079  1.00  0.00     0.165 HD
ATOM     25  C   UNL d   1      -4.819   0.106   1.463  0.00  0.00     0.104 A 
ATOM     26  N   UNL d   1      -4.078   1.203   1.739  0.00  0.00    -0.372 N 
ATOM     27  C   UNL d   1      -2.784   1.147   1.330  0.00  0.00     0.120 A 
ATOM     28  HN  UNL d   1      -4.465   2.015   2.220  1.00  0.00     0.164 HD
ENDBRANCH  17  21
ENDBRANCH   3  15
BRANCH   6  29
ATOM     29  C   UNL d   1       1.825   2.584   2.296  0.00  0.00     0.035 C 
ATOM     30  C   UNL d   1       0.743   3.653   2.249  0.00  0.00     0.010 C 
ENDBRANCH   6  29
TORSDOF 3
