REMARK  8 active torsions:
REMARK  status: ('A' for Active; 'I' for Inactive)
REMARK    1  A    between atoms: N_5  and  S_1 
REMARK    2  A    between atoms: C_14  and  S_1 
REMARK    3  A    between atoms: C_10  and  C_2 
REMARK    4  A    between atoms: C_4  and  C_3 
REMARK    5  A    between atoms: N_9  and  N_5 
REMARK    6  A    between atoms: C_8  and  N_9 
REMARK    7  A    between atoms: O_26  and  C_10 
REMARK    8  A    between atoms: C_29  and  O_26 
ROOT
ATOM      1  C   UNL d   1       0.764  -0.905   1.502  0.00  0.00     0.081 A 
ATOM      2  N   UNL d   1      -0.113  -3.412   6.182  0.00  0.00    -0.191 NA
ATOM      3  C   UNL d   1       0.079  -2.878   5.167  0.00  0.00     0.099 C 
ATOM      4  C   UNL d   1      -0.548  -1.121   1.936  0.00  0.00     0.027 A 
ATOM      5  C   UNL d   1       1.853  -1.348   2.259  0.00  0.00     0.027 A 
ATOM      6  C   UNL d   1       0.311  -2.215   3.918  0.00  0.00     0.044 A 
ATOM      7  C   UNL d   1       1.623  -2.005   3.468  0.00  0.00     0.024 A 
ATOM      8  C   UNL d   1      -0.770  -1.774   3.150  0.00  0.00     0.024 A 
ENDROOT
BRANCH   1   9
ATOM      9  S   UNL d   1       1.029  -0.017  -0.015  0.00  0.00     0.276 S 
ATOM     10  O   UNL d   1       2.453   0.206  -0.160  0.00  0.00    -0.199 OA
ATOM     11  O   UNL d   1       0.230  -0.650  -1.039  0.00  0.00    -0.199 OA
BRANCH   9  12
ATOM     12  N   UNL d   1       0.322   1.462   0.363  0.00  0.00    -0.208 N 
ATOM     13  H   UNL d   1      -0.584   1.692  -0.056  0.00  0.00     0.201 HD
BRANCH  12  14
ATOM     14  N   UNL d   1       1.047   2.440   1.154  0.00  0.00    -0.122 N 
ATOM     15  H   UNL d   1       2.037   2.280   1.326  0.00  0.00     0.206 HD
BRANCH  14  16
ATOM     16  C   UNL d   1       0.627   3.737   1.405  0.00  0.00     0.697 A 
ATOM     17  N   UNL d   1       1.542   4.582   1.891  0.00  0.00    -0.184 N 
ATOM     18  C   UNL d   1       1.202   5.894   2.097  0.00  0.00     0.150 A 
ATOM     19  HN  UNL d   1       2.484   4.253   2.106  1.00  0.00     0.184 HD
ATOM     20  C   UNL d   1      -0.091   6.331   1.884  0.00  0.00     0.087 A 
ATOM     21  C   UNL d   1      -0.966   5.381   1.389  0.00  0.00     0.126 A 
ATOM     22  N   UNL d   1      -0.634   4.096   1.137  0.00  0.00    -0.199 N 
ATOM     23  HN  UNL d   1      -1.311   3.432   0.761  1.00  0.00     0.183 HD
BRANCH  18  24
ATOM     24  C   UNL d   1       2.345   6.793   2.521  0.00  0.00     0.434 C 
ATOM     25  F   UNL d   1       2.188   8.114   2.240  0.00  0.00    -0.165 F 
ATOM     26  F   UNL d   1       2.610   6.709   3.855  0.00  0.00    -0.165 F 
ATOM     27  F   UNL d   1       3.514   6.457   1.895  0.00  0.00    -0.165 F 
ENDBRANCH  18  24
BRANCH  20  28
ATOM     28  C   UNL d   1      -0.625   7.688   2.057  0.00  0.00     0.296 C 
ATOM     29  O   UNL d   1      -1.512   8.129   1.345  0.00  0.00    -0.259 OA
BRANCH  28  30
ATOM     30  O   UNL d   1      -0.064   8.306   3.118  0.00  0.00    -0.318 OA
BRANCH  30  31
ATOM     31  C   UNL d   1      -0.487   9.668   3.323  0.00  0.00     0.174 C 
ATOM     32  C   UNL d   1       0.166  10.604   2.316  0.00  0.00     0.034 C 
ENDBRANCH  30  31
ENDBRANCH  28  30
ENDBRANCH  20  28
ENDBRANCH  14  16
ENDBRANCH  12  14
ENDBRANCH   9  12
ENDBRANCH   1   9
TORSDOF 8
