REMARK  5 active torsions:
REMARK  status: ('A' for Active; 'I' for Inactive)
REMARK    1  A    between atoms: C_5  and  C_1 
REMARK    2  A    between atoms: C_2  and  C_3 
REMARK       I    between atoms: C_3  and  N_6 
REMARK    3  A    between atoms: O_7  and  C_4 
REMARK    4  A    between atoms: N_6  and  C_5 
REMARK    5  A    between atoms: C_12  and  O_7 
ROOT
ATOM      1  C   UNL d   1       0.203   1.139  -0.064  0.00  0.00     0.015 A 
ATOM      2  C   UNL d   1       1.612   1.176  -0.105  0.00  0.00     0.085 A 
ATOM      3  C   UNL d   1      -0.411  -0.130   0.007  0.00  0.00     0.044 A 
ATOM      4 CL   UNL d   1      -2.131  -0.335   0.065  0.00  0.00    -0.084 Cl
ATOM      5  C   UNL d   1       2.358  -0.016  -0.166  0.00  0.00     0.038 A 
ATOM      6  C   UNL d   1       1.731  -1.252  -0.076  0.00  0.00     0.004 A 
ATOM      7  C   UNL d   1       0.348  -1.308   0.023  0.00  0.00     0.024 A 
ENDROOT
BRANCH   1   8
ATOM      8  C   UNL d   1      -0.617   2.407  -0.120  0.00  0.00     0.166 C 
BRANCH   8   9
ATOM      9  N   UNL d   1      -0.402   3.384   0.931  0.00  0.00    -0.352 N 
ATOM     10  C   UNL d   1      -0.345   3.055   2.269  0.00  0.00     0.258 C 
ATOM     11  O   UNL d   1      -0.328   1.905   2.694  0.00  0.00    -0.267 OA
ATOM     12  H   UNL d   1      -0.651   4.338   0.700  0.00  0.00     0.163 HD
BRANCH  10  13
ATOM     13  C   UNL d   1      -0.309   4.174   3.228  0.00  0.00     0.108 A 
ATOM     14  C   UNL d   1      -1.066   5.330   3.041  0.00  0.00     0.135 A 
ATOM     15  F   UNL d   1      -1.817   5.489   1.940  0.00  0.00    -0.205 F 
ATOM     16  C   UNL d   1      -1.070   6.351   3.994  0.00  0.00     0.043 A 
ATOM     17  C   UNL d   1      -0.304   6.223   5.153  0.00  0.00     0.006 A 
ATOM     18  C   UNL d   1       0.468   5.078   5.344  0.00  0.00     0.043 A 
ATOM     19  C   UNL d   1       0.460   4.062   4.387  0.00  0.00     0.135 A 
ATOM     20  F   UNL d   1       1.237   2.991   4.604  0.00  0.00    -0.205 F 
ENDBRANCH  10  13
ENDBRANCH   8   9
ENDBRANCH   1   8
BRANCH   2  21
ATOM     21  O   UNL d   1       2.243   2.410  -0.116  0.00  0.00    -0.310 OA
BRANCH  21  22
ATOM     22  C   UNL d   1       3.447   2.509   0.554  0.00  0.00     0.076 A 
ATOM     23  C   UNL d   1       4.491   3.165  -0.099  0.00  0.00     0.037 A 
ATOM     24  C   UNL d   1       5.757   3.214   0.489  0.00  0.00     0.003 A 
ATOM     25  C   UNL d   1       5.976   2.614   1.731  0.00  0.00     0.000 A 
ATOM     26  C   UNL d   1       4.920   2.001   2.405  0.00  0.00     0.003 A 
ATOM     27  C   UNL d   1       3.649   1.971   1.831  0.00  0.00     0.037 A 
ENDBRANCH  21  22
ENDBRANCH   2  21
TORSDOF 5
