REMARK  4 active torsions:
REMARK  status: ('A' for Active; 'I' for Inactive)
REMARK    1  A    between atoms: C_3  and  C_1 
REMARK    2  A    between atoms: C_9  and  C_2 
REMARK    3  A    between atoms: C_19  and  C_6 
REMARK    4  A    between atoms: C_13  and  C_16 
ROOT
ATOM      1  C   UNL d   1       0.519  -2.615  -0.259  0.00  0.00     0.187 A 
ATOM      2  N   UNL d   1      -0.170  -3.576  -0.834  0.00  0.00    -0.317 N 
ATOM      3  HN  UNL d   1      -1.131  -3.553  -1.174  1.00  0.00     0.169 HD
ATOM      4  C   UNL d   1       0.728  -4.627  -0.865  0.00  0.00     0.154 A 
ATOM      5  N   UNL d   1       1.919  -4.340  -0.320  0.00  0.00    -0.241 N 
ATOM      6  HN  UNL d   1       2.725  -4.954  -0.204  1.00  0.00     0.196 HD
ATOM      7  O   UNL d   1       1.796  -3.005   0.050  0.00  0.00    -0.217 OA
ENDROOT
BRANCH   1   8
ATOM      8  C   UNL d   1      -0.006  -1.257   0.001  0.00  0.00     0.078 A 
ATOM      9  C   UNL d   1      -1.350  -0.794   0.077  0.00  0.00     0.087 A 
ATOM     10  N   UNL d   1      -1.358   0.525   0.338  0.00  0.00    -0.259 N 
ATOM     11  O   UNL d   1      -0.040   0.925   0.406  0.00  0.00    -0.241 OA
ATOM     12  HN  UNL d   1      -2.180   1.116   0.463  1.00  0.00     0.195 HD
ATOM     13  C   UNL d   1       0.773  -0.145   0.213  0.00  0.00     0.089 A 
ATOM     14  C   UNL d   1       2.224   0.121   0.223  0.00  0.00     0.080 C 
BRANCH   9  15
ATOM     15  C   UNL d   1      -2.602  -1.547   0.007  0.00  0.00     0.054 A 
ATOM     16  C   UNL d   1      -3.698  -1.150  -0.777  0.00  0.00     0.049 A 
ATOM     17 CL   UNL d   1      -3.671   0.243  -1.805  0.00  0.00    -0.083 Cl
ATOM     18  C   UNL d   1      -4.883  -1.905  -0.781  0.00  0.00     0.025 A 
ATOM     19  C   UNL d   1      -4.986  -3.071  -0.023  0.00  0.00     0.005 A 
ATOM     20  C   UNL d   1      -3.910  -3.475   0.757  0.00  0.00     0.043 A 
ATOM     21  C   UNL d   1      -2.745  -2.709   0.780  0.00  0.00     0.130 A 
ATOM     22  F   UNL d   1      -1.754  -3.112   1.592  0.00  0.00    -0.205 F 
ENDBRANCH   9  15
ENDBRANCH   1   8
BRANCH   4  23
ATOM     23  C   UNL d   1       0.418  -5.883  -1.546  0.00  0.00     0.078 A 
ATOM     24  N   UNL d   1       0.930  -7.031  -1.034  0.00  0.00    -0.362 N 
ATOM     25  C   UNL d   1       0.672  -8.181  -1.702  0.00  0.00     0.104 A 
ATOM     26  HN  UNL d   1       1.486  -7.028  -0.179  1.00  0.00     0.165 HD
ATOM     27  C   UNL d   1      -0.066  -8.248  -2.876  0.00  0.00     0.063 A 
ATOM     28  C   UNL d   1      -0.583  -7.052  -3.382  0.00  0.00     0.020 A 
ATOM     29  C   UNL d   1      -0.349  -5.858  -2.707  0.00  0.00     0.034 A 
BRANCH  27  30
ATOM     30  C   UNL d   1      -0.280  -9.551  -3.583  0.00  0.00     0.418 C 
ATOM     31  F   UNL d   1       0.197 -10.628  -2.901  0.00  0.00    -0.166 F 
ATOM     32  F   UNL d   1      -1.598  -9.807  -3.811  0.00  0.00    -0.166 F 
ATOM     33  F   UNL d   1       0.323  -9.582  -4.802  0.00  0.00    -0.166 F 
ENDBRANCH  27  30
ENDBRANCH   4  23
TORSDOF 4
