REMARK  4 active torsions:
REMARK  status: ('A' for Active; 'I' for Inactive)
REMARK    1  A    between atoms: C_4  and  C_1 
REMARK    2  A    between atoms: O_11  and  C_1 
REMARK    3  A    between atoms: O_15  and  C_7 
REMARK    4  A    between atoms: C_18  and  C_13 
ROOT
ATOM      1  C   UNL d   1      -1.825   0.053  -0.112  0.00  0.00     0.218 A 
ATOM      2  C   UNL d   1      -1.887  -1.200   0.779  0.00  0.00     0.207 A 
ATOM      3  C   UNL d   1      -0.371   0.033  -0.623  0.00  0.00     0.207 A 
ATOM      4  C   UNL d   1      -0.550  -1.796   0.828  0.00  0.00     0.028 A 
ATOM      5  C   UNL d   1       0.324  -1.083   0.021  0.00  0.00     0.028 A 
ATOM      6  O   UNL d   1      -2.819  -1.620   1.441  0.00  0.00    -0.288 OA
ATOM      7  O   UNL d   1       0.191   0.818  -1.363  0.00  0.00    -0.288 OA
ATOM      8  C   UNL d   1       1.667  -1.408  -0.055  0.00  0.00     0.016 A 
ATOM      9  C   UNL d   1      -0.123  -2.865   1.597  0.00  0.00     0.016 A 
ATOM     10  C   UNL d   1       1.232  -3.205   1.537  0.00  0.00     0.001 A 
ATOM     11  C   UNL d   1       2.120  -2.483   0.717  0.00  0.00     0.001 A 
ENDROOT
BRANCH   1  12
ATOM     12  C   UNL d   1      -2.858   0.046  -1.235  0.00  0.00     0.025 A 
ATOM     13  C   UNL d   1      -3.814   1.064  -1.397  0.00  0.00     0.075 A 
ATOM     14  C   UNL d   1      -4.751   1.037  -2.428  0.00  0.00     0.038 A 
ATOM     15  C   UNL d   1      -4.759  -0.013  -3.339  0.00  0.00     0.010 A 
ATOM     16  C   UNL d   1      -3.821  -1.044  -3.228  0.00  0.00    -0.058 A 
ATOM     17  C   UNL d   1      -2.885  -1.011  -2.176  0.00  0.00     0.021 A 
BRANCH  13  18
ATOM     18  O   UNL d   1      -3.903   2.149  -0.569  0.00  0.00    -0.360 OA
ATOM     19  H   UNL d   1      -3.196   2.060   0.105  0.00  0.00     0.217 HD
ENDBRANCH  13  18
BRANCH  16  20
ATOM     20  C   UNL d   1      -3.838  -2.174  -4.228  0.00  0.00     0.034 C 
ATOM     21  C   UNL d   1      -4.762  -3.306  -3.807  0.00  0.00     0.010 C 
ENDBRANCH  16  20
ENDBRANCH   1  12
BRANCH   1  22
ATOM     22  O   UNL d   1      -1.991   1.207   0.732  0.00  0.00    -0.370 OA
ATOM     23  H   UNL d   1      -1.392   1.116   1.495  0.00  0.00     0.212 HD
ENDBRANCH   1  22
TORSDOF 4
