REMARK  10 active torsions:
REMARK  status: ('A' for Active; 'I' for Inactive)
REMARK    1  A    between atoms: C_4  and  C_1 
REMARK    2  A    between atoms: C_2  and  C_3 
REMARK    3  A    between atoms: C_3  and  C_23 
REMARK    4  A    between atoms: C_22  and  C_4 
REMARK    5  A    between atoms: O_17  and  C_5 
REMARK    6  A    between atoms: O_18  and  C_6 
REMARK    7  A    between atoms: O_19  and  C_13 
REMARK    8  A    between atoms: O_20  and  C_14 
REMARK    9  A    between atoms: C_21  and  C_22 
REMARK   10  A    between atoms: C_23  and  C_21 
ROOT
ATOM      1  C   UNL d   1       4.975  -1.669   0.003  0.00  0.00     0.015 C 
ENDROOT
BRANCH   1   2
ATOM      2  C   UNL d   1       3.454  -1.461  -0.038  0.00  0.00     0.084 C 
BRANCH   2   3
ATOM      3  C   UNL d   1       2.664  -1.850   1.211  0.00  0.00     0.162 C 
ATOM      4  O   UNL d   1       2.762  -1.130   2.203  0.00  0.00    -0.292 OA
BRANCH   3   5
ATOM      5  C   UNL d   1       1.802  -3.099   1.185  0.00  0.00     0.046 A 
ATOM      6  C   UNL d   1       0.772  -3.420   2.087  0.00  0.00     0.082 A 
ATOM      7  C   UNL d   1       0.067  -4.633   1.916  0.00  0.00     0.040 A 
ATOM      8  C   UNL d   1       0.341  -5.522   0.874  0.00  0.00     0.039 A 
ATOM      9  C   UNL d   1       1.333  -5.206  -0.034  0.00  0.00     0.069 A 
ATOM     10  C   UNL d   1       2.053  -4.020   0.140  0.00  0.00     0.054 A 
BRANCH   6  11
ATOM     11  O   UNL d   1       0.186  -2.669   3.068  0.00  0.00    -0.355 OA
ATOM     12  C   UNL d   1       0.995  -1.966   3.997  0.00  0.00     0.210 C 
ENDBRANCH   6  11
BRANCH   9  13
ATOM     13  O   UNL d   1       1.725  -5.951  -1.110  0.00  0.00    -0.356 OA
ATOM     14  C   UNL d   1       0.962  -7.116  -1.400  0.00  0.00     0.210 C 
ENDBRANCH   9  13
ENDBRANCH   3   5
ENDBRANCH   2   3
ENDBRANCH   1   2
BRANCH   1  15
ATOM     15  C   UNL d   1       5.520  -3.110   0.016  0.00  0.00     0.084 C 
BRANCH  15  16
ATOM     16  C   UNL d   1       5.467  -3.774   1.387  0.00  0.00     0.162 C 
ATOM     17  O   UNL d   1       4.619  -3.457   2.226  0.00  0.00    -0.292 OA
BRANCH  16  18
ATOM     18  C   UNL d   1       6.439  -4.809   1.790  0.00  0.00     0.046 A 
ATOM     19  C   UNL d   1       6.109  -5.919   2.587  0.00  0.00     0.082 A 
ATOM     20  C   UNL d   1       7.143  -6.656   3.181  0.00  0.00     0.040 A 
ATOM     21  C   UNL d   1       8.480  -6.337   2.959  0.00  0.00     0.039 A 
ATOM     22  C   UNL d   1       8.805  -5.282   2.114  0.00  0.00     0.069 A 
ATOM     23  C   UNL d   1       7.790  -4.510   1.553  0.00  0.00     0.054 A 
BRANCH  19  24
ATOM     24  O   UNL d   1       4.886  -6.386   2.979  0.00  0.00    -0.355 OA
ATOM     25  C   UNL d   1       3.818  -6.317   2.052  0.00  0.00     0.210 C 
ENDBRANCH  19  24
BRANCH  22  26
ATOM     26  O   UNL d   1      10.074  -4.868   1.824  0.00  0.00    -0.356 OA
ATOM     27  C   UNL d   1      11.067  -5.885   1.886  0.00  0.00     0.210 C 
ENDBRANCH  22  26
ENDBRANCH  16  18
ENDBRANCH  15  16
ENDBRANCH   1  15
TORSDOF 10
