REMARK  4 active torsions:
REMARK  status: ('A' for Active; 'I' for Inactive)
REMARK    1  A    between atoms: C_5  and  C_1 
REMARK    2  A    between atoms: N_2  and  C_6 
REMARK    3  A    between atoms: N_7  and  C_3 
REMARK    4  A    between atoms: O_14  and  C_5 
ROOT
ATOM      1  C   UNL d   1       1.478  -0.212   0.016  0.00  0.00     0.068 A 
ATOM      2  C   UNL d   1       0.639  -1.358  -0.033  0.00  0.00     0.046 A 
ATOM      3  C   UNL d   1       0.924   1.085   0.086  0.00  0.00     0.056 A 
ATOM      4  C   UNL d   1      -0.461   1.259   0.091  0.00  0.00     0.104 A 
ATOM      5  C   UNL d   1      -0.755  -1.127  -0.052  0.00  0.00     0.033 A 
ATOM      6  C   UNL d   1      -1.306   0.156   0.010  0.00  0.00     0.038 A 
ENDROOT
BRANCH   2   7
ATOM      7  N   UNL d   1       1.121  -2.661  -0.006  0.00  0.00    -0.376 N 
ATOM      8  C   UNL d   1       0.314  -3.757   0.566  0.00  0.00     0.149 C 
ATOM      9  C   UNL d   1       1.257  -4.877   1.036  0.00  0.00     0.187 C 
ATOM     10  O   UNL d   1       2.077  -5.357  -0.045  0.00  0.00    -0.388 OA
ATOM     11  C   UNL d   1       2.877  -4.281  -0.573  0.00  0.00     0.187 C 
ATOM     12  C   UNL d   1       1.994  -3.135  -1.102  0.00  0.00     0.149 C 
ENDBRANCH   2   7
BRANCH   1  13
ATOM     13  C   UNL d   1       2.969  -0.311   0.125  0.00  0.00     0.295 C 
ATOM     14  O   UNL d   1       3.591  -1.191   0.696  0.00  0.00    -0.259 OA
BRANCH  13  15
ATOM     15  O   UNL d   1       3.527   0.745  -0.529  0.00  0.00    -0.322 OA
ATOM     16  C   UNL d   1       4.956   0.793  -0.483  0.00  0.00     0.213 C 
ENDBRANCH  13  15
ENDBRANCH   1  13
BRANCH   4  17
ATOM     17  N   UNL d   1      -1.028   2.608   0.214  0.00  0.00    -0.116 N 
ATOM     18  O   UNL d   1      -0.242   3.557   0.317  0.00  0.00    -0.532 OA
ATOM     19  O   UNL d   1      -2.264   2.713   0.217  0.00  0.00    -0.532 OA
ENDBRANCH   4  17
TORSDOF 4
