REMARK  8 active torsions:
REMARK  status: ('A' for Active; 'I' for Inactive)
REMARK    1  A    between atoms: C_9  and  C_1 
REMARK    2  A    between atoms: N_20  and  C_1 
REMARK    3  A    between atoms: O_8  and  N_2 
REMARK    4  A    between atoms: C_4  and  O_8 
REMARK    5  A    between atoms: C_11  and  C_4 
REMARK    6  A    between atoms: O_5  and  C_9 
REMARK    7  A    between atoms: C_6  and  O_5 
REMARK    8  A    between atoms: C_12  and  C_13 
ROOT
ATOM      1  C   UNL d   1       2.976   0.448  -1.731  0.00  0.00     0.125 C 
ATOM      2  N   UNL d   1       2.093   0.758  -2.634  0.00  0.00    -0.243 N 
ATOM      3  HN  UNL d   1       2.218   0.593  -3.633  1.00  0.00     0.196 HD
ENDROOT
BRANCH   1   4
ATOM      4  C   UNL d   1       4.212  -0.385  -2.208  0.00  0.00     0.193 C 
ATOM      5  C   UNL d   1       5.252  -0.635  -1.119  0.00  0.00     0.048 C 
BRANCH   4   6
ATOM      6  O   UNL d   1       4.919   0.220  -3.290  0.00  0.00    -0.337 OA
BRANCH   6   7
ATOM      7  C   UNL d   1       4.572  -0.115  -4.572  0.00  0.00     0.091 A 
ATOM      8  C   UNL d   1       4.736   0.864  -5.567  0.00  0.00     0.069 A 
ATOM      9  C   UNL d   1       4.373   0.608  -6.893  0.00  0.00     0.050 A 
ATOM     10 CL   UNL d   1       5.415   2.412  -5.201  0.00  0.00    -0.081 Cl
ATOM     11  C   UNL d   1       3.866  -0.642  -7.235  0.00  0.00     0.035 A 
ATOM     12  C   UNL d   1       3.760  -1.644  -6.274  0.00  0.00     0.026 A 
ATOM     13 CL   UNL d   1       3.387  -0.963  -8.856  0.00  0.00    -0.084 Cl
ATOM     14  C   UNL d   1       4.127  -1.386  -4.952  0.00  0.00     0.040 A 
ENDBRANCH   6   7
ENDBRANCH   4   6
ENDBRANCH   1   4
BRANCH   1  15
ATOM     15  N   UNL d   1       2.822   0.751  -0.395  0.00  0.00    -0.385 N 
ATOM     16  H   UNL d   1       1.893   1.072  -0.138  0.00  0.00     0.157 HD
ATOM     17  H   UNL d   1       3.295   0.205   0.310  0.00  0.00     0.157 HD
ENDBRANCH   1  15
BRANCH   2  18
ATOM     18  O   UNL d   1       0.939   1.351  -2.071  0.00  0.00    -0.193 OA
BRANCH  18  19
ATOM     19  C   UNL d   1       0.336   2.170  -2.985  0.00  0.00     0.315 C 
ATOM     20  O   UNL d   1       0.864   2.730  -3.936  0.00  0.00    -0.257 OA
BRANCH  19  21
ATOM     21  C   UNL d   1      -1.123   2.304  -2.687  0.00  0.00     0.041 A 
ATOM     22  C   UNL d   1      -1.889   3.166  -3.480  0.00  0.00     0.018 A 
ATOM     23  C   UNL d   1      -3.273   3.279  -3.287  0.00  0.00     0.009 A 
ATOM     24  C   UNL d   1      -3.941   2.536  -2.296  0.00  0.00    -0.051 A 
ATOM     25  C   UNL d   1      -3.157   1.677  -1.507  0.00  0.00     0.009 A 
ATOM     26  C   UNL d   1      -1.770   1.560  -1.696  0.00  0.00     0.018 A 
BRANCH  24  27
ATOM     27  C   UNL d   1      -5.464   2.687  -2.099  0.00  0.00    -0.024 C 
ATOM     28  C   UNL d   1      -6.036   1.791  -0.977  0.00  0.00     0.019 C 
ATOM     29  C   UNL d   1      -5.796   4.149  -1.729  0.00  0.00     0.019 C 
ATOM     30  C   UNL d   1      -6.219   2.320  -3.397  0.00  0.00     0.019 C 
ENDBRANCH  24  27
ENDBRANCH  19  21
ENDBRANCH  18  19
ENDBRANCH   2  18
TORSDOF 8
