REMARK  9 active torsions:
REMARK  status: ('A' for Active; 'I' for Inactive)
REMARK    1  A    between atoms: C_5  and  C_1 
REMARK    2  A    between atoms: N_4  and  C_2 
REMARK    3  A    between atoms: C_3  and  N_4 
REMARK    4  A    between atoms: N_9  and  C_3 
REMARK    5  A    between atoms: O_12  and  C_5 
REMARK    6  A    between atoms: CA_13  and  N_9 
REMARK    7  A    between atoms: C_15  and  CA_13 
REMARK    8  A    between atoms: C_17  and  CA_13 
REMARK    9  A    between atoms: O_14  and  C_15 
ROOT
ATOM      1  N   UNL d   1       2.319   1.583  -0.211  0.00  0.00    -0.332 N 
ATOM      2  H   UNL d   1       1.633   1.461  -0.955  0.00  0.00     0.168 HD
ENDROOT
BRANCH   1   3
ATOM      3  C   UNL d   1       2.390   2.850   0.312  0.00  0.00     0.172 C 
ATOM      4  S   UNL d   1       3.749   3.824   0.402  0.00  0.00    -0.041 SA
BRANCH   3   5
ATOM      5  N   UNL d   1       1.223   3.384   0.779  0.00  0.00    -0.360 N 
ATOM      6  H   UNL d   1       1.351   4.320   1.153  0.00  0.00     0.162 HD
BRANCH   5   7
ATOM      7  CA  UNL d   1       0.076   2.644   1.328  0.00  0.00     0.107 C 
BRANCH   7   8
ATOM      8  C   UNL d   1       0.475   1.911   2.629  0.00  0.00     0.189 C 
BRANCH   8   9
ATOM      9  O   UNL d   1       0.999   2.822   3.595  0.00  0.00    -0.399 OA
ATOM     10  H   UNL d   1       1.836   3.160   3.229  0.00  0.00     0.209 HD
ENDBRANCH   8   9
ENDBRANCH   7   8
BRANCH   7  11
ATOM     11  C   UNL d   1      -1.090   3.612   1.613  0.00  0.00     0.023 C 
ATOM     12  C   UNL d   1      -1.673   4.233   0.351  0.00  0.00     0.007 C 
ENDBRANCH   7  11
ENDBRANCH   5   7
ENDBRANCH   3   5
ENDBRANCH   1   3
BRANCH   1  13
ATOM     13  C   UNL d   1       3.348   0.633  -0.154  0.00  0.00     0.058 A 
ATOM     14  C   UNL d   1       3.588  -0.328  -1.132  0.00  0.00     0.106 A 
ATOM     15  S   UNL d   1       4.884  -1.369  -0.676  0.00  0.00    -0.094 SA
ATOM     16  C   UNL d   1       5.138  -0.547   0.789  0.00  0.00     0.053 A 
ATOM     17  C   UNL d   1       4.253   0.492   0.948  0.00  0.00     0.038 A 
BRANCH  14  18
ATOM     18  C   UNL d   1       2.929  -0.492  -2.418  0.00  0.00     0.302 C 
ATOM     19  O   UNL d   1       1.931   0.133  -2.775  0.00  0.00    -0.259 OA
BRANCH  18  20
ATOM     20  O   UNL d   1       3.587  -1.402  -3.198  0.00  0.00    -0.322 OA
ATOM     21  C   UNL d   1       3.101  -1.585  -4.529  0.00  0.00     0.213 C 
ENDBRANCH  18  20
ENDBRANCH  14  18
ENDBRANCH   1  13
TORSDOF 9
