REMARK  7 active torsions:
REMARK  status: ('A' for Active; 'I' for Inactive)
REMARK    1  A    between atoms: C_5  and  C_1 
REMARK    2  A    between atoms: S_16  and  C_6 
REMARK    3  A    between atoms: C_11  and  C_13 
REMARK    4  A    between atoms: C_14  and  O_17 
REMARK    5  A    between atoms: C_26  and  S_16 
REMARK    6  A    between atoms: O_17  and  C_25 
REMARK    7  A    between atoms: C_27  and  C_26 
ROOT
ATOM      1  C   UNL d   1      -0.302  -1.026   0.026  0.00  0.00     0.177 A 
ATOM      2  O   UNL d   1      -1.195   0.014  -0.143  0.00  0.00    -0.267 OA
ATOM      3  N   UNL d   1       0.935  -0.593   0.172  0.00  0.00    -0.277 N 
ATOM      4  HN  UNL d   1       1.763  -1.167   0.328  1.00  0.00     0.189 HD
ATOM      5  C   UNL d   1      -0.360   1.109  -0.113  0.00  0.00     0.204 A 
ATOM      6  N   UNL d   1       0.897   0.771   0.076  0.00  0.00    -0.272 N 
ATOM      7  HN  UNL d   1       1.693   1.406   0.139  1.00  0.00     0.189 HD
ENDROOT
BRANCH   5   8
ATOM      8  S   UNL d   1      -0.824   2.755  -0.397  0.00  0.00    -0.080 SA
BRANCH   8   9
ATOM      9  C   UNL d   1      -2.514   2.831   0.239  0.00  0.00     0.121 C 
BRANCH   9  10
ATOM     10  C   UNL d   1      -3.043   4.246   0.131  0.00  0.00    -0.048 A 
ATOM     11  C   UNL d   1      -3.674   4.686  -1.039  0.00  0.00     0.011 A 
ATOM     12  C   UNL d   1      -4.104   6.011  -1.159  0.00  0.00     0.037 A 
ATOM     13  C   UNL d   1      -3.919   6.923  -0.116  0.00  0.00     0.078 A 
ATOM     14  C   UNL d   1      -3.252   6.506   1.032  0.00  0.00     0.037 A 
ATOM     15  C   UNL d   1      -2.834   5.174   1.163  0.00  0.00     0.011 A 
BRANCH  13  16
ATOM     16  O   UNL d   1      -4.362   8.183  -0.377  0.00  0.00    -0.255 OA
BRANCH  16  17
ATOM     17  C   UNL d   1      -4.814   9.012   0.685  0.00  0.00     0.530 C 
ATOM     18  F   UNL d   1      -4.852   8.409   1.891  0.00  0.00    -0.144 F 
ATOM     19  F   UNL d   1      -4.018  10.101   0.769  0.00  0.00    -0.144 F 
ATOM     20  F   UNL d   1      -6.067   9.432   0.396  0.00  0.00    -0.144 F 
ENDBRANCH  16  17
ENDBRANCH  13  16
ENDBRANCH   9  10
ENDBRANCH   8   9
ENDBRANCH   5   8
BRANCH   1  21
ATOM     21  C   UNL d   1      -0.794  -2.401  -0.011  0.00  0.00     0.039 A 
ATOM     22  C   UNL d   1       0.064  -3.503   0.155  0.00  0.00     0.020 A 
ATOM     23  N   UNL d   1      -0.360  -4.797   0.091  0.00  0.00    -0.355 N 
ATOM     24  C   UNL d   1       1.542  -3.361   0.406  0.00  0.00     0.069 C 
ATOM     25  C   UNL d   1      -1.674  -5.057  -0.144  0.00  0.00     0.117 A 
ATOM     26  HN  UNL d   1       0.301  -5.563   0.219  1.00  0.00     0.166 HD
ATOM     27  C   UNL d   1      -2.590  -4.024  -0.305  0.00  0.00     0.035 A 
ATOM     28  C   UNL d   1      -2.146  -2.696  -0.238  0.00  0.00     0.020 A 
BRANCH  25  29
ATOM     29  C   UNL d   1      -2.141  -6.506  -0.244  0.00  0.00     0.432 C 
ATOM     30  F   UNL d   1      -1.156  -7.433  -0.077  0.00  0.00    -0.165 F 
ATOM     31  F   UNL d   1      -3.100  -6.810   0.678  0.00  0.00    -0.165 F 
ATOM     32  F   UNL d   1      -2.706  -6.783  -1.458  0.00  0.00    -0.165 F 
ENDBRANCH  25  29
ENDBRANCH   1  21
TORSDOF 7
