REMARK  5 active torsions:
REMARK  status: ('A' for Active; 'I' for Inactive)
REMARK    1  A    between atoms: C_2  and  C_1 
REMARK    2  A    between atoms: O_13  and  C_2 
REMARK    3  A    between atoms: C_15  and  O_13 
REMARK    4  A    between atoms: N_14  and  C_16 
REMARK    5  A    between atoms: C_16  and  C_15 
ROOT
ATOM      1  C   UNL d   1      -1.528   0.286   0.087  0.00  0.00     0.049 C 
ATOM      2  C   UNL d   1      -0.766   1.036   1.209  0.00  0.00     0.024 C 
ATOM      3  C   UNL d   1      -0.993   0.768  -1.276  0.00  0.00     0.024 C 
ATOM      4  C   UNL d   1      -1.248  -1.229   0.240  0.00  0.00     0.024 C 
ATOM      5  C   UNL d   1       0.259  -1.509   0.141  0.00  0.00    -0.013 C 
ATOM      6  C   UNL d   1       0.742   0.762   1.117  0.00  0.00    -0.013 C 
ATOM      7  C   UNL d   1       0.519   0.490  -1.379  0.00  0.00    -0.013 C 
ATOM      8  C   UNL d   1       0.988  -0.748   1.260  0.00  0.00     0.009 C 
ATOM      9  C   UNL d   1       0.770  -1.021  -1.225  0.00  0.00     0.009 C 
ATOM     10  C   UNL d   1       1.253   1.237  -0.252  0.00  0.00     0.009 C 
ENDROOT
BRANCH   1  11
ATOM     11  C   UNL d   1      -3.023   0.527   0.236  0.00  0.00     0.267 C 
ATOM     12  O   UNL d   1      -3.532   1.118   1.183  0.00  0.00    -0.264 OA
BRANCH  11  13
ATOM     13  O   UNL d   1      -3.729  -0.105  -0.743  0.00  0.00    -0.319 OA
BRANCH  13  14
ATOM     14  C   UNL d   1      -5.078  -0.438  -0.374  0.00  0.00     0.209 C 
BRANCH  14  15
ATOM     15  C   UNL d   1      -6.044   0.757  -0.447  0.00  0.00     0.298 C 
BRANCH  15  16
ATOM     16  N   UNL d   1      -7.428   0.428  -0.044  0.00  0.00     0.082 N 
ATOM     17  C   UNL d   1      -7.495  -0.039   1.345  0.00  0.00     0.309 C 
ATOM     18  C   UNL d   1      -8.276   1.616  -0.190  0.00  0.00     0.309 C 
ENDBRANCH  15  16
ENDBRANCH  14  15
ENDBRANCH  13  14
ENDBRANCH  11  13
ENDBRANCH   1  11
TORSDOF 5
