REMARK  4 active torsions:
REMARK  status: ('A' for Active; 'I' for Inactive)
REMARK    1  A    between atoms: C_8  and  C_1 
REMARK    2  A    between atoms: N_7  and  C_2 
REMARK    3  A    between atoms: C_11  and  C_3 
REMARK       I    between atoms: C_9  and  N_7 
REMARK    4  A    between atoms: C_10  and  C_9 
ROOT
ATOM      1  C   UNL d   1       1.562   0.770  -0.152  0.00  0.00     0.147 A 
ATOM      2  C   UNL d   1       0.151  -0.943   0.089  0.00  0.00     0.138 A 
ATOM      3  C   UNL d   1       1.503  -0.651   0.037  0.00  0.00     0.053 A 
ATOM      4  N   UNL d   1       0.323   1.303  -0.152  0.00  0.00    -0.292 N 
ATOM      5  HN  UNL d   1       0.069   2.285  -0.263  1.00  0.00     0.187 HD
ATOM      6  N   UNL d   1      -0.504   0.261   0.026  0.00  0.00    -0.280 N 
ATOM      7  C   UNL d   1      -1.898   0.526   0.299  0.00  0.00     0.179 C 
ENDROOT
BRANCH   2   8
ATOM      8  N   UNL d   1      -0.377  -2.203   0.309  0.00  0.00    -0.305 N 
ATOM      9  C   UNL d   1      -1.387  -2.876  -0.452  0.00  0.00     0.281 C 
ATOM     10  O   UNL d   1      -1.747  -3.936   0.044  0.00  0.00    -0.265 OA
ATOM     11  H   UNL d   1       0.097  -2.807   0.972  0.00  0.00     0.170 HD
BRANCH   9  12
ATOM     12  C   UNL d   1      -1.817  -2.398  -1.746  0.00  0.00     0.142 A 
ATOM     13  O   UNL d   1      -1.385  -1.201  -2.248  0.00  0.00    -0.317 OA
ATOM     14  C   UNL d   1      -1.940  -1.042  -3.477  0.00  0.00     0.143 A 
ATOM     15  C   UNL d   1      -2.707  -2.133  -3.801  0.00  0.00     0.027 A 
ATOM     16  C   UNL d   1      -2.629  -3.008  -2.688  0.00  0.00     0.045 A 
ENDBRANCH   9  12
ENDBRANCH   2   8
BRANCH   3  17
ATOM     17  C   UNL d   1       2.562  -1.653   0.110  0.00  0.00    -0.020 A 
ATOM     18  C   UNL d   1       2.475  -2.841  -0.638  0.00  0.00     0.015 A 
ATOM     19  C   UNL d   1       3.468  -3.818  -0.540  0.00  0.00     0.043 A 
ATOM     20  C   UNL d   1       4.567  -3.596   0.279  0.00  0.00     0.116 A 
ATOM     21  C   UNL d   1       4.685  -2.420   1.008  0.00  0.00     0.043 A 
ATOM     22  F   UNL d   1       5.524  -4.527   0.364  0.00  0.00    -0.206 F 
ATOM     23  C   UNL d   1       3.679  -1.452   0.932  0.00  0.00     0.015 A 
ENDBRANCH   3  17
BRANCH   1  24
ATOM     24  C   UNL d   1       2.784   1.645  -0.316  0.00  0.00     0.434 C 
ATOM     25  F   UNL d   1       3.884   0.944  -0.695  0.00  0.00    -0.165 F 
ATOM     26  F   UNL d   1       2.611   2.616  -1.251  0.00  0.00    -0.165 F 
ATOM     27  F   UNL d   1       3.107   2.265   0.850  0.00  0.00    -0.165 F 
ENDBRANCH   1  24
TORSDOF 4
