REMARK  8 active torsions:
REMARK  status: ('A' for Active; 'I' for Inactive)
REMARK    1  A    between atoms: C_6  and  C_1 
REMARK    2  A    between atoms: N_19  and  C_4 
REMARK    3  A    between atoms: C_5  and  N_18 
REMARK    4  A    between atoms: N_7  and  C_5 
REMARK    5  A    between atoms: C_8  and  N_7 
REMARK    6  A    between atoms: N_18  and  C_25 
REMARK    7  A    between atoms: C_26  and  N_19 
REMARK    8  A    between atoms: C_25  and  C_26 
ROOT
ATOM      1  C   UNL d   1      -1.351  -2.738   6.441  0.00  0.00     0.137 C 
ENDROOT
BRANCH   1   2
ATOM      2  N   UNL d   1      -2.026  -3.714   7.286  0.00  0.00    -0.366 N 
ATOM      3  H   UNL d   1      -1.888  -4.695   7.075  0.00  0.00     0.161 HD
BRANCH   2   4
ATOM      4  C   UNL d   1      -3.022  -3.470   8.190  0.00  0.00     0.172 C 
ATOM      5  S   UNL d   1      -3.853  -2.035   8.366  0.00  0.00    -0.041 SA
BRANCH   4   6
ATOM      6  N   UNL d   1      -3.380  -4.547   8.959  0.00  0.00    -0.333 N 
ATOM      7  H   UNL d   1      -4.276  -4.442   9.423  0.00  0.00     0.168 HD
BRANCH   6   8
ATOM      8  C   UNL d   1      -2.552  -5.576   9.469  0.00  0.00     0.040 A 
ATOM      9  C   UNL d   1      -3.133  -6.740   9.998  0.00  0.00    -0.035 A 
ATOM     10  C   UNL d   1      -2.311  -7.678  10.653  0.00  0.00     0.015 A 
ATOM     11  C   UNL d   1      -4.597  -7.069   9.879  0.00  0.00     0.050 C 
ATOM     12  C   UNL d   1      -0.931  -7.479  10.780  0.00  0.00    -0.061 A 
ATOM     13  C   UNL d   1      -0.360  -6.341  10.213  0.00  0.00     0.009 A 
ATOM     14  C   UNL d   1      -0.099  -8.448  11.565  0.00  0.00     0.048 C 
ATOM     15  C   UNL d   1      -1.163  -5.400   9.568  0.00  0.00     0.030 A 
ENDBRANCH   6   8
ENDBRANCH   4   6
ENDBRANCH   2   4
ENDBRANCH   1   2
BRANCH   1  16
ATOM     16  C   UNL d   1      -0.146  -3.351   5.713  0.00  0.00     0.114 C 
BRANCH  16  17
ATOM     17  N   UNL d   1       0.614  -2.313   5.047  0.00  0.00    -0.263 NA
ATOM     18  H   UNL d   1       0.107  -1.715   4.405  0.00  0.00     0.130 HD
BRANCH  17  19
ATOM     19  C   UNL d   1       1.771  -2.713   4.408  0.00  0.00     0.157 A 
ATOM     20  N   UNL d   1       2.148  -1.948   3.382  0.00  0.00    -0.329 N 
ATOM     21  C   UNL d   1       3.313  -2.250   2.755  0.00  0.00     0.120 A 
ATOM     22  HN  UNL d   1       1.577  -1.159   3.078  1.00  0.00     0.168 HD
ATOM     23  C   UNL d   1       4.088  -3.329   3.141  0.00  0.00     0.051 A 
ATOM     24  C   UNL d   1       3.604  -4.068   4.189  0.00  0.00     0.093 A 
ATOM     25  N   UNL d   1       2.457  -3.783   4.830  0.00  0.00    -0.343 N 
ATOM     26  HN  UNL d   1       2.123  -4.357   5.604  1.00  0.00     0.167 HD
BRANCH  21  27
ATOM     27  C   UNL d   1       3.796  -1.373   1.614  0.00  0.00     0.432 C 
ATOM     28  F   UNL d   1       2.950  -0.352   1.290  0.00  0.00    -0.165 F 
ATOM     29  F   UNL d   1       3.981  -2.077   0.459  0.00  0.00    -0.165 F 
ATOM     30  F   UNL d   1       4.999  -0.789   1.881  0.00  0.00    -0.165 F 
ENDBRANCH  21  27
ENDBRANCH  17  19
ENDBRANCH  16  17
ENDBRANCH   1  16
TORSDOF 8
