REMARK  5 active torsions:
REMARK  status: ('A' for Active; 'I' for Inactive)
REMARK    1  A    between atoms: C_4  and  N_1 
REMARK    2  A    between atoms: C_3  and  C_12 
REMARK    3  A    between atoms: S_14  and  C_4 
REMARK    4  A    between atoms: N_13  and  C_5 
REMARK    5  A    between atoms: N_8  and  N_6 
ROOT
ATOM      1  C   UNL d   1       0.336   0.860   1.108  0.00  0.00     0.159 C 
ATOM      2  N   UNL d   1       0.918   1.536   2.059  0.00  0.00    -0.280 N 
ATOM      3  HN  UNL d   1       0.393   2.092   2.734  1.00  0.00     0.189 HD
ENDROOT
BRANCH   2   4
ATOM      4  N   UNL d   1       2.307   1.445   2.088  0.00  0.00    -0.309 N 
ATOM      5  C   UNL d   1       2.852   2.403   2.765  0.00  0.00     0.122 C 
ATOM      6  HN  UNL d   1       2.836   0.705   1.627  1.00  0.00     0.186 HD
BRANCH   5   7
ATOM      7  C   UNL d   1       4.322   2.555   2.822  0.00  0.00     0.024 A 
ATOM      8  C   UNL d   1       4.866   3.851   2.837  0.00  0.00     0.047 A 
ATOM      9 CL   UNL d   1       3.893   5.282   2.849  0.00  0.00    -0.083 Cl
ATOM     10  C   UNL d   1       6.255   4.038   2.799  0.00  0.00     0.025 A 
ATOM     11  C   UNL d   1       7.110   2.942   2.748  0.00  0.00     0.003 A 
ATOM     12  C   UNL d   1       6.581   1.655   2.753  0.00  0.00     0.025 A 
ATOM     13  C   UNL d   1       5.194   1.454   2.795  0.00  0.00     0.047 A 
ATOM     14 CL   UNL d   1       4.675  -0.194   2.873  0.00  0.00    -0.083 Cl
ENDBRANCH   5   7
ENDBRANCH   2   4
BRANCH   1  15
ATOM     15  N   UNL d   1       0.957   0.113   0.134  0.00  0.00    -0.332 N 
ATOM     16  C   UNL d   1       1.907   0.684  -0.524  0.00  0.00     0.179 C 
ATOM     17  HN  UNL d   1       0.678  -0.849  -0.059  1.00  0.00     0.168 HD
BRANCH  16  18
ATOM     18  N   UNL d   1       2.656   0.117  -1.530  0.00  0.00    -0.386 N 
ATOM     19  C   UNL d   1       3.837   0.770  -2.061  0.00  0.00     0.149 C 
ATOM     20  C   UNL d   1       2.221  -1.088  -2.214  0.00  0.00     0.149 C 
ENDBRANCH  16  18
ENDBRANCH   1  15
BRANCH   1  21
ATOM     21  S   UNL d   1      -1.427   0.851   1.020  0.00  0.00    -0.097 SA
ATOM     22  C   UNL d   1      -1.843   1.341   2.704  0.00  0.00     0.099 C 
ENDBRANCH   1  21
TORSDOF 5
