REMARK  5 active torsions:
REMARK  status: ('A' for Active; 'I' for Inactive)
REMARK    1  A    between atoms: N_2  and  C_1 
REMARK    2  A    between atoms: C_3  and  C_1 
REMARK    3  A    between atoms: O_9  and  C_3 
REMARK    4  A    between atoms: C_8  and  C_4 
REMARK    5  A    between atoms: C_16  and  O_9 
ROOT
ATOM      1  C   UNL d   1       0.941   0.093   0.078  0.00  0.00     0.178 C 
ATOM      2  C   UNL d   1       2.276  -0.039   0.165  0.00  0.00     0.053 C 
ENDROOT
BRANCH   1   3
ATOM      3  N   UNL d   1       0.148  -0.055   1.260  0.00  0.00    -0.109 N 
ATOM      4  O   UNL d   1      -0.245  -1.195   1.533  0.00  0.00    -0.532 OA
ATOM      5  O   UNL d   1      -0.080   0.972   1.914  0.00  0.00    -0.532 OA
ENDBRANCH   1   3
BRANCH   1   6
ATOM      6  C   UNL d   1       0.273   0.500  -1.160  0.00  0.00     0.316 C 
ATOM      7  O   UNL d   1       0.889   0.740  -2.192  0.00  0.00    -0.257 OA
BRANCH   6   8
ATOM      8  O   UNL d   1      -1.064   0.650  -1.002  0.00  0.00    -0.317 OA
BRANCH   8   9
ATOM      9  C   UNL d   1      -1.729   1.396  -2.034  0.00  0.00     0.175 C 
ATOM     10  C   UNL d   1      -1.674   2.867  -1.662  0.00  0.00     0.034 C 
ENDBRANCH   8   9
ENDBRANCH   6   8
ENDBRANCH   1   6
BRANCH   2  11
ATOM     11  C   UNL d   1       3.066  -0.340   1.357  0.00  0.00    -0.034 A 
ATOM     12  C   UNL d   1       3.383  -1.664   1.672  0.00  0.00     0.013 A 
ATOM     13  C   UNL d   1       4.215  -1.944   2.758  0.00  0.00     0.024 A 
ATOM     14  C   UNL d   1       4.725  -0.900   3.529  0.00  0.00     0.034 A 
ATOM     15  C   UNL d   1       4.393   0.421   3.236  0.00  0.00     0.024 A 
ATOM     16 CL   UNL d   1       5.787  -1.245   4.838  0.00  0.00    -0.084 Cl
ATOM     17  C   UNL d   1       3.560   0.703   2.151  0.00  0.00     0.013 A 
ENDBRANCH   2  11
TORSDOF 5
