REMARK  5 active torsions:
REMARK  status: ('A' for Active; 'I' for Inactive)
REMARK    1  A    between atoms: N_14  and  C_6 
REMARK    2  A    between atoms: N_12  and  C_17 
REMARK    3  A    between atoms: C_21  and  N_14 
REMARK    4  A    between atoms: C_17  and  C_18 
REMARK    5  A    between atoms: C_18  and  C_21 
ROOT
ATOM      1  C   UNL d   1       2.456   0.496   0.082  0.00  0.00     0.089 A 
ATOM      2  C   UNL d   1       2.654  -0.868   0.304  0.00  0.00     0.043 A 
ATOM      3  S   UNL d   1       3.818   1.456   0.409  0.00  0.00    -0.075 SA
ATOM      4  C   UNL d   1       4.015  -1.082   0.789  0.00  0.00    -0.029 A 
ATOM      5  C   UNL d   1       4.724   0.106   0.875  0.00  0.00    -0.008 A 
ATOM      6  C   UNL d   1       1.519  -1.688   0.043  0.00  0.00     0.094 A 
ATOM      7  N   UNL d   1       1.339   1.101  -0.349  0.00  0.00    -0.346 N 
ATOM      8  HN  UNL d   1       1.264   2.106  -0.510  1.00  0.00     0.167 HD
ATOM      9  N   UNL d   1       0.373  -1.072  -0.367  0.00  0.00    -0.342 N 
ATOM     10  HN  UNL d   1      -0.466  -1.625  -0.541  1.00  0.00     0.167 HD
ATOM     11  C   UNL d   1       0.345   0.248  -0.541  0.00  0.00     0.182 A 
ATOM     12  C   UNL d   1       4.670  -2.388   1.163  0.00  0.00     0.041 C 
ATOM     13  C   UNL d   1       6.131   0.269   1.359  0.00  0.00     0.047 C 
ATOM     14  C   UNL d   1       5.993  -2.187   1.933  0.00  0.00     0.005 C 
ATOM     15  C   UNL d   1       6.862  -1.074   1.328  0.00  0.00     0.005 C 
ENDROOT
BRANCH   6  16
ATOM     16  N   UNL d   1       1.484  -3.097   0.180  0.00  0.00    -0.278 NA
ATOM     17  H   UNL d   1       2.316  -3.506  -0.226  0.00  0.00     0.129 HD
BRANCH  16  18
ATOM     18  C   UNL d   1       0.218  -3.666  -0.299  0.00  0.00     0.095 C 
BRANCH  18  19
ATOM     19  C   UNL d   1       0.097  -5.177  -0.068  0.00  0.00     0.045 C 
BRANCH  19  20
ATOM     20  C   UNL d   1       0.140  -5.537   1.421  0.00  0.00     0.273 C 
BRANCH  20  21
ATOM     21  N   UNL d   1      -0.100  -6.970   1.679  0.00  0.00     0.092 N 
ATOM     22  C   UNL d   1      -1.509  -7.386   1.472  0.00  0.00     0.298 C 
ATOM     23  C   UNL d   1      -2.483  -6.873   2.547  0.00  0.00     0.198 C 
ATOM     24  O   UNL d   1      -2.070  -7.283   3.856  0.00  0.00    -0.388 OA
ATOM     25  C   UNL d   1      -0.742  -6.824   4.134  0.00  0.00     0.198 C 
ATOM     26  C   UNL d   1       0.263  -7.317   3.076  0.00  0.00     0.298 C 
ENDBRANCH  20  21
ENDBRANCH  19  20
ENDBRANCH  18  19
ENDBRANCH  16  18
ENDBRANCH   6  16
TORSDOF 5
