REMARK  6 active torsions:
REMARK  status: ('A' for Active; 'I' for Inactive)
REMARK    1  A    between atoms: N_3  and  C_1 
REMARK    2  A    between atoms: C_6  and  C_2 
REMARK       I    between atoms: C_5  and  N_3 
REMARK    3  A    between atoms: C_4  and  C_9 
REMARK    4  A    between atoms: C_11  and  C_5 
REMARK    5  A    between atoms: O_21  and  C_6 
REMARK    6  A    between atoms: C_22  and  O_21 
ROOT
ATOM      1  N   UNL d   1      -0.337   2.761   0.368  0.00  0.00    -0.316 N 
ATOM      2  C   UNL d   1       0.426   3.916   0.357  0.00  0.00     0.256 C 
ATOM      3  O   UNL d   1       1.644   3.978   0.448  0.00  0.00    -0.267 OA
ATOM      4  H   UNL d   1      -1.215   2.792  -0.128  0.00  0.00     0.169 HD
ENDROOT
BRANCH   1   5
ATOM      5  C   UNL d   1       0.252   1.510   0.389  0.00  0.00     0.093 A 
ATOM      6  C   UNL d   1       1.130   0.832   1.224  0.00  0.00     0.073 A 
ATOM      7  C   UNL d   1       1.335  -0.509   0.693  0.00  0.00     0.028 A 
ATOM      8  C   UNL d   1       0.628  -0.763  -0.463  0.00  0.00     0.053 A 
ATOM      9  S   UNL d   1      -0.365   0.551  -0.885  0.00  0.00    -0.083 SA
BRANCH   6  10
ATOM     10  C   UNL d   1       1.662   1.279   2.533  0.00  0.00     0.296 C 
ATOM     11  O   UNL d   1       2.026   0.493   3.393  0.00  0.00    -0.259 OA
BRANCH  10  12
ATOM     12  O   UNL d   1       1.614   2.629   2.710  0.00  0.00    -0.318 OA
BRANCH  12  13
ATOM     13  C   UNL d   1       1.571   3.178   4.035  0.00  0.00     0.174 C 
ATOM     14  C   UNL d   1       2.838   3.916   4.446  0.00  0.00     0.034 C 
ENDBRANCH  12  13
ENDBRANCH  10  12
ENDBRANCH   6  10
ENDBRANCH   1   5
BRANCH   2  15
ATOM     15  C   UNL d   1      -0.326   5.195   0.159  0.00  0.00     0.032 A 
ATOM     16  C   UNL d   1       0.166   6.331   0.815  0.00  0.00     0.018 A 
ATOM     17  C   UNL d   1      -0.440   7.578   0.636  0.00  0.00     0.017 A 
ATOM     18  C   UNL d   1      -1.546   7.720  -0.212  0.00  0.00     0.048 A 
ATOM     19  C   UNL d   1      -2.038   6.580  -0.871  0.00  0.00     0.017 A 
ATOM     20  C   UNL d   1      -1.435   5.324  -0.688  0.00  0.00     0.018 A 
BRANCH  18  21
ATOM     21  C   UNL d   1      -2.183   9.075  -0.433  0.00  0.00     0.417 C 
ATOM     22  F   UNL d   1      -1.610  10.072   0.297  0.00  0.00    -0.166 F 
ATOM     23  F   UNL d   1      -2.115   9.478  -1.732  0.00  0.00    -0.166 F 
ATOM     24  F   UNL d   1      -3.505   9.088  -0.106  0.00  0.00    -0.166 F 
ENDBRANCH  18  21
ENDBRANCH   2  15
TORSDOF 6
