REMARK  7 active torsions:
REMARK  status: ('A' for Active; 'I' for Inactive)
REMARK    1  A    between atoms: O_4  and  C_1 
REMARK    2  A    between atoms: C_5  and  O_4 
REMARK       I    between atoms: N_14  and  C_5 
REMARK    3  A    between atoms: S_13  and  C_6 
REMARK    4  A    between atoms: C_20  and  C_7 
REMARK    5  A    between atoms: C_10  and  C_12 
REMARK    6  A    between atoms: C_12  and  S_13 
REMARK    7  A    between atoms: C_27  and  C_20 
ROOT
ATOM      1  C   UNL d   1       0.966  -1.020  -0.585  0.00  0.00     0.163 A 
ATOM      2  N   UNL d   1       1.682   0.074  -0.256  0.00  0.00    -0.316 N 
ATOM      3  HN  UNL d   1       2.702   0.078  -0.258  1.00  0.00     0.170 HD
ATOM      4  C   UNL d   1       0.966   1.151   0.072  0.00  0.00     0.146 A 
ATOM      5  C   UNL d   1      -0.416  -1.073  -0.695  0.00  0.00     0.016 A 
ATOM      6  N   UNL d   1      -0.373   1.221   0.001  0.00  0.00    -0.340 N 
ATOM      7  HN  UNL d   1      -0.865   2.081   0.241  1.00  0.00     0.167 HD
ATOM      8  C   UNL d   1      -1.052   0.123  -0.395  0.00  0.00     0.018 A 
ATOM      9  C   UNL d   1      -2.544   0.282  -0.425  0.00  0.00     0.069 C 
ENDROOT
BRANCH   4  10
ATOM     10  S   UNL d   1       1.772   2.601   0.697  0.00  0.00    -0.089 SA
BRANCH  10  11
ATOM     11  C   UNL d   1       3.510   2.220   0.314  0.00  0.00     0.126 C 
BRANCH  11  12
ATOM     12  C   UNL d   1       4.413   3.344   0.766  0.00  0.00     0.012 A 
ATOM     13  C   UNL d   1       5.041   3.376   2.019  0.00  0.00     0.044 A 
ATOM     14 CL   UNL d   1       4.876   2.091   3.162  0.00  0.00    -0.084 Cl
ATOM     15  C   UNL d   1       5.836   4.468   2.397  0.00  0.00     0.024 A 
ATOM     16  C   UNL d   1       6.007   5.550   1.534  0.00  0.00     0.005 A 
ATOM     17  C   UNL d   1       5.385   5.538   0.290  0.00  0.00     0.043 A 
ATOM     18  C   UNL d   1       4.603   4.445  -0.080  0.00  0.00     0.125 A 
ATOM     19  F   UNL d   1       4.017   4.467  -1.287  0.00  0.00    -0.205 F 
ENDBRANCH  11  12
ENDBRANCH  10  11
ENDBRANCH   4  10
BRANCH   1  20
ATOM     20  O   UNL d   1       1.699  -2.152  -0.984  0.00  0.00    -0.243 OA
BRANCH  20  21
ATOM     21  C   UNL d   1       2.599  -2.619  -0.038  0.00  0.00     0.368 C 
ATOM     22  N   UNL d   1       3.503  -3.538  -0.578  0.00  0.00    -0.336 N 
ATOM     23  C   UNL d   1       4.675  -3.852   0.215  0.00  0.00     0.154 C 
ATOM     24  C   UNL d   1       3.575  -3.795  -2.006  0.00  0.00     0.154 C 
ATOM     25  O   UNL d   1       2.608  -2.291   1.144  0.00  0.00    -0.238 OA
ENDBRANCH  20  21
ENDBRANCH   1  20
BRANCH   5  26
ATOM     26  C   UNL d   1      -1.155  -2.323  -1.092  0.00  0.00     0.044 C 
BRANCH  26  27
ATOM     27  C   UNL d   1      -1.497  -2.424  -2.583  0.00  0.00     0.000 C 
ATOM     28  C   UNL d   1      -0.303  -2.763  -3.464  0.00  0.00     0.005 C 
ENDBRANCH  26  27
ENDBRANCH   5  26
TORSDOF 7
