REMARK  4 active torsions:
REMARK  status: ('A' for Active; 'I' for Inactive)
REMARK    1  A    between atoms: N_2  and  C_1 
REMARK    2  A    between atoms: N_5  and  C_1 
REMARK    3  A    between atoms: C_3  and  N_2 
REMARK    4  A    between atoms: C_8  and  N_5 
ROOT
ATOM      1  C   UNL d   1       1.171  -0.059  -0.003  0.00  0.00     0.172 C 
ATOM      2  S   UNL d   1       2.742  -0.607   0.171  0.00  0.00    -0.041 SA
ENDROOT
BRANCH   1   3
ATOM      3  N   UNL d   1       0.648   0.611  -1.078  0.00  0.00    -0.331 N 
ATOM      4  H   UNL d   1       0.181   1.480  -0.839  0.00  0.00     0.168 HD
BRANCH   3   5
ATOM      5  C   UNL d   1       1.022   0.476  -2.434  0.00  0.00     0.073 A 
ATOM      6  C   UNL d   1       0.901   1.571  -3.297  0.00  0.00     0.144 A 
ATOM      7  C   UNL d   1       1.196   1.461  -4.655  0.00  0.00     0.062 A 
ATOM      8  F   UNL d   1       0.510   2.761  -2.813  0.00  0.00    -0.204 F 
ATOM      9  C   UNL d   1       1.591   0.227  -5.166  0.00  0.00     0.009 A 
ATOM     10  C   UNL d   1       1.703  -0.881  -4.327  0.00  0.00     0.020 A 
ATOM     11  I   UNL d   1       1.978   0.016  -7.197  0.00  0.00    -0.044 I 
ATOM     12  C   UNL d   1       1.419  -0.755  -2.964  0.00  0.00     0.034 A 
ENDBRANCH   3   5
ENDBRANCH   1   3
BRANCH   1  13
ATOM     13  N   UNL d   1       0.334  -0.223   1.065  0.00  0.00    -0.362 N 
ATOM     14  H   UNL d   1       0.789  -0.715   1.830  0.00  0.00     0.162 HD
BRANCH  13  15
ATOM     15  C   UNL d   1      -1.129  -0.307   1.040  0.00  0.00     0.085 C 
ATOM     16  C   UNL d   1      -1.690   0.168   2.386  0.00  0.00     0.034 C 
ATOM     17  C   UNL d   1      -3.227   0.060   2.480  0.00  0.00    -0.045 C 
ATOM     18  C   UNL d   1      -3.666   0.396   3.918  0.00  0.00     0.015 C 
ATOM     19  C   UNL d   1      -3.900   1.071   1.533  0.00  0.00     0.015 C 
ATOM     20  C   UNL d   1      -3.666  -1.383   2.144  0.00  0.00     0.013 C 
ATOM     21  C   UNL d   1      -3.109  -1.895   0.805  0.00  0.00    -0.016 C 
ATOM     22  C   UNL d   1      -1.580  -1.750   0.752  0.00  0.00     0.029 C 
ATOM     23  C   UNL d   1      -3.536  -3.347   0.578  0.00  0.00     0.010 C 
ENDBRANCH  13  15
ENDBRANCH   1  13
TORSDOF 4
