REMARK  5 active torsions:
REMARK  status: ('A' for Active; 'I' for Inactive)
REMARK    1  A    between atoms: N_2  and  C_1 
REMARK    2  A    between atoms: N_3  and  C_5 
REMARK    3  A    between atoms: C_4  and  C_8 
REMARK    4  A    between atoms: O_10  and  C_7 
REMARK    5  A    between atoms: C_15  and  O_10 
ROOT
ATOM      1  C   UNL d   1      -0.015   0.741   0.730  0.00  0.00     0.137 A 
ATOM      2  C   UNL d   1      -0.669  -0.498   0.855  0.00  0.00     0.055 A 
ATOM      3  C   UNL d   1       1.058   0.917  -0.146  0.00  0.00     0.109 A 
ATOM      4  C   UNL d   1      -0.267  -1.577   0.055  0.00  0.00     0.050 A 
ATOM      5  C   UNL d   1       1.377  -0.135  -1.008  0.00  0.00     0.040 A 
ATOM      6  C   UNL d   1       0.746  -1.375  -0.892  0.00  0.00     0.019 A 
ENDROOT
BRANCH   3   7
ATOM      7  O   UNL d   1       1.763   2.102  -0.160  0.00  0.00    -0.308 OA
BRANCH   7   8
ATOM      8  C   UNL d   1       3.127   2.068  -0.384  0.00  0.00     0.078 A 
ATOM      9  C   UNL d   1       3.974   1.054   0.072  0.00  0.00     0.073 A 
ATOM     10  C   UNL d   1       5.345   1.119  -0.219  0.00  0.00     0.111 A 
ATOM     11  C   UNL d   1       5.910   2.192  -0.928  0.00  0.00    -0.029 A 
ATOM     12  C   UNL d   1       5.044   3.212  -1.350  0.00  0.00     0.012 A 
ATOM     13  C   UNL d   1       7.380   2.290  -1.230  0.00  0.00     0.050 C 
ATOM     14  C   UNL d   1       3.670   3.152  -1.076  0.00  0.00     0.038 A 
BRANCH  10  15
ATOM     15  N   UNL d   1       6.169   0.007   0.231  0.00  0.00    -0.115 N 
ATOM     16  O   UNL d   1       5.858  -1.120  -0.179  0.00  0.00    -0.532 OA
ATOM     17  O   UNL d   1       7.093   0.261   1.012  0.00  0.00    -0.532 OA
ENDBRANCH  10  15
ENDBRANCH   7   8
ENDBRANCH   3   7
BRANCH   1  18
ATOM     18  N   UNL d   1      -0.522   1.854   1.516  0.00  0.00    -0.113 N 
ATOM     19  O   UNL d   1      -0.647   1.669   2.732  0.00  0.00    -0.532 OA
ATOM     20  O   UNL d   1      -0.853   2.876   0.902  0.00  0.00    -0.532 OA
ENDBRANCH   1  18
BRANCH   4  21
ATOM     21  C   UNL d   1      -0.901  -2.943   0.180  0.00  0.00     0.417 C 
ATOM     22  F   UNL d   1      -1.894  -2.998   1.107  0.00  0.00    -0.166 F 
ATOM     23  F   UNL d   1      -1.451  -3.361  -0.992  0.00  0.00    -0.166 F 
ATOM     24  F   UNL d   1       0.002  -3.898   0.534  0.00  0.00    -0.166 F 
ENDBRANCH   4  21
TORSDOF 5
