REMARK  26 active torsions:
REMARK  status: ('A' for Active; 'I' for Inactive)
REMARK    1  A    between atoms: O_14  and  C_1 
REMARK    2  A    between atoms: C_20  and  C_2 
REMARK    3  A    between atoms: C_5  and  O_23 
REMARK    4  A    between atoms: C_6  and  O_24 
REMARK    5  A    between atoms: C_7  and  O_25 
REMARK    6  A    between atoms: C_8  and  O_26 
REMARK    7  A    between atoms: C_9  and  O_14 
REMARK    8  A    between atoms: C_11  and  O_30 
REMARK    9  A    between atoms: C_13  and  O_31 
REMARK   10  A    between atoms: C_15  and  O_37 
REMARK   11  A    between atoms: O_33  and  C_17 
REMARK   12  A    between atoms: C_18  and  C_49 
REMARK   13  A    between atoms: O_35  and  C_22 
REMARK   14  A    between atoms: C_38  and  O_23 
REMARK   15  A    between atoms: C_40  and  O_24 
REMARK   16  A    between atoms: C_41  and  O_25 
REMARK   17  A    between atoms: C_39  and  O_26 
REMARK   18  A    between atoms: O_50  and  C_29 
REMARK   19  A    between atoms: C_42  and  O_30 
REMARK   20  A    between atoms: C_43  and  O_31 
REMARK   21  A    between atoms: O_36  and  C_32 
REMARK   22  A    between atoms: C_44  and  O_33 
REMARK   23  A    between atoms: C_45  and  O_35 
REMARK   24  A    between atoms: C_47  and  O_36 
REMARK   25  A    between atoms: O_37  and  C_49 
REMARK   26  A    between atoms: C_48  and  O_50 
ROOT
ATOM      1  C   UNL d   1      -3.529   1.812  -1.066  0.00  0.00     0.219 C 
ATOM      2  C   UNL d   1      -2.667   3.107  -1.093  0.00  0.00     0.198 C 
ATOM      3  C   UNL d   1      -4.706   1.744  -0.030  0.00  0.00     0.299 C 
ATOM      4  C   UNL d   1      -3.347   4.345  -0.493  0.00  0.00     0.195 C 
ATOM      5  O   UNL d   1      -5.201   3.042   0.333  0.00  0.00    -0.348 OA
ATOM      6  C   UNL d   1      -4.207   3.997   0.722  0.00  0.00     0.180 C 
ENDROOT
BRANCH   3   7
ATOM      7  O   UNL d   1      -4.626   0.971   1.171  0.00  0.00    -0.311 OA
BRANCH   7   8
ATOM      8  C   UNL d   1      -4.396  -0.387   1.152  0.00  0.00     0.157 C 
ATOM      9  C   UNL d   1      -5.325  -1.343   1.416  0.00  0.00     0.124 C 
ATOM     10  O   UNL d   1      -4.990  -2.660   1.720  0.00  0.00    -0.306 OA
ATOM     11  C   UNL d   1      -3.701  -2.987   2.008  0.00  0.00     0.096 A 
ATOM     12  C   UNL d   1      -2.641  -2.142   1.728  0.00  0.00     0.085 A 
ATOM     13  C   UNL d   1      -3.486  -4.246   2.576  0.00  0.00     0.075 A 
ATOM     14  C   UNL d   1      -2.959  -0.809   1.200  0.00  0.00     0.223 C 
ATOM     15  C   UNL d   1      -1.339  -2.589   1.975  0.00  0.00     0.099 A 
ATOM     16  O   UNL d   1      -2.046  -0.062   0.850  0.00  0.00    -0.284 OA
ATOM     17  C   UNL d   1      -1.108  -3.854   2.530  0.00  0.00     0.076 A 
ATOM     18  C   UNL d   1      -2.186  -4.670   2.840  0.00  0.00     0.084 A 
BRANCH   9  19
ATOM     19  C   UNL d   1      -6.819  -1.243   1.394  0.00  0.00     0.004 A 
ATOM     20  C   UNL d   1      -7.581  -2.007   2.318  0.00  0.00     0.054 A 
ATOM     21  C   UNL d   1      -8.938  -2.276   2.088  0.00  0.00     0.114 A 
ATOM     22  C   UNL d   1      -9.566  -1.791   0.939  0.00  0.00     0.113 A 
ATOM     23  C   UNL d   1      -8.864  -0.955   0.077  0.00  0.00     0.041 A 
ATOM     24  C   UNL d   1      -7.500  -0.696   0.302  0.00  0.00     0.017 A 
BRANCH  21  25
ATOM     25  O   UNL d   1      -9.675  -3.189   2.881  0.00  0.00    -0.276 OA
BRANCH  25  26
ATOM     26  C   UNL d   1      -9.556  -3.210   4.268  0.00  0.00     0.260 C 
ATOM     27  O   UNL d   1      -8.856  -2.476   4.948  0.00  0.00    -0.265 OA
ATOM     28  C   UNL d   1     -10.477  -4.257   4.834  0.00  0.00     0.126 C 
ENDBRANCH  25  26
ENDBRANCH  21  25
BRANCH  22  29
ATOM     29  O   UNL d   1     -10.854  -2.322   0.657  0.00  0.00    -0.276 OA
BRANCH  29  30
ATOM     30  C   UNL d   1     -11.589  -2.120  -0.513  0.00  0.00     0.260 C 
ATOM     31  O   UNL d   1     -11.394  -1.265  -1.365  0.00  0.00    -0.265 OA
ATOM     32  C   UNL d   1     -12.697  -3.131  -0.594  0.00  0.00     0.126 C 
ENDBRANCH  29  30
ENDBRANCH  22  29
ENDBRANCH   9  19
BRANCH  15  33
ATOM     33  O   UNL d   1      -0.231  -1.755   1.784  0.00  0.00    -0.278 OA
BRANCH  33  34
ATOM     34  C   UNL d   1       0.691  -2.236   0.861  0.00  0.00     0.260 C 
ATOM     35  O   UNL d   1       0.533  -3.172   0.088  0.00  0.00    -0.265 OA
ATOM     36  C   UNL d   1       1.957  -1.446   0.988  0.00  0.00     0.126 C 
ENDBRANCH  33  34
ENDBRANCH  15  33
BRANCH  18  37
ATOM     37  O   UNL d   1      -2.050  -5.980   3.346  0.00  0.00    -0.279 OA
BRANCH  37  38
ATOM     38  C   UNL d   1      -0.931  -6.402   4.066  0.00  0.00     0.260 C 
ATOM     39  O   UNL d   1       0.018  -5.718   4.422  0.00  0.00    -0.265 OA
ATOM     40  C   UNL d   1      -1.047  -7.872   4.341  0.00  0.00     0.126 C 
ENDBRANCH  37  38
ENDBRANCH  18  37
ENDBRANCH   7   8
ENDBRANCH   3   7
BRANCH   1  41
ATOM     41  O   UNL d   1      -4.142   1.769  -2.405  0.00  0.00    -0.308 OA
BRANCH  41  42
ATOM     42  C   UNL d   1      -4.612   0.554  -2.797  0.00  0.00     0.255 C 
ATOM     43  O   UNL d   1      -4.548  -0.473  -2.137  0.00  0.00    -0.266 OA
ATOM     44  C   UNL d   1      -5.333   0.680  -4.101  0.00  0.00     0.126 C 
ENDBRANCH  41  42
ENDBRANCH   1  41
BRANCH   2  45
ATOM     45  O   UNL d   1      -1.405   2.955  -0.405  0.00  0.00    -0.311 OA
BRANCH  45  46
ATOM     46  C   UNL d   1      -0.417   2.268  -1.027  0.00  0.00     0.255 C 
ATOM     47  O   UNL d   1      -0.488   1.788  -2.150  0.00  0.00    -0.266 OA
ATOM     48  C   UNL d   1       0.807   2.246  -0.163  0.00  0.00     0.126 C 
ENDBRANCH  45  46
ENDBRANCH   2  45
BRANCH   6  49
ATOM     49  C   UNL d   1      -3.440   3.663   2.016  0.00  0.00     0.205 C 
BRANCH  49  50
ATOM     50  O   UNL d   1      -2.485   2.643   1.871  0.00  0.00    -0.356 OA
BRANCH  50  51
ATOM     51  C   UNL d   1      -1.671   2.293   2.994  0.00  0.00     0.292 C 
ATOM     52  C   UNL d   1      -2.386   1.838   4.286  0.00  0.00     0.219 C 
ATOM     53  C   UNL d   1      -2.431   2.939   5.350  0.00  0.00     0.198 C 
ATOM     54  C   UNL d   1      -1.022   3.474   5.589  0.00  0.00     0.192 C 
ATOM     55  C   UNL d   1      -0.364   3.969   4.286  0.00  0.00     0.152 C 
ATOM     56  O   UNL d   1      -0.530   3.139   3.137  0.00  0.00    -0.351 OA
ATOM     57  C   UNL d   1      -0.716   5.414   3.943  0.00  0.00     0.042 C 
BRANCH  52  58
ATOM     58  O   UNL d   1      -3.716   1.356   4.013  0.00  0.00    -0.308 OA
BRANCH  58  59
ATOM     59  C   UNL d   1      -4.213   0.431   4.872  0.00  0.00     0.255 C 
ATOM     60  O   UNL d   1      -3.560  -0.163   5.718  0.00  0.00    -0.266 OA
ATOM     61  C   UNL d   1      -5.693   0.286   4.686  0.00  0.00     0.126 C 
ENDBRANCH  58  59
ENDBRANCH  52  58
BRANCH  53  62
ATOM     62  O   UNL d   1      -3.264   4.047   4.941  0.00  0.00    -0.311 OA
BRANCH  62  63
ATOM     63  C   UNL d   1      -4.559   4.064   5.355  0.00  0.00     0.255 C 
ATOM     64  O   UNL d   1      -5.080   3.245   6.091  0.00  0.00    -0.266 OA
ATOM     65  C   UNL d   1      -5.263   5.242   4.745  0.00  0.00     0.126 C 
ENDBRANCH  62  63
ENDBRANCH  53  62
BRANCH  54  66
ATOM     66  O   UNL d   1      -0.231   2.408   6.167  0.00  0.00    -0.311 OA
BRANCH  66  67
ATOM     67  C   UNL d   1       0.817   2.813   6.936  0.00  0.00     0.255 C 
ATOM     68  O   UNL d   1       1.121   3.980   7.144  0.00  0.00    -0.266 OA
ATOM     69  C   UNL d   1       1.538   1.642   7.529  0.00  0.00     0.126 C 
ENDBRANCH  66  67
ENDBRANCH  54  66
ENDBRANCH  50  51
ENDBRANCH  49  50
ENDBRANCH   6  49
BRANCH   4  70
ATOM     70  O   UNL d   1      -4.206   4.930  -1.515  0.00  0.00    -0.311 OA
BRANCH  70  71
ATOM     71  C   UNL d   1      -4.605   6.213  -1.283  0.00  0.00     0.255 C 
ATOM     72  O   UNL d   1      -4.253   6.898  -0.333  0.00  0.00    -0.266 OA
ATOM     73  C   UNL d   1      -5.607   6.657  -2.305  0.00  0.00     0.126 C 
ENDBRANCH  70  71
ENDBRANCH   4  70
TORSDOF 26
