REMARK  3 active torsions:
REMARK  status: ('A' for Active; 'I' for Inactive)
REMARK    1  A    between atoms: C_4  and  C_1 
REMARK       I    between atoms: N_8  and  C_4 
REMARK    2  A    between atoms: C_15  and  N_8 
REMARK    3  A    between atoms: C_9  and  C_15 
ROOT
ATOM      1  C   UNL d   1      -0.023   2.557   0.021  0.00  0.00     0.256 C 
ATOM      2  N   UNL d   1      -1.184   3.299   0.022  0.00  0.00    -0.351 N 
ATOM      3  O   UNL d   1       1.069   3.131   0.035  0.00  0.00    -0.267 OA
ATOM      4  H   UNL d   1      -2.112   2.904  -0.015  0.00  0.00     0.163 HD
ENDROOT
BRANCH   1   5
ATOM      5  C   UNL d   1      -0.089   1.107  -0.001  0.00  0.00     0.087 A 
ATOM      6  C   UNL d   1       1.052   0.318  -0.021  0.00  0.00     0.090 A 
ATOM      7  O   UNL d   1       0.713  -0.992  -0.039  0.00  0.00    -0.242 OA
ATOM      8  C   UNL d   1       2.501   0.617  -0.026  0.00  0.00     0.080 C 
ATOM      9  N   UNL d   1      -0.655  -1.107  -0.031  0.00  0.00    -0.265 N 
ATOM     10  C   UNL d   1      -1.138   0.143  -0.008  0.00  0.00     0.047 A 
ATOM     11  HN  UNL d   1      -1.196  -1.972  -0.041  1.00  0.00     0.194 HD
ATOM     12  C   UNL d   1      -2.608   0.318   0.009  0.00  0.00     0.071 C 
ENDBRANCH   1   5
BRANCH   2  13
ATOM     13  C   UNL d   1      -1.028   4.738   0.021  0.00  0.00     0.187 C 
BRANCH  13  14
ATOM     14  C   UNL d   1      -2.292   5.510   0.038  0.00  0.00     0.070 A 
ATOM     15  O   UNL d   1      -3.489   4.855   0.031  0.00  0.00    -0.325 OA
ATOM     16  C   UNL d   1      -4.456   5.814   0.048  0.00  0.00     0.142 A 
ATOM     17  C   UNL d   1      -3.898   7.072   0.065  0.00  0.00     0.027 A 
ATOM     18  C   UNL d   1      -2.500   6.876   0.059  0.00  0.00     0.036 A 
ENDBRANCH  13  14
ENDBRANCH   2  13
TORSDOF 3
