REMARK  7 active torsions:
REMARK  status: ('A' for Active; 'I' for Inactive)
REMARK    1  A    between atoms: C_10  and  N_1 
REMARK    2  A    between atoms: C_9  and  C_4 
REMARK    3  A    between atoms: N_6  and  C_7 
REMARK    4  A    between atoms: S_12  and  C_8 
REMARK    5  A    between atoms: C_17  and  C_9 
REMARK    6  A    between atoms: C_20  and  C_10 
REMARK    7  A    between atoms: C_21  and  S_12 
ROOT
ATOM      1  C   UNL d   1      -5.015  -1.001   0.809  0.00  0.00     0.120 C 
ATOM      2  C   UNL d   1      -6.184  -0.857   0.050  0.00  0.00     0.034 C 
ATOM      3  C   UNL d   1      -3.950  -0.092   0.772  0.00  0.00     0.049 C 
ATOM      4  C   UNL d   1      -3.870   0.811  -0.275  0.00  0.00    -0.032 C 
ATOM      5  C   UNL d   1      -6.096   0.087  -0.992  0.00  0.00     0.022 C 
ATOM      6  C   UNL d   1      -4.938   0.880  -1.184  0.00  0.00     0.013 C 
ENDROOT
BRANCH   4   7
ATOM      7  C   UNL d   1      -2.585   1.492  -0.481  0.00  0.00     0.036 C 
BRANCH   7   8
ATOM      8  C   UNL d   1      -1.507   0.915  -1.046  0.00  0.00     0.076 A 
ATOM      9  C   UNL d   1      -1.411  -0.418  -1.720  0.00  0.00     0.266 A 
ATOM     10  N   UNL d   1      -0.112  -0.699  -2.092  0.00  0.00    -0.294 N 
ATOM     11  O   UNL d   1      -2.395  -1.116  -1.971  0.00  0.00    -0.266 OA
ATOM     12  C   UNL d   1       0.807   0.307  -1.888  0.00  0.00     0.149 A 
ATOM     13  S   UNL d   1       0.049   1.655  -1.044  0.00  0.00    -0.055 SA
ATOM     14  S   UNL d   1       2.405   0.380  -2.366  0.00  0.00    -0.052 SA
BRANCH  10  15
ATOM     15  C   UNL d   1       0.166  -1.959  -2.793  0.00  0.00     0.172 C 
BRANCH  15  16
ATOM     16  C   UNL d   1       0.642  -3.067  -1.875  0.00  0.00    -0.040 A 
ATOM     17  C   UNL d   1      -0.281  -3.897  -1.220  0.00  0.00     0.009 A 
ATOM     18  C   UNL d   1       0.156  -4.910  -0.361  0.00  0.00     0.001 A 
ATOM     19  C   UNL d   1       1.518  -5.104  -0.140  0.00  0.00     0.000 A 
ATOM     20  C   UNL d   1       2.446  -4.301  -0.797  0.00  0.00     0.001 A 
ATOM     21  C   UNL d   1       2.011  -3.295  -1.664  0.00  0.00     0.009 A 
ENDBRANCH  15  16
ENDBRANCH  10  15
ENDBRANCH   7   8
ENDBRANCH   4   7
BRANCH   1  22
ATOM     22  N   UNL d   1      -4.609  -2.341   1.182  0.00  0.00    -0.114 N 
ATOM     23  O   UNL d   1      -4.202  -3.075   0.277  0.00  0.00    -0.532 OA
ATOM     24  O   UNL d   1      -4.604  -2.611   2.395  0.00  0.00    -0.532 OA
ENDBRANCH   1  22
BRANCH   2  25
ATOM     25  S   UNL d   1      -7.546  -2.025   0.052  0.00  0.00    -0.123 SA
BRANCH  25  26
ATOM     26  C   UNL d   1      -8.671  -1.734   1.528  0.00  0.00     0.052 C 
ATOM     27  C   UNL d   1      -9.265  -0.341   1.711  0.00  0.00     0.015 C 
ATOM     28  C   UNL d   1      -8.365   0.589   2.505  0.00  0.00     0.001 C 
ATOM     29  C   UNL d   1      -7.982   0.022   3.868  0.00  0.00     0.000 C 
ATOM     30  C   UNL d   1      -7.579  -1.450   3.877  0.00  0.00     0.001 C 
ATOM     31  C   UNL d   1      -8.292  -2.358   2.877  0.00  0.00     0.015 C 
ENDBRANCH  25  26
ENDBRANCH   2  25
TORSDOF 7
