REMARK  2 active torsions:
REMARK  status: ('A' for Active; 'I' for Inactive)
REMARK    1  A    between atoms: N_2  and  C_1 
REMARK       I    between atoms: C_4  and  N_2 
REMARK    2  A    between atoms: C_11  and  C_4 
ROOT
ATOM      1  N   UNL d   1       0.441   2.596   0.250  0.00  0.00    -0.302 N 
ATOM      2  C   UNL d   1       1.699   3.077  -0.033  0.00  0.00     0.257 C 
ATOM      3  O   UNL d   1       2.695   2.417  -0.301  0.00  0.00    -0.267 OA
ATOM      4  H   UNL d   1      -0.350   3.223   0.298  0.00  0.00     0.171 HD
ENDROOT
BRANCH   1   5
ATOM      5  C   UNL d   1       0.084   1.270   0.332  0.00  0.00     0.167 A 
ATOM      6  S   UNL d   1       1.209  -0.012   0.327  0.00  0.00    -0.046 SA
ATOM      7  C   UNL d   1      -0.121  -1.081   0.451  0.00  0.00     0.160 A 
ATOM      8  N   UNL d   1      -1.293  -0.488   0.511  0.00  0.00    -0.303 N 
ATOM      9  N   UNL d   1      -1.169   0.888   0.457  0.00  0.00    -0.279 N 
ATOM     10  HN  UNL d   1      -2.183  -0.981   0.589  1.00  0.00     0.186 HD
ATOM     11  HN  UNL d   1      -1.958   1.533   0.507  1.00  0.00     0.189 HD
ENDBRANCH   1   5
BRANCH   2  12
ATOM     12  C   UNL d   1       1.833   4.559  -0.058  0.00  0.00     0.035 A 
ATOM     13  C   UNL d   1       1.089   5.392   0.779  0.00  0.00     0.034 A 
ATOM     14  C   UNL d   1       1.326   6.755   0.706  0.00  0.00     0.088 A 
ATOM     15  N   UNL d   1       2.228   7.317  -0.126  0.00  0.00    -0.375 N 
ATOM     16  C   UNL d   1       2.942   6.487  -0.914  0.00  0.00     0.088 A 
ATOM     17  HN  UNL d   1       2.365   8.328  -0.157  1.00  0.00     0.164 HD
ATOM     18  C   UNL d   1       2.785   5.115  -0.916  0.00  0.00     0.034 A 
ENDBRANCH   2  12
TORSDOF 2
