REMARK  3 active torsions:
REMARK  status: ('A' for Active; 'I' for Inactive)
REMARK    1  A    between atoms: O_12  and  C_2 
REMARK    2  A    between atoms: C_10  and  C_5 
REMARK    3  A    between atoms: C_11  and  C_6 
ROOT
ATOM      1  C   UNL d   1      -0.762   1.214  -0.103  0.00  0.00     0.106 A 
ATOM      2  C   UNL d   1      -1.356  -0.049  -0.085  0.00  0.00     0.162 A 
ATOM      3  N   UNL d   1      -0.670  -1.204  -0.016  0.00  0.00    -0.335 N 
ATOM      4  HN  UNL d   1      -1.156  -2.101  -0.025  1.00  0.00     0.168 HD
ATOM      5  C   UNL d   1       0.643   1.298  -0.007  0.00  0.00     0.001 A 
ATOM      6  C   UNL d   1       0.677  -1.150   0.064  0.00  0.00     0.045 A 
ATOM      7  C   UNL d   1       1.345   0.076   0.082  0.00  0.00     0.044 A 
ATOM      8  C   UNL d   1      -1.603   2.361  -0.252  0.00  0.00     0.104 C 
ATOM      9  N   UNL d   1      -2.355   3.240  -0.339  0.00  0.00    -0.191 NA
ENDROOT
BRANCH   2  10
ATOM     10  O   UNL d   1      -2.707  -0.251  -0.144  0.00  0.00    -0.345 OA
ATOM     11  H   UNL d   1      -3.193   0.586  -0.085  0.00  0.00     0.219 HD
ENDBRANCH   2  10
BRANCH   5  12
ATOM     12  C   UNL d   1       1.414   2.576  -0.024  0.00  0.00    -0.024 A 
ATOM     13  C   UNL d   1       0.983   3.730   0.655  0.00  0.00     0.012 A 
ATOM     14  C   UNL d   1       1.699   4.932   0.588  0.00  0.00     0.001 A 
ATOM     15  C   UNL d   1       2.894   4.998  -0.118  0.00  0.00     0.000 A 
ATOM     16  C   UNL d   1       3.371   3.862  -0.761  0.00  0.00     0.001 A 
ATOM     17  C   UNL d   1       2.634   2.674  -0.724  0.00  0.00     0.012 A 
ENDBRANCH   5  12
BRANCH   6  18
ATOM     18  C   UNL d   1       1.375  -2.454   0.100  0.00  0.00    -0.009 A 
ATOM     19  C   UNL d   1       2.610  -2.627   0.753  0.00  0.00     0.013 A 
ATOM     20  C   UNL d   1       3.263  -3.865   0.763  0.00  0.00     0.001 A 
ATOM     21  C   UNL d   1       2.693  -4.961   0.122  0.00  0.00     0.000 A 
ATOM     22  C   UNL d   1       1.469  -4.823  -0.523  0.00  0.00     0.001 A 
ATOM     23  C   UNL d   1       0.819  -3.584  -0.531  0.00  0.00     0.013 A 
ENDBRANCH   6  18
TORSDOF 3
