REMARK  5 active torsions:
REMARK  status: ('A' for Active; 'I' for Inactive)
REMARK    1  A    between atoms: N_10  and  C_2 
REMARK    2  A    between atoms: C_8  and  C_3 
REMARK    3  A    between atoms: C_6  and  C_21 
REMARK    4  A    between atoms: C_21  and  N_10 
REMARK    5  A    between atoms: N_12  and  C_11 
ROOT
ATOM      1  C   UNL d   1       0.187  -1.302   0.471  0.00  0.00     0.069 C 
ATOM      2  C   UNL d   1      -1.135  -1.300   0.255  0.00  0.00    -0.010 C 
ATOM      3  C   UNL d   1      -1.060   1.180  -0.390  0.00  0.00     0.031 C 
ATOM      4  C   UNL d   1       0.956  -0.040   0.579  0.00  0.00     0.151 C 
ATOM      5  C   UNL d   1      -1.910  -0.004   0.112  0.00  0.00     0.060 C 
ATOM      6  C   UNL d   1       0.237   1.282   0.418  0.00  0.00     0.092 C 
ATOM      7  O   UNL d   1       2.157  -0.089   0.837  0.00  0.00    -0.293 OA
ENDROOT
BRANCH   3   8
ATOM      8  C   UNL d   1      -0.918   1.138  -1.907  0.00  0.00    -0.053 A 
ATOM      9  C   UNL d   1       0.208   0.655  -2.573  0.00  0.00     0.010 A 
ATOM     10  C   UNL d   1       0.229   0.548  -3.974  0.00  0.00     0.030 A 
ATOM     11  C   UNL d   1      -0.861   0.918  -4.776  0.00  0.00     0.029 A 
ATOM     12  C   UNL d   1      -1.972   1.432  -4.092  0.00  0.00     0.030 A 
ATOM     13  C   UNL d   1      -2.003   1.548  -2.694  0.00  0.00     0.010 A 
BRANCH  11  14
ATOM     14  N   UNL d   1      -0.893   0.708  -6.155  0.00  0.00    -0.390 N 
ATOM     15  C   UNL d   1      -1.506   1.719  -7.016  0.00  0.00     0.149 C 
ATOM     16  C   UNL d   1       0.176  -0.056  -6.795  0.00  0.00     0.149 C 
ENDBRANCH  11  14
ENDBRANCH   3   8
BRANCH   2  17
ATOM     17  N   UNL d   1      -1.857  -2.478   0.089  0.00  0.00    -0.292 NA
ATOM     18  H   UNL d   1      -2.684  -2.328  -0.494  0.00  0.00     0.127 HD
BRANCH  17  19
ATOM     19  C   UNL d   1      -2.249  -3.304   1.234  0.00  0.00     0.138 C 
BRANCH  19  20
ATOM     20  C   UNL d   1      -2.991  -4.541   0.820  0.00  0.00    -0.004 A 
ATOM     21  S   UNL d   1      -4.684  -4.488   0.557  0.00  0.00    -0.105 SA
ATOM     22  C   UNL d   1      -4.731  -6.140   0.115  0.00  0.00     0.050 A 
ATOM     23  C   UNL d   1      -3.485  -6.724   0.168  0.00  0.00     0.008 A 
ATOM     24  C   UNL d   1      -2.480  -5.801   0.573  0.00  0.00     0.016 A 
ENDBRANCH  19  20
ENDBRANCH  17  19
ENDBRANCH   2  17
TORSDOF 5
