REMARK  9 active torsions:
REMARK  status: ('A' for Active; 'I' for Inactive)
REMARK    1  A    between atoms: C_7  and  C_1 
REMARK    2  A    between atoms: C_8  and  C_7 
REMARK    3  A    between atoms: C_11  and  C_18 
REMARK    4  A    between atoms: C_14  and  C_11 
REMARK    5  A    between atoms: C_12  and  C_23 
REMARK    6  A    between atoms: O_17  and  C_12 
REMARK    7  A    between atoms: C_18  and  O_17 
REMARK    8  A    between atoms: O_22  and  C_21 
REMARK    9  A    between atoms: C_23  and  O_22 
ROOT
ATOM      1  C   UNL d   1      -1.840  -1.023   0.015  0.00  0.00     0.029 A 
ATOM      2  C   UNL d   1      -2.082   0.447   0.106  0.00  0.00     0.295 A 
ATOM      3  C   UNL d   1      -0.592  -1.535  -0.081  0.00  0.00    -0.036 A 
ATOM      4  O   UNL d   1      -0.984   1.278   0.005  0.00  0.00    -0.274 OA
ATOM      5  C   UNL d   1       0.319   0.761  -0.024  0.00  0.00     0.092 A 
ATOM      6  C   UNL d   1       0.557  -0.610  -0.058  0.00  0.00     0.005 A 
ATOM      7  C   UNL d   1       1.345   1.708   0.001  0.00  0.00     0.075 A 
ATOM      8  C   UNL d   1       1.895  -1.024  -0.065  0.00  0.00     0.017 A 
ATOM      9  O   UNL d   1      -3.210   0.912   0.235  0.00  0.00    -0.259 OA
ATOM     10  C   UNL d   1       2.666   1.279   0.016  0.00  0.00     0.072 A 
ATOM     11  C   UNL d   1       2.936  -0.088  -0.033  0.00  0.00     0.038 A 
ATOM     12  C   UNL d   1      -0.290  -3.010  -0.146  0.00  0.00     0.050 C 
ENDROOT
BRANCH  10  13
ATOM     13  O   UNL d   1       3.764   2.091   0.050  0.00  0.00    -0.341 OA
BRANCH  13  14
ATOM     14  C   UNL d   1       3.594   3.359   0.665  0.00  0.00     0.286 C 
BRANCH  14  15
ATOM     15  C   UNL d   1       3.350   3.372   2.174  0.00  0.00     0.283 C 
ATOM     16  O   UNL d   1       2.731   4.258   2.753  0.00  0.00    -0.263 OA
BRANCH  15  17
ATOM     17  O   UNL d   1       4.027   2.365   2.786  0.00  0.00    -0.312 OA
BRANCH  17  18
ATOM     18  C   UNL d   1       4.094   2.419   4.210  0.00  0.00     0.258 C 
BRANCH  18  19
ATOM     19  C   UNL d   1       3.195   1.413   4.936  0.00  0.00     0.158 C 
ATOM     20  O   UNL d   1       2.385   0.716   4.317  0.00  0.00    -0.295 OA
BRANCH  19  21
ATOM     21  C   UNL d   1       3.294   1.348   6.480  0.00  0.00     0.012 C 
ATOM     22  C   UNL d   1       2.374   2.418   7.080  0.00  0.00     0.022 C 
ATOM     23  C   UNL d   1       2.843  -0.041   6.966  0.00  0.00     0.022 C 
ATOM     24  C   UNL d   1       4.734   1.575   6.966  0.00  0.00     0.022 C 
ENDBRANCH  19  21
ENDBRANCH  18  19
ENDBRANCH  17  18
ENDBRANCH  15  17
ENDBRANCH  14  15
ENDBRANCH  13  14
ENDBRANCH  10  13
BRANCH   1  25
ATOM     25  C   UNL d   1      -3.111  -1.835  -0.008  0.00  0.00     0.087 C 
BRANCH  25  26
ATOM     26  C   UNL d   1      -3.751  -2.332   1.285  0.00  0.00    -0.010 A 
ATOM     27  C   UNL d   1      -3.253  -2.169   2.596  0.00  0.00     0.042 A 
ATOM     28 CL   UNL d   1      -1.781  -1.366   3.011  0.00  0.00    -0.084 Cl
ATOM     29  C   UNL d   1      -3.951  -2.680   3.705  0.00  0.00     0.024 A 
ATOM     30  C   UNL d   1      -5.151  -3.361   3.550  0.00  0.00     0.003 A 
ATOM     31  C   UNL d   1      -5.663  -3.544   2.276  0.00  0.00     0.024 A 
ATOM     32  C   UNL d   1      -4.974  -3.042   1.164  0.00  0.00     0.042 A 
ATOM     33 CL   UNL d   1      -5.710  -3.354  -0.380  0.00  0.00    -0.084 Cl
ENDBRANCH  25  26
ENDBRANCH   1  25
TORSDOF 9
