REMARK  6 active torsions:
REMARK  status: ('A' for Active; 'I' for Inactive)
REMARK    1  A    between atoms: N_3  and  S_1 
REMARK    2  A    between atoms: C_14  and  S_1 
REMARK    3  A    between atoms: C_2  and  N_3 
REMARK    4  A    between atoms: N_9  and  C_4 
REMARK    5  A    between atoms: C_15  and  N_9 
REMARK    6  A    between atoms: O_21  and  C_16 
ROOT
ATOM      1  C   UNL d   1       0.979  -0.425  -2.918  0.00  0.00     0.139 A 
ATOM      2  C   UNL d   1       2.257   0.070  -3.229  0.00  0.00     0.146 A 
ATOM      3  N   UNL d   1      -0.056  -0.423  -3.784  0.00  0.00    -0.341 N 
ATOM      4  HN  UNL d   1      -0.981  -0.770  -3.527  1.00  0.00     0.167 HD
ATOM      5  N   UNL d   1       2.487   0.608  -4.449  0.00  0.00    -0.338 N 
ATOM      6  HN  UNL d   1       3.390   1.023  -4.679  1.00  0.00     0.167 HD
ATOM      7  C   UNL d   1       0.210   0.066  -5.014  0.00  0.00     0.060 A 
ATOM      8  C   UNL d   1       1.489   0.578  -5.345  0.00  0.00     0.060 A 
ATOM      9  C   UNL d   1      -0.770   0.043  -6.001  0.00  0.00     0.032 A 
ATOM     10  C   UNL d   1       1.739   1.018  -6.637  0.00  0.00     0.032 A 
ATOM     11  C   UNL d   1       0.757   0.959  -7.624  0.00  0.00     0.002 A 
ATOM     12  C   UNL d   1      -0.505   0.476  -7.303  0.00  0.00     0.002 A 
ENDROOT
BRANCH   1  13
ATOM     13  N   UNL d   1       0.633  -1.042  -1.688  0.00  0.00    -0.163 NA
ATOM     14  H   UNL d   1      -0.194  -1.627  -1.815  0.00  0.00     0.147 HD
BRANCH  13  15
ATOM     15  S   UNL d   1       0.408  -0.029  -0.359  0.00  0.00     0.247 S 
ATOM     16  O   UNL d   1       1.551   0.836  -0.175  0.00  0.00    -0.205 OA
ATOM     17  O   UNL d   1      -0.051  -0.880   0.719  0.00  0.00    -0.205 OA
BRANCH  15  18
ATOM     18  C   UNL d   1      -0.972   0.995  -0.828  0.00  0.00     0.074 A 
ATOM     19  C   UNL d   1      -2.275   0.551  -0.579  0.00  0.00     0.025 A 
ATOM     20  C   UNL d   1      -3.354   1.359  -0.938  0.00  0.00     0.002 A 
ATOM     21  C   UNL d   1      -3.129   2.604  -1.527  0.00  0.00     0.000 A 
ATOM     22  C   UNL d   1      -1.826   3.058  -1.737  0.00  0.00     0.002 A 
ATOM     23  C   UNL d   1      -0.741   2.259  -1.379  0.00  0.00     0.025 A 
ENDBRANCH  15  18
ENDBRANCH  13  15
ENDBRANCH   1  13
BRANCH   2  24
ATOM     24  N   UNL d   1       3.338  -0.097  -2.343  0.00  0.00    -0.340 N 
ATOM     25  H   UNL d   1       3.484  -1.078  -2.138  0.00  0.00     0.167 HD
BRANCH  24  26
ATOM     26  C   UNL d   1       4.499   0.693  -2.267  0.00  0.00     0.033 A 
ATOM     27  C   UNL d   1       4.457   2.072  -2.501  0.00  0.00     0.032 A 
ATOM     28  C   UNL d   1       5.588   2.874  -2.319  0.00  0.00     0.039 A 
ATOM     29  C   UNL d   1       6.791   2.303  -1.911  0.00  0.00     0.068 A 
ATOM     30  C   UNL d   1       6.849   0.925  -1.695  0.00  0.00     0.039 A 
ATOM     31  C   UNL d   1       5.711   0.127  -1.860  0.00  0.00     0.032 A 
BRANCH  29  32
ATOM     32  O   UNL d   1       7.962   2.974  -1.689  0.00  0.00    -0.356 OA
ATOM     33  C   UNL d   1       7.907   4.393  -1.778  0.00  0.00     0.210 C 
ENDBRANCH  29  32
ENDBRANCH  24  26
ENDBRANCH   2  24
TORSDOF 6
