REMARK  4 active torsions:
REMARK  status: ('A' for Active; 'I' for Inactive)
REMARK    1  A    between atoms: N_2  and  S_1 
REMARK    2  A    between atoms: C_3  and  S_1 
REMARK    3  A    between atoms: C_15  and  N_5 
REMARK    4  A    between atoms: C_19  and  C_15 
ROOT
ATOM      1  C   UNL d   1       1.977   1.556  -0.264  0.00  0.00     0.074 A 
ATOM      2  N   UNL d   1       3.778   6.324  -2.029  0.00  0.00    -0.191 NA
ATOM      3  C   UNL d   1       3.402   5.304  -1.622  0.00  0.00     0.099 C 
ATOM      4  C   UNL d   1       1.168   2.690  -0.143  0.00  0.00     0.026 A 
ATOM      5  C   UNL d   1       3.279   1.666  -0.768  0.00  0.00     0.026 A 
ATOM      6  C   UNL d   1       2.930   4.039  -1.133  0.00  0.00     0.044 A 
ATOM      7  C   UNL d   1       1.643   3.929  -0.589  0.00  0.00     0.024 A 
ATOM      8  C   UNL d   1       3.752   2.908  -1.204  0.00  0.00     0.024 A 
ENDROOT
BRANCH   1   9
ATOM      9  S   UNL d   1       1.396  -0.029   0.327  0.00  0.00     0.243 S 
ATOM     10  O   UNL d   1       2.574  -0.831   0.588  0.00  0.00    -0.206 OA
ATOM     11  O   UNL d   1       0.420   0.236   1.360  0.00  0.00    -0.206 OA
BRANCH   9  12
ATOM     12  N   UNL d   1       0.603  -0.645  -1.054  0.00  0.00    -0.203 NA
ATOM     13  C   UNL d   1      -0.861  -0.366  -1.160  0.00  0.00     0.138 C 
ATOM     14  C   UNL d   1      -1.688  -1.384  -0.336  0.00  0.00     0.288 C 
ATOM     15  N   UNL d   1      -1.410  -2.808  -0.627  0.00  0.00     0.095 N 
ATOM     16  C   UNL d   1       0.052  -3.046  -0.585  0.00  0.00     0.288 C 
ATOM     17  C   UNL d   1       0.898  -2.064  -1.417  0.00  0.00     0.138 C 
BRANCH  15  18
ATOM     18  C   UNL d   1      -2.043  -3.238  -1.885  0.00  0.00     0.311 C 
BRANCH  18  19
ATOM     19  C   UNL d   1      -1.932  -4.729  -2.135  0.00  0.00    -0.030 A 
ATOM     20  C   UNL d   1      -2.423  -5.653  -1.199  0.00  0.00     0.009 A 
ATOM     21  C   UNL d   1      -2.275  -7.025  -1.410  0.00  0.00     0.001 A 
ATOM     22  C   UNL d   1      -1.644  -7.489  -2.562  0.00  0.00     0.000 A 
ATOM     23  C   UNL d   1      -1.173  -6.583  -3.511  0.00  0.00     0.001 A 
ATOM     24  C   UNL d   1      -1.319  -5.210  -3.301  0.00  0.00     0.009 A 
ENDBRANCH  18  19
ENDBRANCH  15  18
ENDBRANCH   9  12
ENDBRANCH   1   9
TORSDOF 4
