REMARK  3 active torsions:
REMARK  status: ('A' for Active; 'I' for Inactive)
REMARK    1  A    between atoms: C_12  and  C_6 
REMARK    2  A    between atoms: O_11  and  C_9 
REMARK    3  A    between atoms: C_15  and  O_11 
ROOT
ATOM      1  N   UNL d   1      -5.378  -2.358   1.134  0.00  0.00    -0.346 N 
ATOM      2  HN  UNL d   1      -5.893  -2.688   1.950  1.00  0.00     0.167 HD
ATOM      3  C   UNL d   1      -6.012  -1.877   0.041  0.00  0.00     0.147 A 
ATOM      4  C   UNL d   1      -3.270  -1.895   0.030  0.00  0.00    -0.020 A 
ATOM      5  C   UNL d   1      -4.028  -2.380   1.091  0.00  0.00     0.101 A 
ATOM      6  C   UNL d   1      -5.351  -1.346  -1.057  0.00  0.00     0.057 A 
ATOM      7  C   UNL d   1      -3.955  -1.359  -1.061  0.00  0.00     0.017 A 
ENDROOT
BRANCH   4   8
ATOM      8  C   UNL d   1      -1.809  -1.940   0.085  0.00  0.00     0.030 C 
ATOM      9  C   UNL d   1      -1.051  -2.955  -0.356  0.00  0.00     0.045 A 
ATOM     10  C   UNL d   1      -1.520  -4.215  -1.040  0.00  0.00     0.257 A 
ATOM     11  C   UNL d   1       0.409  -3.051  -0.240  0.00  0.00     0.006 A 
ATOM     12  N   UNL d   1      -0.363  -4.942  -1.282  0.00  0.00    -0.322 N 
ATOM     13  O   UNL d   1      -2.656  -4.541  -1.329  0.00  0.00    -0.267 OA
ATOM     14  C   UNL d   1       0.765  -4.274  -0.817  0.00  0.00     0.046 A 
ATOM     15  H   UNL d   1      -0.374  -5.844  -1.732  0.00  0.00     0.169 HD
ATOM     16  C   UNL d   1       2.071  -4.715  -0.879  0.00  0.00     0.030 A 
ATOM     17  C   UNL d   1       3.053  -3.888  -0.331  0.00  0.00     0.002 A 
ATOM     18  C   UNL d   1       2.709  -2.657   0.260  0.00  0.00     0.001 A 
ATOM     19  C   UNL d   1       1.377  -2.229   0.309  0.00  0.00     0.015 A 
ENDBRANCH   4   8
BRANCH   3  20
ATOM     20  O   UNL d   1      -7.402  -1.895  -0.004  0.00  0.00    -0.294 OA
BRANCH  20  21
ATOM     21  C   UNL d   1      -8.034  -2.927   0.656  0.00  0.00     0.077 A 
ATOM     22  C   UNL d   1      -9.209  -2.622   1.345  0.00  0.00     0.037 A 
ATOM     23  C   UNL d   1      -9.889  -3.625   2.040  0.00  0.00     0.003 A 
ATOM     24  C   UNL d   1      -9.403  -4.933   2.035  0.00  0.00     0.000 A 
ATOM     25  C   UNL d   1      -8.252  -5.247   1.314  0.00  0.00     0.003 A 
ATOM     26  C   UNL d   1      -7.580  -4.250   0.609  0.00  0.00     0.037 A 
ENDBRANCH  20  21
ENDBRANCH   3  20
TORSDOF 3
