REMARK  2 active torsions:
REMARK  status: ('A' for Active; 'I' for Inactive)
REMARK    1  A    between atoms: C_5  and  C_1 
REMARK    2  A    between atoms: O_15  and  C_8 
ROOT
ATOM      1  C   UNL d   1       2.445   0.126  -0.005  0.00  0.00    -0.036 A 
ATOM      2  C   UNL d   1       5.253   0.027   0.041  0.00  0.00     0.068 A 
ATOM      3  C   UNL d   1       3.123  -0.222   1.168  0.00  0.00     0.014 A 
ATOM      4  C   UNL d   1       3.179   0.440  -1.152  0.00  0.00     0.014 A 
ATOM      5  C   UNL d   1       4.575   0.379  -1.128  0.00  0.00     0.037 A 
ATOM      6  C   UNL d   1       4.522  -0.274   1.191  0.00  0.00     0.037 A 
ENDROOT
BRANCH   1   7
ATOM      7  C   UNL d   1       0.983   0.074  -0.054  0.00  0.00     0.014 C 
ATOM      8  C   UNL d   1       0.135   1.100   0.155  0.00  0.00    -0.078 C 
ATOM      9  C   UNL d   1      -1.361   0.903   0.043  0.00  0.00     0.041 C 
ATOM     10  C   UNL d   1       0.522   2.519   0.496  0.00  0.00     0.041 C 
ATOM     11  C   UNL d   1      -1.960   1.846  -0.993  0.00  0.00     0.082 C 
ATOM     12  C   UNL d   1      -1.498   3.268  -0.757  0.00  0.00     0.127 C 
ATOM     13  C   UNL d   1      -0.011   3.477  -0.562  0.00  0.00     0.082 C 
ATOM     14  O   UNL d   1      -2.275   4.219  -0.846  0.00  0.00    -0.298 OA
ENDBRANCH   1   7
BRANCH   2  15
ATOM     15  O   UNL d   1       6.615  -0.033  -0.076  0.00  0.00    -0.356 OA
ATOM     16  C   UNL d   1       7.354   0.093   1.133  0.00  0.00     0.210 C 
ENDBRANCH   2  15
TORSDOF 2
