REMARK  2 active torsions:
REMARK  status: ('A' for Active; 'I' for Inactive)
REMARK    1  A    between atoms: O_8  and  C_2 
REMARK    2  A    between atoms: C_11  and  O_8 
ROOT
ATOM      1  C   UNL d   1      -1.809  -1.243  -0.054  0.00  0.00     0.120 A 
ATOM      2  C   UNL d   1      -0.573  -1.762  -0.042  0.00  0.00     0.087 A 
ATOM      3  C   UNL d   1      -2.069   0.202  -0.040  0.00  0.00     0.290 A 
ATOM      4  O   UNL d   1      -0.977   1.047  -0.073  0.00  0.00    -0.275 OA
ATOM      5  C   UNL d   1       0.572  -0.841  -0.009  0.00  0.00     0.031 A 
ATOM      6  C   UNL d   1       0.331   0.532  -0.043  0.00  0.00     0.092 A 
ATOM      7  O   UNL d   1      -3.221   0.623  -0.012  0.00  0.00    -0.260 OA
ATOM      8  C   UNL d   1       1.904  -1.271   0.050  0.00  0.00     0.017 A 
ATOM      9  C   UNL d   1       1.365   1.469  -0.036  0.00  0.00     0.038 A 
ATOM     10  C   UNL d   1       2.952  -0.342   0.069  0.00  0.00     0.001 A 
ATOM     11  C   UNL d   1       2.683   1.026   0.020  0.00  0.00     0.003 A 
ENDROOT
BRANCH   2  12
ATOM     12  O   UNL d   1      -0.252  -3.105  -0.063  0.00  0.00    -0.350 OA
BRANCH  12  13
ATOM     13  C   UNL d   1      -1.333  -4.038  -0.118  0.00  0.00     0.171 C 
ATOM     14  C   UNL d   1      -0.768  -5.446  -0.144  0.00  0.00     0.034 C 
ENDBRANCH  12  13
ENDBRANCH   2  12
TORSDOF 2
