REMARK  3 active torsions:
REMARK  status: ('A' for Active; 'I' for Inactive)
REMARK    1  A    between atoms: C_2  and  C_1 
REMARK    2  A    between atoms: N_10  and  C_4 
REMARK    3  A    between atoms: N_7  and  N_10 
ROOT
ATOM      1  N   UNL d   1       1.007   6.062   0.140  0.00  0.00    -0.284 N 
ATOM      2  H   UNL d   1       1.701   6.714  -0.207  0.00  0.00     0.188 HD
ENDROOT
BRANCH   1   3
ATOM      3  N   UNL d   1      -0.176   6.397   0.677  0.00  0.00    -0.302 N 
ATOM      4  C   UNL d   1      -0.491   7.639   0.905  0.00  0.00     0.038 C 
ATOM      5  C   UNL d   1      -1.846   7.913   1.494  0.00  0.00     0.008 A 
ATOM      6  C   UNL d   1       0.392   8.835   0.600  0.00  0.00     0.070 C 
ATOM      7  C   UNL d   1      -2.205   9.171   2.006  0.00  0.00     0.013 A 
ATOM      8  C   UNL d   1      -2.779   6.863   1.530  0.00  0.00     0.057 A 
ATOM      9  C   UNL d   1      -3.493   9.352   2.541  0.00  0.00     0.022 A 
ATOM     10  S   UNL d   1      -1.133  10.595   2.031  0.00  0.00    -0.129 SA
ATOM     11  C   UNL d   1      -4.408   8.299   2.578  0.00  0.00     0.043 A 
ATOM     12  C   UNL d   1      -4.041   7.063   2.071  0.00  0.00     0.117 A 
ATOM     13  F   UNL d   1      -4.916   6.051   2.102  0.00  0.00    -0.206 F 
ATOM     14  C   UNL d   1       0.461   9.777   1.784  0.00  0.00     0.085 C 
ATOM     15  HN  UNL d   1      -0.844   5.662   0.911  1.00  0.00     0.186 HD
ENDBRANCH   1   3
BRANCH   1  16
ATOM     16  C   UNL d   1       1.414   4.741  -0.075  0.00  0.00     0.141 A 
ATOM     17  N   UNL d   1       2.654   4.651  -0.634  0.00  0.00    -0.349 N 
ATOM     18  C   UNL d   1       3.171   3.424  -0.888  0.00  0.00     0.106 A 
ATOM     19  HN  UNL d   1       3.184   5.493  -0.858  1.00  0.00     0.167 HD
ATOM     20  C   UNL d   1       2.514   2.238  -0.622  0.00  0.00     0.065 A 
ATOM     21  C   UNL d   1       1.246   2.331  -0.051  0.00  0.00     0.045 A 
ATOM     22  C   UNL d   1       0.685   3.583   0.234  0.00  0.00     0.080 A 
ATOM     23 CL   UNL d   1      -0.884   3.544   0.951  0.00  0.00    -0.080 Cl
BRANCH  20  24
ATOM     24  C   UNL d   1       3.159   0.927  -0.941  0.00  0.00     0.418 C 
ATOM     25  F   UNL d   1       2.386  -0.149  -0.626  0.00  0.00    -0.166 F 
ATOM     26  F   UNL d   1       4.333   0.750  -0.277  0.00  0.00    -0.166 F 
ATOM     27  F   UNL d   1       3.454   0.801  -2.264  0.00  0.00    -0.166 F 
ENDBRANCH  20  24
ENDBRANCH   1  16
TORSDOF 3
