REMARK  3 active torsions:
REMARK  status: ('A' for Active; 'I' for Inactive)
REMARK    1  A    between atoms: C_9  and  N_1 
REMARK    2  A    between atoms: C_8  and  O_11 
REMARK    3  A    between atoms: O_11  and  C_17 
ROOT
ATOM      1  C   UNL d   1       2.035  -1.553  -0.003  0.00  0.00     0.061 A 
ATOM      2  C   UNL d   1       2.216  -2.599  -0.911  0.00  0.00     0.034 A 
ATOM      3  C   UNL d   1       3.139  -1.182   0.782  0.00  0.00     0.034 A 
ATOM      4  C   UNL d   1       4.551  -2.837  -0.291  0.00  0.00     0.078 A 
ATOM      5  C   UNL d   1       3.460  -3.237  -1.056  0.00  0.00     0.039 A 
ATOM      6  C   UNL d   1       4.375  -1.824   0.650  0.00  0.00     0.039 A 
ENDROOT
BRANCH   1   7
ATOM      7  N   UNL d   1       0.815  -0.848   0.132  0.00  0.00    -0.213 N 
ATOM      8  C   UNL d   1      -0.481  -1.071  -0.319  0.00  0.00     0.215 A 
ATOM      9  N   UNL d   1      -1.156   0.062   0.088  0.00  0.00    -0.259 N 
ATOM     10  S   UNL d   1      -1.233  -2.322  -1.098  0.00  0.00    -0.037 SA
ATOM     11  N   UNL d   1      -0.325   0.887   0.764  0.00  0.00    -0.225 N 
ATOM     12  H   UNL d   1      -2.137   0.268  -0.027  0.00  0.00     0.191 HD
ATOM     13  N   UNL d   1       0.830   0.365   0.796  0.00  0.00    -0.219 N 
ATOM     14  HN  UNL d   1      -0.584   1.782   1.179  1.00  0.00     0.210 HD
ATOM     15  HN  UNL d   1       1.648   0.777   1.245  1.00  0.00     0.210 HD
ENDBRANCH   1   7
BRANCH   4  16
ATOM     16  O   UNL d   1       5.815  -3.345  -0.353  0.00  0.00    -0.255 OA
BRANCH  16  17
ATOM     17  C   UNL d   1       6.165  -4.071  -1.520  0.00  0.00     0.530 C 
ATOM     18  F   UNL d   1       5.841  -3.393  -2.642  0.00  0.00    -0.144 F 
ATOM     19  F   UNL d   1       7.503  -4.266  -1.522  0.00  0.00    -0.144 F 
ATOM     20  F   UNL d   1       5.562  -5.278  -1.533  0.00  0.00    -0.144 F 
ENDBRANCH  16  17
ENDBRANCH   4  16
TORSDOF 3
