REMARK  3 active torsions:
REMARK  status: ('A' for Active; 'I' for Inactive)
REMARK    1  A    between atoms: C_8  and  C_3 
REMARK    2  A    between atoms: S_11  and  C_4 
REMARK    3  A    between atoms: C_9  and  C_10 
ROOT
ATOM      1  N   UNL d   1       0.143  -0.366   1.083  0.00  0.00    -0.320 N 
ATOM      2  HN  UNL d   1       0.167  -0.674   2.056  1.00  0.00     0.169 HD
ATOM      3  C   UNL d   1      -0.210  -1.060   0.016  0.00  0.00     0.132 A 
ATOM      4  C   UNL d   1       0.469   0.859   0.580  0.00  0.00     0.157 A 
ATOM      5  N   UNL d   1       0.358   0.976  -0.745  0.00  0.00    -0.278 N 
ATOM      6  HN  UNL d   1       0.543   1.782  -1.341  1.00  0.00     0.189 HD
ATOM      7  N   UNL d   1      -0.064  -0.253  -1.081  0.00  0.00    -0.283 N 
ATOM      8  H   UNL d   1      -0.203  -0.482  -2.059  0.00  0.00     0.188 HD
ENDROOT
BRANCH   3   9
ATOM      9  C   UNL d   1      -0.631  -2.458  -0.023  0.00  0.00     0.009 A 
ATOM     10  C   UNL d   1      -1.438  -2.976  -1.041  0.00  0.00     0.016 A 
ATOM     11  C   UNL d   1      -1.813  -4.328  -1.034  0.00  0.00     0.009 A 
ATOM     12  C   UNL d   1      -1.399  -5.205  -0.015  0.00  0.00    -0.051 A 
ATOM     13  C   UNL d   1      -0.592  -4.668   1.000  0.00  0.00     0.009 A 
ATOM     14  C   UNL d   1      -0.221  -3.318   0.998  0.00  0.00     0.016 A 
BRANCH  12  15
ATOM     15  C   UNL d   1      -1.842  -6.680  -0.021  0.00  0.00    -0.024 C 
ATOM     16  C   UNL d   1      -1.285  -7.497   1.167  0.00  0.00     0.019 C 
ATOM     17  C   UNL d   1      -3.382  -6.759   0.053  0.00  0.00     0.019 C 
ATOM     18  C   UNL d   1      -1.363  -7.375  -1.314  0.00  0.00     0.019 C 
ENDBRANCH  12  15
ENDBRANCH   3   9
BRANCH   4  19
ATOM     19  S   UNL d   1       1.002   2.169   1.585  0.00  0.00    -0.106 SA
ATOM     20  H   UNL d   1       0.919   1.492   2.737  0.00  0.00     0.110 HD
ENDBRANCH   4  19
TORSDOF 3
