REMARK  1 active torsions:
REMARK  status: ('A' for Active; 'I' for Inactive)
REMARK    1  A    between atoms: C_6  and  N_1 
ROOT
ATOM      1  N   UNL d   1      -2.286  -0.034  -0.342  0.00  0.00    -0.252 N 
ATOM      2  C   UNL d   1      -1.586  -1.149   0.064  0.00  0.00     0.236 C 
ATOM      3  C   UNL d   1      -1.496   1.095  -0.295  0.00  0.00     0.236 C 
ATOM      4  C   UNL d   1      -0.285  -0.722   0.709  0.00  0.00     0.096 C 
ATOM      5  C   UNL d   1      -0.304   0.792   0.588  0.00  0.00     0.095 C 
ATOM      6  C   UNL d   1       0.966   1.514   0.161  0.00  0.00     0.042 C 
ATOM      7  C   UNL d   1       0.921  -1.493   0.162  0.00  0.00     0.048 C 
ATOM      8  O   UNL d   1      -1.905  -2.325  -0.060  0.00  0.00    -0.272 OA
ATOM      9  O   UNL d   1      -1.718   2.207  -0.746  0.00  0.00    -0.272 OA
ATOM     10  C   UNL d   1       2.021   0.662  -0.458  0.00  0.00    -0.023 C 
ATOM     11  C   UNL d   1       2.022  -0.678  -0.453  0.00  0.00    -0.087 C 
ATOM     12  C   UNL d   1       3.193  -1.435  -1.019  0.00  0.00     0.043 C 
ENDROOT
BRANCH   1  13
ATOM     13  C   UNL d   1      -3.665  -0.044  -0.723  0.00  0.00     0.048 A 
ATOM     14  C   UNL d   1      -4.525  -1.040  -0.222  0.00  0.00     0.070 A 
ATOM     15  C   UNL d   1      -5.882  -0.944  -0.471  0.00  0.00     0.107 A 
ATOM     16  O   UNL d   1      -6.838  -1.782   0.014  0.00  0.00    -0.323 OA
ATOM     17  C   UNL d   1      -6.411   0.071  -1.226  0.00  0.00     0.105 A 
ATOM     18  C   UNL d   1      -8.034  -1.147  -0.486  0.00  0.00     0.352 A 
ATOM     19  O   UNL d   1      -7.764  -0.007  -1.330  0.00  0.00    -0.323 OA
ATOM     20  C   UNL d   1      -5.612   1.045  -1.773  0.00  0.00     0.042 A 
ATOM     21  C   UNL d   1      -4.234   0.990  -1.506  0.00  0.00     0.033 A 
ENDBRANCH   1  13
TORSDOF 1
