REMARK  5 active torsions:
REMARK  status: ('A' for Active; 'I' for Inactive)
REMARK    1  A    between atoms: C_9  and  C_1 
REMARK    2  A    between atoms: C_8  and  C_2 
REMARK    3  A    between atoms: C_7  and  C_3 
REMARK    4  A    between atoms: O_20  and  C_8 
REMARK    5  A    between atoms: O_21  and  C_9 
ROOT
ATOM      1  C   UNL d   1      -1.292  -1.002   0.091  0.00  0.00     0.052 C 
ATOM      2  C   UNL d   1       1.279  -1.019   0.111  0.00  0.00     0.052 C 
ATOM      3  C   UNL d   1      -0.002  -1.838  -0.081  0.00  0.00     0.101 C 
ATOM      4  C   UNL d   1      -1.230   0.351   0.012  0.00  0.00     0.018 C 
ATOM      5  C   UNL d   1       1.230   0.331   0.032  0.00  0.00     0.018 C 
ATOM      6  N   UNL d   1       0.010   0.962  -0.147  0.00  0.00    -0.362 N 
ATOM      7  C   UNL d   1      -2.357   1.352   0.107  0.00  0.00     0.069 C 
ATOM      8  C   UNL d   1       2.427   1.243   0.125  0.00  0.00     0.069 C 
ATOM      9  H   UNL d   1       0.018   1.979  -0.141  0.00  0.00     0.165 HD
ENDROOT
BRANCH   3  10
ATOM     10  C   UNL d   1       0.008  -2.500  -1.472  0.00  0.00    -0.042 A 
ATOM     11  C   UNL d   1      -0.060  -3.897  -1.606  0.00  0.00     0.048 A 
ATOM     12  C   UNL d   1      -0.047  -4.430  -2.881  0.00  0.00     0.105 A 
ATOM     13  O   UNL d   1      -0.108  -5.754  -3.194  0.00  0.00    -0.323 OA
ATOM     14  C   UNL d   1       0.033  -3.637  -4.003  0.00  0.00     0.105 A 
ATOM     15  C   UNL d   1      -0.096  -5.695  -4.636  0.00  0.00     0.352 A 
ATOM     16  O   UNL d   1       0.032  -4.356  -5.156  0.00  0.00    -0.323 OA
ATOM     17  C   UNL d   1       0.101  -2.267  -3.918  0.00  0.00     0.040 A 
ATOM     18  C   UNL d   1       0.084  -1.699  -2.644  0.00  0.00     0.011 A 
ENDBRANCH   3  10
BRANCH   2  19
ATOM     19  C   UNL d   1       2.571  -1.722   0.340  0.00  0.00     0.291 C 
ATOM     20  O   UNL d   1       3.670  -1.243   0.116  0.00  0.00    -0.260 OA
BRANCH  19  21
ATOM     21  O   UNL d   1       2.369  -2.953   0.880  0.00  0.00    -0.323 OA
ATOM     22  C   UNL d   1       3.588  -3.638   1.189  0.00  0.00     0.213 C 
ENDBRANCH  19  21
ENDBRANCH   2  19
BRANCH   1  23
ATOM     23  C   UNL d   1      -2.498  -1.831   0.388  0.00  0.00     0.291 C 
ATOM     24  O   UNL d   1      -2.435  -2.956   0.861  0.00  0.00    -0.260 OA
BRANCH  23  25
ATOM     25  O   UNL d   1      -3.649  -1.196   0.067  0.00  0.00    -0.323 OA
ATOM     26  C   UNL d   1      -4.850  -1.875   0.437  0.00  0.00     0.213 C 
ENDBRANCH  23  25
ENDBRANCH   1  23
TORSDOF 5
