REMARK  6 active torsions:
REMARK  status: ('A' for Active; 'I' for Inactive)
REMARK    1  A    between atoms: C_10  and  C_3 
REMARK    2  A    between atoms: C_9  and  C_7 
REMARK    3  A    between atoms: O_12  and  C_8 
REMARK    4  A    between atoms: C_17  and  O_12 
REMARK    5  A    between atoms: O_18  and  C_14 
REMARK    6  A    between atoms: C_19  and  C_17 
ROOT
ATOM      1  C   UNL d   1      -3.043  -3.309  -1.113  0.00  0.00     0.103 A 
ATOM      2  C   UNL d   1      -0.945  -2.833   0.034  0.00  0.00    -0.031 A 
ATOM      3  C   UNL d   1      -1.797  -2.671  -1.065  0.00  0.00     0.051 A 
ATOM      4  C   UNL d   1      -3.425  -4.138  -0.045  0.00  0.00     0.101 A 
ATOM      5  C   UNL d   1      -2.560  -4.303   1.046  0.00  0.00     0.040 A 
ATOM      6  C   UNL d   1      -1.324  -3.658   1.089  0.00  0.00     0.014 A 
ENDROOT
BRANCH   2   7
ATOM      7  C   UNL d   1       0.305  -2.081   0.073  0.00  0.00     0.047 C 
ATOM      8  C   UNL d   1       0.448  -0.869   0.621  0.00  0.00     0.111 A 
ATOM      9  N   UNL d   1       1.621  -0.160   0.565  0.00  0.00    -0.331 N 
ATOM     10  C   UNL d   1      -0.598  -0.076   1.337  0.00  0.00     0.316 A 
ATOM     11  C   UNL d   1       1.316   0.941   1.169  0.00  0.00     0.162 A 
ATOM     12  HN  UNL d   1       2.511  -0.434   0.150  1.00  0.00     0.168 HD
ATOM     13  O   UNL d   1       0.063   1.070   1.657  0.00  0.00    -0.256 OA
ATOM     14  O   UNL d   1      -1.756  -0.338   1.598  0.00  0.00    -0.257 OA
BRANCH  11  15
ATOM     15  C   UNL d   1       2.191   2.100   1.383  0.00  0.00     0.015 A 
ATOM     16  C   UNL d   1       3.498   2.064   0.883  0.00  0.00     0.016 A 
ATOM     17  C   UNL d   1       4.320   3.184   1.008  0.00  0.00     0.001 A 
ATOM     18  C   UNL d   1       3.841   4.334   1.636  0.00  0.00     0.000 A 
ATOM     19  C   UNL d   1       2.546   4.362   2.156  0.00  0.00     0.001 A 
ATOM     20  C   UNL d   1       1.720   3.247   2.031  0.00  0.00     0.016 A 
ENDBRANCH  11  15
ENDBRANCH   2   7
BRANCH   1  21
ATOM     21  O   UNL d   1      -3.950  -3.066  -2.108  0.00  0.00    -0.344 OA
BRANCH  21  22
ATOM     22  C   UNL d   1      -3.433  -2.755  -3.401  0.00  0.00     0.214 C 
BRANCH  22  23
ATOM     23  C   UNL d   1      -4.600  -2.546  -4.333  0.00  0.00    -0.034 A 
ATOM     24  C   UNL d   1      -5.520  -1.515  -4.086  0.00  0.00     0.009 A 
ATOM     25  C   UNL d   1      -6.585  -1.292  -4.958  0.00  0.00     0.001 A 
ATOM     26  C   UNL d   1      -6.742  -2.098  -6.084  0.00  0.00     0.000 A 
ATOM     27  C   UNL d   1      -5.840  -3.131  -6.334  0.00  0.00     0.001 A 
ATOM     28  C   UNL d   1      -4.773  -3.355  -5.463  0.00  0.00     0.009 A 
ENDBRANCH  22  23
ENDBRANCH  21  22
ENDBRANCH   1  21
BRANCH   4  29
ATOM     29  O   UNL d   1      -4.612  -4.808   0.106  0.00  0.00    -0.353 OA
ATOM     30  C   UNL d   1      -5.268  -5.240  -1.079  0.00  0.00     0.210 C 
ENDBRANCH   4  29
TORSDOF 6
