REMARK  5 active torsions:
REMARK  status: ('A' for Active; 'I' for Inactive)
REMARK    1  A    between atoms: C_2  and  C_1 
REMARK    2  A    between atoms: N_12  and  C_2 
REMARK    3  A    between atoms: O_6  and  N_3 
REMARK    4  A    between atoms: C_5  and  O_6 
REMARK    5  A    between atoms: C_7  and  C_5 
ROOT
ATOM      1  C   UNL d   1       0.090   2.207   0.013  0.00  0.00     0.112 C 
ATOM      2  N   UNL d   1       1.165   2.890  -0.246  0.00  0.00    -0.245 N 
ATOM      3  HN  UNL d   1       1.161   3.862  -0.555  1.00  0.00     0.196 HD
ENDROOT
BRANCH   1   4
ATOM      4  C   UNL d   1      -1.242   2.906  -0.065  0.00  0.00     0.047 A 
ATOM      5  C   UNL d   1      -2.365   2.272  -0.635  0.00  0.00     0.049 A 
ATOM      6 CL   UNL d   1      -2.298   0.716  -1.397  0.00  0.00    -0.083 Cl
ATOM      7  C   UNL d   1      -3.622   2.897  -0.642  0.00  0.00     0.025 A 
ATOM      8  C   UNL d   1      -3.779   4.170  -0.108  0.00  0.00     0.003 A 
ATOM      9  C   UNL d   1      -2.677   4.823   0.434  0.00  0.00     0.025 A 
ATOM     10  C   UNL d   1      -1.417   4.200   0.466  0.00  0.00     0.049 A 
ATOM     11 CL   UNL d   1      -0.170   5.101   1.260  0.00  0.00    -0.083 Cl
ENDBRANCH   1   4
BRANCH   1  12
ATOM     12  N   UNL d   1       0.134   0.873   0.358  0.00  0.00    -0.286 NA
ATOM     13  H   UNL d   1      -0.651   0.311   0.041  0.00  0.00     0.125 HD
ATOM     14  H   UNL d   1       1.020   0.447   0.109  0.00  0.00     0.125 HD
ENDBRANCH   1  12
BRANCH   2  15
ATOM     15  O   UNL d   1       2.343   2.131  -0.050  0.00  0.00    -0.193 OA
BRANCH  15  16
ATOM     16  C   UNL d   1       3.433   2.953  -0.109  0.00  0.00     0.315 C 
ATOM     17  O   UNL d   1       3.448   4.157  -0.338  0.00  0.00    -0.257 OA
BRANCH  16  18
ATOM     18  C   UNL d   1       4.694   2.191   0.129  0.00  0.00     0.043 A 
ATOM     19  C   UNL d   1       4.722   0.828   0.452  0.00  0.00     0.041 A 
ATOM     20  C   UNL d   1       5.951   0.190   0.645  0.00  0.00     0.035 A 
ATOM     21 CL   UNL d   1       5.987  -1.487   1.033  0.00  0.00    -0.084 Cl
ATOM     22  C   UNL d   1       7.151   0.890   0.525  0.00  0.00     0.024 A 
ATOM     23  C   UNL d   1       7.130   2.247   0.213  0.00  0.00     0.003 A 
ATOM     24  C   UNL d   1       5.907   2.892   0.018  0.00  0.00     0.018 A 
ENDBRANCH  16  18
ENDBRANCH  15  16
ENDBRANCH   2  15
TORSDOF 5
