REMARK  3 active torsions:
REMARK  status: ('A' for Active; 'I' for Inactive)
REMARK       I    between atoms: N_2  and  C_1 
REMARK    1  A    between atoms: C_5  and  C_1 
REMARK    2  A    between atoms: C_7  and  N_2 
REMARK    3  A    between atoms: C_3  and  C_7 
REMARK       I    between atoms: N_8  and  C_3 
ROOT
ATOM      1  C   UNL d   1       1.136  -0.120  -0.065  0.00  0.00     0.252 C 
ATOM      2  N   UNL d   1       0.517  -1.347   0.019  0.00  0.00    -0.348 N 
ATOM      3  O   UNL d   1       0.504   0.922  -0.200  0.00  0.00    -0.268 OA
ATOM      4  H   UNL d   1       1.034  -2.217  -0.031  0.00  0.00     0.163 HD
ENDROOT
BRANCH   1   5
ATOM      5  C   UNL d   1       2.624  -0.079  -0.015  0.00  0.00     0.032 A 
ATOM      6  C   UNL d   1       3.263   1.012  -0.622  0.00  0.00     0.017 A 
ATOM      7  C   UNL d   1       4.651   1.143  -0.563  0.00  0.00     0.001 A 
ATOM      8  C   UNL d   1       5.408   0.189   0.111  0.00  0.00     0.000 A 
ATOM      9  C   UNL d   1       4.780  -0.900   0.720  0.00  0.00     0.001 A 
ATOM     10  C   UNL d   1       3.388  -1.039   0.657  0.00  0.00     0.017 A 
ENDBRANCH   1   5
BRANCH   2  11
ATOM     11  C   UNL d   1      -0.927  -1.410  -0.093  0.00  0.00     0.225 C 
BRANCH  11  12
ATOM     12  C   UNL d   1      -1.464  -2.837  -0.083  0.00  0.00     0.233 C 
ATOM     13  O   UNL d   1      -0.754  -3.836  -0.038  0.00  0.00    -0.272 OA
ATOM     14  N   UNL d   1      -2.827  -2.934  -0.144  0.00  0.00    -0.369 N 
ATOM     15  H   UNL d   1      -3.436  -2.127  -0.187  0.00  0.00     0.159 HD
ATOM     16  H   UNL d   1      -3.244  -3.855  -0.149  0.00  0.00     0.159 HD
ENDBRANCH  11  12
ENDBRANCH   2  11
TORSDOF 3
