REMARK  7 active torsions:
REMARK  status: ('A' for Active; 'I' for Inactive)
REMARK    1  A    between atoms: C_7  and  C_3 
REMARK    2  A    between atoms: C_12  and  C_4 
REMARK    3  A    between atoms: C_8  and  O_9 
REMARK    4  A    between atoms: O_9  and  C_14 
REMARK    5  A    between atoms: O_13  and  C_12 
REMARK    6  A    between atoms: C_17  and  O_13 
REMARK    7  A    between atoms: O_25  and  C_18 
ROOT
ATOM      1  N   UNL d   1       1.447  -0.585  -0.035  0.00  0.00    -0.351 N 
ATOM      2  HN  UNL d   1       2.337  -1.071  -0.145  1.00  0.00     0.166 HD
ATOM      3  C   UNL d   1       1.297   0.791   0.031  0.00  0.00     0.049 A 
ATOM      4  C   UNL d   1       0.271  -1.175   0.064  0.00  0.00     0.075 A 
ATOM      5  S   UNL d   1      -1.076  -0.112   0.197  0.00  0.00    -0.084 SA
ATOM      6  C   UNL d   1      -0.011   1.226   0.125  0.00  0.00     0.082 A 
ENDROOT
BRANCH   3   7
ATOM      7  C   UNL d   1       2.447   1.686  -0.041  0.00  0.00    -0.009 A 
ATOM      8  C   UNL d   1       3.596   1.292  -0.742  0.00  0.00     0.016 A 
ATOM      9  C   UNL d   1       4.705   2.143  -0.843  0.00  0.00     0.038 A 
ATOM     10  C   UNL d   1       4.682   3.393  -0.223  0.00  0.00     0.074 A 
ATOM     11  C   UNL d   1       3.540   3.793   0.472  0.00  0.00     0.038 A 
ATOM     12  C   UNL d   1       2.435   2.944   0.573  0.00  0.00     0.016 A 
BRANCH  10  13
ATOM     13  O   UNL d   1       5.689   4.315  -0.250  0.00  0.00    -0.290 OA
BRANCH  13  14
ATOM     14  C   UNL d   1       6.996   3.791  -0.407  0.00  0.00     0.505 C 
ATOM     15  F   UNL d   1       7.236   3.601  -1.727  0.00  0.00    -0.184 F 
ATOM     16  F   UNL d   1       7.864   4.747   0.013  0.00  0.00    -0.184 F 
ENDBRANCH  13  14
ENDBRANCH  10  13
ENDBRANCH   3   7
BRANCH   4  17
ATOM     17  C   UNL d   1       0.049  -2.656  -0.004  0.00  0.00     0.240 C 
BRANCH  17  18
ATOM     18  O   UNL d   1       0.046  -3.162   1.333  0.00  0.00    -0.345 OA
BRANCH  18  19
ATOM     19  C   UNL d   1      -0.133  -4.513   1.466  0.00  0.00     0.069 A 
ATOM     20  C   UNL d   1      -0.366  -5.411   0.423  0.00  0.00     0.039 A 
ATOM     21  C   UNL d   1      -0.546  -6.774   0.686  0.00  0.00     0.039 A 
ATOM     22  C   UNL d   1      -0.499  -7.255   1.994  0.00  0.00     0.068 A 
ATOM     23  C   UNL d   1      -0.259  -6.358   3.035  0.00  0.00     0.039 A 
ATOM     24  C   UNL d   1      -0.078  -4.996   2.774  0.00  0.00     0.039 A 
BRANCH  22  25
ATOM     25  O   UNL d   1      -0.672  -8.556   2.375  0.00  0.00    -0.356 OA
ATOM     26  C   UNL d   1      -0.924  -9.499   1.335  0.00  0.00     0.210 C 
ENDBRANCH  22  25
ENDBRANCH  18  19
ENDBRANCH  17  18
ENDBRANCH   4  17
TORSDOF 7
