REMARK  4 active torsions:
REMARK  status: ('A' for Active; 'I' for Inactive)
REMARK    1  A    between atoms: C_3  and  C_1 
REMARK    2  A    between atoms: N_2  and  C_4 
REMARK    3  A    between atoms: C_5  and  O_11 
REMARK    4  A    between atoms: O_11  and  C_13 
ROOT
ATOM      1  C   UNL d   1       1.365  -0.288   0.089  0.00  0.00     0.083 A 
ATOM      2  C   UNL d   1       0.537  -1.379  -0.203  0.00  0.00     0.118 A 
ATOM      3  C   UNL d   1       0.756   0.979   0.179  0.00  0.00     0.056 A 
ATOM      4  C   UNL d   1      -0.837  -1.231  -0.447  0.00  0.00     0.039 A 
ATOM      5  C   UNL d   1      -0.622   1.133  -0.005  0.00  0.00     0.077 A 
ATOM      6  C   UNL d   1      -1.407   0.037  -0.376  0.00  0.00     0.040 A 
ENDROOT
BRANCH   5   7
ATOM      7  O   UNL d   1      -1.124   2.403   0.161  0.00  0.00    -0.309 OA
BRANCH   7   8
ATOM      8  C   UNL d   1      -2.333   2.575   0.805  0.00  0.00     0.098 A 
ATOM      9  C   UNL d   1      -3.098   3.704   0.467  0.00  0.00     0.069 A 
ATOM     10  C   UNL d   1      -4.339   3.922   1.065  0.00  0.00     0.050 A 
ATOM     11 CL   UNL d   1      -2.537   4.852  -0.693  0.00  0.00    -0.081 Cl
ATOM     12  C   UNL d   1      -4.818   3.015   2.008  0.00  0.00     0.035 A 
ATOM     13  C   UNL d   1      -4.053   1.916   2.385  0.00  0.00     0.026 A 
ATOM     14 CL   UNL d   1      -6.369   3.255   2.717  0.00  0.00    -0.084 Cl
ATOM     15  C   UNL d   1      -2.800   1.712   1.806  0.00  0.00     0.041 A 
ENDBRANCH   7   8
ENDBRANCH   5   7
BRANCH   1  16
ATOM     16  C   UNL d   1       2.853  -0.390   0.294  0.00  0.00     0.419 C 
ATOM     17  F   UNL d   1       3.324  -1.649   0.468  0.00  0.00    -0.166 F 
ATOM     18  F   UNL d   1       3.546   0.138  -0.750  0.00  0.00    -0.166 F 
ATOM     19  F   UNL d   1       3.259   0.302   1.396  0.00  0.00    -0.166 F 
ENDBRANCH   1  16
BRANCH   2  20
ATOM     20  N   UNL d   1       1.067  -2.724  -0.259  0.00  0.00    -0.115 N 
ATOM     21  O   UNL d   1       1.700  -3.027  -1.277  0.00  0.00    -0.532 OA
ATOM     22  O   UNL d   1       0.812  -3.463   0.699  0.00  0.00    -0.532 OA
ENDBRANCH   2  20
TORSDOF 4
