REMARK  3 active torsions:
REMARK  status: ('A' for Active; 'I' for Inactive)
REMARK    1  A    between atoms: C_10  and  C_3 
REMARK    2  A    between atoms: C_7  and  C_9 
REMARK    3  A    between atoms: C_15  and  C_8 
ROOT
ATOM      1  N   UNL d   1      -0.797   0.028   0.008  0.00  0.00    -0.331 N 
ATOM      2  HN  UNL d   1      -1.781  -0.237   0.037  1.00  0.00     0.168 HD
ATOM      3  C   UNL d   1      -0.279   1.211  -0.041  0.00  0.00     0.162 A 
ATOM      4  C   UNL d   1       0.307  -0.781   0.009  0.00  0.00     0.111 A 
ATOM      5  O   UNL d   1       1.071   1.308  -0.085  0.00  0.00    -0.256 OA
ATOM      6  C   UNL d   1       1.547   0.034  -0.046  0.00  0.00     0.316 A 
ATOM      7  C   UNL d   1       0.324  -2.117   0.041  0.00  0.00     0.047 C 
ATOM      8  O   UNL d   1       2.709  -0.324  -0.063  0.00  0.00    -0.257 OA
ENDROOT
BRANCH   7   9
ATOM      9  C   UNL d   1      -0.905  -2.908   0.031  0.00  0.00    -0.034 A 
ATOM     10  C   UNL d   1      -1.467  -3.288  -1.191  0.00  0.00     0.012 A 
ATOM     11  C   UNL d   1      -2.645  -4.036  -1.224  0.00  0.00     0.017 A 
ATOM     12  C   UNL d   1      -3.280  -4.417  -0.034  0.00  0.00     0.048 A 
ATOM     13  C   UNL d   1      -2.723  -4.014   1.191  0.00  0.00     0.017 A 
ATOM     14  C   UNL d   1      -1.544  -3.263   1.223  0.00  0.00     0.012 A 
BRANCH  12  15
ATOM     15  C   UNL d   1      -4.533  -5.258  -0.059  0.00  0.00     0.417 C 
ATOM     16  F   UNL d   1      -4.948  -5.581  -1.316  0.00  0.00    -0.166 F 
ATOM     17  F   UNL d   1      -4.376  -6.443   0.594  0.00  0.00    -0.166 F 
ATOM     18  F   UNL d   1      -5.593  -4.642   0.535  0.00  0.00    -0.166 F 
ENDBRANCH  12  15
ENDBRANCH   7   9
BRANCH   3  19
ATOM     19  C   UNL d   1      -1.013   2.483  -0.018  0.00  0.00     0.015 A 
ATOM     20  C   UNL d   1      -2.411   2.454   0.070  0.00  0.00     0.016 A 
ATOM     21  C   UNL d   1      -3.128   3.645   0.182  0.00  0.00     0.001 A 
ATOM     22  C   UNL d   1      -2.452   4.864   0.201  0.00  0.00     0.000 A 
ATOM     23  C   UNL d   1      -1.062   4.898   0.086  0.00  0.00     0.001 A 
ATOM     24  C   UNL d   1      -0.340   3.710  -0.027  0.00  0.00     0.016 A 
ENDBRANCH   3  19
TORSDOF 3
