REMARK  2 active torsions:
REMARK  status: ('A' for Active; 'I' for Inactive)
REMARK       I    between atoms: N_2  and  C_1 
REMARK    1  A    between atoms: C_4  and  C_1 
REMARK    2  A    between atoms: C_3  and  C_5 
ROOT
ATOM      1  C   UNL d   1       0.238  -1.218  -0.486  0.00  0.00     0.032 A 
ATOM      2  C   UNL d   1      -1.245  -3.599  -1.075  0.00  0.00    -0.023 A 
ATOM      3  C   UNL d   1       0.461  -2.406   0.199  0.00  0.00     0.018 A 
ATOM      4  C   UNL d   1      -0.789  -1.214  -1.435  0.00  0.00     0.018 A 
ATOM      5  C   UNL d   1      -1.523  -2.384  -1.716  0.00  0.00     0.013 A 
ATOM      6  C   UNL d   1      -0.224  -3.580  -0.120  0.00  0.00     0.013 A 
ENDROOT
BRANCH   1   7
ATOM      7  C   UNL d   1       0.970   0.060  -0.201  0.00  0.00     0.253 C 
ATOM      8  N   UNL d   1       2.295   0.085   0.290  0.00  0.00    -0.348 N 
ATOM      9  C   UNL d   1       3.218  -1.048   0.351  0.00  0.00     0.126 C 
ATOM     10  C   UNL d   1       2.868   1.412   0.535  0.00  0.00     0.126 C 
ATOM     11  C   UNL d   1       3.344  -1.600   1.775  0.00  0.00     0.020 C 
ATOM     12  C   UNL d   1       4.167  -0.760   2.744  0.00  0.00     0.002 C 
ATOM     13  C   UNL d   1       3.720   0.697   2.839  0.00  0.00     0.002 C 
ATOM     14  C   UNL d   1       4.007   1.472   1.555  0.00  0.00     0.020 C 
ATOM     15  O   UNL d   1       0.353   1.103  -0.429  0.00  0.00    -0.267 OA
ENDBRANCH   1   7
BRANCH   2  16
ATOM     16  C   UNL d   1      -1.977  -4.857  -1.343  0.00  0.00     0.013 A 
ATOM     17  C   UNL d   1      -2.490  -5.186  -2.610  0.00  0.00     0.127 A 
ATOM     18  F   UNL d   1      -2.345  -4.346  -3.646  0.00  0.00    -0.205 F 
ATOM     19  C   UNL d   1      -3.143  -6.395  -2.845  0.00  0.00     0.043 A 
ATOM     20  C   UNL d   1      -3.292  -7.328  -1.822  0.00  0.00     0.003 A 
ATOM     21  C   UNL d   1      -2.795  -7.038  -0.556  0.00  0.00     0.001 A 
ATOM     22  C   UNL d   1      -2.158  -5.817  -0.323  0.00  0.00     0.015 A 
ENDBRANCH   2  16
TORSDOF 2
