REMARK  2 active torsions:
REMARK  status: ('A' for Active; 'I' for Inactive)
REMARK    1  A    between atoms: N_7  and  C_4 
REMARK    2  A    between atoms: C_14  and  N_7 
ROOT
ATOM      1  C   UNL d   1      -2.362  -0.747   0.133  0.00  0.00     0.103 A 
ATOM      2  C   UNL d   1      -1.235  -1.712   0.024  0.00  0.00     0.200 A 
ATOM      3  C   UNL d   1      -1.779   0.621   0.268  0.00  0.00     0.200 A 
ATOM      4  C   UNL d   1      -3.672  -1.053   0.121  0.00  0.00     0.132 C 
ATOM      5  C   UNL d   1      -0.013  -0.903   0.031  0.00  0.00     0.029 A 
ATOM      6  C   UNL d   1      -0.330   0.445   0.151  0.00  0.00     0.029 A 
ATOM      7  C   UNL d   1      -4.119  -2.418   0.081  0.00  0.00     0.118 C 
ATOM      8  N   UNL d   1      -4.567  -3.487   0.044  0.00  0.00    -0.190 NA
ATOM      9  O   UNL d   1      -2.323   1.685   0.486  0.00  0.00    -0.286 OA
ATOM     10  O   UNL d   1      -1.279  -2.920  -0.071  0.00  0.00    -0.286 OA
ATOM     11  C   UNL d   1       1.296  -1.335  -0.074  0.00  0.00     0.016 A 
ATOM     12  C   UNL d   1       0.650   1.422   0.157  0.00  0.00     0.016 A 
ATOM     13  C   UNL d   1       1.979   1.005   0.040  0.00  0.00     0.001 A 
ATOM     14  C   UNL d   1       2.300  -0.362  -0.070  0.00  0.00     0.001 A 
ENDROOT
BRANCH   4  15
ATOM     15  N   UNL d   1      -4.732  -0.151   0.182  0.00  0.00    -0.347 N 
ATOM     16  H   UNL d   1      -5.610  -0.549   0.520  0.00  0.00     0.167 HD
BRANCH  15  17
ATOM     17  C   UNL d   1      -4.986   0.841  -0.798  0.00  0.00     0.035 A 
ATOM     18  C   UNL d   1      -4.526   0.753  -2.116  0.00  0.00     0.072 A 
ATOM     19  C   UNL d   1      -4.731   1.811  -2.999  0.00  0.00     0.124 A 
ATOM     20  F   UNL d   1      -4.258   1.708  -4.250  0.00  0.00    -0.205 F 
ATOM     21  C   UNL d   1      -5.393   2.974  -2.604  0.00  0.00    -0.023 A 
ATOM     22  C   UNL d   1      -5.903   3.041  -1.305  0.00  0.00     0.012 A 
ATOM     23  C   UNL d   1      -5.511   4.131  -3.547  0.00  0.00     0.051 C 
ATOM     24  C   UNL d   1      -5.712   1.977  -0.417  0.00  0.00     0.030 A 
ENDBRANCH  15  17
ENDBRANCH   4  15
TORSDOF 2
