REMARK  4 active torsions:
REMARK  status: ('A' for Active; 'I' for Inactive)
REMARK    1  A    between atoms: C_7  and  N_1 
REMARK    2  A    between atoms: S_6  and  C_4 
REMARK    3  A    between atoms: C_8  and  S_6 
REMARK    4  A    between atoms: C_11  and  C_12 
ROOT
ATOM      1  N   UNL d   1       0.055   0.791  -0.048  0.00  0.00    -0.251 N 
ATOM      2  C   UNL d   1      -0.943   0.053   0.540  0.00  0.00     0.232 A 
ATOM      3  C   UNL d   1       1.021  -0.020  -0.606  0.00  0.00     0.246 A 
ATOM      4  C   UNL d   1       0.575  -1.458  -0.512  0.00  0.00     0.157 A 
ATOM      5  C   UNL d   1      -0.680  -1.406   0.332  0.00  0.00     0.129 A 
ATOM      6  O   UNL d   1      -1.937   0.440   1.143  0.00  0.00    -0.273 OA
ATOM      7  O   UNL d   1       2.105   0.299  -1.079  0.00  0.00    -0.271 OA
ENDROOT
BRANCH   1   8
ATOM      8  C   UNL d   1       0.098   2.217  -0.079  0.00  0.00     0.045 A 
ATOM      9  C   UNL d   1      -0.606   3.005   0.839  0.00  0.00     0.031 A 
ATOM     10  C   UNL d   1      -0.562   4.408   0.781  0.00  0.00     0.010 A 
ATOM     11  C   UNL d   1       0.166   5.082  -0.212  0.00  0.00    -0.051 A 
ATOM     12  C   UNL d   1       0.864   4.288  -1.130  0.00  0.00     0.010 A 
ATOM     13  C   UNL d   1       0.833   2.889  -1.061  0.00  0.00     0.031 A 
BRANCH  11  14
ATOM     14  C   UNL d   1       0.168   6.618  -0.285  0.00  0.00    -0.024 C 
ATOM     15  C   UNL d   1       0.988   7.173  -1.473  0.00  0.00     0.019 C 
ATOM     16  C   UNL d   1      -1.278   7.134  -0.448  0.00  0.00     0.019 C 
ATOM     17  C   UNL d   1       0.773   7.211   1.004  0.00  0.00     0.019 C 
ENDBRANCH  11  14
ENDBRANCH   1   8
BRANCH   4  18
ATOM     18  S   UNL d   1       0.282  -2.090  -2.200  0.00  0.00    -0.078 SA
BRANCH  18  19
ATOM     19  C   UNL d   1      -0.018  -3.779  -1.819  0.00  0.00     0.182 C 
ATOM     20  O   UNL d   1      -0.021  -4.189  -0.664  0.00  0.00    -0.286 OA
ATOM     21  C   UNL d   1      -0.329  -4.651  -3.001  0.00  0.00     0.104 C 
ENDBRANCH  18  19
ENDBRANCH   4  18
TORSDOF 4
