REMARK  7 active torsions:
REMARK  status: ('A' for Active; 'I' for Inactive)
REMARK    1  A    between atoms: N_6  and  N_1 
REMARK    2  A    between atoms: C_5  and  C_3 
REMARK    3  A    between atoms: C_8  and  C_4 
REMARK    4  A    between atoms: C_9  and  C_4 
REMARK    5  A    between atoms: O_11  and  C_5 
REMARK    6  A    between atoms: C_7  and  N_6 
REMARK    7  A    between atoms: C_17  and  O_11 
ROOT
ATOM      1  N   UNL d   1       5.340   1.359   2.080  0.00  0.00    -0.299 N 
ATOM      2  HN  UNL d   1       4.877   1.901   2.810  1.00  0.00     0.187 HD
ATOM      3  C   UNL d   1       6.646   1.256   2.056  0.00  0.00     0.068 C 
ENDROOT
BRANCH   3   4
ATOM      4  C   UNL d   1       7.457   0.537   1.006  0.00  0.00    -0.007 A 
ATOM      5  C   UNL d   1       8.543   1.199   0.410  0.00  0.00     0.014 A 
ATOM      6  C   UNL d   1       9.322   0.557  -0.556  0.00  0.00     0.001 A 
ATOM      7  C   UNL d   1       8.994  -0.731  -0.971  0.00  0.00     0.000 A 
ATOM      8  C   UNL d   1       7.917  -1.396  -0.389  0.00  0.00     0.001 A 
ATOM      9  C   UNL d   1       7.176  -0.780   0.623  0.00  0.00     0.014 A 
ENDBRANCH   3   4
BRANCH   3  10
ATOM     10  C   UNL d   1       7.412   1.992   3.125  0.00  0.00    -0.007 A 
ATOM     11  C   UNL d   1       8.647   1.523   3.594  0.00  0.00     0.014 A 
ATOM     12  C   UNL d   1       9.375   2.267   4.526  0.00  0.00     0.001 A 
ATOM     13  C   UNL d   1       8.865   3.470   5.011  0.00  0.00     0.000 A 
ATOM     14  C   UNL d   1       7.622   3.927   4.574  0.00  0.00     0.001 A 
ATOM     15  C   UNL d   1       6.896   3.190   3.635  0.00  0.00     0.014 A 
ENDBRANCH   3  10
BRANCH   1  16
ATOM     16  N   UNL d   1       4.614   0.735   1.125  0.00  0.00    -0.305 N 
ATOM     17  H   UNL d   1       4.808  -0.250   0.953  0.00  0.00     0.186 HD
BRANCH  16  18
ATOM     18  C   UNL d   1       3.329   1.080   0.720  0.00  0.00     0.027 C 
ATOM     19  C   UNL d   1       2.706   2.200   1.135  0.00  0.00     0.108 C 
ATOM     20  C   UNL d   1       2.720   0.084  -0.241  0.00  0.00     0.070 C 
BRANCH  19  21
ATOM     21  C   UNL d   1       1.415   2.708   0.635  0.00  0.00     0.284 C 
ATOM     22  O   UNL d   1       0.895   2.420  -0.432  0.00  0.00    -0.260 OA
BRANCH  21  23
ATOM     23  O   UNL d   1       0.954   3.628   1.522  0.00  0.00    -0.318 OA
BRANCH  23  24
ATOM     24  C   UNL d   1      -0.129   4.438   1.043  0.00  0.00     0.174 C 
ATOM     25  C   UNL d   1       0.453   5.627   0.299  0.00  0.00     0.034 C 
ENDBRANCH  23  24
ENDBRANCH  21  23
ENDBRANCH  19  21
ENDBRANCH  16  18
ENDBRANCH   1  16
TORSDOF 7
