REMARK  8 active torsions:
REMARK  status: ('A' for Active; 'I' for Inactive)
REMARK    1  A    between atoms: N_3  and  C_1 
REMARK    2  A    between atoms: C_4  and  C_1 
REMARK    3  A    between atoms: N_6  and  C_1 
REMARK    4  A    between atoms: C_8  and  C_1 
REMARK    5  A    between atoms: C_5  and  C_2 
REMARK    6  A    between atoms: C_7  and  N_3 
REMARK       I    between atoms: C_9  and  N_6 
REMARK    7  A    between atoms: O_21  and  C_8 
REMARK    8  A    between atoms: C_25  and  O_21 
ROOT
ATOM      1  C   UNL d   1       0.997   0.058   0.024  0.00  0.00     0.296 C 
ENDROOT
BRANCH   1   2
ATOM      2  N   UNL d   1       0.559   0.478  -1.356  0.00  0.00    -0.347 N 
ATOM      3  H   UNL d   1       1.248   0.142  -2.044  0.00  0.00     0.163 HD
BRANCH   2   4
ATOM      4  C   UNL d   1      -0.747   0.402  -1.848  0.00  0.00     0.045 A 
ATOM      5  C   UNL d   1      -1.008   0.620  -3.223  0.00  0.00     0.075 A 
ATOM      6  C   UNL d   1      -2.341   0.647  -3.701  0.00  0.00     0.042 A 
ATOM      7  C   UNL d   1      -3.413   0.469  -2.838  0.00  0.00     0.035 A 
ATOM      8  C   UNL d   1      -3.178   0.279  -1.488  0.00  0.00     0.026 A 
ATOM      9 CL   UNL d   1      -5.022   0.511  -3.438  0.00  0.00    -0.084 Cl
ATOM     10  C   UNL d   1      -1.864   0.269  -1.003  0.00  0.00     0.032 A 
BRANCH   5  11
ATOM     11  C   UNL d   1       0.071   0.859  -4.254  0.00  0.00     0.419 C 
ATOM     12  F   UNL d   1       1.341   0.648  -3.801  0.00  0.00    -0.166 F 
ATOM     13  F   UNL d   1      -0.064   0.046  -5.340  0.00  0.00    -0.166 F 
ATOM     14  F   UNL d   1       0.052   2.131  -4.739  0.00  0.00    -0.166 F 
ENDBRANCH   5  11
ENDBRANCH   2   4
ENDBRANCH   1   2
BRANCH   1  15
ATOM     15  C   UNL d   1       0.628  -1.420   0.427  0.00  0.00     0.442 C 
ATOM     16  F   UNL d   1       0.520  -2.214  -0.675  0.00  0.00    -0.166 F 
ATOM     17  F   UNL d   1       1.537  -2.012   1.237  0.00  0.00    -0.166 F 
ATOM     18  F   UNL d   1      -0.573  -1.495   1.058  0.00  0.00    -0.166 F 
ENDBRANCH   1  15
BRANCH   1  19
ATOM     19  N   UNL d   1       0.481   1.146   0.845  0.00  0.00    -0.319 N 
ATOM     20  C   UNL d   1       0.482   1.106   2.211  0.00  0.00     0.216 C 
ATOM     21  O   UNL d   1       0.889   0.138   2.842  0.00  0.00    -0.274 OA
ATOM     22  C   UNL d   1      -0.039   2.349   2.873  0.00  0.00     0.117 C 
ATOM     23  H   UNL d   1       0.271   1.997   0.346  0.00  0.00     0.165 HD
ENDBRANCH   1  19
BRANCH   1  24
ATOM     24  C   UNL d   1       2.557   0.008   0.022  0.00  0.00     0.318 C 
ATOM     25  O   UNL d   1       3.210  -0.660  -0.773  0.00  0.00    -0.260 OA
BRANCH  24  26
ATOM     26  O   UNL d   1       3.104   0.761   1.022  0.00  0.00    -0.318 OA
BRANCH  26  27
ATOM     27  C   UNL d   1       4.449   0.445   1.410  0.00  0.00     0.174 C 
ATOM     28  C   UNL d   1       5.412   1.495   0.897  0.00  0.00     0.034 C 
ENDBRANCH  26  27
ENDBRANCH  24  26
ENDBRANCH   1  24
TORSDOF 8
