REMARK  6 active torsions:
REMARK  status: ('A' for Active; 'I' for Inactive)
REMARK    1  A    between atoms: C_7  and  N_1 
REMARK    2  A    between atoms: S_11  and  C_2 
REMARK    3  A    between atoms: C_10  and  O_14 
REMARK    4  A    between atoms: C_19  and  S_11 
REMARK    5  A    between atoms: O_14  and  C_20 
REMARK    6  A    between atoms: C_21  and  C_19 
ROOT
ATOM      1  N   UNL d   1      -0.058  -1.277   0.022  0.00  0.00    -0.218 N 
ATOM      2  C   UNL d   1       1.136  -0.597  -0.199  0.00  0.00     0.177 A 
ATOM      3  N   UNL d   1       0.937   0.692  -0.035  0.00  0.00    -0.264 N 
ATOM      4  HN  UNL d   1       1.630   1.435  -0.123  1.00  0.00     0.186 HD
ATOM      5  N   UNL d   1      -0.997  -0.338   0.315  0.00  0.00     0.001 NA
ATOM      6  N   UNL d   1      -0.384   0.836   0.277  0.00  0.00    -0.006 NA
ENDROOT
BRANCH   2   7
ATOM      7  S   UNL d   1       2.622  -1.286  -0.774  0.00  0.00    -0.087 SA
BRANCH   7   8
ATOM      8  C   UNL d   1       3.792   0.050  -0.367  0.00  0.00     0.121 C 
BRANCH   8   9
ATOM      9  C   UNL d   1       5.227  -0.422  -0.409  0.00  0.00    -0.048 A 
ATOM     10  C   UNL d   1       5.872  -0.624  -1.636  0.00  0.00     0.011 A 
ATOM     11  C   UNL d   1       7.198  -1.063  -1.675  0.00  0.00     0.037 A 
ATOM     12  C   UNL d   1       7.909  -1.300  -0.502  0.00  0.00     0.078 A 
ATOM     13  C   UNL d   1       7.271  -1.139   0.725  0.00  0.00     0.037 A 
ATOM     14  C   UNL d   1       5.941  -0.689   0.772  0.00  0.00     0.011 A 
BRANCH  12  15
ATOM     15  O   UNL d   1       9.183  -1.742  -0.698  0.00  0.00    -0.255 OA
BRANCH  15  16
ATOM     16  C   UNL d   1      10.196  -1.443   0.252  0.00  0.00     0.530 C 
ATOM     17  F   UNL d   1       9.822  -0.562   1.201  0.00  0.00    -0.144 F 
ATOM     18  F   UNL d   1      10.600  -2.585   0.849  0.00  0.00    -0.144 F 
ATOM     19  F   UNL d   1      11.254  -0.917  -0.406  0.00  0.00    -0.144 F 
ENDBRANCH  15  16
ENDBRANCH  12  15
ENDBRANCH   8   9
ENDBRANCH   7   8
ENDBRANCH   2   7
BRANCH   1  20
ATOM     20  C   UNL d   1      -0.390  -2.663   0.007  0.00  0.00     0.068 A 
ATOM     21  C   UNL d   1       0.437  -3.616   0.654  0.00  0.00    -0.033 A 
ATOM     22  C   UNL d   1       0.145  -4.988   0.518  0.00  0.00     0.015 A 
ATOM     23  C   UNL d   1       1.575  -3.297   1.593  0.00  0.00     0.050 C 
ATOM     24  C   UNL d   1      -0.982  -5.433  -0.168  0.00  0.00    -0.061 A 
ATOM     25  C   UNL d   1      -1.846  -4.486  -0.715  0.00  0.00     0.015 A 
ATOM     26  C   UNL d   1      -1.254  -6.901  -0.308  0.00  0.00     0.048 C 
ATOM     27  C   UNL d   1      -1.574  -3.102  -0.646  0.00  0.00    -0.033 A 
ATOM     28  C   UNL d   1      -2.596  -2.234  -1.341  0.00  0.00     0.050 C 
ENDBRANCH   1  20
TORSDOF 6
