REMARK  4 active torsions:
REMARK  status: ('A' for Active; 'I' for Inactive)
REMARK    1  A    between atoms: S_9  and  C_5 
REMARK    2  A    between atoms: N_10  and  C_6 
REMARK    3  A    between atoms: O_12  and  C_7 
REMARK    4  A    between atoms: C_13  and  S_9 
ROOT
ATOM      1  N   UNL d   1      -0.717   1.191  -0.066  0.00  0.00    -0.326 N 
ATOM      2  HN  UNL d   1      -1.250   2.060  -0.090  1.00  0.00     0.169 HD
ATOM      3  N   UNL d   1      -0.697  -1.187   0.035  0.00  0.00    -0.316 N 
ATOM      4  HN  UNL d   1      -1.206  -2.069   0.096  1.00  0.00     0.170 HD
ATOM      5  C   UNL d   1      -1.328  -0.006   0.005  0.00  0.00     0.147 A 
ATOM      6  C   UNL d   1       0.626   1.189  -0.102  0.00  0.00     0.101 A 
ATOM      7  C   UNL d   1       0.638  -1.144  -0.020  0.00  0.00     0.163 A 
ATOM      8  C   UNL d   1       1.369   0.022  -0.090  0.00  0.00     0.099 A 
ATOM      9 BR   UNL d   1       3.259   0.003  -0.138  0.00  0.00    -0.043 Br
ENDROOT
BRANCH   5  10
ATOM     10  S   UNL d   1      -3.095  -0.065   0.153  0.00  0.00    -0.094 SA
BRANCH  10  11
ATOM     11  C   UNL d   1      -3.557   1.390  -0.832  0.00  0.00     0.078 C 
ATOM     12  C   UNL d   1      -5.071   1.454  -0.950  0.00  0.00     0.016 C 
ENDBRANCH  10  11
ENDBRANCH   5  10
BRANCH   7  13
ATOM     13  O   UNL d   1       1.234  -2.375   0.008  0.00  0.00    -0.345 OA
ATOM     14  H   UNL d   1       2.194  -2.237  -0.049  0.00  0.00     0.219 HD
ENDBRANCH   7  13
BRANCH   6  15
ATOM     15  N   UNL d   1       1.224   2.447  -0.212  0.00  0.00    -0.287 NA
ATOM     16  H   UNL d   1       0.504   3.159  -0.127  0.00  0.00     0.125 HD
ATOM     17  H   UNL d   1       1.982   2.578   0.448  0.00  0.00     0.125 HD
ENDBRANCH   6  15
TORSDOF 4
