REMARK  3 active torsions:
REMARK  status: ('A' for Active; 'I' for Inactive)
REMARK    1  A    between atoms: C_8  and  C_2 
REMARK    2  A    between atoms: S_16  and  C_5 
REMARK    3  A    between atoms: C_19  and  S_16 
ROOT
ATOM      1  C   UNL d   1       0.065  -5.198   0.845  0.00  0.00    -0.107 C 
ATOM      2  C   UNL d   1      -0.201  -6.368   0.891  0.00  0.00     0.013 C 
ATOM      3  C   UNL d   1       0.394  -3.761   0.784  0.00  0.00     0.175 C 
ENDROOT
BRANCH   3   4
ATOM      4  S   UNL d   1      -1.005  -2.810   0.111  0.00  0.00    -0.080 SA
BRANCH   4   5
ATOM      5  C   UNL d   1      -0.364  -1.216   0.086  0.00  0.00     0.161 A 
ATOM      6  N   UNL d   1      -1.197  -0.143   0.020  0.00  0.00    -0.320 N 
ATOM      7  C   UNL d   1      -0.399   0.975   0.024  0.00  0.00     0.132 A 
ATOM      8  H   UNL d   1      -2.204  -0.180   0.021  0.00  0.00     0.169 HD
ATOM      9  N   UNL d   1       0.859   0.569   0.083  0.00  0.00    -0.283 N 
ATOM     10  N   UNL d   1       0.880  -0.813   0.116  0.00  0.00    -0.278 N 
ATOM     11  HN  UNL d   1       1.679   1.176   0.101  1.00  0.00     0.188 HD
ATOM     12  HN  UNL d   1       1.709  -1.407   0.156  1.00  0.00     0.189 HD
BRANCH   7  13
ATOM     13  C   UNL d   1      -0.878   2.359   0.017  0.00  0.00     0.013 A 
ATOM     14  C   UNL d   1      -0.057   3.374   0.530  0.00  0.00     0.039 A 
ATOM     15  C   UNL d   1      -0.491   4.702   0.549  0.00  0.00     0.036 A 
ATOM     16 CL   UNL d   1       0.528   5.925   1.203  0.00  0.00    -0.084 Cl
ATOM     17  C   UNL d   1      -1.743   5.046   0.051  0.00  0.00     0.047 A 
ATOM     18  C   UNL d   1      -2.558   4.047  -0.471  0.00  0.00     0.036 A 
ATOM     19  C   UNL d   1      -2.138   2.712  -0.490  0.00  0.00     0.039 A 
ATOM     20 CL   UNL d   1      -4.106   4.459  -1.103  0.00  0.00    -0.084 Cl
ENDBRANCH   7  13
ENDBRANCH   4   5
ENDBRANCH   3   4
TORSDOF 3
