REMARK  3 active torsions:
REMARK  status: ('A' for Active; 'I' for Inactive)
REMARK    1  A    between atoms: C_7  and  N_3 
REMARK    2  A    between atoms: N_9  and  C_4 
REMARK    3  A    between atoms: C_8  and  C_6 
ROOT
ATOM      1  N   UNL d   1       0.937  -0.641  -0.231  0.00  0.00    -0.291 N 
ATOM      2  HN  UNL d   1       1.754  -1.203  -0.470  1.00  0.00     0.187 HD
ATOM      3  N   UNL d   1       0.896   0.701  -0.009  0.00  0.00    -0.240 N 
ATOM      4  C   UNL d   1      -0.419   1.153   0.125  0.00  0.00     0.123 C 
ATOM      5  C   UNL d   1      -1.204   0.025   0.127  0.00  0.00     0.081 C 
ATOM      6  C   UNL d   1      -0.324  -1.067  -0.069  0.00  0.00     0.062 C 
ENDROOT
BRANCH   3   7
ATOM      7  C   UNL d   1       2.102   1.447   0.062  0.00  0.00     0.058 A 
ATOM      8  C   UNL d   1       3.233   1.004  -0.642  0.00  0.00     0.033 A 
ATOM      9  C   UNL d   1       4.420   1.742  -0.598  0.00  0.00     0.020 A 
ATOM     10  C   UNL d   1       4.492   2.897   0.181  0.00  0.00     0.006 A 
ATOM     11  C   UNL d   1       3.384   3.326   0.912  0.00  0.00     0.020 A 
ATOM     12  I   UNL d   1       6.265   3.978   0.271  0.00  0.00    -0.045 I 
ATOM     13  C   UNL d   1       2.188   2.605   0.849  0.00  0.00     0.033 A 
ENDBRANCH   3   7
BRANCH   4  14
ATOM     14  N   UNL d   1      -0.808   2.454   0.181  0.00  0.00    -0.384 N 
ATOM     15  H   UNL d   1      -0.199   3.176  -0.203  0.00  0.00     0.157 HD
ATOM     16  H   UNL d   1      -1.789   2.680   0.036  0.00  0.00     0.157 HD
ENDBRANCH   4  14
BRANCH   6  17
ATOM     17  C   UNL d   1      -0.667  -2.491  -0.115  0.00  0.00    -0.008 A 
ATOM     18  C   UNL d   1      -1.918  -2.912  -0.590  0.00  0.00     0.015 A 
ATOM     19  C   UNL d   1      -2.248  -4.271  -0.616  0.00  0.00     0.024 A 
ATOM     20  C   UNL d   1      -1.332  -5.216  -0.160  0.00  0.00     0.034 A 
ATOM     21  C   UNL d   1      -0.089  -4.815   0.322  0.00  0.00     0.024 A 
ATOM     22 CL   UNL d   1      -1.740  -6.888  -0.198  0.00  0.00    -0.084 Cl
ATOM     23  C   UNL d   1       0.243  -3.456   0.342  0.00  0.00     0.015 A 
ENDBRANCH   6  17
TORSDOF 3
