REMARK  8 active torsions:
REMARK  status: ('A' for Active; 'I' for Inactive)
REMARK    1  A    between atoms: C_6  and  C_1 
REMARK    2  A    between atoms: C_2  and  C_5 
REMARK    3  A    between atoms: C_3  and  N_7 
REMARK    4  A    between atoms: C_16  and  C_3 
REMARK    5  A    between atoms: C_4  and  N_10 
REMARK    6  A    between atoms: N_7  and  C_4 
REMARK    7  A    between atoms: N_10  and  C_9 
REMARK    8  A    between atoms: C_23  and  C_16 
ROOT
ATOM      1  N   UNL d   1      -4.282   3.043  -1.367  0.00  0.00    -0.333 N 
ATOM      2  H   UNL d   1      -4.126   4.025  -1.154  0.00  0.00     0.168 HD
ENDROOT
BRANCH   1   3
ATOM      3  C   UNL d   1      -3.401   2.283  -0.661  0.00  0.00     0.172 C 
ATOM      4  S   UNL d   1      -2.302   3.147   0.271  0.00  0.00    -0.041 SA
BRANCH   3   5
ATOM      5  N   UNL d   1      -3.424   0.926  -0.801  0.00  0.00    -0.357 N 
ATOM      6  H   UNL d   1      -4.342   0.505  -0.728  0.00  0.00     0.162 HD
BRANCH   5   7
ATOM      7  C   UNL d   1      -2.304   0.027  -0.543  0.00  0.00     0.036 A 
ATOM      8  C   UNL d   1      -1.048   0.263  -1.376  0.00  0.00     0.033 A 
ATOM      9  C   UNL d   1      -1.889  -0.940  -1.642  0.00  0.00     0.033 A 
BRANCH   7  10
ATOM     10  C   UNL d   1      -2.097  -0.449   0.895  0.00  0.00     0.069 C 
BRANCH  10  11
ATOM     11  C   UNL d   1      -3.253  -1.210   1.512  0.00  0.00    -0.056 A 
ATOM     12  C   UNL d   1      -4.114  -2.042   0.783  0.00  0.00     0.007 A 
ATOM     13  C   UNL d   1      -5.105  -2.785   1.429  0.00  0.00     0.001 A 
ATOM     14  C   UNL d   1      -5.237  -2.728   2.816  0.00  0.00     0.000 A 
ATOM     15  C   UNL d   1      -4.377  -1.926   3.558  0.00  0.00     0.001 A 
ATOM     16  C   UNL d   1      -3.394  -1.176   2.912  0.00  0.00     0.007 A 
ENDBRANCH  10  11
ENDBRANCH   7  10
ENDBRANCH   5   7
ENDBRANCH   3   5
ENDBRANCH   1   3
BRANCH   1  17
ATOM     17  C   UNL d   1      -5.157   2.810  -2.448  0.00  0.00     0.035 A 
ATOM     18  C   UNL d   1      -5.520   1.565  -2.957  0.00  0.00     0.045 A 
ATOM     19  C   UNL d   1      -6.405   1.458  -4.050  0.00  0.00     0.050 A 
ATOM     20  C   UNL d   1      -6.890   2.622  -4.665  0.00  0.00     0.032 A 
ATOM     21  C   UNL d   1      -6.509   3.884  -4.199  0.00  0.00     0.050 A 
ATOM     22  C   UNL d   1      -5.665   3.960  -3.077  0.00  0.00     0.045 A 
BRANCH  19  23
ATOM     23  C   UNL d   1      -6.818   0.089  -4.542  0.00  0.00     0.417 C 
ATOM     24  F   UNL d   1      -7.647   0.126  -5.621  0.00  0.00    -0.166 F 
ATOM     25  F   UNL d   1      -7.478  -0.623  -3.587  0.00  0.00    -0.166 F 
ATOM     26  F   UNL d   1      -5.754  -0.674  -4.910  0.00  0.00    -0.166 F 
ENDBRANCH  19  23
BRANCH  21  27
ATOM     27  C   UNL d   1      -6.961   5.150  -4.888  0.00  0.00     0.417 C 
ATOM     28  F   UNL d   1      -7.774   4.926  -5.959  0.00  0.00    -0.166 F 
ATOM     29  F   UNL d   1      -7.648   5.978  -4.059  0.00  0.00    -0.166 F 
ATOM     30  F   UNL d   1      -5.910   5.879  -5.362  0.00  0.00    -0.166 F 
ENDBRANCH  21  27
ENDBRANCH   1  17
TORSDOF 8
