REMARK  2 active torsions:
REMARK  status: ('A' for Active; 'I' for Inactive)
REMARK    1  A    between atoms: C_8  and  C_3 
REMARK    2  A    between atoms: N_18  and  C_4 
ROOT
ATOM      1  C   UNL d   1       2.214   0.130  -0.149  0.00  0.00     0.081 C 
ATOM      2  C   UNL d   1      -0.232   0.550  -0.117  0.00  0.00     0.032 C 
ATOM      3  C   UNL d   1       1.103   1.074  -0.590  0.00  0.00     0.112 C 
ATOM      4  C   UNL d   1       1.946  -1.166   0.122  0.00  0.00     0.138 C 
ATOM      5  C   UNL d   1      -0.417  -0.762   0.090  0.00  0.00     0.066 C 
ATOM      6  O   UNL d   1       0.643  -1.658   0.025  0.00  0.00    -0.301 OA
ATOM      7  C   UNL d   1      -1.349   1.494   0.138  0.00  0.00     0.159 C 
ATOM      8  C   UNL d   1       3.531   0.658  -0.034  0.00  0.00     0.100 C 
ATOM      9  N   UNL d   1       4.609   1.074   0.056  0.00  0.00    -0.191 NA
ATOM     10  C   UNL d   1      -1.750  -1.394   0.364  0.00  0.00     0.075 C 
ATOM     11  C   UNL d   1      -2.938  -0.476  -0.004  0.00  0.00    -0.035 C 
ATOM     12  C   UNL d   1      -2.686   0.925   0.581  0.00  0.00     0.092 C 
ATOM     13  O   UNL d   1      -1.160   2.707   0.078  0.00  0.00    -0.293 OA
ATOM     14  C   UNL d   1      -4.226  -1.070   0.593  0.00  0.00     0.015 C 
ATOM     15  C   UNL d   1      -3.125  -0.381  -1.534  0.00  0.00     0.015 C 
ENDROOT
BRANCH   3  16
ATOM     16  C   UNL d   1       1.114   1.252  -2.110  0.00  0.00    -0.004 A 
ATOM     17  S   UNL d   1       1.386   2.789  -2.815  0.00  0.00    -0.105 SA
ATOM     18  C   UNL d   1       1.261   2.156  -4.400  0.00  0.00     0.050 A 
ATOM     19  C   UNL d   1       1.014   0.802  -4.401  0.00  0.00     0.008 A 
ATOM     20  C   UNL d   1       0.929   0.281  -3.082  0.00  0.00     0.016 A 
ENDBRANCH   3  16
BRANCH   4  21
ATOM     21  N   UNL d   1       2.858  -2.126   0.487  0.00  0.00    -0.282 NA
ATOM     22  H   UNL d   1       3.822  -1.942   0.218  0.00  0.00     0.126 HD
ATOM     23  H   UNL d   1       2.547  -3.064   0.251  0.00  0.00     0.126 HD
ENDBRANCH   4  21
TORSDOF 2
