REMARK  5 active torsions:
REMARK  status: ('A' for Active; 'I' for Inactive)
REMARK    1  A    between atoms: C_5  and  N_1 
REMARK    2  A    between atoms: C_9  and  C_2 
REMARK    3  A    between atoms: C_6  and  C_8 
REMARK    4  A    between atoms: O_16  and  C_6 
REMARK    5  A    between atoms: C_19  and  O_16 
ROOT
ATOM      1  N   UNL d   1      -0.580  -1.193   0.281  0.00  0.00    -0.299 N 
ATOM      2  C   UNL d   1       0.794  -1.329  -0.166  0.00  0.00     0.188 C 
ATOM      3  S   UNL d   1       1.474   0.351  -0.282  0.00  0.00    -0.129 SA
ATOM      4  C   UNL d   1      -1.154   0.067   0.106  0.00  0.00     0.235 C 
ATOM      5  C   UNL d   1      -0.151   1.112  -0.322  0.00  0.00     0.179 C 
ATOM      6  O   UNL d   1      -2.352   0.336   0.215  0.00  0.00    -0.272 OA
ENDROOT
BRANCH   1   7
ATOM      7  C   UNL d   1      -1.399  -2.329   0.509  0.00  0.00     0.038 A 
ATOM      8  C   UNL d   1      -1.293  -3.469  -0.291  0.00  0.00     0.031 A 
ATOM      9  C   UNL d   1      -2.093  -4.586  -0.041  0.00  0.00     0.020 A 
ATOM     10  C   UNL d   1      -2.981  -4.591   1.043  0.00  0.00     0.039 A 
ATOM     11  C   UNL d   1      -3.092  -3.451   1.845  0.00  0.00     0.020 A 
ATOM     12  C   UNL d   1      -2.321  -2.319   1.565  0.00  0.00     0.031 A 
BRANCH  10  13
ATOM     13  C   UNL d   1      -3.746  -5.807   1.424  0.00  0.00     0.293 C 
ATOM     14  O   UNL d   1      -4.380  -5.916   2.458  0.00  0.00    -0.259 OA
BRANCH  13  15
ATOM     15  O   UNL d   1      -3.530  -6.781   0.504  0.00  0.00    -0.318 OA
BRANCH  15  16
ATOM     16  C   UNL d   1      -3.828  -8.115   0.930  0.00  0.00     0.174 C 
ATOM     17  C   UNL d   1      -2.592  -8.681   1.608  0.00  0.00     0.034 C 
ENDBRANCH  15  16
ENDBRANCH  13  15
ENDBRANCH  10  13
ENDBRANCH   1   7
BRANCH   2  18
ATOM     18  C   UNL d   1       1.679  -2.207   0.706  0.00  0.00    -0.025 A 
ATOM     19  C   UNL d   1       2.389  -3.274   0.126  0.00  0.00     0.010 A 
ATOM     20  C   UNL d   1       3.292  -4.028   0.879  0.00  0.00     0.001 A 
ATOM     21  C   UNL d   1       3.499  -3.731   2.223  0.00  0.00     0.000 A 
ATOM     22  C   UNL d   1       2.779  -2.702   2.825  0.00  0.00     0.001 A 
ATOM     23  C   UNL d   1       1.867  -1.952   2.077  0.00  0.00     0.010 A 
ENDBRANCH   2  18
TORSDOF 5
