REMARK  3 active torsions:
REMARK  status: ('A' for Active; 'I' for Inactive)
REMARK       I    between atoms: N_3  and  C_1 
REMARK    1  A    between atoms: O_4  and  C_1 
REMARK    2  A    between atoms: C_2  and  N_3 
REMARK    3  A    between atoms: C_5  and  O_4 
ROOT
ATOM      1  C   UNL d   1       0.759  -0.002   0.227  0.00  0.00     0.370 C 
ATOM      2  N   UNL d   1       0.319   1.293   0.115  0.00  0.00    -0.299 N 
ATOM      3  O   UNL d   1       1.876  -0.433   0.001  0.00  0.00    -0.238 OA
ATOM      4  H   UNL d   1      -0.429   1.487   0.771  0.00  0.00     0.171 HD
ENDROOT
BRANCH   1   5
ATOM      5  O   UNL d   1      -0.283  -0.732   0.789  0.00  0.00    -0.260 OA
BRANCH   5   6
ATOM      6  C   UNL d   1      -0.021  -1.972   1.398  0.00  0.00     0.102 A 
ATOM      7  C   UNL d   1      -0.811  -3.075   1.054  0.00  0.00     0.070 A 
ATOM      8  C   UNL d   1      -0.711  -4.253   1.792  0.00  0.00     0.069 A 
ATOM      9 CL   UNL d   1      -1.941  -2.999  -0.246  0.00  0.00    -0.081 Cl
ATOM     10  C   UNL d   1       0.170  -4.308   2.867  0.00  0.00     0.118 A 
ATOM     11  C   UNL d   1       0.966  -3.217   3.208  0.00  0.00     0.045 A 
ATOM     12  F   UNL d   1       0.238  -5.425   3.602  0.00  0.00    -0.206 F 
ATOM     13  C   UNL d   1       0.871  -2.037   2.473  0.00  0.00     0.042 A 
ENDBRANCH   5   6
ENDBRANCH   1   5
BRANCH   2  14
ATOM     14  C   UNL d   1       1.114   2.396  -0.272  0.00  0.00     0.080 A 
ATOM     15  C   UNL d   1       1.854   2.446  -1.466  0.00  0.00     0.062 A 
ATOM     16 CL   UNL d   1       1.806   1.188  -2.652  0.00  0.00    -0.082 Cl
ATOM     17  C   UNL d   1       2.555   3.611  -1.810  0.00  0.00     0.026 A 
ATOM     18  C   UNL d   1       2.533   4.729  -0.977  0.00  0.00     0.003 A 
ATOM     19  C   UNL d   1       1.796   4.697   0.202  0.00  0.00     0.026 A 
ATOM     20  C   UNL d   1       1.082   3.545   0.543  0.00  0.00     0.062 A 
ATOM     21 CL   UNL d   1       0.183   3.559   2.025  0.00  0.00    -0.082 Cl
ENDBRANCH   2  14
TORSDOF 3
