REMARK  8 active torsions:
REMARK  status: ('A' for Active; 'I' for Inactive)
REMARK    1  A    between atoms: C_6  and  C_1 
REMARK       I    between atoms: N_2  and  C_6 
REMARK    2  A    between atoms: C_13  and  C_3 
REMARK    3  A    between atoms: C_12  and  C_4 
REMARK    4  A    between atoms: C_17  and  C_5 
REMARK    5  A    between atoms: C_18  and  N_7 
REMARK    6  A    between atoms: N_14  and  C_19 
REMARK    7  A    between atoms: O_34  and  C_17 
REMARK    8  A    between atoms: C_35  and  O_34 
ROOT
ATOM      1  C   UNL d   1      -0.165   1.301  -0.134  0.00  0.00     0.084 A 
ATOM      2  C   UNL d   1       1.153   0.841  -0.089  0.00  0.00     0.157 A 
ATOM      3  N   UNL d   1       1.087  -0.547  -0.053  0.00  0.00    -0.251 N 
ATOM      4  N   UNL d   1      -0.205  -0.966   0.025  0.00  0.00    -0.303 N 
ATOM      5  HN  UNL d   1      -0.538  -1.921   0.157  1.00  0.00     0.186 HD
ATOM      6  C   UNL d   1      -0.940   0.130  -0.107  0.00  0.00     0.127 A 
ENDROOT
BRANCH   1   7
ATOM      7  C   UNL d   1      -0.664   2.676  -0.104  0.00  0.00     0.280 C 
ATOM      8  N   UNL d   1      -1.919   3.034  -0.665  0.00  0.00    -0.214 N 
ATOM      9  C   UNL d   1      -2.785   4.053  -0.340  0.00  0.00     0.161 C 
ATOM     10  N   UNL d   1      -2.367   2.328  -1.746  0.00  0.00    -0.301 N 
ATOM     11  C   UNL d   1      -3.727   4.117  -1.357  0.00  0.00     0.090 C 
ATOM     12  C   UNL d   1      -3.401   3.040  -2.200  0.00  0.00     0.128 C 
ATOM     13  HN  UNL d   1      -1.995   1.456  -2.121  1.00  0.00     0.186 HD
ATOM     14  O   UNL d   1      -0.034   3.583   0.420  0.00  0.00    -0.265 OA
BRANCH   9  15
ATOM     15  C   UNL d   1      -2.709   4.820   0.920  0.00  0.00     0.435 C 
ATOM     16  F   UNL d   1      -1.878   4.277   1.840  0.00  0.00    -0.165 F 
ATOM     17  F   UNL d   1      -2.324   6.099   0.715  0.00  0.00    -0.165 F 
ATOM     18  F   UNL d   1      -3.922   4.851   1.529  0.00  0.00    -0.165 F 
ENDBRANCH   9  15
BRANCH  11  19
ATOM     19  C   UNL d   1      -4.846   5.036  -1.452  0.00  0.00     0.297 C 
ATOM     20  O   UNL d   1      -5.056   5.917  -0.631  0.00  0.00    -0.259 OA
BRANCH  19  21
ATOM     21  O   UNL d   1      -5.653   4.732  -2.503  0.00  0.00    -0.318 OA
BRANCH  21  22
ATOM     22  C   UNL d   1      -6.975   5.283  -2.441  0.00  0.00     0.174 C 
ATOM     23  C   UNL d   1      -7.868   4.264  -1.757  0.00  0.00     0.034 C 
ENDBRANCH  21  22
ENDBRANCH  19  21
ENDBRANCH  11  19
ENDBRANCH   1   7
BRANCH   2  24
ATOM     24  C   UNL d   1       2.428   1.576  -0.028  0.00  0.00     0.435 C 
ATOM     25  F   UNL d   1       2.303   2.875   0.321  0.00  0.00    -0.165 F 
ATOM     26  F   UNL d   1       3.291   1.031   0.865  0.00  0.00    -0.165 F 
ATOM     27  F   UNL d   1       3.046   1.579  -1.236  0.00  0.00    -0.165 F 
ENDBRANCH   2  24
BRANCH   3  28
ATOM     28  C   UNL d   1       2.096  -1.563  -0.103  0.00  0.00     0.057 A 
ATOM     29  C   UNL d   1       1.800  -2.826   0.452  0.00  0.00     0.034 A 
ATOM     30  C   UNL d   1       2.723  -3.877   0.394  0.00  0.00     0.038 A 
ATOM     31  C   UNL d   1       3.948  -3.678  -0.246  0.00  0.00     0.103 A 
ATOM     32  C   UNL d   1       4.257  -2.433  -0.806  0.00  0.00     0.038 A 
ATOM     33  C   UNL d   1       3.332  -1.381  -0.734  0.00  0.00     0.034 A 
BRANCH  31  34
ATOM     34  N   UNL d   1       4.904  -4.786  -0.359  0.00  0.00    -0.116 N 
ATOM     35  O   UNL d   1       5.939  -4.589  -1.012  0.00  0.00    -0.532 OA
ATOM     36  O   UNL d   1       4.618  -5.854   0.200  0.00  0.00    -0.532 OA
ENDBRANCH  31  34
ENDBRANCH   3  28
TORSDOF 8
