REMARK  2 active torsions:
REMARK  status: ('A' for Active; 'I' for Inactive)
REMARK    1  A    between atoms: O_11  and  C_4 
REMARK    2  A    between atoms: C_14  and  O_11 
ROOT
ATOM      1  O   UNL d   1       2.458  -0.573  -0.040  0.00  0.00    -0.236 OA
ATOM      2  C   UNL d   1       1.355  -1.351   0.032  0.00  0.00     0.303 A 
ATOM      3  C   UNL d   1       0.049  -0.682   0.043  0.00  0.00     0.067 A 
ATOM      4  C   UNL d   1       2.320   0.766   0.029  0.00  0.00     0.273 A 
ATOM      5  N   UNL d   1       1.220   1.438   0.069  0.00  0.00    -0.315 N 
ATOM      6  HN  UNL d   1       1.217   2.457   0.127  1.00  0.00     0.170 HD
ATOM      7  C   UNL d   1       0.039   0.705   0.028  0.00  0.00     0.052 A 
ATOM      8  C   UNL d   1      -1.145  -1.415   0.051  0.00  0.00     0.026 A 
ATOM      9  O   UNL d   1       1.428  -2.574   0.067  0.00  0.00    -0.259 OA
ATOM     10  C   UNL d   1      -1.185   1.372  -0.018  0.00  0.00     0.031 A 
ATOM     11  C   UNL d   1      -2.375  -0.747   0.021  0.00  0.00    -0.061 A 
ATOM     12  C   UNL d   1      -2.385   0.652  -0.031  0.00  0.00     0.009 A 
ATOM     13  C   UNL d   1      -3.669  -1.505   0.017  0.00  0.00     0.048 C 
ENDROOT
BRANCH   4  14
ATOM     14  O   UNL d   1       3.546   1.342   0.071  0.00  0.00    -0.316 OA
BRANCH  14  15
ATOM     15  C   UNL d   1       3.593   2.691   0.556  0.00  0.00     0.175 C 
ATOM     16  C   UNL d   1       5.002   3.217   0.364  0.00  0.00     0.034 C 
ENDBRANCH  14  15
ENDBRANCH   4  14
TORSDOF 2
