REMARK  6 active torsions:
REMARK  status: ('A' for Active; 'I' for Inactive)
REMARK    1  A    between atoms: C_9  and  C_1 
REMARK    2  A    between atoms: C_7  and  C_2 
REMARK       I    between atoms: N_16  and  C_7 
REMARK    3  A    between atoms: C_10  and  C_27 
REMARK    4  A    between atoms: C_19  and  N_16 
REMARK    5  A    between atoms: S_22  and  C_24 
REMARK    6  A    between atoms: C_27  and  S_22 
ROOT
ATOM      1  C   UNL d   1      -1.591  -3.623  -0.325  0.00  0.00     0.051 A 
ATOM      2  C   UNL d   1      -2.061  -2.995  -1.492  0.00  0.00     0.027 A 
ATOM      3  C   UNL d   1      -2.400  -4.565   0.331  0.00  0.00     0.031 A 
ATOM      4  C   UNL d   1      -3.390  -3.236  -1.895  0.00  0.00     0.021 A 
ATOM      5  C   UNL d   1      -3.706  -4.809  -0.094  0.00  0.00     0.002 A 
ATOM      6  C   UNL d   1      -4.208  -4.130  -1.194  0.00  0.00     0.002 A 
ENDROOT
BRANCH   1   7
ATOM      7  N   UNL d   1      -0.299  -3.439   0.210  0.00  0.00    -0.322 N 
ATOM      8  C   UNL d   1       0.109  -2.279   0.863  0.00  0.00     0.261 C 
ATOM      9  O   UNL d   1      -0.508  -1.218   0.854  0.00  0.00    -0.267 OA
ATOM     10  H   UNL d   1       0.197  -4.292   0.415  0.00  0.00     0.169 HD
BRANCH   8  11
ATOM     11  C   UNL d   1       1.371  -2.419   1.588  0.00  0.00     0.093 C 
ATOM     12  C   UNL d   1       2.412  -1.442   1.829  0.00  0.00     0.086 C 
ATOM     13  N   UNL d   1       3.443  -2.039   2.453  0.00  0.00    -0.259 N 
ATOM     14  O   UNL d   1       3.041  -3.300   2.784  0.00  0.00    -0.241 OA
ATOM     15  HN  UNL d   1       4.356  -1.625   2.643  1.00  0.00     0.195 HD
ATOM     16  C   UNL d   1       1.797  -3.531   2.302  0.00  0.00     0.090 C 
ATOM     17  C   UNL d   1       1.241  -4.837   2.726  0.00  0.00     0.080 C 
BRANCH  12  18
ATOM     18  C   UNL d   1       2.532  -0.002   1.516  0.00  0.00     0.037 A 
ATOM     19  C   UNL d   1       2.966   0.923   2.497  0.00  0.00     0.048 A 
ATOM     20 CL   UNL d   1       3.282   0.493   4.151  0.00  0.00    -0.083 Cl
ATOM     21  C   UNL d   1       3.173   2.280   2.190  0.00  0.00     0.025 A 
ATOM     22  C   UNL d   1       2.898   2.768   0.920  0.00  0.00     0.003 A 
ATOM     23  C   UNL d   1       2.459   1.887  -0.055  0.00  0.00     0.025 A 
ATOM     24  C   UNL d   1       2.326   0.517   0.226  0.00  0.00     0.048 A 
ATOM     25 CL   UNL d   1       2.070  -0.467  -1.156  0.00  0.00    -0.083 Cl
ENDBRANCH  12  18
ENDBRANCH   8  11
ENDBRANCH   1   7
BRANCH   2  26
ATOM     26  S   UNL d   1      -1.130  -1.969  -2.627  0.00  0.00    -0.120 SA
BRANCH  26  27
ATOM     27  C   UNL d   1       0.486  -2.793  -2.756  0.00  0.00     0.158 C 
BRANCH  27  28
ATOM     28  C   UNL d   1       0.488  -4.207  -3.191  0.00  0.00     0.113 A 
ATOM     29  N   UNL d   1       0.593  -5.232  -2.282  0.00  0.00    -0.322 N 
ATOM     30  C   UNL d   1       0.741  -6.292  -3.049  0.00  0.00     0.189 A 
ATOM     31  HN  UNL d   1       0.563  -5.184  -1.264  1.00  0.00     0.169 HD
ATOM     32  C   UNL d   1       0.879  -7.632  -2.559  0.00  0.00     0.058 A 
ATOM     33  O   UNL d   1       0.758  -5.966  -4.384  0.00  0.00    -0.217 OA
ATOM     34  S   UNL d   1       0.860  -7.981  -0.880  0.00  0.00    -0.098 SA
ATOM     35  C   UNL d   1       1.036  -8.781  -3.311  0.00  0.00     0.024 A 
ATOM     36  C   UNL d   1       1.034  -9.659  -1.159  0.00  0.00     0.050 A 
ATOM     37  C   UNL d   1       1.119  -9.952  -2.502  0.00  0.00     0.009 A 
ATOM     38  N   UNL d   1       0.604  -4.582  -4.471  0.00  0.00    -0.246 N 
ATOM     39  HN  UNL d   1       0.584  -3.998  -5.307  1.00  0.00     0.196 HD
ENDBRANCH  27  28
ENDBRANCH  26  27
ENDBRANCH   2  26
TORSDOF 6
