REMARK  3 active torsions:
REMARK  status: ('A' for Active; 'I' for Inactive)
REMARK    1  A    between atoms: C_2  and  C_1 
REMARK    2  A    between atoms: O_8  and  C_2 
REMARK    3  A    between atoms: C_10  and  O_8 
ROOT
ATOM      1  C   UNL d   1       0.007   2.394  -0.092  0.00  0.00     0.303 C 
ATOM      2  O   UNL d   1       1.067   3.008  -0.060  0.00  0.00    -0.259 OA
ENDROOT
BRANCH   1   3
ATOM      3  C   UNL d   1      -0.079   0.948  -0.118  0.00  0.00     0.095 A 
ATOM      4  C   UNL d   1      -1.222   0.170  -0.113  0.00  0.00     0.090 A 
ATOM      5  O   UNL d   1      -0.877  -1.143  -0.146  0.00  0.00    -0.242 OA
ATOM      6  C   UNL d   1      -2.673   0.447  -0.074  0.00  0.00     0.080 C 
ATOM      7  N   UNL d   1       0.495  -1.260  -0.169  0.00  0.00    -0.265 N 
ATOM      8  C   UNL d   1       0.973  -0.010  -0.144  0.00  0.00     0.047 A 
ATOM      9  HN  UNL d   1       1.037  -2.124  -0.199  1.00  0.00     0.194 HD
ATOM     10  C   UNL d   1       2.439   0.208  -0.160  0.00  0.00     0.071 C 
ENDBRANCH   1   3
BRANCH   1  11
ATOM     11  O   UNL d   1      -1.259   2.988  -0.113  0.00  0.00    -0.275 OA
BRANCH  11  12
ATOM     12  C   UNL d   1      -1.542   4.365   0.032  0.00  0.00     0.079 A 
ATOM     13  C   UNL d   1      -2.780   4.770  -0.477  0.00  0.00     0.040 A 
ATOM     14  C   UNL d   1      -3.200   6.087  -0.302  0.00  0.00     0.045 A 
ATOM     15  C   UNL d   1      -2.380   6.978   0.382  0.00  0.00     0.116 A 
ATOM     16  C   UNL d   1      -1.146   6.576   0.889  0.00  0.00     0.045 A 
ATOM     17  F   UNL d   1      -2.789   8.239   0.566  0.00  0.00    -0.206 F 
ATOM     18  C   UNL d   1      -0.721   5.256   0.719  0.00  0.00     0.040 A 
ENDBRANCH  11  12
ENDBRANCH   1  11
TORSDOF 3
