REMARK  6 active torsions:
REMARK  status: ('A' for Active; 'I' for Inactive)
REMARK    1  A    between atoms: C_3  and  C_1 
REMARK    2  A    between atoms: O_13  and  C_3 
REMARK    3  A    between atoms: C_11  and  C_5 
REMARK    4  A    between atoms: S_10  and  C_11 
REMARK    5  A    between atoms: C_12  and  S_10 
REMARK    6  A    between atoms: C_20  and  O_13 
ROOT
ATOM      1  C   UNL d   1      -2.665   4.400  -1.489  0.00  0.00    -0.091 C 
ATOM      2  C   UNL d   1      -2.654   4.886  -2.587  0.00  0.00     0.014 C 
ATOM      3  C   UNL d   1      -2.661   3.826  -0.135  0.00  0.00     0.271 C 
ENDROOT
BRANCH   3   4
ATOM      4  O   UNL d   1      -2.070   2.519  -0.135  0.00  0.00    -0.304 OA
BRANCH   4   5
ATOM      5  C   UNL d   1      -0.713   2.521  -0.012  0.00  0.00     0.318 C 
ATOM      6  O   UNL d   1      -0.025   3.531   0.099  0.00  0.00    -0.257 OA
BRANCH   5   7
ATOM      7  C   UNL d   1      -0.179   1.176  -0.038  0.00  0.00     0.150 A 
ATOM      8  O   UNL d   1      -0.990   0.066   0.023  0.00  0.00    -0.308 OA
ATOM      9  C   UNL d   1      -0.174  -1.037   0.016  0.00  0.00     0.063 A 
ATOM     10  C   UNL d   1       1.145  -0.636  -0.091  0.00  0.00     0.036 A 
ATOM     11  C   UNL d   1       1.142   0.772  -0.096  0.00  0.00     0.046 A 
BRANCH   9  12
ATOM     12  C   UNL d   1      -0.824  -2.382   0.118  0.00  0.00     0.144 C 
BRANCH  12  13
ATOM     13  S   UNL d   1       0.223  -3.504   1.131  0.00  0.00    -0.123 SA
BRANCH  13  14
ATOM     14  C   UNL d   1      -0.508  -5.113   0.903  0.00  0.00     0.001 A 
ATOM     15  C   UNL d   1       0.363  -6.215   0.886  0.00  0.00     0.020 A 
ATOM     16  C   UNL d   1      -0.132  -7.522   0.834  0.00  0.00     0.025 A 
ATOM     17  C   UNL d   1      -1.506  -7.734   0.803  0.00  0.00     0.034 A 
ATOM     18  C   UNL d   1      -2.384  -6.651   0.808  0.00  0.00     0.025 A 
ATOM     19 CL   UNL d   1      -2.123  -9.339   0.786  0.00  0.00    -0.084 Cl
ATOM     20  C   UNL d   1      -1.886  -5.341   0.858  0.00  0.00     0.020 A 
ENDBRANCH  13  14
ENDBRANCH  12  13
ENDBRANCH   9  12
ENDBRANCH   5   7
ENDBRANCH   4   5
ENDBRANCH   3   4
TORSDOF 6
