REMARK  5 active torsions:
REMARK  status: ('A' for Active; 'I' for Inactive)
REMARK    1  A    between atoms: C_7  and  C_1 
REMARK    2  A    between atoms: C_2  and  C_4 
REMARK    3  A    between atoms: N_5  and  C_3 
REMARK       I    between atoms: C_4  and  N_5 
REMARK    4  A    between atoms: C_12  and  C_6 
REMARK    5  A    between atoms: O_20  and  C_7 
ROOT
ATOM      1  C   UNL d   1       1.203   3.613  -0.045  0.00  0.00     0.114 C 
ATOM      2  C   UNL d   1       1.006   4.892  -0.420  0.00  0.00     0.058 C 
ATOM      3  C   UNL d   1       2.483   3.032   0.200  0.00  0.00     0.105 C 
ATOM      4  N   UNL d   1       3.502   2.528   0.412  0.00  0.00    -0.191 NA
ENDROOT
BRANCH   1   5
ATOM      5  C   UNL d   1      -0.011   2.722  -0.028  0.00  0.00     0.266 C 
ATOM      6  N   UNL d   1       0.110   1.588   0.750  0.00  0.00    -0.321 N 
ATOM      7  H   UNL d   1       0.799   1.567   1.502  0.00  0.00     0.169 HD
ATOM      8  O   UNL d   1      -1.028   3.035  -0.645  0.00  0.00    -0.267 OA
BRANCH   6   9
ATOM      9  C   UNL d   1      -0.758   0.493   0.702  0.00  0.00     0.058 A 
ATOM     10  C   UNL d   1      -0.869  -0.403   1.757  0.00  0.00     0.106 A 
ATOM     11  S   UNL d   1      -1.940  -1.689   1.384  0.00  0.00    -0.094 SA
ATOM     12  C   UNL d   1      -2.258  -1.067  -0.172  0.00  0.00     0.053 A 
ATOM     13  C   UNL d   1      -1.587   0.114  -0.400  0.00  0.00     0.038 A 
BRANCH  10  14
ATOM     14  C   UNL d   1      -0.214  -0.289   3.052  0.00  0.00     0.302 C 
ATOM     15  O   UNL d   1       0.540   0.635   3.346  0.00  0.00    -0.259 OA
BRANCH  14  16
ATOM     16  O   UNL d   1      -0.543  -1.312   3.887  0.00  0.00    -0.322 OA
ATOM     17  C   UNL d   1       0.040  -1.277   5.193  0.00  0.00     0.213 C 
ENDBRANCH  14  16
ENDBRANCH  10  14
ENDBRANCH   6   9
ENDBRANCH   1   5
BRANCH   2  18
ATOM     18  C   UNL d   1       2.050   5.848  -0.568  0.00  0.00     0.033 A 
ATOM     19  N   UNL d   1       1.904   6.814  -1.543  0.00  0.00    -0.366 N 
ATOM     20  C   UNL d   1       3.000   7.641  -1.545  0.00  0.00     0.088 A 
ATOM     21  H   UNL d   1       1.127   6.893  -2.187  0.00  0.00     0.165 HD
ATOM     22  C   UNL d   1       3.857   7.212  -0.560  0.00  0.00     0.019 A 
ATOM     23  C   UNL d   1       3.257   6.087   0.056  0.00  0.00     0.031 A 
ENDBRANCH   2  18
TORSDOF 5
