REMARK  4 active torsions:
REMARK  status: ('A' for Active; 'I' for Inactive)
REMARK    1  A    between atoms: N_2  and  S_1 
REMARK    2  A    between atoms: C_11  and  S_1 
REMARK    3  A    between atoms: C_3  and  N_9 
REMARK    4  A    between atoms: C_7  and  C_4 
ROOT
ATOM      1  C   UNL d   1       1.890   0.947  -1.235  0.00  0.00     0.076 A 
ATOM      2  N   UNL d   1       3.880   0.360  -5.607  0.00  0.00    -0.191 NA
ATOM      3  C   UNL d   1       3.330   0.763  -4.668  0.00  0.00     0.099 C 
ATOM      4  C   UNL d   1       2.543   0.454  -2.369  0.00  0.00     0.047 A 
ATOM      5  C   UNL d   1       2.651   1.255  -3.506  0.00  0.00     0.046 A 
ATOM      6  C   UNL d   1       1.355   2.239  -1.220  0.00  0.00     0.025 A 
ATOM      7  C   UNL d   1       1.460   3.035  -2.363  0.00  0.00     0.003 A 
ATOM      8  C   UNL d   1       2.104   2.546  -3.501  0.00  0.00     0.023 A 
ENDROOT
BRANCH   1   9
ATOM      9  S   UNL d   1       1.829  -0.080   0.215  0.00  0.00     0.243 S 
ATOM     10  O   UNL d   1       3.097  -0.768   0.293  0.00  0.00    -0.206 OA
ATOM     11  O   UNL d   1       1.348   0.729   1.314  0.00  0.00    -0.206 OA
BRANCH   9  12
ATOM     12  N   UNL d   1       0.625  -1.198  -0.219  0.00  0.00    -0.204 NA
ATOM     13  C   UNL d   1      -0.788  -0.762   0.011  0.00  0.00     0.122 C 
ATOM     14  C   UNL d   1      -1.198  -0.944   1.490  0.00  0.00     0.111 C 
ATOM     15  N   UNL d   1      -1.015  -2.370   1.887  0.00  0.00    -0.280 NA
ATOM     16  C   UNL d   1       0.392  -2.809   1.714  0.00  0.00     0.111 C 
ATOM     17  C   UNL d   1       0.822  -2.611   0.245  0.00  0.00     0.122 C 
BRANCH  15  18
ATOM     18  C   UNL d   1      -1.701  -2.690   3.082  0.00  0.00     0.025 A 
ATOM     19  C   UNL d   1      -1.025  -3.005   4.267  0.00  0.00     0.059 A 
ATOM     20  C   UNL d   1      -1.745  -3.206   5.445  0.00  0.00     0.118 A 
ATOM     21  N   UNL d   1      -3.099  -3.091   5.492  0.00  0.00    -0.352 N 
ATOM     22  C   UNL d   1      -3.766  -2.821   4.363  0.00  0.00     0.044 A 
ATOM     23  HN  UNL d   1      -3.599  -3.207   6.374  1.00  0.00     0.166 HD
ATOM     24  C   UNL d   1      -3.126  -2.659   3.117  0.00  0.00     0.012 A 
ATOM     25  C   UNL d   1      -5.146  -2.686   4.433  0.00  0.00     0.030 A 
ATOM     26  C   UNL d   1      -3.938  -2.475   1.970  0.00  0.00     0.015 A 
ATOM     27  C   UNL d   1      -5.318  -2.328   2.062  0.00  0.00     0.001 A 
ATOM     28  C   UNL d   1      -5.924  -2.417   3.305  0.00  0.00     0.002 A 
BRANCH  20  29
ATOM     29  C   UNL d   1      -0.991  -3.547   6.724  0.00  0.00     0.432 C 
ATOM     30  F   UNL d   1      -1.781  -3.668   7.829  0.00  0.00    -0.165 F 
ATOM     31  F   UNL d   1      -0.307  -4.725   6.628  0.00  0.00    -0.165 F 
ATOM     32  F   UNL d   1      -0.052  -2.608   7.043  0.00  0.00    -0.165 F 
ENDBRANCH  20  29
ENDBRANCH  15  18
ENDBRANCH   9  12
ENDBRANCH   1   9
TORSDOF 4
