REMARK  5 active torsions:
REMARK  status: ('A' for Active; 'I' for Inactive)
REMARK    1  A    between atoms: C_10  and  C_3 
REMARK    2  A    between atoms: N_6  and  C_9 
REMARK    3  A    between atoms: C_15  and  C_8 
REMARK    4  A    between atoms: O_21  and  C_13 
REMARK    5  A    between atoms: O_22  and  C_18 
ROOT
ATOM      1  N   UNL d   1       1.579  -0.052   0.016  0.00  0.00    -0.331 N 
ATOM      2  HN  UNL d   1       2.528  -0.422  -0.031  1.00  0.00     0.168 HD
ATOM      3  C   UNL d   1       1.193   1.182   0.055  0.00  0.00     0.162 A 
ATOM      4  C   UNL d   1       0.390  -0.739   0.052  0.00  0.00     0.111 A 
ATOM      5  O   UNL d   1      -0.135   1.427   0.124  0.00  0.00    -0.256 OA
ATOM      6  C   UNL d   1      -0.754   0.215   0.132  0.00  0.00     0.316 A 
ATOM      7  C   UNL d   1       0.303  -2.074   0.007  0.00  0.00     0.047 C 
ATOM      8  O   UNL d   1      -1.951   0.020   0.197  0.00  0.00    -0.257 OA
ENDROOT
BRANCH   7   9
ATOM      9  C   UNL d   1      -0.945  -2.835   0.021  0.00  0.00    -0.031 A 
ATOM     10  C   UNL d   1      -1.540  -3.191   1.238  0.00  0.00     0.051 A 
ATOM     11  C   UNL d   1      -2.713  -3.960   1.274  0.00  0.00     0.102 A 
ATOM     12  C   UNL d   1      -3.311  -4.341   0.059  0.00  0.00     0.101 A 
ATOM     13  C   UNL d   1      -2.712  -3.974  -1.155  0.00  0.00     0.040 A 
ATOM     14  C   UNL d   1      -1.537  -3.225  -1.178  0.00  0.00     0.014 A 
BRANCH  11  15
ATOM     15  O   UNL d   1      -3.285  -4.400   2.439  0.00  0.00    -0.353 OA
ATOM     16  C   UNL d   1      -2.657  -4.050   3.666  0.00  0.00     0.210 C 
ENDBRANCH  11  15
BRANCH  12  17
ATOM     17  O   UNL d   1      -4.428  -5.119  -0.113  0.00  0.00    -0.353 OA
ATOM     18  C   UNL d   1      -5.445  -5.014   0.874  0.00  0.00     0.210 C 
ENDBRANCH  12  17
ENDBRANCH   7   9
BRANCH   3  19
ATOM     19  C   UNL d   1       2.043   2.383   0.019  0.00  0.00     0.018 A 
ATOM     20  C   UNL d   1       3.428   2.239  -0.128  0.00  0.00     0.052 A 
ATOM     21  C   UNL d   1       4.233   3.385  -0.185  0.00  0.00     0.103 A 
ATOM     22  C   UNL d   1       3.667   4.665  -0.093  0.00  0.00     0.036 A 
ATOM     23  C   UNL d   1       2.287   4.799   0.060  0.00  0.00     0.003 A 
ATOM     24  C   UNL d   1       1.478   3.663   0.117  0.00  0.00     0.016 A 
BRANCH  21  25
ATOM     25  N   UNL d   1       5.686   3.250  -0.350  0.00  0.00    -0.116 N 
ATOM     26  O   UNL d   1       6.152   2.105  -0.425  0.00  0.00    -0.532 OA
ATOM     27  O   UNL d   1       6.359   4.289  -0.405  0.00  0.00    -0.532 OA
ENDBRANCH  21  25
ENDBRANCH   3  19
TORSDOF 5
