REMARK  5 active torsions:
REMARK  status: ('A' for Active; 'I' for Inactive)
REMARK    1  A    between atoms: N_2  and  C_1 
REMARK    2  A    between atoms: N_3  and  C_1 
REMARK    3  A    between atoms: C_4  and  N_3 
REMARK    4  A    between atoms: C_10  and  N_6 
REMARK    5  A    between atoms: C_13  and  C_10 
ROOT
ATOM      1  N   UNL d   1       0.042  -1.035  -0.180  0.00  0.00    -0.356 N 
ATOM      2  N   UNL d   1      -2.362  -2.828  -1.149  0.00  0.00     0.094 N 
ATOM      3  C   UNL d   1      -0.898  -0.721  -1.266  0.00  0.00     0.155 C 
ATOM      4  C   UNL d   1      -2.275  -1.364  -1.082  0.00  0.00     0.292 C 
ATOM      5  C   UNL d   1      -0.293  -3.490   0.304  0.00  0.00     0.050 C 
ATOM      6  C   UNL d   1       0.601  -2.381  -0.245  0.00  0.00     0.127 C 
ATOM      7  C   UNL d   1      -1.808  -3.462   0.046  0.00  0.00     0.274 C 
ENDROOT
BRANCH   1   8
ATOM      8  C   UNL d   1       0.902   0.008   0.222  0.00  0.00     0.174 C 
ATOM      9  S   UNL d   1       1.841   0.906  -0.846  0.00  0.00    -0.041 SA
BRANCH   8  10
ATOM     10  N   UNL d   1       0.859   0.188   1.598  0.00  0.00    -0.333 N 
ATOM     11  H   UNL d   1       0.727  -0.654   2.143  0.00  0.00     0.168 HD
BRANCH  10  12
ATOM     12  C   UNL d   1       0.857   1.413   2.317  0.00  0.00     0.042 A 
ATOM     13  C   UNL d   1       1.267   1.448   3.670  0.00  0.00    -0.013 A 
ATOM     14  C   UNL d   1       1.052   2.632   4.408  0.00  0.00     0.042 A 
ATOM     15  C   UNL d   1       1.937   0.260   4.310  0.00  0.00     0.052 C 
ATOM     16 CL   UNL d   1       1.437   2.747   6.093  0.00  0.00    -0.084 Cl
ATOM     17  C   UNL d   1       0.500   3.768   3.811  0.00  0.00     0.024 A 
ATOM     18  C   UNL d   1       0.149   3.741   2.468  0.00  0.00     0.004 A 
ATOM     19  C   UNL d   1       0.319   2.570   1.731  0.00  0.00     0.030 A 
ENDBRANCH  10  12
ENDBRANCH   8  10
ENDBRANCH   1   8
BRANCH   2  20
ATOM     20  C   UNL d   1      -1.933  -3.444  -2.407  0.00  0.00     0.311 C 
BRANCH  20  21
ATOM     21  C   UNL d   1      -2.627  -2.897  -3.642  0.00  0.00    -0.030 A 
ATOM     22  C   UNL d   1      -1.879  -2.299  -4.669  0.00  0.00     0.012 A 
ATOM     23  C   UNL d   1      -2.505  -1.807  -5.815  0.00  0.00     0.043 A 
ATOM     24  C   UNL d   1      -3.884  -1.918  -5.945  0.00  0.00     0.116 A 
ATOM     25  C   UNL d   1      -4.649  -2.511  -4.947  0.00  0.00     0.043 A 
ATOM     26  F   UNL d   1      -4.484  -1.449  -7.047  0.00  0.00    -0.206 F 
ATOM     27  C   UNL d   1      -4.023  -3.002  -3.797  0.00  0.00     0.012 A 
ENDBRANCH  20  21
ENDBRANCH   2  20
TORSDOF 5
