REMARK  4 active torsions:
REMARK  status: ('A' for Active; 'I' for Inactive)
REMARK    1  A    between atoms: C_2  and  C_1 
REMARK    2  A    between atoms: C_21  and  C_7 
REMARK    3  A    between atoms: C_19  and  C_8 
REMARK    4  A    between atoms: C_12  and  C_20 
ROOT
ATOM      1  C   UNL d   1       0.282  -2.724  -0.027  0.00  0.00     0.054 A 
ATOM      2  N   UNL d   1       1.006  -3.308   0.999  0.00  0.00    -0.349 N 
ATOM      3  HN  UNL d   1       1.286  -2.831   1.857  1.00  0.00     0.166 HD
ATOM      4  C   UNL d   1       1.284  -4.567   0.713  0.00  0.00     0.084 A 
ATOM      5  S   UNL d   1       0.577  -5.132  -0.759  0.00  0.00    -0.081 SA
ATOM      6  C   UNL d   1      -0.055  -3.574  -1.057  0.00  0.00     0.082 A 
ENDROOT
BRANCH   1   7
ATOM      7  C   UNL d   1      -0.048  -1.303   0.049  0.00  0.00     0.052 A 
ATOM      8  C   UNL d   1       0.756  -0.243   0.571  0.00  0.00     0.080 A 
ATOM      9  N   UNL d   1       0.083   0.921   0.474  0.00  0.00    -0.259 N 
ATOM     10  O   UNL d   1      -1.122   0.637  -0.127  0.00  0.00    -0.241 OA
ATOM     11  HN  UNL d   1       0.405   1.837   0.787  1.00  0.00     0.195 HD
ATOM     12  C   UNL d   1      -1.200  -0.692  -0.391  0.00  0.00     0.087 A 
ATOM     13  C   UNL d   1      -2.443  -1.149  -1.041  0.00  0.00     0.080 C 
BRANCH   8  14
ATOM     14  C   UNL d   1       2.116  -0.253   1.121  0.00  0.00    -0.007 A 
ATOM     15  C   UNL d   1       2.468   0.632   2.152  0.00  0.00     0.014 A 
ATOM     16  C   UNL d   1       3.757   0.624   2.694  0.00  0.00     0.001 A 
ATOM     17  C   UNL d   1       4.710  -0.271   2.213  0.00  0.00     0.000 A 
ATOM     18  C   UNL d   1       4.384  -1.140   1.176  0.00  0.00     0.001 A 
ATOM     19  C   UNL d   1       3.101  -1.118   0.623  0.00  0.00     0.014 A 
ENDBRANCH   8  14
ENDBRANCH   1   7
BRANCH   4  20
ATOM     20  C   UNL d   1       2.081  -5.471   1.562  0.00  0.00    -0.002 A 
ATOM     21  C   UNL d   1       2.145  -5.256   2.947  0.00  0.00     0.015 A 
ATOM     22  C   UNL d   1       2.853  -6.133   3.785  0.00  0.00     0.014 A 
ATOM     23  C   UNL d   1       3.528  -7.237   3.250  0.00  0.00    -0.008 A 
ATOM     24  C   UNL d   1       3.512  -7.424   1.863  0.00  0.00     0.014 A 
ATOM     25  C   UNL d   1       2.799  -6.554   1.032  0.00  0.00     0.015 A 
BRANCH  23  26
ATOM     26  C   UNL d   1       4.243  -8.195   4.083  0.00  0.00     0.063 A 
ATOM     27  N   UNL d   1       5.357  -8.875   3.600  0.00  0.00    -0.292 N 
ATOM     28  N   UNL d   1       5.840  -9.729   4.486  0.00  0.00    -0.061 NA
ATOM     29  HN  UNL d   1       5.753  -8.732   2.671  1.00  0.00     0.183 HD
ATOM     30  S   UNL d   1       4.965  -9.751   5.909  0.00  0.00    -0.010 SA
ATOM     31  C   UNL d   1       3.861  -8.555   5.364  0.00  0.00     0.096 A 
ENDBRANCH  23  26
ENDBRANCH   4  20
TORSDOF 4
