REMARK  4 active torsions:
REMARK  status: ('A' for Active; 'I' for Inactive)
REMARK    1  A    between atoms: S_2  and  C_1 
REMARK    2  A    between atoms: N_10  and  S_2 
REMARK    3  A    between atoms: C_7  and  C_4 
REMARK    4  A    between atoms: O_13  and  C_7 
ROOT
ATOM      1  C   UNL d   1      -0.134   1.131  -0.000  0.00  0.00     0.151 A 
ATOM      2  N   UNL d   1       0.686   0.012  -0.017  0.00  0.00    -0.335 N 
ATOM      3  C   UNL d   1      -0.077  -1.151   0.032  0.00  0.00     0.109 A 
ATOM      4  C   UNL d   1      -1.437   0.662   0.005  0.00  0.00     0.046 A 
ATOM      5  C   UNL d   1      -1.404  -0.748   0.013  0.00  0.00     0.039 A 
ATOM      6  C   UNL d   1       2.139   0.017  -0.047  0.00  0.00     0.157 C 
ENDROOT
BRANCH   1   7
ATOM      7  S   UNL d   1       0.493   2.797   0.001  0.00  0.00     0.272 S 
ATOM      8  O   UNL d   1       1.157   2.929   1.274  0.00  0.00    -0.199 OA
ATOM      9  O   UNL d   1       1.148   2.942  -1.273  0.00  0.00    -0.199 OA
BRANCH   7  10
ATOM     10  N   UNL d   1      -0.832   3.812   0.013  0.00  0.00    -0.323 N 
ATOM     11  H   UNL d   1      -1.339   3.814   0.894  0.00  0.00     0.169 HD
ATOM     12  H   UNL d   1      -1.376   3.786  -0.846  0.00  0.00     0.169 HD
ENDBRANCH   7  10
ENDBRANCH   1   7
BRANCH   3  13
ATOM     13  C   UNL d   1       0.474  -2.495   0.047  0.00  0.00     0.193 C 
ATOM     14  O   UNL d   1       1.578  -2.820  -0.360  0.00  0.00    -0.645 OA
BRANCH  13  15
ATOM     15  O   UNL d   1      -0.372  -3.390   0.609  0.00  0.00    -0.772 OA
ATOM     16  H   UNL d   1      -1.150  -2.976   1.022  0.00  0.00     0.167 HD
ENDBRANCH  13  15
ENDBRANCH   3  13
TORSDOF 4
