REMARK  1 active torsions:
REMARK  status: ('A' for Active; 'I' for Inactive)
REMARK    1  A    between atoms: C_5  and  C_3 
ROOT
ATOM      1  C   UNL d   1      -2.070   0.338   0.002  0.00  0.00    -0.006 C 
ATOM      2  C   UNL d   1      -1.095  -0.800  -0.025  0.00  0.00     0.189 C 
ATOM      3  C   UNL d   1      -3.265   0.162  -0.593  0.00  0.00     0.024 C 
ATOM      4  C   UNL d   1       0.351  -0.428   0.020  0.00  0.00     0.021 A 
ATOM      5  C   UNL d   1       0.751   0.922   0.014  0.00  0.00    -0.044 A 
ATOM      6  C   UNL d   1      -1.567   1.584   0.673  0.00  0.00     0.047 C 
ATOM      7  O   UNL d   1      -1.457  -1.969  -0.090  0.00  0.00    -0.287 OA
ATOM      8  C   UNL d   1      -0.265   2.034   0.015  0.00  0.00     0.044 C 
ATOM      9  C   UNL d   1       1.317  -1.442   0.024  0.00  0.00     0.016 A 
ATOM     10  C   UNL d   1       2.116   1.234  -0.044  0.00  0.00     0.008 A 
ATOM     11  C   UNL d   1       2.674  -1.117  -0.011  0.00  0.00     0.001 A 
ATOM     12  C   UNL d   1       3.072   0.218  -0.056  0.00  0.00     0.001 A 
ENDROOT
BRANCH   3  13
ATOM     13  C   UNL d   1      -4.272   1.226  -0.701  0.00  0.00    -0.014 A 
ATOM     14  C   UNL d   1      -4.312   2.128  -1.779  0.00  0.00     0.045 A 
ATOM     15  C   UNL d   1      -5.208   3.201  -1.776  0.00  0.00     0.048 A 
ATOM     16 CL   UNL d   1      -3.260   1.962  -3.142  0.00  0.00    -0.083 Cl
ATOM     17  C   UNL d   1      -6.085   3.361  -0.707  0.00  0.00     0.035 A 
ATOM     18  C   UNL d   1      -6.091   2.449   0.347  0.00  0.00     0.024 A 
ATOM     19 CL   UNL d   1      -7.164   4.701  -0.680  0.00  0.00    -0.084 Cl
ATOM     20  C   UNL d   1      -5.184   1.386   0.352  0.00  0.00     0.015 A 
ENDBRANCH   3  13
TORSDOF 1
