REMARK  0 active torsions:
REMARK  status: ('A' for Active; 'I' for Inactive)
ROOT
ATOM      1  C   UNL d   1       0.143  -0.736  -0.065  0.00  0.00     0.153 A 
ATOM      2  N   UNL d   1       0.020   0.633  -0.055  0.00  0.00    -0.272 N 
ATOM      3  C   UNL d   1       1.155   1.411   0.053  0.00  0.00     0.253 A 
ATOM      4  N   UNL d   1       1.274  -1.365  -0.064  0.00  0.00    -0.340 N 
ATOM      5  HN  UNL d   1       1.304  -2.385  -0.079  1.00  0.00     0.167 HD
ATOM      6  C   UNL d   1       2.442   0.702   0.011  0.00  0.00     0.099 A 
ATOM      7  S   UNL d   1      -1.270  -1.754  -0.105  0.00  0.00    -0.067 SA
ATOM      8  C   UNL d   1       2.427  -0.631  -0.041  0.00  0.00     0.012 A 
ATOM      9  C   UNL d   1      -1.224   1.359   0.071  0.00  0.00     0.305 C 
ATOM     10  O   UNL d   1      -2.351   0.622  -0.363  0.00  0.00    -0.361 OA
ATOM     11  O   UNL d   1       1.154   2.630   0.209  0.00  0.00    -0.268 OA
ATOM     12  C   UNL d   1      -2.491  -0.561   0.393  0.00  0.00     0.252 C 
ATOM     13  C   UNL d   1       3.699  -1.431  -0.066  0.00  0.00     0.068 C 
ENDROOT
TORSDOF 0
