REMARK  4 active torsions:
REMARK  status: ('A' for Active; 'I' for Inactive)
REMARK    1  A    between atoms: C_7  and  C_3 
REMARK    2  A    between atoms: C_16  and  C_4 
REMARK    3  A    between atoms: O_11  and  C_16 
REMARK    4  A    between atoms: C_12  and  O_11 
ROOT
ATOM      1  N   UNL d   1       1.438  -0.544  -0.019  0.00  0.00    -0.351 N 
ATOM      2  HN  UNL d   1       2.332  -1.034  -0.026  1.00  0.00     0.166 HD
ATOM      3  C   UNL d   1       1.291   0.832  -0.002  0.00  0.00     0.049 A 
ATOM      4  C   UNL d   1       0.257  -1.131  -0.026  0.00  0.00     0.075 A 
ATOM      5  S   UNL d   1      -1.091  -0.065  -0.025  0.00  0.00    -0.084 SA
ATOM      6  C   UNL d   1      -0.018   1.274  -0.002  0.00  0.00     0.082 A 
ENDROOT
BRANCH   4   7
ATOM      7  C   UNL d   1       0.061  -2.618   0.025  0.00  0.00     0.240 C 
BRANCH   7   8
ATOM      8  O   UNL d   1      -0.095  -3.081  -1.318  0.00  0.00    -0.343 OA
BRANCH   8   9
ATOM      9  C   UNL d   1      -0.246  -4.436  -1.470  0.00  0.00     0.090 A 
ATOM     10  C   UNL d   1      -1.025  -4.890  -2.545  0.00  0.00     0.067 A 
ATOM     11 CL   UNL d   1      -1.826  -3.784  -3.605  0.00  0.00    -0.081 Cl
ATOM     12  C   UNL d   1      -1.187  -6.260  -2.779  0.00  0.00     0.026 A 
ATOM     13  C   UNL d   1      -0.564  -7.189  -1.949  0.00  0.00     0.002 A 
ATOM     14  C   UNL d   1       0.224  -6.749  -0.889  0.00  0.00     0.003 A 
ATOM     15  C   UNL d   1       0.388  -5.381  -0.653  0.00  0.00     0.038 A 
ENDBRANCH   8   9
ENDBRANCH   7   8
ENDBRANCH   4   7
BRANCH   3  16
ATOM     16  C   UNL d   1       2.461   1.702   0.002  0.00  0.00    -0.007 A 
ATOM     17  C   UNL d   1       3.635   1.271  -0.633  0.00  0.00     0.039 A 
ATOM     18  C   UNL d   1       4.781   2.075  -0.641  0.00  0.00     0.056 A 
ATOM     19 CL   UNL d   1       6.180   1.473  -1.457  0.00  0.00    -0.083 Cl
ATOM     20  C   UNL d   1       4.763   3.318  -0.003  0.00  0.00     0.055 A 
ATOM     21  C   UNL d   1       3.601   3.750   0.642  0.00  0.00     0.026 A 
ATOM     22 CL   UNL d   1       6.138   4.364   0.033  0.00  0.00    -0.083 Cl
ATOM     23  C   UNL d   1       2.455   2.947   0.645  0.00  0.00     0.015 A 
ENDBRANCH   3  16
TORSDOF 4
