REMARK  6 active torsions:
REMARK  status: ('A' for Active; 'I' for Inactive)
REMARK    1  A    between atoms: C_2  and  C_1 
REMARK    2  A    between atoms: N_3  and  C_1 
REMARK    3  A    between atoms: N_4  and  C_1 
REMARK    4  A    between atoms: C_5  and  C_1 
REMARK       I    between atoms: C_6  and  N_3 
REMARK    5  A    between atoms: O_12  and  C_5 
REMARK    6  A    between atoms: C_16  and  O_12 
ROOT
ATOM      1  C   UNL d   1       1.132   0.135  -0.175  0.00  0.00     0.418 C 
ENDROOT
BRANCH   1   2
ATOM      2  C   UNL d   1       0.605   0.734  -1.551  0.00  0.00     0.453 C 
ATOM      3  F   UNL d   1      -0.400  -0.026  -2.070  0.00  0.00    -0.166 F 
ATOM      4  F   UNL d   1       0.054   1.968  -1.389  0.00  0.00    -0.166 F 
ATOM      5  F   UNL d   1       1.542   0.862  -2.514  0.00  0.00    -0.166 F 
ENDBRANCH   1   2
BRANCH   1   6
ATOM      6  N   UNL d   1       0.760  -1.283   0.039  0.00  0.00    -0.310 N 
ATOM      7  C   UNL d   1       1.015  -2.223  -0.927  0.00  0.00     0.216 C 
ATOM      8  O   UNL d   1       1.552  -1.943  -1.995  0.00  0.00    -0.274 OA
ATOM      9  C   UNL d   1       0.621  -3.626  -0.570  0.00  0.00     0.117 C 
ATOM     10  H   UNL d   1       0.695  -1.572   1.003  0.00  0.00     0.165 HD
ENDBRANCH   1   6
BRANCH   1  11
ATOM     11  N   UNL d   1       0.665   0.779   1.131  0.00  0.00     0.137 N 
ATOM     12  C   UNL d   1       1.177   2.163   1.283  0.00  0.00     0.277 C 
ATOM     13  C   UNL d   1       0.772   2.797   2.615  0.00  0.00     0.030 C 
ATOM     14  C   UNL d   1      -0.735   2.771   2.807  0.00  0.00     0.003 C 
ATOM     15  C   UNL d   1      -1.254   1.354   2.612  0.00  0.00     0.030 C 
ATOM     16  C   UNL d   1      -0.809   0.777   1.263  0.00  0.00     0.277 C 
ENDBRANCH   1  11
BRANCH   1  17
ATOM     17  C   UNL d   1       2.698   0.220  -0.230  0.00  0.00     0.329 C 
ATOM     18  O   UNL d   1       3.336   1.186  -0.643  0.00  0.00    -0.260 OA
BRANCH  17  19
ATOM     19  O   UNL d   1       3.289  -0.853   0.396  0.00  0.00    -0.318 OA
BRANCH  19  20
ATOM     20  C   UNL d   1       4.723  -0.888   0.372  0.00  0.00     0.174 C 
ATOM     21  C   UNL d   1       5.307  -0.047   1.491  0.00  0.00     0.034 C 
ENDBRANCH  19  20
ENDBRANCH  17  19
ENDBRANCH   1  17
TORSDOF 6
