REMARK  1 active torsions:
REMARK  status: ('A' for Active; 'I' for Inactive)
REMARK    1  A    between atoms: C_6  and  N_1 
ROOT
ATOM      1  C   UNL d   1       3.894   0.032   0.061  0.00  0.00     0.046 A 
ATOM      2  C   UNL d   1       6.719  -2.250  -0.852  0.00  0.00    -0.078 C 
ATOM      3  C   UNL d   1       7.304  -3.219  -1.257  0.00  0.00     0.018 C 
ATOM      4  C   UNL d   1       4.614  -1.102  -0.347  0.00  0.00     0.050 A 
ATOM      5  C   UNL d   1       6.013  -1.096  -0.388  0.00  0.00     0.019 A 
ATOM      6  C   UNL d   1       4.625   1.170   0.438  0.00  0.00     0.030 A 
ATOM      7  C   UNL d   1       6.023   1.173   0.416  0.00  0.00     0.004 A 
ATOM      8  C   UNL d   1       6.717   0.042   0.000  0.00  0.00     0.021 A 
ENDROOT
BRANCH   1   9
ATOM      9  N   UNL d   1       2.471   0.034   0.076  0.00  0.00    -0.252 N 
ATOM     10  C   UNL d   1       1.678  -1.108   0.058  0.00  0.00     0.236 C 
ATOM     11  C   UNL d   1       0.303  -0.635  -0.317  0.00  0.00     0.092 C 
ATOM     12  O   UNL d   1       1.972  -2.276   0.254  0.00  0.00    -0.272 OA
ATOM     13  C   UNL d   1      -0.919  -1.446   0.060  0.00  0.00     0.019 C 
ATOM     14  C   UNL d   1       0.282   0.712   0.373  0.00  0.00     0.092 C 
ATOM     15  C   UNL d   1      -2.195  -0.680  -0.365  0.00  0.00    -0.018 C 
ATOM     16  C   UNL d   1      -2.365  -0.672  -1.890  0.00  0.00     0.010 C 
ATOM     17  C   UNL d   1      -2.196   0.764   0.191  0.00  0.00     0.005 C 
ATOM     18  C   UNL d   1      -0.898   1.540  -0.096  0.00  0.00     0.015 C 
ATOM     19  C   UNL d   1       1.680   1.178   0.077  0.00  0.00     0.236 C 
ATOM     20  O   UNL d   1       1.986   2.346  -0.105  0.00  0.00    -0.272 OA
ENDBRANCH   1   9
TORSDOF 1
