REMARK  5 active torsions:
REMARK  status: ('A' for Active; 'I' for Inactive)
REMARK    1  A    between atoms: C_9  and  N_3 
REMARK    2  A    between atoms: S_8  and  N_10 
REMARK    3  A    between atoms: C_14  and  S_8 
REMARK    4  A    between atoms: C_11  and  C_9 
REMARK    5  A    between atoms: N_10  and  N_13 
REMARK       I    between atoms: N_13  and  C_11 
ROOT
ATOM      1  C   UNL d   1       2.839  -0.939   1.385  0.00  0.00     0.262 C 
ATOM      2  N   UNL d   1       2.159  -0.726   2.564  0.00  0.00    -0.259 N 
ATOM      3  O   UNL d   1       4.073  -1.014   1.369  0.00  0.00    -0.269 OA
ATOM      4  H   UNL d   1       1.135  -0.685   2.623  0.00  0.00     0.190 HD
ENDROOT
BRANCH   1   5
ATOM      5  C   UNL d   1       2.030  -1.196   0.127  0.00  0.00     0.215 C 
ATOM      6  C   UNL d   1       1.880  -2.687  -0.152  0.00  0.00     0.046 C 
BRANCH   5   7
ATOM      7  N   UNL d   1       0.736  -0.537   0.123  0.00  0.00    -0.189 N 
ATOM      8  N   UNL d   1      -0.178  -0.723   1.103  0.00  0.00    -0.115 N 
ATOM      9  C   UNL d   1      -1.243  -0.118   0.550  0.00  0.00     0.709 A 
ATOM     10  HN  UNL d   1      -0.086  -1.189   2.005  1.00  0.00     0.207 HD
ATOM     11  N   UNL d   1      -0.962   0.398  -0.691  0.00  0.00    -0.113 N 
ATOM     12  N   UNL d   1      -2.467   0.025   1.097  0.00  0.00    -0.211 N 
ATOM     13  N   UNL d   1       0.303   0.119  -0.958  0.00  0.00     0.012 NA
ATOM     14  HN  UNL d   1      -1.609   0.905  -1.295  1.00  0.00     0.203 HD
ATOM     15  C   UNL d   1      -2.826  -0.518   2.404  0.00  0.00     0.167 C 
ATOM     16  C   UNL d   1      -3.594   0.574   0.339  0.00  0.00     0.167 C 
ATOM     17  C   UNL d   1      -3.601   0.549   3.196  0.00  0.00     0.188 C 
ATOM     18  O   UNL d   1      -4.747   1.019   2.464  0.00  0.00    -0.388 OA
ATOM     19  C   UNL d   1      -4.341   1.596   1.210  0.00  0.00     0.188 C 
ENDBRANCH   5   7
ENDBRANCH   1   5
BRANCH   2  20
ATOM     20  N   UNL d   1       2.932  -0.511   3.766  0.00  0.00    -0.220 N 
ATOM     21  H   UNL d   1       3.956  -0.466   3.711  0.00  0.00     0.200 HD
BRANCH  20  22
ATOM     22  S   UNL d   1       2.226  -0.575   5.288  0.00  0.00     0.276 S 
ATOM     23  O   UNL d   1       3.231  -0.209   6.260  0.00  0.00    -0.199 OA
ATOM     24  O   UNL d   1       0.940   0.085   5.214  0.00  0.00    -0.199 OA
BRANCH  22  25
ATOM     25  C   UNL d   1       1.924  -2.325   5.441  0.00  0.00     0.081 A 
ATOM     26  C   UNL d   1       2.934  -3.161   5.928  0.00  0.00     0.027 A 
ATOM     27  C   UNL d   1       2.678  -4.525   6.091  0.00  0.00     0.025 A 
ATOM     28  C   UNL d   1       1.419  -5.038   5.775  0.00  0.00     0.034 A 
ATOM     29  C   UNL d   1       0.413  -4.202   5.287  0.00  0.00     0.025 A 
ATOM     30 CL   UNL d   1       1.097  -6.713   6.002  0.00  0.00    -0.084 Cl
ATOM     31  C   UNL d   1       0.662  -2.839   5.121  0.00  0.00     0.027 A 
ENDBRANCH  22  25
ENDBRANCH  20  22
ENDBRANCH   2  20
TORSDOF 5
