REMARK  3 active torsions:
REMARK  status: ('A' for Active; 'I' for Inactive)
REMARK    1  A    between atoms: C_14  and  C_3 
REMARK    2  A    between atoms: C_10  and  C_4 
REMARK    3  A    between atoms: C_15  and  C_16 
ROOT
ATOM      1  N   UNL d   1       1.310  -0.474  -0.412  0.00  0.00    -0.349 N 
ATOM      2  HN  UNL d   1       2.134  -0.933  -0.798  1.00  0.00     0.166 HD
ATOM      3  C   UNL d   1       0.112  -1.021  -0.335  0.00  0.00     0.084 A 
ATOM      4  C   UNL d   1       1.293   0.809   0.104  0.00  0.00     0.050 A 
ATOM      5  S   UNL d   1      -1.088  -0.025   0.410  0.00  0.00    -0.081 SA
ATOM      6  C   UNL d   1       0.068   1.222   0.591  0.00  0.00     0.082 A 
ENDROOT
BRANCH   4   7
ATOM      7  C   UNL d   1       2.471   1.660   0.073  0.00  0.00    -0.008 A 
ATOM      8  C   UNL d   1       3.393   1.518  -0.970  0.00  0.00     0.022 A 
ATOM      9  C   UNL d   1       4.527   2.357  -1.095  0.00  0.00    -0.042 A 
ATOM     10  C   UNL d   1       5.481   2.138  -2.275  0.00  0.00    -0.020 C 
ATOM     11  C   UNL d   1       4.706   3.389  -0.153  0.00  0.00    -0.043 A 
ATOM     12  C   UNL d   1       6.803   2.920  -2.099  0.00  0.00     0.015 C 
ATOM     13  C   UNL d   1       4.764   2.574  -3.572  0.00  0.00     0.020 C 
ATOM     14  C   UNL d   1       5.882   0.649  -2.414  0.00  0.00     0.020 C 
ATOM     15  C   UNL d   1       6.593   4.338  -1.600  0.00  0.00     0.015 C 
ATOM     16  C   UNL d   1       5.850   4.406  -0.245  0.00  0.00    -0.020 C 
ATOM     17  C   UNL d   1       6.836   4.154   0.915  0.00  0.00     0.020 C 
ATOM     18  C   UNL d   1       5.307   5.851  -0.127  0.00  0.00     0.020 C 
ATOM     19  C   UNL d   1       3.803   3.480   0.929  0.00  0.00     0.009 A 
ATOM     20  C   UNL d   1       2.704   2.629   1.039  0.00  0.00     0.014 A 
ENDBRANCH   4   7
BRANCH   3  21
ATOM     21  C   UNL d   1      -0.222  -2.375  -0.806  0.00  0.00    -0.002 A 
ATOM     22  C   UNL d   1       0.747  -3.383  -0.767  0.00  0.00     0.015 A 
ATOM     23  C   UNL d   1       0.455  -4.679  -1.221  0.00  0.00     0.009 A 
ATOM     24  C   UNL d   1      -0.807  -5.006  -1.750  0.00  0.00    -0.051 A 
ATOM     25  C   UNL d   1      -1.766  -3.983  -1.789  0.00  0.00     0.009 A 
ATOM     26  C   UNL d   1      -1.478  -2.693  -1.330  0.00  0.00     0.015 A 
BRANCH  24  27
ATOM     27  C   UNL d   1      -1.092  -6.419  -2.288  0.00  0.00    -0.024 C 
ATOM     28  C   UNL d   1      -2.522  -6.580  -2.856  0.00  0.00     0.019 C 
ATOM     29  C   UNL d   1      -0.107  -6.746  -3.430  0.00  0.00     0.019 C 
ATOM     30  C   UNL d   1      -0.929  -7.464  -1.165  0.00  0.00     0.019 C 
ENDBRANCH  24  27
ENDBRANCH   3  21
TORSDOF 3
