REMARK  4 active torsions:
REMARK  status: ('A' for Active; 'I' for Inactive)
REMARK    1  A    between atoms: C_6  and  C_1 
REMARK    2  A    between atoms: N_9  and  C_3 
REMARK    3  A    between atoms: C_7  and  C_4 
REMARK    4  A    between atoms: O_10  and  C_6 
ROOT
ATOM      1  C   UNL d   1      -0.262   1.070   0.020  0.00  0.00     0.107 A 
ATOM      2  S   UNL d   1       1.321   0.395   0.041  0.00  0.00    -0.081 SA
ATOM      3  C   UNL d   1      -1.212   0.066  -0.005  0.00  0.00     0.050 A 
ATOM      4  C   UNL d   1       0.744  -1.218  -0.023  0.00  0.00     0.018 A 
ATOM      5  C   UNL d   1      -0.640  -1.233  -0.028  0.00  0.00     0.050 A 
ENDROOT
BRANCH   4   6
ATOM      6  C   UNL d   1       1.662  -2.371  -0.056  0.00  0.00    -0.019 A 
ATOM      7  C   UNL d   1       1.289  -3.580   0.556  0.00  0.00     0.013 A 
ATOM      8  C   UNL d   1       2.107  -4.710   0.481  0.00  0.00     0.001 A 
ATOM      9  C   UNL d   1       3.319  -4.648  -0.201  0.00  0.00     0.000 A 
ATOM     10  C   UNL d   1       3.715  -3.456  -0.800  0.00  0.00     0.001 A 
ATOM     11  C   UNL d   1       2.893  -2.325  -0.728  0.00  0.00     0.013 A 
ENDBRANCH   4   6
BRANCH   1  12
ATOM     12  C   UNL d   1      -0.396   2.517   0.029  0.00  0.00     0.302 C 
ATOM     13  O   UNL d   1       0.520   3.333   0.043  0.00  0.00    -0.259 OA
BRANCH  12  14
ATOM     14  O   UNL d   1      -1.719   2.876   0.014  0.00  0.00    -0.322 OA
ATOM     15  C   UNL d   1      -1.948   4.284   0.012  0.00  0.00     0.213 C 
ENDBRANCH  12  14
ENDBRANCH   1  12
BRANCH   3  16
ATOM     16  N   UNL d   1      -2.545   0.249  -0.017  0.00  0.00    -0.398 N 
ATOM     17  H   UNL d   1      -2.959   1.180  -0.005  0.00  0.00     0.156 HD
ATOM     18  H   UNL d   1      -3.217  -0.512  -0.030  0.00  0.00     0.156 HD
ENDBRANCH   3  16
TORSDOF 4
