REMARK  5 active torsions:
REMARK  status: ('A' for Active; 'I' for Inactive)
REMARK    1  A    between atoms: C_4  and  C_1 
REMARK    2  A    between atoms: C_6  and  C_12 
REMARK    3  A    between atoms: C_7  and  C_11 
REMARK    4  A    between atoms: C_14  and  C_10 
REMARK    5  A    between atoms: C_16  and  C_15 
ROOT
ATOM      1  C   UNL d   1       1.718   6.696   0.785  0.00  0.00     0.049 A 
ATOM      2  C   UNL d   1       3.319   6.307  -1.015  0.00  0.00     0.049 A 
ATOM      3  C   UNL d   1       2.647   7.182  -0.148  0.00  0.00     0.032 A 
ATOM      4  C   UNL d   1       2.165   4.416   0.022  0.00  0.00    -0.035 A 
ATOM      5  C   UNL d   1       3.071   4.926  -0.918  0.00  0.00     0.027 A 
ATOM      6  C   UNL d   1       1.485   5.313   0.855  0.00  0.00     0.027 A 
ENDROOT
BRANCH   4   7
ATOM      7  C   UNL d   1       1.894   2.970   0.045  0.00  0.00     0.015 C 
ATOM      8  C   UNL d   1       1.530   2.279   1.137  0.00  0.00     0.051 C 
BRANCH   8   9
ATOM      9  C   UNL d   1       1.228   0.885   1.171  0.00  0.00     0.127 A 
ATOM     10  N   UNL d   1       1.315   0.132   0.028  0.00  0.00    -0.316 N 
ATOM     11  C   UNL d   1       0.956  -1.068   0.449  0.00  0.00     0.256 A 
ATOM     12  HN  UNL d   1       1.588   0.424  -0.911  1.00  0.00     0.169 HD
ATOM     13  O   UNL d   1       0.651  -1.091   1.781  0.00  0.00    -0.213 OA
ATOM     14  N   UNL d   1       0.834   0.206   2.255  0.00  0.00    -0.243 N 
ATOM     15  HN  UNL d   1       0.698   0.555   3.204  1.00  0.00     0.196 HD
BRANCH  11  16
ATOM     16  C   UNL d   1       0.833  -2.365  -0.260  0.00  0.00     0.458 C 
ATOM     17  F   UNL d   1       1.139  -2.271  -1.582  0.00  0.00    -0.163 F 
ATOM     18  F   UNL d   1       1.659  -3.313   0.259  0.00  0.00    -0.163 F 
ATOM     19  F   UNL d   1      -0.428  -2.870  -0.192  0.00  0.00    -0.163 F 
ENDBRANCH  11  16
ENDBRANCH   8   9
ENDBRANCH   4   7
BRANCH   2  20
ATOM     20  C   UNL d   1       4.276   6.830  -2.062  0.00  0.00     0.417 C 
ATOM     21  F   UNL d   1       4.376   8.188  -2.074  0.00  0.00    -0.166 F 
ATOM     22  F   UNL d   1       5.542   6.361  -1.894  0.00  0.00    -0.166 F 
ATOM     23  F   UNL d   1       3.906   6.473  -3.323  0.00  0.00    -0.166 F 
ENDBRANCH   2  20
BRANCH   1  24
ATOM     24  C   UNL d   1       0.947   7.628   1.689  0.00  0.00     0.417 C 
ATOM     25  F   UNL d   1       1.253   8.941   1.506  0.00  0.00    -0.166 F 
ATOM     26  F   UNL d   1      -0.398   7.527   1.504  0.00  0.00    -0.166 F 
ATOM     27  F   UNL d   1       1.165   7.370   3.007  0.00  0.00    -0.166 F 
ENDBRANCH   1  24
TORSDOF 5
