REMARK  10 active torsions:
REMARK  status: ('A' for Active; 'I' for Inactive)
REMARK    1  A    between atoms: N_14  and  C_1 
REMARK    2  A    between atoms: C_2  and  N_13 
REMARK    3  A    between atoms: C_33  and  C_3 
REMARK    4  A    between atoms: C_32  and  C_4 
REMARK    5  A    between atoms: C_16  and  N_5 
REMARK    6  A    between atoms: C_17  and  N_6 
REMARK       I    between atoms: N_13  and  C_15 
REMARK       I    between atoms: C_15  and  N_14 
REMARK    7  A    between atoms: C_18  and  C_25 
REMARK    8  A    between atoms: C_19  and  C_24 
REMARK    9  A    between atoms: C_20  and  C_22 
REMARK   10  A    between atoms: C_21  and  C_23 
ROOT
ATOM      1  N   UNL d   1       2.288  -3.208   0.176  0.00  0.00    -0.292 N 
ATOM      2  N   UNL d   1       0.138  -2.676  -0.563  0.00  0.00    -0.292 N 
ATOM      3  C   UNL d   1       1.079  -3.621  -0.284  0.00  0.00     0.327 C 
ATOM      4  O   UNL d   1       0.763  -4.786  -0.539  0.00  0.00    -0.247 OA
ATOM      5  H   UNL d   1       2.347  -2.304   0.622  0.00  0.00     0.172 HD
ATOM      6  H   UNL d   1      -0.564  -3.134  -1.129  0.00  0.00     0.172 HD
ENDROOT
BRANCH   1   7
ATOM      7  C   UNL d   1       3.412  -4.009   0.122  0.00  0.00     0.152 C 
ATOM      8  C   UNL d   1       4.666  -3.721   0.629  0.00  0.00     0.110 C 
ATOM      9  N   UNL d   1       5.449  -4.753   0.112  0.00  0.00    -0.235 N 
ATOM     10  N   UNL d   1       4.661  -5.734  -0.370  0.00  0.00    -0.013 NA
ATOM     11  N   UNL d   1       3.435  -5.244  -0.471  0.00  0.00    -0.267 N 
ATOM     12  HN  UNL d   1       2.642  -5.707  -0.914  1.00  0.00     0.186 HD
BRANCH   8  13
ATOM     13  C   UNL d   1       5.143  -2.703   1.565  0.00  0.00    -0.004 A 
ATOM     14  C   UNL d   1       5.937  -3.086   2.661  0.00  0.00     0.014 A 
ATOM     15  C   UNL d   1       6.417  -2.140   3.565  0.00  0.00     0.001 A 
ATOM     16  C   UNL d   1       6.087  -0.799   3.399  0.00  0.00     0.000 A 
ATOM     17  C   UNL d   1       5.284  -0.407   2.329  0.00  0.00     0.001 A 
ATOM     18  C   UNL d   1       4.820  -1.351   1.410  0.00  0.00     0.014 A 
ENDBRANCH   8  13
BRANCH   9  19
ATOM     19  C   UNL d   1       6.858  -4.816  -0.048  0.00  0.00     0.056 A 
ATOM     20  C   UNL d   1       7.516  -6.053  -0.015  0.00  0.00     0.047 A 
ATOM     21  C   UNL d   1       8.912  -6.108  -0.151  0.00  0.00     0.050 A 
ATOM     22  C   UNL d   1       9.624  -4.920  -0.402  0.00  0.00     0.032 A 
ATOM     23  C   UNL d   1       8.966  -3.682  -0.490  0.00  0.00     0.050 A 
ATOM     24  C   UNL d   1       7.580  -3.639  -0.289  0.00  0.00     0.047 A 
BRANCH  21  25
ATOM     25  C   UNL d   1       9.668  -7.413  -0.025  0.00  0.00     0.417 C 
ATOM     26  F   UNL d   1       8.886  -8.464   0.343  0.00  0.00    -0.166 F 
ATOM     27  F   UNL d   1      10.274  -7.777  -1.187  0.00  0.00    -0.166 F 
ATOM     28  F   UNL d   1      10.659  -7.342   0.908  0.00  0.00    -0.166 F 
ENDBRANCH  21  25
BRANCH  23  29
ATOM     29  C   UNL d   1       9.736  -2.428  -0.833  0.00  0.00     0.417 C 
ATOM     30  F   UNL d   1       8.973  -1.301  -0.816  0.00  0.00    -0.166 F 
ATOM     31  F   UNL d   1      10.767  -2.199   0.028  0.00  0.00    -0.166 F 
ATOM     32  F   UNL d   1      10.287  -2.487  -2.075  0.00  0.00    -0.166 F 
ENDBRANCH  23  29
ENDBRANCH   9  19
ENDBRANCH   1   7
BRANCH   2  33
ATOM     33  C   UNL d   1       0.395  -1.362  -0.899  0.00  0.00     0.152 C 
ATOM     34  C   UNL d   1       0.123  -0.797  -2.131  0.00  0.00     0.110 C 
ATOM     35  N   UNL d   1       0.291   0.572  -1.912  0.00  0.00    -0.235 N 
ATOM     36  N   UNL d   1       0.771   0.748  -0.641  0.00  0.00    -0.013 NA
ATOM     37  N   UNL d   1       0.871  -0.430  -0.040  0.00  0.00    -0.267 N 
ATOM     38  HN  UNL d   1       1.238  -0.601   0.896  1.00  0.00     0.186 HD
BRANCH  34  39
ATOM     39  C   UNL d   1      -0.235  -1.510  -3.355  0.00  0.00    -0.004 A 
ATOM     40  C   UNL d   1      -1.436  -2.227  -3.429  0.00  0.00     0.014 A 
ATOM     41  C   UNL d   1      -1.697  -3.052  -4.525  0.00  0.00     0.001 A 
ATOM     42  C   UNL d   1      -0.778  -3.137  -5.569  0.00  0.00     0.000 A 
ATOM     43  C   UNL d   1       0.415  -2.422  -5.510  0.00  0.00     0.001 A 
ATOM     44  C   UNL d   1       0.701  -1.639  -4.391  0.00  0.00     0.014 A 
ENDBRANCH  34  39
BRANCH  35  45
ATOM     45  C   UNL d   1       0.042   1.717  -2.739  0.00  0.00     0.056 A 
ATOM     46  C   UNL d   1      -0.082   2.985  -2.135  0.00  0.00     0.047 A 
ATOM     47  C   UNL d   1      -0.335   4.140  -2.902  0.00  0.00     0.050 A 
ATOM     48  C   UNL d   1      -0.398   4.030  -4.298  0.00  0.00     0.032 A 
ATOM     49  C   UNL d   1      -0.254   2.786  -4.926  0.00  0.00     0.050 A 
ATOM     50  C   UNL d   1      -0.081   1.635  -4.133  0.00  0.00     0.047 A 
BRANCH  47  51
ATOM     51  C   UNL d   1      -0.552   5.491  -2.257  0.00  0.00     0.417 C 
ATOM     52  F   UNL d   1      -0.449   5.474  -0.901  0.00  0.00    -0.166 F 
ATOM     53  F   UNL d   1       0.339   6.423  -2.693  0.00  0.00    -0.166 F 
ATOM     54  F   UNL d   1      -1.786   5.996  -2.533  0.00  0.00    -0.166 F 
ENDBRANCH  47  51
BRANCH  49  55
ATOM     55  C   UNL d   1      -0.262   2.700  -6.439  0.00  0.00     0.417 C 
ATOM     56  F   UNL d   1       0.007   1.453  -6.913  0.00  0.00    -0.166 F 
ATOM     57  F   UNL d   1      -1.458   3.061  -6.975  0.00  0.00    -0.166 F 
ATOM     58  F   UNL d   1       0.667   3.520  -7.003  0.00  0.00    -0.166 F 
ENDBRANCH  49  55
ENDBRANCH  35  45
ENDBRANCH   2  33
TORSDOF 10
