REMARK  10 active torsions:
REMARK  status: ('A' for Active; 'I' for Inactive)
REMARK    1  A    between atoms: O_14  and  C_1 
REMARK    2  A    between atoms: C_5  and  C_2 
REMARK    3  A    between atoms: O_15  and  C_3 
REMARK    4  A    between atoms: O_16  and  C_4 
REMARK    5  A    between atoms: C_10  and  C_5 
REMARK    6  A    between atoms: C_11  and  C_5 
REMARK    7  A    between atoms: C_8  and  C_10 
REMARK    8  A    between atoms: O_18  and  C_8 
REMARK    9  A    between atoms: C_9  and  C_11 
REMARK   10  A    between atoms: O_17  and  C_9 
ROOT
ATOM      1  C   UNL d   1       1.413  -0.439  -0.103  0.00  0.00     0.135 A 
ATOM      2  C   UNL d   1      -1.360   0.153  -0.100  0.00  0.00    -0.048 A 
ATOM      3  C   UNL d   1       0.455  -1.475  -0.029  0.00  0.00     0.104 A 
ATOM      4  C   UNL d   1       0.982   0.896  -0.088  0.00  0.00     0.104 A 
ATOM      5  C   UNL d   1      -0.911  -1.168  -0.094  0.00  0.00     0.047 A 
ATOM      6  C   UNL d   1      -0.397   1.173  -0.072  0.00  0.00     0.047 A 
ENDROOT
BRANCH   2   7
ATOM      7  C   UNL d   1      -2.841   0.508  -0.198  0.00  0.00     0.038 C 
BRANCH   7   8
ATOM      8  C   UNL d   1      -3.167   0.651  -1.698  0.00  0.00     0.119 C 
BRANCH   8   9
ATOM      9  C   UNL d   1      -4.599   1.037  -1.950  0.00  0.00     0.140 C 
ATOM     10  O   UNL d   1      -5.506   0.222  -2.032  0.00  0.00    -0.650 OA
BRANCH   9  11
ATOM     11  O   UNL d   1      -4.808   2.367  -2.022  0.00  0.00    -0.776 OA
ATOM     12  H   UNL d   1      -4.003   2.913  -1.946  0.00  0.00     0.167 HD
ENDBRANCH   9  11
ENDBRANCH   8   9
ENDBRANCH   7   8
BRANCH   7  13
ATOM     13  C   UNL d   1      -3.803  -0.490   0.491  0.00  0.00     0.119 C 
BRANCH  13  14
ATOM     14  C   UNL d   1      -3.575  -0.648   1.976  0.00  0.00     0.140 C 
ATOM     15  O   UNL d   1      -2.830   0.035   2.659  0.00  0.00    -0.650 OA
BRANCH  14  16
ATOM     16  O   UNL d   1      -4.336  -1.636   2.505  0.00  0.00    -0.776 OA
ATOM     17  H   UNL d   1      -4.939  -2.062   1.863  0.00  0.00     0.167 HD
ENDBRANCH  14  16
ENDBRANCH  13  14
ENDBRANCH   7  13
ENDBRANCH   2   7
BRANCH   4  18
ATOM     18  O   UNL d   1       1.727   2.047  -0.116  0.00  0.00    -0.353 OA
ATOM     19  C   UNL d   1       3.143   1.960  -0.103  0.00  0.00     0.210 C 
ENDBRANCH   4  18
BRANCH   3  20
ATOM     20  O   UNL d   1       0.909  -2.767   0.086  0.00  0.00    -0.353 OA
ATOM     21  C   UNL d   1       0.001  -3.706   0.652  0.00  0.00     0.210 C 
ENDBRANCH   3  20
BRANCH   1  22
ATOM     22  O   UNL d   1       2.757  -0.716  -0.109  0.00  0.00    -0.351 OA
ATOM     23  C   UNL d   1       3.173  -1.632  -1.125  0.00  0.00     0.210 C 
ENDBRANCH   1  22
TORSDOF 10
