REMARK  1 active torsions:
REMARK  status: ('A' for Active; 'I' for Inactive)
REMARK    1  A    between atoms: N_7  and  C_1 
REMARK       I    between atoms: C_8  and  N_7 
REMARK       I    between atoms: N_10  and  C_8 
ROOT
ATOM      1  C   UNL d   1       0.180   1.141   0.012  0.00  0.00     0.092 A 
ATOM      2  N   UNL d   1      -0.712  -0.968  -0.060  0.00  0.00    -0.263 N 
ATOM      3  HN  UNL d   1      -1.371  -1.746  -0.087  1.00  0.00     0.194 HD
ATOM      4  C   UNL d   1       1.204   0.214  -0.025  0.00  0.00     0.101 A 
ATOM      5  C   UNL d   1      -1.000   0.334  -0.012  0.00  0.00     0.058 A 
ATOM      6  O   UNL d   1       0.661  -1.039  -0.065  0.00  0.00    -0.240 OA
ATOM      7  C   UNL d   1       2.680   0.181  -0.022  0.00  0.00     0.081 C 
ATOM      8  C   UNL d   1      -2.417   0.768   0.001  0.00  0.00     0.072 C 
ENDROOT
BRANCH   1   9
ATOM      9  N   UNL d   1       0.156   2.530   0.058  0.00  0.00    -0.305 N 
ATOM     10  C   UNL d   1       1.200   3.406   0.119  0.00  0.00     0.318 C 
ATOM     11  O   UNL d   1       2.395   3.176   0.175  0.00  0.00    -0.247 OA
ATOM     12  N   UNL d   1       0.772   4.703   0.137  0.00  0.00    -0.352 N 
ATOM     13  H   UNL d   1      -0.018   4.957  -0.437  0.00  0.00     0.160 HD
ATOM     14  H   UNL d   1       1.543   5.363   0.097  0.00  0.00     0.160 HD
ATOM     15  H   UNL d   1      -0.757   2.950   0.140  0.00  0.00     0.171 HD
ENDBRANCH   1   9
TORSDOF 1
