REMARK  5 active torsions:
REMARK  status: ('A' for Active; 'I' for Inactive)
REMARK    1  A    between atoms: C_10  and  C_1 
REMARK    2  A    between atoms: O_13  and  C_1 
REMARK    3  A    between atoms: C_2  and  N_8 
REMARK    4  A    between atoms: N_8  and  C_10 
REMARK    5  A    between atoms: C_14  and  O_13 
ROOT
ATOM      1  C   UNL d   1      -2.081   0.446  -2.117  0.00  0.00     0.011 A 
ATOM      2  C   UNL d   1      -2.551   0.502  -4.505  0.00  0.00     0.037 A 
ATOM      3  C   UNL d   1      -4.185   1.325  -2.963  0.00  0.00     0.037 A 
ATOM      4  C   UNL d   1      -1.711   0.171  -3.441  0.00  0.00     0.047 A 
ATOM      5  C   UNL d   1      -3.350   0.992  -1.892  0.00  0.00     0.047 A 
ATOM      6  C   UNL d   1      -3.789   1.090  -4.276  0.00  0.00     0.047 A 
ATOM      7 CL   UNL d   1      -5.722   2.035  -2.656  0.00  0.00    -0.084 Cl
ATOM      8 CL   UNL d   1      -2.049   0.170  -6.119  0.00  0.00    -0.084 Cl
ENDROOT
BRANCH   1   9
ATOM      9  N   UNL d   1      -1.290   0.081  -1.020  0.00  0.00    -0.284 NA
ATOM     10  H   UNL d   1      -1.563   0.541  -0.149  0.00  0.00     0.128 HD
BRANCH   9  11
ATOM     11  C   UNL d   1       0.167   0.118  -1.209  0.00  0.00     0.203 C 
BRANCH  11  12
ATOM     12  C   UNL d   1       0.914  -0.052   0.107  0.00  0.00     0.272 C 
ATOM     13  O   UNL d   1       0.482   0.260   1.206  0.00  0.00    -0.264 OA
BRANCH  12  14
ATOM     14  O   UNL d   1       2.186  -0.469  -0.166  0.00  0.00    -0.321 OA
BRANCH  14  15
ATOM     15  C   UNL d   1       3.141  -0.287   0.884  0.00  0.00     0.174 C 
ATOM     16  C   UNL d   1       3.728   1.106   0.738  0.00  0.00     0.034 C 
ENDBRANCH  14  15
ENDBRANCH  12  14
ENDBRANCH  11  12
ENDBRANCH   9  11
ENDBRANCH   1   9
TORSDOF 5
