REMARK  12 active torsions:
REMARK  status: ('A' for Active; 'I' for Inactive)
REMARK    1  A    between atoms: C_1  and  C_7 
REMARK    2  A    between atoms: C_10  and  N_2 
REMARK    3  A    between atoms: C_11  and  C_6 
REMARK    4  A    between atoms: C_8  and  C_7 
REMARK    5  A    between atoms: C_7  and  O_13 
REMARK    6  A    between atoms: C_8  and  O_14 
REMARK    7  A    between atoms: C_9  and  C_8 
REMARK    8  A    between atoms: C_9  and  O_15 
REMARK    9  A    between atoms: C_9  and  C_12 
REMARK   10  A    between atoms: C_12  and  O_16 
REMARK   11  A    between atoms: C_18  and  C_12 
REMARK   12  A    between atoms: O_17  and  C_18 
ROOT
ATOM      1  C   UNL d   1      -3.480   3.659  -1.652  0.00  0.00     0.207 C 
ATOM      2  N   UNL d   1      -4.347   2.799  -2.458  0.00  0.00    -0.274 N 
ATOM      3  N   UNL d   1      -5.264   3.456  -3.250  0.00  0.00    -0.289 N 
ATOM      4  HN  UNL d   1      -6.007   2.992  -3.772  1.00  0.00     0.188 HD
ATOM      5  S   UNL d   1      -3.630   5.311  -2.417  0.00  0.00    -0.080 SA
ATOM      6  C   UNL d   1      -5.064   4.739  -3.248  0.00  0.00     0.097 C 
ENDROOT
BRANCH   1   7
ATOM      7  C   UNL d   1      -3.863   3.679  -0.146  0.00  0.00     0.184 C 
BRANCH   7   8
ATOM      8  C   UNL d   1      -5.316   4.067   0.216  0.00  0.00     0.181 C 
BRANCH   8   9
ATOM      9  O   UNL d   1      -5.535   5.479  -0.011  0.00  0.00    -0.390 OA
ATOM     10  H   UNL d   1      -5.139   5.954   0.742  0.00  0.00     0.210 HD
ENDBRANCH   8   9
BRANCH   8  11
ATOM     11  C   UNL d   1      -5.651   3.799   1.711  0.00  0.00     0.180 C 
BRANCH  11  12
ATOM     12  O   UNL d   1      -6.965   4.324   2.007  0.00  0.00    -0.390 OA
ATOM     13  H   UNL d   1      -7.392   4.520   1.150  0.00  0.00     0.210 HD
ENDBRANCH  11  12
BRANCH  11  14
ATOM     14  C   UNL d   1      -5.618   2.315   2.106  0.00  0.00     0.173 C 
BRANCH  14  15
ATOM     15  O   UNL d   1      -6.555   1.597   1.290  0.00  0.00    -0.391 OA
ATOM     16  H   UNL d   1      -7.424   1.663   1.726  0.00  0.00     0.210 HD
ENDBRANCH  14  15
BRANCH  14  17
ATOM     17  C   UNL d   1      -5.937   2.124   3.596  0.00  0.00     0.198 C 
BRANCH  17  18
ATOM     18  O   UNL d   1      -5.754   0.758   3.959  0.00  0.00    -0.398 OA
ATOM     19  H   UNL d   1      -6.005   0.672   4.895  0.00  0.00     0.209 HD
ENDBRANCH  17  18
ENDBRANCH  14  17
ENDBRANCH  11  14
ENDBRANCH   8  11
ENDBRANCH   7   8
BRANCH   7  20
ATOM     20  O   UNL d   1      -2.964   4.542   0.591  0.00  0.00    -0.390 OA
ATOM     21  H   UNL d   1      -2.909   5.372   0.077  0.00  0.00     0.210 HD
ENDBRANCH   7  20
ENDBRANCH   1   7
BRANCH   2  22
ATOM     22  C   UNL d   1      -4.102   1.435  -2.660  0.00  0.00     0.052 A 
ATOM     23  C   UNL d   1      -3.264   0.680  -1.821  0.00  0.00     0.031 A 
ATOM     24  C   UNL d   1      -3.040  -0.687  -2.033  0.00  0.00     0.002 A 
ATOM     25  C   UNL d   1      -3.634  -1.333  -3.109  0.00  0.00     0.000 A 
ATOM     26  C   UNL d   1      -4.462  -0.615  -3.964  0.00  0.00     0.002 A 
ATOM     27  C   UNL d   1      -4.699   0.746  -3.731  0.00  0.00     0.031 A 
ENDBRANCH   2  22
BRANCH   6  28
ATOM     28  C   UNL d   1      -5.959   5.703  -3.917  0.00  0.00    -0.001 A 
ATOM     29  C   UNL d   1      -6.636   5.312  -5.077  0.00  0.00     0.014 A 
ATOM     30  C   UNL d   1      -7.512   6.195  -5.709  0.00  0.00     0.001 A 
ATOM     31  C   UNL d   1      -7.728   7.468  -5.175  0.00  0.00     0.000 A 
ATOM     32  C   UNL d   1      -7.071   7.856  -4.008  0.00  0.00     0.001 A 
ATOM     33  C   UNL d   1      -6.188   6.977  -3.379  0.00  0.00     0.014 A 
ENDBRANCH   6  28
TORSDOF 12
