REMARK  4 active torsions:
REMARK  status: ('A' for Active; 'I' for Inactive)
REMARK    1  A    between atoms: O_10  and  C_4 
REMARK    2  A    between atoms: C_11  and  N_5 
REMARK    3  A    between atoms: C_9  and  C_6 
REMARK    4  A    between atoms: C_12  and  C_11 
ROOT
ATOM      1  N   UNL d   1       5.141   2.713  -0.985  0.00  0.00    -0.197 NA
ATOM      2  C   UNL d   1       4.220   2.019  -1.071  0.00  0.00     0.060 C 
ATOM      3  C   UNL d   1       3.023   1.170  -1.152  0.00  0.00     0.146 C 
ENDROOT
BRANCH   3   4
ATOM      4  C   UNL d   1       2.113   1.462   0.034  0.00  0.00     0.165 C 
BRANCH   4   5
ATOM      5  N   UNL d   1       0.876   0.707   0.013  0.00  0.00    -0.270 N 
ATOM      6  C   UNL d   1      -0.412   1.183  -0.008  0.00  0.00     0.159 A 
ATOM      7  C   UNL d   1      -1.209   0.067   0.003  0.00  0.00     0.089 A 
ATOM      8  C   UNL d   1      -0.338  -1.054   0.035  0.00  0.00     0.062 A 
ATOM      9  N   UNL d   1       0.944  -0.640   0.054  0.00  0.00    -0.296 N 
ATOM     10  HN  UNL d   1       1.783  -1.219   0.092  1.00  0.00     0.187 HD
BRANCH   6  11
ATOM     11  O   UNL d   1      -0.780   2.459  -0.039  0.00  0.00    -0.345 OA
ATOM     12  H   UNL d   1      -0.019   3.056   0.018  0.00  0.00     0.219 HD
ENDBRANCH   6  11
BRANCH   8  13
ATOM     13  C   UNL d   1      -0.712  -2.474   0.018  0.00  0.00    -0.008 A 
ATOM     14  C   UNL d   1      -2.060  -2.864  -0.054  0.00  0.00     0.014 A 
ATOM     15  C   UNL d   1      -2.416  -4.214  -0.120  0.00  0.00     0.001 A 
ATOM     16  C   UNL d   1      -1.428  -5.195  -0.118  0.00  0.00     0.000 A 
ATOM     17  C   UNL d   1      -0.087  -4.827  -0.035  0.00  0.00     0.001 A 
ATOM     18  C   UNL d   1       0.269  -3.477   0.041  0.00  0.00     0.014 A 
ENDBRANCH   8  13
ENDBRANCH   4   5
ENDBRANCH   3   4
TORSDOF 4
