REMARK  5 active torsions:
REMARK  status: ('A' for Active; 'I' for Inactive)
REMARK    1  A    between atoms: C_6  and  C_1 
REMARK    2  A    between atoms: C_9  and  C_3 
REMARK    3  A    between atoms: S_13  and  C_5 
REMARK       I    between atoms: N_10  and  C_6 
REMARK    4  A    between atoms: C_20  and  N_10 
REMARK    5  A    between atoms: C_12  and  C_20 
ROOT
ATOM      1  C   UNL d   1       1.183  -1.293  -0.112  0.00  0.00     0.086 A 
ATOM      2  C   UNL d   1      -0.714   0.087  -0.005  0.00  0.00     0.081 A 
ATOM      3  C   UNL d   1      -0.207  -1.274   0.027  0.00  0.00     0.019 A 
ATOM      4  S   UNL d   1       1.814   0.295  -0.299  0.00  0.00    -0.075 SA
ATOM      5  C   UNL d   1       0.284   1.030  -0.140  0.00  0.00     0.063 A 
ATOM      6  C   UNL d   1      -2.100   0.443   0.110  0.00  0.00     0.102 C 
ATOM      7  N   UNL d   1      -3.223   0.731   0.201  0.00  0.00    -0.191 NA
ENDROOT
BRANCH   3   8
ATOM      8  C   UNL d   1      -1.042  -2.483   0.170  0.00  0.00    -0.023 A 
ATOM      9  C   UNL d   1      -0.888  -3.586  -0.683  0.00  0.00     0.014 A 
ATOM     10  C   UNL d   1      -1.758  -4.681  -0.604  0.00  0.00     0.024 A 
ATOM     11  C   UNL d   1      -2.813  -4.669   0.305  0.00  0.00     0.034 A 
ATOM     12  C   UNL d   1      -2.981  -3.589   1.164  0.00  0.00     0.024 A 
ATOM     13 CL   UNL d   1      -3.919  -5.985   0.357  0.00  0.00    -0.084 Cl
ATOM     14  C   UNL d   1      -2.086  -2.514   1.112  0.00  0.00     0.014 A 
ENDBRANCH   3   8
BRANCH   5  15
ATOM     15  S   UNL d   1       0.161   2.790  -0.099  0.00  0.00    -0.126 SA
ATOM     16  C   UNL d   1      -0.913   3.133  -1.511  0.00  0.00     0.096 C 
ENDBRANCH   5  15
BRANCH   1  17
ATOM     17  C   UNL d   1       2.120  -2.418  -0.053  0.00  0.00     0.259 C 
ATOM     18  N   UNL d   1       3.340  -2.247  -0.687  0.00  0.00    -0.352 N 
ATOM     19  H   UNL d   1       3.586  -1.345  -1.072  0.00  0.00     0.163 HD
ATOM     20  O   UNL d   1       1.863  -3.475   0.519  0.00  0.00    -0.267 OA
BRANCH  18  21
ATOM     21  C   UNL d   1       4.342  -3.284  -0.603  0.00  0.00     0.169 C 
BRANCH  21  22
ATOM     22  C   UNL d   1       5.503  -3.037  -1.518  0.00  0.00     0.000 A 
ATOM     23  S   UNL d   1       5.281  -2.849  -3.209  0.00  0.00    -0.105 SA
ATOM     24  C   UNL d   1       6.968  -2.814  -3.497  0.00  0.00     0.050 A 
ATOM     25  C   UNL d   1       7.692  -2.921  -2.332  0.00  0.00     0.008 A 
ATOM     26  C   UNL d   1       6.846  -3.032  -1.190  0.00  0.00     0.017 A 
ENDBRANCH  21  22
ENDBRANCH  18  21
ENDBRANCH   1  17
TORSDOF 5
