REMARK  6 active torsions:
REMARK  status: ('A' for Active; 'I' for Inactive)
REMARK    1  A    between atoms: C_22  and  N_2 
REMARK    2  A    between atoms: C_16  and  C_9 
REMARK    3  A    between atoms: C_23  and  C_10 
REMARK    4  A    between atoms: C_14  and  C_17 
REMARK    5  A    between atoms: C_15  and  C_18 
REMARK    6  A    between atoms: C_30  and  C_22 
ROOT
ATOM      1  C   UNL d   1      -0.561  -1.199   0.055  0.00  0.00     0.106 A 
ATOM      2  N   UNL d   1       0.741  -0.775   0.118  0.00  0.00    -0.284 N 
ATOM      3  C   UNL d   1      -1.043  -2.537  -0.013  0.00  0.00     0.200 A 
ATOM      4  N   UNL d   1      -2.224  -2.820  -0.515  0.00  0.00    -0.317 N 
ATOM      5  HN  UNL d   1      -2.907  -2.180  -0.920  1.00  0.00     0.169 HD
ATOM      6  N   UNL d   1       0.847   0.575   0.210  0.00  0.00    -0.301 N 
ATOM      7  HN  UNL d   1       1.696   1.125   0.342  1.00  0.00     0.187 HD
ATOM      8  C   UNL d   1      -1.320  -0.049   0.016  0.00  0.00     0.063 A 
ATOM      9  C   UNL d   1      -2.322  -4.181  -0.365  0.00  0.00     0.138 A 
ATOM     10  C   UNL d   1      -0.408   1.026   0.088  0.00  0.00     0.036 A 
ATOM     11  N   UNL d   1      -1.262  -4.736   0.242  0.00  0.00    -0.242 N 
ATOM     12  HN  UNL d   1      -1.113  -5.716   0.481  1.00  0.00     0.196 HD
ATOM     13  O   UNL d   1      -0.409  -3.650   0.470  0.00  0.00    -0.215 OA
ENDROOT
BRANCH   2  14
ATOM     14  C   UNL d   1       1.974  -1.556   0.053  0.00  0.00     0.187 C 
BRANCH  14  15
ATOM     15  C   UNL d   1       2.432  -1.782  -1.370  0.00  0.00    -0.038 A 
ATOM     16  C   UNL d   1       2.730  -0.696  -2.212  0.00  0.00     0.009 A 
ATOM     17  C   UNL d   1       3.154  -0.905  -3.526  0.00  0.00     0.001 A 
ATOM     18  C   UNL d   1       3.301  -2.202  -4.013  0.00  0.00     0.000 A 
ATOM     19  C   UNL d   1       3.034  -3.288  -3.182  0.00  0.00     0.001 A 
ATOM     20  C   UNL d   1       2.605  -3.081  -1.868  0.00  0.00     0.009 A 
ENDBRANCH  14  15
ENDBRANCH   2  14
BRANCH   9  21
ATOM     21  C   UNL d   1      -3.477  -4.914  -0.879  0.00  0.00     0.011 A 
ATOM     22  C   UNL d   1      -4.434  -4.241  -1.658  0.00  0.00     0.031 A 
ATOM     23  C   UNL d   1      -5.531  -4.915  -2.218  0.00  0.00     0.049 A 
ATOM     24  C   UNL d   1      -5.673  -6.288  -1.975  0.00  0.00     0.032 A 
ATOM     25  C   UNL d   1      -4.738  -6.985  -1.191  0.00  0.00     0.049 A 
ATOM     26  C   UNL d   1      -3.644  -6.286  -0.646  0.00  0.00     0.031 A 
BRANCH  23  27
ATOM     27  C   UNL d   1      -6.514  -4.159  -3.082  0.00  0.00     0.417 C 
ATOM     28  F   UNL d   1      -7.509  -4.944  -3.582  0.00  0.00    -0.166 F 
ATOM     29  F   UNL d   1      -7.133  -3.152  -2.408  0.00  0.00    -0.166 F 
ATOM     30  F   UNL d   1      -5.918  -3.581  -4.160  0.00  0.00    -0.166 F 
ENDBRANCH  23  27
BRANCH  25  31
ATOM     31  C   UNL d   1      -4.883  -8.468  -0.946  0.00  0.00     0.417 C 
ATOM     32  F   UNL d   1      -5.977  -9.014  -1.542  0.00  0.00    -0.166 F 
ATOM     33  F   UNL d   1      -3.814  -9.175  -1.405  0.00  0.00    -0.166 F 
ATOM     34  F   UNL d   1      -4.990  -8.767   0.379  0.00  0.00    -0.166 F 
ENDBRANCH  25  31
ENDBRANCH   9  21
BRANCH  10  35
ATOM     35  C   UNL d   1      -0.735   2.507   0.043  0.00  0.00    -0.007 C 
ATOM     36  C   UNL d   1      -1.573   2.894   1.277  0.00  0.00     0.021 C 
ATOM     37  C   UNL d   1       0.534   3.384   0.023  0.00  0.00     0.021 C 
ATOM     38  C   UNL d   1      -1.548   2.825  -1.231  0.00  0.00     0.021 C 
ENDBRANCH  10  35
TORSDOF 6
