REMARK  3 active torsions:
REMARK  status: ('A' for Active; 'I' for Inactive)
REMARK    1  A    between atoms: N_2  and  S_1 
REMARK    2  A    between atoms: C_6  and  S_1 
REMARK    3  A    between atoms: C_3  and  N_2 
ROOT
ATOM      1  N   UNL d   1       0.653  -0.728   1.608  0.00  0.00    -0.165 NA
ATOM      2  H   UNL d   1      -0.312  -0.425   1.738  0.00  0.00     0.147 HD
ENDROOT
BRANCH   1   3
ATOM      3  S   UNL d   1       1.148  -0.156   0.102  0.00  0.00     0.247 S 
ATOM      4  O   UNL d   1       0.009   0.585  -0.404  0.00  0.00    -0.205 OA
ATOM      5  O   UNL d   1       1.783  -1.189  -0.685  0.00  0.00    -0.205 OA
BRANCH   3   6
ATOM      6  C   UNL d   1       2.390   1.032   0.558  0.00  0.00     0.075 A 
ATOM      7  C   UNL d   1       3.553   0.594   1.196  0.00  0.00     0.026 A 
ATOM      8  C   UNL d   1       4.523   1.524   1.577  0.00  0.00     0.025 A 
ATOM      9  C   UNL d   1       4.326   2.880   1.313  0.00  0.00     0.034 A 
ATOM     10  C   UNL d   1       3.169   3.317   0.667  0.00  0.00     0.025 A 
ATOM     11 CL   UNL d   1       5.517   4.025   1.795  0.00  0.00    -0.084 Cl
ATOM     12  C   UNL d   1       2.194   2.391   0.285  0.00  0.00     0.026 A 
ENDBRANCH   3   6
ENDBRANCH   1   3
BRANCH   1  13
ATOM     13  C   UNL d   1       0.808  -2.124   1.802  0.00  0.00     0.111 A 
ATOM     14  N   UNL d   1       2.028  -2.482   2.252  0.00  0.00    -0.354 N 
ATOM     15  C   UNL d   1       2.207  -3.796   2.523  0.00  0.00     0.096 A 
ATOM     16  HN  UNL d   1       2.775  -1.800   2.380  1.00  0.00     0.166 HD
ATOM     17  C   UNL d   1       1.225  -4.774   2.372  0.00  0.00    -0.045 A 
ATOM     18  C   UNL d   1      -0.013  -4.372   1.863  0.00  0.00     0.030 A 
ATOM     19  C   UNL d   1       1.486  -6.193   2.766  0.00  0.00     0.049 C 
ATOM     20  C   UNL d   1      -0.227  -3.028   1.565  0.00  0.00     0.050 A 
ATOM     21 BR   UNL d   1      -1.920  -2.483   0.919  0.00  0.00    -0.048 Br
ENDBRANCH   1  13
TORSDOF 3
