REMARK  3 active torsions:
REMARK  status: ('A' for Active; 'I' for Inactive)
REMARK    1  A    between atoms: C_6  and  N_1 
REMARK    2  A    between atoms: N_11  and  C_6 
REMARK    3  A    between atoms: C_14  and  N_11 
ROOT
ATOM      1  N   UNL d   1       2.410  -0.646   0.036  0.00  0.00    -0.244 N 
ATOM      2  C   UNL d   1       2.039  -0.361   1.346  0.00  0.00     0.274 A 
ATOM      3  N   UNL d   1       1.621  -0.383  -1.070  0.00  0.00    -0.305 N 
ATOM      4  HN  UNL d   1       1.960  -0.576  -2.012  1.00  0.00     0.186 HD
ATOM      5  C   UNL d   1       0.680   0.173   1.543  0.00  0.00     0.045 A 
ATOM      6  C   UNL d   1       0.441   0.113  -0.879  0.00  0.00     0.119 A 
ATOM      7  C   UNL d   1      -0.124   0.390   0.434  0.00  0.00    -0.004 A 
ATOM      8  O   UNL d   1       2.759  -0.548   2.326  0.00  0.00    -0.266 OA
ATOM      9  C   UNL d   1       0.176   0.422   2.823  0.00  0.00     0.018 A 
ATOM     10  C   UNL d   1      -1.438   0.840   0.572  0.00  0.00     0.014 A 
ATOM     11  C   UNL d   1      -1.138   0.870   2.975  0.00  0.00     0.001 A 
ATOM     12  C   UNL d   1      -1.945   1.073   1.852  0.00  0.00     0.001 A 
ENDROOT
BRANCH   1  13
ATOM     13  C   UNL d   1       3.677  -1.318  -0.211  0.00  0.00     0.246 C 
BRANCH  13  14
ATOM     14  N   UNL d   1       4.723  -0.316  -0.354  0.00  0.00    -0.274 NA
ATOM     15  H   UNL d   1       4.666   0.347   0.413  0.00  0.00     0.129 HD
BRANCH  14  16
ATOM     16  C   UNL d   1       6.032  -0.764  -0.571  0.00  0.00     0.010 A 
ATOM     17  C   UNL d   1       6.334  -1.930  -1.291  0.00  0.00     0.031 A 
ATOM     18  C   UNL d   1       7.658  -2.307  -1.593  0.00  0.00    -0.043 A 
ATOM     19  C   UNL d   1       7.891  -3.559  -2.390  0.00  0.00     0.049 C 
ATOM     20  C   UNL d   1       8.700  -1.471  -1.177  0.00  0.00     0.017 A 
ATOM     21  C   UNL d   1       8.422  -0.292  -0.483  0.00  0.00     0.021 A 
ATOM     22 BR   UNL d   1      10.518  -1.862  -1.559  0.00  0.00    -0.051 Br
ATOM     23  C   UNL d   1       7.099   0.062  -0.201  0.00  0.00     0.025 A 
ENDBRANCH  14  16
ENDBRANCH  13  14
ENDBRANCH   1  13
TORSDOF 3
