REMARK  3 active torsions:
REMARK  status: ('A' for Active; 'I' for Inactive)
REMARK    1  A    between atoms: C_3  and  C_1 
REMARK    2  A    between atoms: C_6  and  C_2 
REMARK    3  A    between atoms: C_14  and  C_10 
ROOT
ATOM      1  C   UNL d   1      -0.010  -1.295  -0.059  0.00  0.00     0.076 A 
ATOM      2  C   UNL d   1      -1.349  -0.811  -0.011  0.00  0.00     0.086 A 
ATOM      3  N   UNL d   1      -1.337   0.519   0.190  0.00  0.00    -0.259 N 
ATOM      4  HN  UNL d   1      -2.151   1.129   0.278  1.00  0.00     0.195 HD
ATOM      5  O   UNL d   1      -0.014   0.900   0.255  0.00  0.00    -0.241 OA
ATOM      6  C   UNL d   1       0.784  -0.191   0.124  0.00  0.00     0.089 A 
ATOM      7  C   UNL d   1       2.238   0.050   0.157  0.00  0.00     0.080 C 
ENDROOT
BRANCH   1   8
ATOM      8  C   UNL d   1       0.477  -2.683  -0.217  0.00  0.00     0.163 A 
ATOM      9  N   UNL d   1      -0.224  -3.641  -0.798  0.00  0.00    -0.343 N 
ATOM     10  C   UNL d   1       0.508  -4.780  -0.585  0.00  0.00     0.128 A 
ATOM     11  HN  UNL d   1      -1.111  -3.552  -1.295  1.00  0.00     0.167 HD
ATOM     12  C   UNL d   1       1.637  -4.494   0.151  0.00  0.00     0.103 A 
ATOM     13  O   UNL d   1       1.669  -3.131   0.310  0.00  0.00    -0.291 OA
BRANCH  12  14
ATOM     14  C   UNL d   1       2.673  -5.282   0.803  0.00  0.00    -0.001 A 
ATOM     15  C   UNL d   1       3.636  -4.684   1.631  0.00  0.00     0.015 A 
ATOM     16  C   UNL d   1       4.574  -5.463   2.319  0.00  0.00     0.020 A 
ATOM     17  C   UNL d   1       4.558  -6.848   2.183  0.00  0.00     0.011 A 
ATOM     18  C   UNL d   1       3.617  -7.461   1.361  0.00  0.00     0.020 A 
ATOM     19 BR   UNL d   1       5.808  -7.904   3.129  0.00  0.00    -0.051 Br
ATOM     20  C   UNL d   1       2.681  -6.680   0.676  0.00  0.00     0.015 A 
ENDBRANCH  12  14
ENDBRANCH   1   8
BRANCH   2  21
ATOM     21  C   UNL d   1      -2.610  -1.556  -0.034  0.00  0.00     0.054 A 
ATOM     22  C   UNL d   1      -3.728  -1.165  -0.790  0.00  0.00     0.049 A 
ATOM     23 CL   UNL d   1      -3.743   0.234  -1.810  0.00  0.00    -0.083 Cl
ATOM     24  C   UNL d   1      -4.908  -1.929  -0.770  0.00  0.00     0.025 A 
ATOM     25  C   UNL d   1      -4.987  -3.099  -0.015  0.00  0.00     0.005 A 
ATOM     26  C   UNL d   1      -3.896  -3.490   0.749  0.00  0.00     0.043 A 
ATOM     27  C   UNL d   1      -2.739  -2.712   0.754  0.00  0.00     0.130 A 
ATOM     28  F   UNL d   1      -1.745  -3.097   1.572  0.00  0.00    -0.205 F 
ENDBRANCH   2  21
TORSDOF 3
