REMARK  7 active torsions:
REMARK  status: ('A' for Active; 'I' for Inactive)
REMARK    1  A    between atoms: C_4  and  C_1 
REMARK    2  A    between atoms: C_2  and  C_5 
REMARK       I    between atoms: N_3  and  C_2 
REMARK    3  A    between atoms: C_14  and  N_3 
REMARK    4  A    between atoms: C_5  and  O_6 
REMARK    5  A    between atoms: O_6  and  C_15 
REMARK    6  A    between atoms: O_11  and  C_16 
REMARK    7  A    between atoms: C_17  and  O_11 
ROOT
ATOM      1  C   UNL d   1      -4.955   6.128  -0.461  0.00  0.00     0.070 A 
ATOM      2  C   UNL d   1      -2.211   5.570  -0.474  0.00  0.00     0.076 A 
ATOM      3  C   UNL d   1      -4.192   6.374  -1.604  0.00  0.00     0.039 A 
ATOM      4  C   UNL d   1      -4.343   5.548   0.655  0.00  0.00     0.039 A 
ATOM      5  C   UNL d   1      -2.833   6.069  -1.621  0.00  0.00     0.040 A 
ATOM      6  C   UNL d   1      -2.974   5.264   0.650  0.00  0.00     0.040 A 
ENDROOT
BRANCH   1   7
ATOM      7  O   UNL d   1      -6.295   6.396  -0.323  0.00  0.00    -0.337 OA
BRANCH   7   8
ATOM      8  C   UNL d   1      -6.974   6.896  -1.476  0.00  0.00     0.217 C 
ATOM      9  C   UNL d   1      -8.346   7.395  -1.040  0.00  0.00     0.050 C 
BRANCH   8  10
ATOM     10  C   UNL d   1      -7.136   5.816  -2.562  0.00  0.00     0.251 C 
ATOM     11  N   UNL d   1      -7.354   4.551  -2.036  0.00  0.00    -0.325 N 
ATOM     12  H   UNL d   1      -7.476   4.506  -1.033  0.00  0.00     0.169 HD
ATOM     13  O   UNL d   1      -7.092   6.112  -3.753  0.00  0.00    -0.270 OA
BRANCH  11  14
ATOM     14  C   UNL d   1      -7.380   3.332  -2.739  0.00  0.00     0.034 A 
ATOM     15  C   UNL d   1      -6.964   3.203  -4.066  0.00  0.00     0.031 A 
ATOM     16  C   UNL d   1      -7.024   1.963  -4.711  0.00  0.00     0.026 A 
ATOM     17  C   UNL d   1      -7.505   0.850  -4.029  0.00  0.00     0.034 A 
ATOM     18  C   UNL d   1      -7.897   0.959  -2.698  0.00  0.00     0.026 A 
ATOM     19 CL   UNL d   1      -7.619  -0.664  -4.836  0.00  0.00    -0.084 Cl
ATOM     20  C   UNL d   1      -7.820   2.196  -2.049  0.00  0.00     0.031 A 
ENDBRANCH  11  14
ENDBRANCH   8  10
ENDBRANCH   7   8
ENDBRANCH   1   7
BRANCH   2  21
ATOM     21  O   UNL d   1      -0.849   5.369  -0.399  0.00  0.00    -0.311 OA
BRANCH  21  22
ATOM     22  C   UNL d   1      -0.051   6.323  -0.997  0.00  0.00     0.076 A 
ATOM     23  C   UNL d   1      -0.296   7.695  -0.874  0.00  0.00     0.038 A 
ATOM     24  C   UNL d   1       0.479   8.609  -1.586  0.00  0.00     0.019 A 
ATOM     25  C   UNL d   1       1.540   8.165  -2.391  0.00  0.00     0.048 A 
ATOM     26  C   UNL d   1       1.821   6.790  -2.450  0.00  0.00     0.019 A 
ATOM     27  C   UNL d   1       1.030   5.872  -1.751  0.00  0.00     0.038 A 
BRANCH  25  28
ATOM     28  C   UNL d   1       2.338   9.165  -3.194  0.00  0.00     0.417 C 
ATOM     29  F   UNL d   1       3.419   8.626  -3.817  0.00  0.00    -0.166 F 
ATOM     30  F   UNL d   1       2.816  10.185  -2.427  0.00  0.00    -0.166 F 
ATOM     31  F   UNL d   1       1.594   9.751  -4.171  0.00  0.00    -0.166 F 
ENDBRANCH  25  28
ENDBRANCH  21  22
ENDBRANCH   2  21
TORSDOF 7
