REMARK  6 active torsions:
REMARK  status: ('A' for Active; 'I' for Inactive)
REMARK    1  A    between atoms: C_8  and  N_1 
REMARK    2  A    between atoms: C_12  and  C_2 
REMARK    3  A    between atoms: S_17  and  C_5 
REMARK    4  A    between atoms: C_9  and  C_10 
REMARK    5  A    between atoms: C_15  and  C_16 
REMARK    6  A    between atoms: C_26  and  S_17 
ROOT
ATOM      1  C   UNL d   1      -5.053   1.253  -1.051  0.00  0.00    -0.107 C 
ATOM      2  C   UNL d   1      -6.247   1.343  -1.140  0.00  0.00     0.013 C 
ATOM      3  C   UNL d   1      -3.583   1.166  -0.947  0.00  0.00     0.175 C 
ENDROOT
BRANCH   3   4
ATOM      4  S   UNL d   1      -3.067  -0.375  -0.125  0.00  0.00    -0.080 SA
BRANCH   4   5
ATOM      5  C   UNL d   1      -1.333  -0.229  -0.179  0.00  0.00     0.168 A 
ATOM      6  N   UNL d   1      -0.420  -1.273  -0.058  0.00  0.00    -0.275 N 
ATOM      7  C   UNL d   1       0.831  -0.629  -0.063  0.00  0.00     0.139 A 
ATOM      8  N   UNL d   1       0.631   0.679  -0.069  0.00  0.00    -0.282 N 
ATOM      9  N   UNL d   1      -0.710   0.925  -0.168  0.00  0.00    -0.278 N 
ATOM     10  HN  UNL d   1       1.360   1.389  -0.009  1.00  0.00     0.188 HD
ATOM     11  HN  UNL d   1      -1.148   1.844  -0.222  1.00  0.00     0.189 HD
BRANCH   6  12
ATOM     12  C   UNL d   1      -0.667  -2.679   0.032  0.00  0.00     0.044 A 
ATOM     13  C   UNL d   1       0.163  -3.491   0.825  0.00  0.00     0.046 A 
ATOM     14  C   UNL d   1       0.029  -4.891   0.812  0.00  0.00     0.050 A 
ATOM     15  C   UNL d   1      -0.996  -5.466   0.051  0.00  0.00     0.016 A 
ATOM     16  C   UNL d   1      -1.853  -4.664  -0.700  0.00  0.00     0.003 A 
ATOM     17  C   UNL d   1      -1.683  -3.279  -0.721  0.00  0.00     0.030 A 
BRANCH  14  18
ATOM     18  C   UNL d   1       0.990  -5.777   1.571  0.00  0.00     0.417 C 
ATOM     19  F   UNL d   1       1.989  -5.094   2.193  0.00  0.00    -0.166 F 
ATOM     20  F   UNL d   1       0.373  -6.508   2.538  0.00  0.00    -0.166 F 
ATOM     21  F   UNL d   1       1.608  -6.678   0.756  0.00  0.00    -0.166 F 
ENDBRANCH  14  18
ENDBRANCH   6  12
BRANCH   7  22
ATOM     22  C   UNL d   1       2.173  -1.242  -0.125  0.00  0.00     0.010 A 
ATOM     23  C   UNL d   1       2.459  -2.356  -0.922  0.00  0.00     0.016 A 
ATOM     24  C   UNL d   1       3.729  -2.953  -0.906  0.00  0.00     0.009 A 
ATOM     25  C   UNL d   1       4.783  -2.430  -0.137  0.00  0.00    -0.051 A 
ATOM     26  C   UNL d   1       4.507  -1.270   0.604  0.00  0.00     0.009 A 
ATOM     27  C   UNL d   1       3.227  -0.688   0.611  0.00  0.00     0.016 A 
BRANCH  25  28
ATOM     28  C   UNL d   1       6.159  -3.125  -0.129  0.00  0.00    -0.024 C 
ATOM     29  C   UNL d   1       7.229  -2.386   0.706  0.00  0.00     0.019 C 
ATOM     30  C   UNL d   1       6.019  -4.545   0.465  0.00  0.00     0.019 C 
ATOM     31  C   UNL d   1       6.711  -3.241  -1.567  0.00  0.00     0.019 C 
ENDBRANCH  25  28
ENDBRANCH   7  22
ENDBRANCH   4   5
ENDBRANCH   3   4
TORSDOF 6
