REMARK  8 active torsions:
REMARK  status: ('A' for Active; 'I' for Inactive)
REMARK    1  A    between atoms: N_4  and  S_1 
REMARK    2  A    between atoms: C_8  and  S_1 
REMARK    3  A    between atoms: C_6  and  C_2 
REMARK    4  A    between atoms: C_3  and  N_4 
REMARK    5  A    between atoms: O_20  and  C_6 
REMARK    6  A    between atoms: O_21  and  C_9 
REMARK    7  A    between atoms: O_22  and  C_10 
REMARK       I    between atoms: C_13  and  N_14 
REMARK    8  A    between atoms: N_14  and  C_19 
ROOT
ATOM      1  N   UNL d   1       0.644  -0.271  -1.758  0.00  0.00    -0.180 NA
ATOM      2  H   UNL d   1      -0.285  -0.692  -1.813  0.00  0.00     0.146 HD
ENDROOT
BRANCH   1   3
ATOM      3  C   UNL d   1       0.803   0.779  -2.745  0.00  0.00     0.042 A 
ATOM      4  C   UNL d   1       2.036   1.069  -3.345  0.00  0.00     0.062 A 
ATOM      5  C   UNL d   1       2.106   2.050  -4.343  0.00  0.00     0.059 A 
ATOM      6  C   UNL d   1       0.980   2.786  -4.718  0.00  0.00     0.102 A 
ATOM      7  C   UNL d   1      -0.249   2.551  -4.081  0.00  0.00     0.103 A 
ATOM      8  C   UNL d   1      -0.321   1.557  -3.086  0.00  0.00     0.065 A 
BRANCH   4   9
ATOM      9  C   UNL d   1       3.274   0.327  -3.025  0.00  0.00     0.178 C 
ATOM     10  O   UNL d   1       3.377  -0.848  -2.735  0.00  0.00    -0.646 OA
BRANCH   9  11
ATOM     11  O   UNL d   1       4.356   1.127  -3.095  0.00  0.00    -0.773 OA
ATOM     12  H   UNL d   1       5.102   0.556  -2.819  0.00  0.00     0.167 HD
ENDBRANCH   9  11
ENDBRANCH   4   9
BRANCH   6  13
ATOM     13  O   UNL d   1       1.230   3.634  -5.765  0.00  0.00    -0.353 OA
ATOM     14  C   UNL d   1       0.496   4.849  -5.812  0.00  0.00     0.210 C 
ENDBRANCH   6  13
BRANCH   7  15
ATOM     15  O   UNL d   1      -1.323   3.284  -4.508  0.00  0.00    -0.353 OA
ATOM     16  C   UNL d   1      -2.578   3.095  -3.871  0.00  0.00     0.210 C 
ENDBRANCH   7  15
ENDBRANCH   1   3
BRANCH   1  17
ATOM     17  S   UNL d   1       0.861   0.223  -0.140  0.00  0.00     0.245 S 
ATOM     18  O   UNL d   1      -0.455   0.629   0.309  0.00  0.00    -0.206 OA
ATOM     19  O   UNL d   1       2.008   1.102  -0.052  0.00  0.00    -0.206 OA
BRANCH  17  20
ATOM     20  C   UNL d   1       1.285  -1.290   0.701  0.00  0.00     0.075 A 
ATOM     21  C   UNL d   1       2.321  -2.087   0.216  0.00  0.00     0.027 A 
ATOM     22  C   UNL d   1       2.724  -3.222   0.928  0.00  0.00     0.031 A 
ATOM     23  C   UNL d   1       2.105  -3.570   2.136  0.00  0.00     0.034 A 
ATOM     24  C   UNL d   1       1.041  -2.788   2.593  0.00  0.00     0.031 A 
ATOM     25  C   UNL d   1       0.628  -1.650   1.880  0.00  0.00     0.027 A 
BRANCH  23  26
ATOM     26  N   UNL d   1       2.636  -4.681   2.828  0.00  0.00    -0.328 N 
ATOM     27  C   UNL d   1       2.244  -5.177   4.058  0.00  0.00     0.218 C 
ATOM     28  O   UNL d   1       1.302  -4.784   4.739  0.00  0.00    -0.274 OA
ATOM     29  C   UNL d   1       3.121  -6.303   4.551  0.00  0.00     0.117 C 
ATOM     30  H   UNL d   1       3.427  -5.133   2.387  0.00  0.00     0.169 HD
ENDBRANCH  23  26
ENDBRANCH  17  20
ENDBRANCH   1  17
TORSDOF 8
