REMARK  1 active torsions:
REMARK  status: ('A' for Active; 'I' for Inactive)
REMARK    1  A    between atoms: O_12  and  N_9 
ROOT
ATOM      1  C   UNL d   1      -2.485   0.735  -0.359  0.00  0.00     0.014 A 
ATOM      2  N   UNL d   1      -3.386  -1.134  -1.558  0.00  0.00    -0.304 N 
ATOM      3  HN  UNL d   1      -3.239  -1.974  -2.118  1.00  0.00     0.186 HD
ATOM      4  N   UNL d   1      -4.652  -0.742  -1.238  0.00  0.00    -0.305 N 
ATOM      5  HN  UNL d   1      -5.453  -1.273  -1.581  1.00  0.00     0.186 HD
ATOM      6  C   UNL d   1      -1.272   1.488   0.080  0.00  0.00     0.044 C 
ATOM      7  C   UNL d   1      -2.323  -0.411  -1.135  0.00  0.00     0.038 A 
ATOM      8  C   UNL d   1      -3.778   1.098   0.002  0.00  0.00     0.041 A 
ATOM      9  N   UNL d   1      -1.171   2.723   0.480  0.00  0.00    -0.273 N 
ATOM     10  HN  UNL d   1      -0.297   3.120   0.827  1.00  0.00     0.194 HD
ATOM     11  C   UNL d   1      -4.844   0.348  -0.469  0.00  0.00     0.022 A 
ATOM     12  C   UNL d   1       0.037   0.715   0.027  0.00  0.00     0.060 C 
ATOM     13  C   UNL d   1       0.149   0.035  -1.328  0.00  0.00     0.012 C 
ATOM     14  C   UNL d   1      -0.976  -0.976  -1.490  0.00  0.00     0.060 C 
ATOM     15  C   UNL d   1      -6.253   0.738  -0.150  0.00  0.00     0.070 C 
ENDROOT
BRANCH   9  16
ATOM     16  O   UNL d   1      -2.349   3.459   0.397  0.00  0.00    -0.290 OA
ATOM     17  H   UNL d   1      -2.068   4.338   0.714  0.00  0.00     0.244 HD
ENDBRANCH   9  16
TORSDOF 1
