REMARK  5 active torsions:
REMARK  status: ('A' for Active; 'I' for Inactive)
REMARK    1  A    between atoms: C_7  and  C_1 
REMARK    2  A    between atoms: C_8  and  C_2 
REMARK    3  A    between atoms: N_6  and  C_3 
REMARK       I    between atoms: N_10  and  C_7 
REMARK    4  A    between atoms: C_9  and  N_14 
REMARK    5  A    between atoms: C_11  and  C_16 
ROOT
ATOM      1  C   UNL d   1       0.476  -2.802  -0.001  0.00  0.00     0.258 C 
ATOM      2  N   UNL d   1      -0.674  -3.622   0.016  0.00  0.00    -0.345 N 
ATOM      3  N   UNL d   1      -2.911  -5.448  -0.027  0.00  0.00    -0.376 N 
ATOM      4  O   UNL d   1       1.308  -2.847   0.906  0.00  0.00    -0.267 OA
ATOM      5  C   UNL d   1      -1.621  -3.701  -1.101  0.00  0.00     0.146 C 
ATOM      6  C   UNL d   1      -0.712  -4.783   0.928  0.00  0.00     0.146 C 
ATOM      7  C   UNL d   1      -3.027  -4.162  -0.732  0.00  0.00     0.143 C 
ATOM      8  C   UNL d   1      -2.150  -5.301   1.236  0.00  0.00     0.143 C 
ENDROOT
BRANCH   1   9
ATOM      9  C   UNL d   1       0.636  -1.849  -1.099  0.00  0.00     0.092 C 
ATOM     10  C   UNL d   1       0.979  -0.441  -1.089  0.00  0.00     0.086 C 
ATOM     11  N   UNL d   1       0.836   0.051  -2.331  0.00  0.00    -0.259 N 
ATOM     12  O   UNL d   1       0.676  -1.009  -3.173  0.00  0.00    -0.241 OA
ATOM     13  HN  UNL d   1       0.845   1.036  -2.596  1.00  0.00     0.195 HD
ATOM     14  C   UNL d   1       0.607  -2.151  -2.458  0.00  0.00     0.090 C 
ATOM     15  C   UNL d   1       0.487  -3.373  -3.284  0.00  0.00     0.080 C 
BRANCH  10  16
ATOM     16  C   UNL d   1       1.423   0.486  -0.025  0.00  0.00     0.037 A 
ATOM     17  C   UNL d   1       2.475   1.410  -0.262  0.00  0.00     0.048 A 
ATOM     18 CL   UNL d   1       3.308   1.580  -1.783  0.00  0.00    -0.083 Cl
ATOM     19  C   UNL d   1       2.936   2.286   0.738  0.00  0.00     0.025 A 
ATOM     20  C   UNL d   1       2.396   2.235   2.019  0.00  0.00     0.003 A 
ATOM     21  C   UNL d   1       1.356   1.368   2.265  0.00  0.00     0.025 A 
ATOM     22  C   UNL d   1       0.837   0.527   1.259  0.00  0.00     0.048 A 
ATOM     23 CL   UNL d   1      -0.614  -0.324   1.668  0.00  0.00    -0.083 Cl
ENDBRANCH  10  16
ENDBRANCH   1   9
BRANCH   3  24
ATOM     24  C   UNL d   1      -4.024  -6.276  -0.140  0.00  0.00     0.063 A 
ATOM     25  C   UNL d   1      -4.393  -6.898  -1.357  0.00  0.00     0.130 A 
ATOM     26  C   UNL d   1      -5.542  -7.693  -1.494  0.00  0.00     0.054 A 
ATOM     27  C   UNL d   1      -6.376  -7.900  -0.392  0.00  0.00     0.050 A 
ATOM     28  C   UNL d   1      -6.033  -7.297   0.827  0.00  0.00     0.018 A 
ATOM     29  C   UNL d   1      -4.877  -6.507   0.947  0.00  0.00     0.032 A 
BRANCH  25  30
ATOM     30  N   UNL d   1      -3.567  -6.763  -2.545  0.00  0.00    -0.113 N 
ATOM     31  O   UNL d   1      -2.389  -7.138  -2.499  0.00  0.00    -0.532 OA
ATOM     32  O   UNL d   1      -4.116  -6.296  -3.552  0.00  0.00    -0.532 OA
ENDBRANCH  25  30
BRANCH  27  33
ATOM     33  C   UNL d   1      -7.613  -8.760  -0.505  0.00  0.00     0.417 C 
ATOM     34  F   UNL d   1      -7.811  -9.257  -1.758  0.00  0.00    -0.166 F 
ATOM     35  F   UNL d   1      -7.570  -9.839   0.323  0.00  0.00    -0.166 F 
ATOM     36  F   UNL d   1      -8.750  -8.083  -0.187  0.00  0.00    -0.166 F 
ENDBRANCH  27  33
ENDBRANCH   3  24
TORSDOF 5
