REMARK  8 active torsions:
REMARK  status: ('A' for Active; 'I' for Inactive)
REMARK    1  A    between atoms: N_3  and  S_1 
REMARK    2  A    between atoms: C_8  and  S_1 
REMARK    3  A    between atoms: C_6  and  C_2 
REMARK    4  A    between atoms: C_7  and  C_2 
REMARK    5  A    between atoms: N_4  and  N_3 
REMARK    6  A    between atoms: C_9  and  C_6 
REMARK    7  A    between atoms: O_16  and  C_7 
REMARK    8  A    between atoms: O_17  and  C_9 
ROOT
ATOM      1  N   UNL d   1       1.728   2.380  -1.566  0.00  0.00    -0.223 N 
ATOM      2  H   UNL d   1       1.711   3.382  -1.807  0.00  0.00     0.200 HD
ENDROOT
BRANCH   1   3
ATOM      3  S   UNL d   1       2.256   1.998   0.008  0.00  0.00     0.276 S 
ATOM      4  O   UNL d   1       3.198   0.899  -0.069  0.00  0.00    -0.199 OA
ATOM      5  O   UNL d   1       1.102   1.948   0.882  0.00  0.00    -0.199 OA
BRANCH   3   6
ATOM      6  C   UNL d   1       3.175   3.464   0.416  0.00  0.00     0.081 A 
ATOM      7  C   UNL d   1       2.570   4.485   1.150  0.00  0.00     0.026 A 
ATOM      8  C   UNL d   1       3.306   5.627   1.471  0.00  0.00     0.008 A 
ATOM      9  C   UNL d   1       4.644   5.748   1.067  0.00  0.00    -0.062 A 
ATOM     10  C   UNL d   1       5.243   4.705   0.350  0.00  0.00     0.008 A 
ATOM     11  C   UNL d   1       5.417   6.988   1.411  0.00  0.00     0.048 C 
ATOM     12  C   UNL d   1       4.514   3.560   0.026  0.00  0.00     0.026 A 
ENDBRANCH   3   6
ENDBRANCH   1   3
BRANCH   1  13
ATOM     13  N   UNL d   1       0.892   1.438  -2.264  0.00  0.00    -0.289 N 
ATOM     14  C   UNL d   1       0.389   1.798  -3.410  0.00  0.00     0.110 C 
ATOM     15  HN  UNL d   1       0.700   0.517  -1.872  1.00  0.00     0.187 HD
BRANCH  14  16
ATOM     16  C   UNL d   1      -0.481   0.821  -4.151  0.00  0.00     0.176 C 
BRANCH  16  17
ATOM     17  C   UNL d   1      -1.843   1.357  -4.465  0.00  0.00     0.264 C 
ATOM     18  O   UNL d   1      -2.219   2.498  -4.238  0.00  0.00    -0.265 OA
BRANCH  17  19
ATOM     19  O   UNL d   1      -2.591   0.382  -5.052  0.00  0.00    -0.326 OA
ATOM     20  C   UNL d   1      -3.928   0.771  -5.372  0.00  0.00     0.213 C 
ENDBRANCH  17  19
ENDBRANCH  16  17
ENDBRANCH  14  16
BRANCH  14  21
ATOM     21  C   UNL d   1       0.669   3.146  -4.073  0.00  0.00     0.307 C 
ATOM     22  O   UNL d   1       0.955   4.142  -3.429  0.00  0.00    -0.258 OA
BRANCH  21  23
ATOM     23  O   UNL d   1       0.661   3.013  -5.415  0.00  0.00    -0.322 OA
ATOM     24  C   UNL d   1       0.983   4.216  -6.116  0.00  0.00     0.213 C 
ENDBRANCH  21  23
ENDBRANCH  14  21
ENDBRANCH   1  13
TORSDOF 8
