REMARK  4 active torsions:
REMARK  status: ('A' for Active; 'I' for Inactive)
REMARK       I    between atoms: N_3  and  C_1 
REMARK    1  A    between atoms: C_12  and  C_1 
REMARK    2  A    between atoms: C_6  and  N_3 
REMARK    3  A    between atoms: C_11  and  N_14 
REMARK    4  A    between atoms: N_14  and  C_13 
ROOT
ATOM      1  C   UNL d   1      -0.443  -4.672   5.864  0.00  0.00     0.140 C 
ATOM      2  C   UNL d   1      -0.300  -4.570   7.274  0.00  0.00     0.112 C 
ATOM      3  C   UNL d   1      -1.090  -5.816   5.324  0.00  0.00     0.112 C 
ATOM      4  N   UNL d   1      -0.162  -4.436   8.419  0.00  0.00    -0.191 NA
ATOM      5  N   UNL d   1      -1.600  -6.757   4.873  0.00  0.00    -0.191 NA
ATOM      6  C   UNL d   1       0.056  -3.721   5.048  0.00  0.00     0.123 C 
ENDROOT
BRANCH   6   7
ATOM      7  N   UNL d   1       0.780  -2.602   5.364  0.00  0.00    -0.350 N 
ATOM      8  H   UNL d   1       0.918  -2.368   6.342  0.00  0.00     0.166 HD
BRANCH   7   9
ATOM      9  C   UNL d   1       1.161  -1.581   4.469  0.00  0.00     0.106 A 
ATOM     10  N   UNL d   1       0.463  -1.369   3.330  0.00  0.00    -0.329 N 
ATOM     11  C   UNL d   1       0.978  -0.498   2.435  0.00  0.00     0.109 A 
ATOM     12  HN  UNL d   1      -0.419  -1.849   3.154  1.00  0.00     0.169 HD
ATOM     13  C   UNL d   1       2.130   0.245   2.666  0.00  0.00     0.049 A 
ATOM     14  C   UNL d   1       2.821   0.050   3.851  0.00  0.00     0.007 A 
ATOM     15  C   UNL d   1       2.341  -0.889   4.754  0.00  0.00     0.049 A 
BRANCH  11  16
ATOM     16  N   UNL d   1       0.276  -0.374   1.230  0.00  0.00    -0.309 N 
ATOM     17  C   UNL d   1       0.932  -0.360   0.014  0.00  0.00     0.257 C 
ATOM     18  O   UNL d   1       2.142  -0.473  -0.148  0.00  0.00    -0.267 OA
ATOM     19  H   UNL d   1      -0.662  -0.750   1.256  0.00  0.00     0.170 HD
BRANCH  17  20
ATOM     20  C   UNL d   1       0.072  -0.264  -1.187  0.00  0.00     0.034 A 
ATOM     21  C   UNL d   1       0.405  -1.030  -2.311  0.00  0.00     0.041 A 
ATOM     22  C   UNL d   1      -0.324  -0.876  -3.486  0.00  0.00     0.035 A 
ATOM     23 CL   UNL d   1       0.081  -1.811  -4.872  0.00  0.00    -0.084 Cl
ATOM     24  C   UNL d   1      -1.373   0.042  -3.553  0.00  0.00     0.024 A 
ATOM     25  C   UNL d   1      -1.704   0.805  -2.431  0.00  0.00     0.003 A 
ATOM     26  C   UNL d   1      -0.986   0.651  -1.243  0.00  0.00     0.017 A 
ENDBRANCH  17  20
ENDBRANCH  11  16
ENDBRANCH   7   9
ENDBRANCH   6   7
TORSDOF 4
