REMARK  2 active torsions:
REMARK  status: ('A' for Active; 'I' for Inactive)
REMARK    1  A    between atoms: O_13  and  C_6 
REMARK    2  A    between atoms: O_14  and  C_10 
ROOT
ATOM      1  C   UNL d   1      -2.431   0.614  -0.279  0.00  0.00    -0.005 A 
ATOM      2  C   UNL d   1      -1.287   1.511   0.082  0.00  0.00     0.029 C 
ATOM      3  C   UNL d   1      -3.730   0.808   0.211  0.00  0.00     0.053 A 
ATOM      4  C   UNL d   1      -2.207  -0.499  -1.120  0.00  0.00    -0.042 A 
ATOM      5  N   UNL d   1      -3.480   4.287   0.564  0.00  0.00    -0.192 NA
ATOM      6  C   UNL d   1      -4.811   0.036  -0.232  0.00  0.00     0.102 A 
ATOM      7  C   UNL d   1      -2.534   3.624   0.481  0.00  0.00     0.089 C 
ATOM      8  C   UNL d   1      -1.363   2.817   0.413  0.00  0.00     0.117 C 
ATOM      9  C   UNL d   1      -3.287  -1.287  -1.559  0.00  0.00     0.047 A 
ATOM     10  C   UNL d   1      -4.593  -1.002  -1.153  0.00  0.00     0.102 A 
ATOM     11  N   UNL d   1      -0.017   0.939  -0.079  0.00  0.00    -0.291 NA
ATOM     12  C   UNL d   1       0.220   0.197  -1.325  0.00  0.00     0.097 C 
ATOM     13  C   UNL d   1      -0.798  -0.932  -1.469  0.00  0.00     0.054 C 
ATOM     14  H   UNL d   1       0.150   0.308   0.708  0.00  0.00     0.127 HD
ENDROOT
BRANCH   6  15
ATOM     15  O   UNL d   1      -6.111   0.234   0.167  0.00  0.00    -0.353 OA
ATOM     16  C   UNL d   1      -6.340   1.152   1.228  0.00  0.00     0.210 C 
ENDBRANCH   6  15
BRANCH  10  17
ATOM     17  O   UNL d   1      -5.708  -1.687  -1.562  0.00  0.00    -0.353 OA
ATOM     18  C   UNL d   1      -5.536  -2.740  -2.498  0.00  0.00     0.210 C 
ENDBRANCH  10  17
TORSDOF 2
