REMARK  4 active torsions:
REMARK  status: ('A' for Active; 'I' for Inactive)
REMARK    1  A    between atoms: C_2  and  N_1 
REMARK       I    between atoms: C_3  and  N_1 
REMARK    2  A    between atoms: C_12  and  C_3 
REMARK    3  A    between atoms: C_6  and  S_9 
REMARK    4  A    between atoms: S_9  and  C_12 
ROOT
ATOM      1  N   UNL d   1       1.131  -0.071  -0.240  0.00  0.00    -0.312 N 
ATOM      2  C   UNL d   1       2.419   0.222   0.148  0.00  0.00     0.232 C 
ATOM      3  O   UNL d   1       2.922  -0.069   1.232  0.00  0.00    -0.272 OA
ATOM      4  H   UNL d   1       0.935  -0.075  -1.238  0.00  0.00     0.170 HD
ENDROOT
BRANCH   2   5
ATOM      5  C   UNL d   1       3.216   0.967  -0.909  0.00  0.00     0.184 C 
BRANCH   5   6
ATOM      6  S   UNL d   1       4.163  -0.183  -1.952  0.00  0.00    -0.103 SA
BRANCH   6   7
ATOM      7  C   UNL d   1       2.866  -0.896  -2.950  0.00  0.00     0.069 A 
ATOM      8  N   UNL d   1       1.674  -0.257  -3.006  0.00  0.00    -0.361 N 
ATOM      9  C   UNL d   1       0.714  -0.817  -3.780  0.00  0.00     0.089 A 
ATOM     10  HN  UNL d   1       1.506   0.606  -2.490  1.00  0.00     0.165 HD
ATOM     11  C   UNL d   1       0.885  -1.988  -4.494  0.00  0.00     0.017 A 
ATOM     12  C   UNL d   1       2.115  -2.627  -4.417  0.00  0.00     0.004 A 
ATOM     13  C   UNL d   1       3.127  -2.075  -3.638  0.00  0.00     0.037 A 
ENDBRANCH   6   7
ENDBRANCH   5   6
ENDBRANCH   2   5
BRANCH   1  14
ATOM     14  C   UNL d   1       0.136  -0.671   0.530  0.00  0.00     0.107 A 
ATOM     15  N   UNL d   1      -0.873  -1.213  -0.185  0.00  0.00    -0.352 N 
ATOM     16  C   UNL d   1      -1.849  -1.843   0.507  0.00  0.00     0.090 A 
ATOM     17  HN  UNL d   1      -0.898  -1.150  -1.203  1.00  0.00     0.166 HD
ATOM     18  C   UNL d   1      -1.893  -1.920   1.889  0.00  0.00     0.024 A 
ATOM     19  C   UNL d   1      -0.880  -1.302   2.618  0.00  0.00    -0.057 A 
ATOM     20  C   UNL d   1       0.159  -0.682   1.919  0.00  0.00     0.055 A 
ATOM     21  C   UNL d   1      -0.887  -1.333   4.116  0.00  0.00     0.048 C 
ENDBRANCH   1  14
TORSDOF 4
