REMARK  1 active torsions:
REMARK  status: ('A' for Active; 'I' for Inactive)
REMARK    1  A    between atoms: C_10  and  C_3 
ROOT
ATOM      1  C   UNL d   1       2.220   0.824  -0.320  0.00  0.00     0.167 A 
ATOM      2  C   UNL d   1       3.511   1.455  -0.216  0.00  0.00     0.076 A 
ATOM      3  C   UNL d   1       4.088   2.234   0.845  0.00  0.00     0.085 A 
ATOM      4  C   UNL d   1      -0.045   0.992   0.237  0.00  0.00     0.305 A 
ATOM      5  N   UNL d   1       2.146  -0.351  -0.852  0.00  0.00    -0.335 N 
ATOM      6  HN  UNL d   1       2.951  -0.781  -1.306  1.00  0.00     0.168 HD
ATOM      7  O   UNL d   1       1.199   1.533   0.213  0.00  0.00    -0.256 OA
ATOM      8  N   UNL d   1       5.360   2.541   0.536  0.00  0.00    -0.259 N 
ATOM      9  HN  UNL d   1       6.013   3.070   1.115  1.00  0.00     0.195 HD
ATOM     10  C   UNL d   1      -0.195  -0.388  -0.239  0.00  0.00     0.105 A 
ATOM     11  C   UNL d   1       0.923  -1.005  -0.777  0.00  0.00     0.053 A 
ATOM     12  O   UNL d   1       5.616   2.010  -0.703  0.00  0.00    -0.241 OA
ATOM     13  C   UNL d   1       4.526   1.343  -1.145  0.00  0.00     0.089 A 
ATOM     14  O   UNL d   1      -0.994   1.634   0.665  0.00  0.00    -0.259 OA
ATOM     15  C   UNL d   1      -1.395  -1.090  -0.134  0.00  0.00     0.135 A 
ATOM     16  F   UNL d   1      -2.492  -0.527   0.388  0.00  0.00    -0.205 F 
ATOM     17  C   UNL d   1       0.841  -2.339  -1.194  0.00  0.00     0.031 A 
ATOM     18  C   UNL d   1       4.661   0.665  -2.450  0.00  0.00     0.080 C 
ATOM     19  C   UNL d   1      -0.355  -3.046  -1.083  0.00  0.00     0.005 A 
ATOM     20  C   UNL d   1      -1.480  -2.419  -0.553  0.00  0.00     0.043 A 
ENDROOT
BRANCH   3  21
ATOM     21  C   UNL d   1       3.536   2.643   2.149  0.00  0.00     0.037 A 
ATOM     22  C   UNL d   1       2.875   1.731   3.002  0.00  0.00     0.048 A 
ATOM     23 CL   UNL d   1       2.749   0.031   2.681  0.00  0.00    -0.083 Cl
ATOM     24  C   UNL d   1       2.333   2.143   4.230  0.00  0.00     0.025 A 
ATOM     25  C   UNL d   1       2.506   3.446   4.678  0.00  0.00     0.003 A 
ATOM     26  C   UNL d   1       3.204   4.349   3.886  0.00  0.00     0.025 A 
ATOM     27  C   UNL d   1       3.693   3.965   2.627  0.00  0.00     0.048 A 
ATOM     28 CL   UNL d   1       4.467   5.228   1.720  0.00  0.00    -0.083 Cl
ENDBRANCH   3  21
TORSDOF 1
