REMARK  6 active torsions:
REMARK  status: ('A' for Active; 'I' for Inactive)
REMARK    1  A    between atoms: O_7  and  C_1 
REMARK    2  A    between atoms: N_4  and  C_2 
REMARK    3  A    between atoms: N_5  and  C_3 
REMARK    4  A    between atoms: C_6  and  O_7 
REMARK    5  A    between atoms: C_10  and  C_6 
REMARK    6  A    between atoms: C_8  and  C_9 
ROOT
ATOM      1  C   UNL d   1       1.164  -0.251   0.023  0.00  0.00     0.145 A 
ATOM      2  C   UNL d   1       0.101  -1.153   0.136  0.00  0.00     0.140 A 
ATOM      3  C   UNL d   1       0.884   1.124   0.073  0.00  0.00     0.140 A 
ATOM      4  C   UNL d   1      -1.513   0.668   0.203  0.00  0.00     0.052 A 
ATOM      5  C   UNL d   1      -0.446   1.581   0.158  0.00  0.00     0.055 A 
ATOM      6  C   UNL d   1      -1.226  -0.705   0.251  0.00  0.00     0.055 A 
ENDROOT
BRANCH   1   7
ATOM      7  O   UNL d   1       2.442  -0.641  -0.415  0.00  0.00    -0.270 OA
BRANCH   7   8
ATOM      8  C   UNL d   1       3.223  -1.627   0.172  0.00  0.00     0.301 C 
ATOM      9  O   UNL d   1       2.991  -2.160   1.239  0.00  0.00    -0.259 OA
BRANCH   8  10
ATOM     10  C   UNL d   1       4.361  -1.930  -0.742  0.00  0.00     0.078 A 
ATOM     11  C   UNL d   1       4.467  -1.370  -2.022  0.00  0.00     0.132 A 
ATOM     12  F   UNL d   1       3.547  -0.521  -2.507  0.00  0.00    -0.205 F 
ATOM     13  C   UNL d   1       5.534  -1.684  -2.859  0.00  0.00     0.043 A 
ATOM     14  C   UNL d   1       6.512  -2.576  -2.428  0.00  0.00     0.003 A 
ATOM     15  C   UNL d   1       6.415  -3.153  -1.160  0.00  0.00     0.001 A 
ATOM     16  C   UNL d   1       5.342  -2.835  -0.317  0.00  0.00     0.021 A 
ENDBRANCH   8  10
ENDBRANCH   7   8
ENDBRANCH   1   7
BRANCH   2  17
ATOM     17  N   UNL d   1       0.289  -2.583  -0.041  0.00  0.00    -0.113 N 
ATOM     18  O   UNL d   1       0.834  -2.952  -1.090  0.00  0.00    -0.532 OA
ATOM     19  O   UNL d   1      -0.185  -3.322   0.830  0.00  0.00    -0.532 OA
ENDBRANCH   2  17
BRANCH   3  20
ATOM     20  N   UNL d   1       1.956   2.123  -0.028  0.00  0.00    -0.113 N 
ATOM     21  O   UNL d   1       3.096   1.799   0.330  0.00  0.00    -0.532 OA
ATOM     22  O   UNL d   1       1.640   3.251  -0.432  0.00  0.00    -0.532 OA
ENDBRANCH   3  20
BRANCH   4  23
ATOM     23  C   UNL d   1      -2.950   1.140   0.135  0.00  0.00     0.417 C 
ATOM     24  F   UNL d   1      -3.069   2.413  -0.327  0.00  0.00    -0.166 F 
ATOM     25  F   UNL d   1      -3.698   0.369  -0.701  0.00  0.00    -0.166 F 
ATOM     26  F   UNL d   1      -3.568   1.107   1.342  0.00  0.00    -0.166 F 
ENDBRANCH   4  23
TORSDOF 6
