REMARK  10 active torsions:
REMARK  status: ('A' for Active; 'I' for Inactive)
REMARK    1  A    between atoms: N_3  and  C_1 
REMARK    2  A    between atoms: N_4  and  C_2 
REMARK    3  A    between atoms: C_6  and  C_13 
REMARK    4  A    between atoms: C_7  and  C_11 
REMARK    5  A    between atoms: N_14  and  C_8 
REMARK    6  A    between atoms: C_13  and  O_26 
REMARK    7  A    between atoms: C_19  and  N_14 
REMARK    8  A    between atoms: C_27  and  C_19 
REMARK    9  A    between atoms: O_26  and  C_28 
REMARK   10  A    between atoms: C_28  and  C_27 
ROOT
ATOM      1  C   UNL d   1       2.540  -3.016  -0.100  0.00  0.00     0.025 C 
ATOM      2  C   UNL d   1       3.270  -2.736   1.235  0.00  0.00     0.038 C 
ATOM      3  C   UNL d   1       2.384  -4.555  -0.162  0.00  0.00     0.038 C 
ENDROOT
BRANCH   1   4
ATOM      4  N   UNL d   1       1.193  -2.391  -0.058  0.00  0.00    -0.379 N 
ATOM      5  H   UNL d   1       0.403  -3.025   0.089  0.00  0.00     0.160 HD
BRANCH   4   6
ATOM      6  C   UNL d   1       0.895  -1.029  -0.020  0.00  0.00     0.062 A 
ATOM      7  C   UNL d   1      -0.411  -0.482  -0.114  0.00  0.00     0.130 A 
ATOM      8  C   UNL d   1      -0.627   0.921  -0.134  0.00  0.00     0.054 A 
ATOM      9  C   UNL d   1       0.441   1.823  -0.094  0.00  0.00     0.050 A 
ATOM     10  C   UNL d   1       1.727   1.300  -0.004  0.00  0.00     0.018 A 
ATOM     11  C   UNL d   1       1.933  -0.073   0.037  0.00  0.00     0.032 A 
BRANCH   7  12
ATOM     12  N   UNL d   1      -1.616  -1.337  -0.222  0.00  0.00    -0.113 N 
ATOM     13  O   UNL d   1      -1.468  -2.564  -0.318  0.00  0.00    -0.532 OA
ATOM     14  O   UNL d   1      -2.726  -0.770  -0.202  0.00  0.00    -0.532 OA
ENDBRANCH   7  12
BRANCH   9  15
ATOM     15  C   UNL d   1       0.263   3.314  -0.177  0.00  0.00     0.417 C 
ATOM     16  F   UNL d   1      -1.038   3.706  -0.254  0.00  0.00    -0.166 F 
ATOM     17  F   UNL d   1       0.792   3.961   0.896  0.00  0.00    -0.166 F 
ATOM     18  F   UNL d   1       0.880   3.842  -1.273  0.00  0.00    -0.166 F 
ENDBRANCH   9  15
ENDBRANCH   4   6
ENDBRANCH   1   4
BRANCH   1  19
ATOM     19  C   UNL d   1       3.249  -2.579  -1.421  0.00  0.00     0.057 C 
BRANCH  19  20
ATOM     20  C   UNL d   1       4.704  -3.003  -1.614  0.00  0.00     0.181 C 
BRANCH  20  21
ATOM     21  O   UNL d   1       5.226  -2.429  -2.833  0.00  0.00    -0.316 OA
BRANCH  21  22
ATOM     22  C   UNL d   1       4.939  -3.100  -3.987  0.00  0.00     0.317 C 
ATOM     23  O   UNL d   1       4.262  -4.119  -4.045  0.00  0.00    -0.257 OA
BRANCH  22  24
ATOM     24  C   UNL d   1       5.552  -2.451  -5.128  0.00  0.00     0.153 A 
ATOM     25  O   UNL d   1       6.335  -1.333  -4.965  0.00  0.00    -0.282 OA
ATOM     26  C   UNL d   1       6.779  -0.986  -6.204  0.00  0.00     0.215 A 
ATOM     27  C   UNL d   1       6.305  -1.840  -7.171  0.00  0.00     0.066 A 
ATOM     28  C   UNL d   1       5.506  -2.782  -6.476  0.00  0.00     0.048 A 
BRANCH  26  29
ATOM     29  N   UNL d   1       7.633   0.156  -6.286  0.00  0.00    -0.090 N 
ATOM     30  O   UNL d   1       8.053   0.446  -7.415  0.00  0.00    -0.530 OA
ATOM     31  O   UNL d   1       7.894   0.760  -5.238  0.00  0.00    -0.530 OA
ENDBRANCH  26  29
ENDBRANCH  22  24
ENDBRANCH  21  22
ENDBRANCH  20  21
ENDBRANCH  19  20
ENDBRANCH   1  19
TORSDOF 10
