REMARK  4 active torsions:
REMARK  status: ('A' for Active; 'I' for Inactive)
REMARK    1  A    between atoms: C_2  and  S_1 
REMARK    2  A    between atoms: N_4  and  S_1 
REMARK    3  A    between atoms: C_5  and  C_16 
REMARK    4  A    between atoms: C_16  and  N_15 
ROOT
ATOM      1  N   UNL d   1       0.362  -0.378  -1.430  0.00  0.00    -0.205 NA
ATOM      2  N   UNL d   1       0.708  -0.300  -4.652  0.00  0.00     0.093 N 
ATOM      3  C   UNL d   1       0.539   0.814  -2.330  0.00  0.00     0.138 C 
ATOM      4  C   UNL d   1       0.041   0.655  -3.769  0.00  0.00     0.288 C 
ATOM      5  C   UNL d   1       0.364  -2.329  -3.079  0.00  0.00     0.046 C 
ATOM      6  C   UNL d   1       1.061  -1.610  -1.929  0.00  0.00     0.109 C 
ATOM      7  C   UNL d   1       0.203  -1.652  -4.443  0.00  0.00     0.274 C 
ENDROOT
BRANCH   1   8
ATOM      8  S   UNL d   1       0.946  -0.022   0.185  0.00  0.00     0.246 S 
ATOM      9  O   UNL d   1       0.704  -1.202   0.993  0.00  0.00    -0.206 OA
ATOM     10  O   UNL d   1       2.285   0.511   0.080  0.00  0.00    -0.206 OA
BRANCH   8  11
ATOM     11  C   UNL d   1      -0.116   1.225   0.814  0.00  0.00     0.105 A 
ATOM     12  C   UNL d   1       0.087   2.602   0.625  0.00  0.00     0.108 A 
ATOM     13  C   UNL d   1      -0.779   3.590   1.270  0.00  0.00     0.086 A 
ATOM     14  N   UNL d   1       0.987   3.276  -0.105  0.00  0.00    -0.238 N 
ATOM     15  N   UNL d   1      -0.377   4.811   0.904  0.00  0.00    -0.239 N 
ATOM     16  C   UNL d   1      -1.842   3.231   2.121  0.00  0.00     0.034 A 
ATOM     17  O   UNL d   1       0.708   4.618   0.071  0.00  0.00    -0.156 OA
ATOM     18  HN  UNL d   1      -0.787   5.703   1.183  1.00  0.00     0.197 HD
ATOM     19  C   UNL d   1      -2.005   1.847   2.309  0.00  0.00     0.004 A 
ATOM     20  C   UNL d   1      -1.176   0.883   1.683  0.00  0.00     0.027 A 
ATOM     21  HN  UNL d   1       1.731   2.877  -0.677  1.00  0.00     0.197 HD
ENDBRANCH   8  11
ENDBRANCH   1   8
BRANCH   2  22
ATOM     22  C   UNL d   1       2.171  -0.241  -4.746  0.00  0.00     0.315 C 
BRANCH  22  23
ATOM     23  C   UNL d   1       2.780   1.069  -5.187  0.00  0.00     0.030 A 
ATOM     24  C   UNL d   1       3.595   1.774  -4.288  0.00  0.00     0.126 A 
ATOM     25  F   UNL d   1       3.770   1.314  -3.041  0.00  0.00    -0.205 F 
ATOM     26  C   UNL d   1       4.278   2.932  -4.651  0.00  0.00     0.043 A 
ATOM     27  C   UNL d   1       4.171   3.410  -5.950  0.00  0.00     0.005 A 
ATOM     28  C   UNL d   1       3.367   2.732  -6.867  0.00  0.00     0.024 A 
ATOM     29  C   UNL d   1       2.673   1.573  -6.490  0.00  0.00     0.045 A 
ATOM     30 CL   UNL d   1       1.742   0.774  -7.706  0.00  0.00    -0.084 Cl
ENDBRANCH  22  23
ENDBRANCH   2  22
TORSDOF 4
