REMARK  3 active torsions:
REMARK  status: ('A' for Active; 'I' for Inactive)
REMARK    1  A    between atoms: C_5  and  C_1 
REMARK    2  A    between atoms: C_8  and  C_2 
REMARK    3  A    between atoms: O_12  and  C_8 
ROOT
ATOM      1  C   UNL d   1      -1.317  -0.823   0.113  0.00  0.00     0.089 A 
ATOM      2  C   UNL d   1       0.018  -1.299  -0.075  0.00  0.00     0.098 A 
ATOM      3  N   UNL d   1      -1.296   0.475   0.457  0.00  0.00    -0.259 N 
ATOM      4  HN  UNL d   1      -2.100   1.053   0.700  1.00  0.00     0.195 HD
ATOM      5  O   UNL d   1       0.019   0.874   0.418  0.00  0.00    -0.241 OA
ATOM      6  C   UNL d   1       0.809  -0.181   0.097  0.00  0.00     0.091 A 
ATOM      7  C   UNL d   1       2.247   0.125  -0.036  0.00  0.00     0.080 C 
ENDROOT
BRANCH   1   8
ATOM      8  C   UNL d   1      -2.578  -1.563   0.048  0.00  0.00     0.054 A 
ATOM      9  C   UNL d   1      -2.680  -2.799   0.703  0.00  0.00     0.130 A 
ATOM     10  F   UNL d   1      -1.644  -3.279   1.410  0.00  0.00    -0.205 F 
ATOM     11  C   UNL d   1      -3.849  -3.559   0.670  0.00  0.00     0.043 A 
ATOM     12  C   UNL d   1      -4.965  -3.081  -0.006  0.00  0.00     0.005 A 
ATOM     13  C   UNL d   1      -4.899  -1.846  -0.650  0.00  0.00     0.025 A 
ATOM     14  C   UNL d   1      -3.714  -1.093  -0.634  0.00  0.00     0.049 A 
ATOM     15 CL   UNL d   1      -3.740   0.394  -1.522  0.00  0.00    -0.083 Cl
ENDBRANCH   1   8
BRANCH   2  16
ATOM     16  C   UNL d   1       0.459  -2.627  -0.429  0.00  0.00     0.181 C 
ATOM     17  O   UNL d   1      -0.110  -3.329  -1.251  0.00  0.00    -0.646 OA
BRANCH  16  18
ATOM     18  O   UNL d   1       1.559  -3.055   0.246  0.00  0.00    -0.773 OA
ATOM     19  H   UNL d   1       1.792  -2.478   0.996  0.00  0.00     0.167 HD
ENDBRANCH  16  18
ENDBRANCH   2  16
TORSDOF 3
