REMARK  5 active torsions:
REMARK  status: ('A' for Active; 'I' for Inactive)
REMARK    1  A    between atoms: C_7  and  C_1 
REMARK    2  A    between atoms: C_10  and  C_2 
REMARK    3  A    between atoms: C_16  and  N_3 
REMARK    4  A    between atoms: C_6  and  C_11 
REMARK       I    between atoms: N_14  and  C_10 
REMARK       I    between atoms: C_11  and  N_15 
REMARK    5  A    between atoms: N_15  and  N_14 
ROOT
ATOM      1  C   UNL d   1      -0.734  -2.553   0.073  0.00  0.00     0.273 C 
ATOM      2  N   UNL d   1       0.128  -3.607   0.270  0.00  0.00    -0.263 N 
ATOM      3  O   UNL d   1      -1.954  -2.721   0.065  0.00  0.00    -0.266 OA
ATOM      4  H   UNL d   1       1.145  -3.540   0.279  0.00  0.00     0.190 HD
ENDROOT
BRANCH   1   5
ATOM      5  C   UNL d   1      -0.148  -1.224  -0.036  0.00  0.00     0.084 A 
ATOM      6  C   UNL d   1       1.123  -0.771  -0.393  0.00  0.00     0.157 A 
ATOM      7  N   UNL d   1       1.121   0.605  -0.192  0.00  0.00    -0.251 N 
ATOM      8  N   UNL d   1      -0.098   1.039   0.217  0.00  0.00    -0.303 N 
ATOM      9  C   UNL d   1      -0.859  -0.045   0.260  0.00  0.00     0.127 A 
ATOM     10  HN  UNL d   1      -0.370   1.996   0.443  1.00  0.00     0.186 HD
BRANCH   6  11
ATOM     11  C   UNL d   1       2.334  -1.488  -0.822  0.00  0.00     0.435 C 
ATOM     12  F   UNL d   1       2.231  -2.829  -0.652  0.00  0.00    -0.165 F 
ATOM     13  F   UNL d   1       2.589  -1.302  -2.139  0.00  0.00    -0.165 F 
ATOM     14  F   UNL d   1       3.437  -1.123  -0.127  0.00  0.00    -0.165 F 
ENDBRANCH   6  11
BRANCH   7  15
ATOM     15  C   UNL d   1       2.191   1.552  -0.225  0.00  0.00     0.057 A 
ATOM     16  C   UNL d   1       3.279   1.442  -1.097  0.00  0.00     0.033 A 
ATOM     17  C   UNL d   1       4.382   2.290  -0.957  0.00  0.00     0.026 A 
ATOM     18  C   UNL d   1       4.389   3.267   0.035  0.00  0.00     0.034 A 
ATOM     19  C   UNL d   1       3.278   3.443   0.854  0.00  0.00     0.026 A 
ATOM     20 CL   UNL d   1       5.782   4.251   0.255  0.00  0.00    -0.084 Cl
ATOM     21  C   UNL d   1       2.172   2.601   0.712  0.00  0.00     0.033 A 
ENDBRANCH   7  15
ENDBRANCH   1   5
BRANCH   2  22
ATOM     22  N   UNL d   1      -0.398  -4.884   0.471  0.00  0.00    -0.263 N 
ATOM     23  C   UNL d   1       0.470  -5.915   0.743  0.00  0.00     0.268 C 
ATOM     24  O   UNL d   1       1.678  -5.752   0.887  0.00  0.00    -0.266 OA
ATOM     25  H   UNL d   1      -1.413  -4.963   0.485  0.00  0.00     0.190 HD
BRANCH  23  26
ATOM     26  C   UNL d   1      -0.157  -7.250   0.907  0.00  0.00     0.036 C 
ATOM     27  C   UNL d   1      -1.271  -7.577   0.244  0.00  0.00     0.029 C 
ATOM     28  C   UNL d   1      -1.790  -8.924   0.410  0.00  0.00    -0.000 A 
ATOM     29  C   UNL d   1      -2.988  -9.302  -0.210  0.00  0.00     0.038 A 
ATOM     30  C   UNL d   1      -1.075  -9.857   1.165  0.00  0.00     0.079 A 
ATOM     31  C   UNL d   1      -3.450 -10.610  -0.083  0.00  0.00     0.035 A 
ATOM     32 CL   UNL d   1      -4.918 -11.072  -0.855  0.00  0.00    -0.084 Cl
ATOM     33  C   UNL d   1      -2.730 -11.547   0.655  0.00  0.00     0.026 A 
ATOM     34  C   UNL d   1      -1.542 -11.167   1.281  0.00  0.00     0.039 A 
ATOM     35  O   UNL d   1       0.098  -9.575   1.804  0.00  0.00    -0.346 OA
ATOM     36  C   UNL d   1       0.579  -8.218   1.785  0.00  0.00     0.220 C 
ENDBRANCH  23  26
ENDBRANCH   2  22
TORSDOF 5
