REMARK  9 active torsions:
REMARK  status: ('A' for Active; 'I' for Inactive)
REMARK    1  A    between atoms: N_3  and  C_1 
REMARK    2  A    between atoms: N_4  and  C_1 
REMARK    3  A    between atoms: C_5  and  N_3 
REMARK    4  A    between atoms: C_15  and  N_4 
REMARK    5  A    between atoms: C_6  and  C_5 
REMARK    6  A    between atoms: O_13  and  C_7 
REMARK    7  A    between atoms: C_12  and  C_15 
REMARK    8  A    between atoms: C_16  and  C_12 
REMARK    9  A    between atoms: O_14  and  C_16 
ROOT
ATOM      1  N   UNL d   1       0.282   0.391  -0.897  0.00  0.00    -0.363 N 
ATOM      2  H   UNL d   1       0.774   1.240  -0.667  0.00  0.00     0.162 HD
ENDROOT
BRANCH   1   3
ATOM      3  C   UNL d   1       1.048  -0.616  -1.444  0.00  0.00     0.167 C 
ATOM      4  S   UNL d   1       0.456  -1.980  -2.204  0.00  0.00    -0.041 SA
BRANCH   3   5
ATOM      5  N   UNL d   1       2.388  -0.331  -1.275  0.00  0.00    -0.367 N 
ATOM      6  H   UNL d   1       2.632   0.420  -0.648  0.00  0.00     0.161 HD
BRANCH   5   7
ATOM      7  C   UNL d   1       3.514  -0.934  -1.981  0.00  0.00     0.124 C 
BRANCH   7   8
ATOM      8  C   UNL d   1       3.667  -0.378  -3.399  0.00  0.00     0.046 C 
BRANCH   8   9
ATOM      9  C   UNL d   1       3.854   1.134  -3.435  0.00  0.00     0.165 C 
BRANCH   9  10
ATOM     10  O   UNL d   1       5.032   1.498  -2.728  0.00  0.00    -0.401 OA
ATOM     11  H   UNL d   1       5.168   2.450  -2.877  0.00  0.00     0.209 HD
ENDBRANCH   9  10
ENDBRANCH   8   9
ENDBRANCH   7   8
ENDBRANCH   5   7
ENDBRANCH   3   5
ENDBRANCH   1   3
BRANCH   1  12
ATOM     12  C   UNL d   1      -1.164   0.534  -0.989  0.00  0.00     0.160 C 
BRANCH  12  13
ATOM     13  C   UNL d   1      -1.581   1.259  -2.246  0.00  0.00    -0.040 A 
ATOM     14  C   UNL d   1      -2.270   0.580  -3.260  0.00  0.00     0.011 A 
ATOM     15  C   UNL d   1      -2.661   1.243  -4.430  0.00  0.00     0.037 A 
ATOM     16  C   UNL d   1      -2.367   2.594  -4.602  0.00  0.00     0.068 A 
ATOM     17  C   UNL d   1      -1.693   3.279  -3.589  0.00  0.00     0.037 A 
ATOM     18  C   UNL d   1      -1.295   2.619  -2.423  0.00  0.00     0.011 A 
BRANCH  16  19
ATOM     19  O   UNL d   1      -2.705   3.353  -5.689  0.00  0.00    -0.356 OA
ATOM     20  C   UNL d   1      -3.019   2.639  -6.879  0.00  0.00     0.210 C 
ENDBRANCH  16  19
ENDBRANCH  12  13
ENDBRANCH   1  12
TORSDOF 9
