REMARK  5 active torsions:
REMARK  status: ('A' for Active; 'I' for Inactive)
REMARK    1  A    between atoms: C_6  and  C_1 
REMARK    2  A    between atoms: C_2  and  N_4 
REMARK    3  A    between atoms: N_11  and  C_3 
REMARK    4  A    between atoms: C_15  and  N_11 
REMARK    5  A    between atoms: C_14  and  C_15 
ROOT
ATOM      1  C   UNL d   1      -1.164   4.297  -0.115  0.00  0.00     0.146 C 
ATOM      2  C   UNL d   1      -1.857   4.905   0.876  0.00  0.00     0.127 C 
ATOM      3  C   UNL d   1      -0.312   5.086  -0.972  0.00  0.00     0.120 C 
ATOM      4  C   UNL d   1      -1.848   6.338   1.026  0.00  0.00     0.114 C 
ATOM      5  N   UNL d   1       0.388   5.676  -1.684  0.00  0.00    -0.190 NA
ATOM      6  N   UNL d   1      -1.839   7.495   1.117  0.00  0.00    -0.190 NA
ENDROOT
BRANCH   1   7
ATOM      7  N   UNL d   1      -1.189   2.898  -0.205  0.00  0.00    -0.354 N 
ATOM      8  C   UNL d   1      -0.930   2.367  -1.359  0.00  0.00     0.104 C 
ATOM      9  HN  UNL d   1      -1.403   2.319   0.607  1.00  0.00     0.166 HD
BRANCH   8  10
ATOM     10  C   UNL d   1      -0.834   0.906  -1.602  0.00  0.00     0.023 A 
ATOM     11  C   UNL d   1      -1.184   0.416  -2.874  0.00  0.00     0.047 A 
ATOM     12 CL   UNL d   1      -1.857   1.421  -4.115  0.00  0.00    -0.083 Cl
ATOM     13  C   UNL d   1      -1.023  -0.938  -3.190  0.00  0.00     0.025 A 
ATOM     14  C   UNL d   1      -0.509  -1.820  -2.245  0.00  0.00     0.003 A 
ATOM     15  C   UNL d   1      -0.169  -1.350  -0.979  0.00  0.00     0.025 A 
ATOM     16  C   UNL d   1      -0.332   0.005  -0.649  0.00  0.00     0.047 A 
ATOM     17 CL   UNL d   1       0.177   0.466   0.938  0.00  0.00    -0.083 Cl
ENDBRANCH   8  10
ENDBRANCH   1   7
BRANCH   2  18
ATOM     18  N   UNL d   1      -2.656   4.235   1.825  0.00  0.00    -0.281 NA
ATOM     19  H   UNL d   1      -2.897   3.323   1.421  0.00  0.00     0.128 HD
BRANCH  18  20
ATOM     20  C   UNL d   1      -2.098   3.981   3.165  0.00  0.00     0.101 C 
BRANCH  20  21
ATOM     21  C   UNL d   1      -3.167   4.050   4.279  0.00  0.00    -0.039 C 
ATOM     22  C   UNL d   1      -4.284   3.019   4.047  0.00  0.00     0.015 C 
ATOM     23  C   UNL d   1      -2.484   3.734   5.625  0.00  0.00     0.015 C 
ATOM     24  C   UNL d   1      -3.776   5.460   4.362  0.00  0.00     0.015 C 
ENDBRANCH  20  21
ENDBRANCH  18  20
ENDBRANCH   2  18
TORSDOF 5
