REMARK  2 active torsions:
REMARK  status: ('A' for Active; 'I' for Inactive)
REMARK    1  A    between atoms: C_8  and  C_1 
REMARK    2  A    between atoms: C_7  and  C_4 
ROOT
ATOM      1  C   UNL d   1       0.283   1.117   0.042  0.00  0.00     0.141 A 
ATOM      2  N   UNL d   1       1.243   0.146   0.251  0.00  0.00    -0.318 N 
ATOM      3  HN  UNL d   1       2.221   0.267   0.514  1.00  0.00     0.169 HD
ATOM      4  C   UNL d   1       0.589  -0.971   0.028  0.00  0.00     0.183 A 
ATOM      5  N   UNL d   1      -0.935   0.609  -0.213  0.00  0.00    -0.242 N 
ATOM      6  HN  UNL d   1      -1.803   1.116  -0.386  1.00  0.00     0.196 HD
ATOM      7  O   UNL d   1      -0.739  -0.766  -0.186  0.00  0.00    -0.217 OA
ENDROOT
BRANCH   1   8
ATOM      8  C   UNL d   1       0.584   2.547   0.037  0.00  0.00     0.053 A 
ATOM      9  C   UNL d   1       1.789   3.035  -0.513  0.00  0.00     0.049 A 
ATOM     10 CL   UNL d   1       2.997   2.024  -1.241  0.00  0.00    -0.083 Cl
ATOM     11  C   UNL d   1       2.068   4.411  -0.542  0.00  0.00     0.025 A 
ATOM     12  C   UNL d   1       1.151   5.329  -0.044  0.00  0.00     0.003 A 
ATOM     13  C   UNL d   1      -0.044   4.872   0.497  0.00  0.00     0.025 A 
ATOM     14  C   UNL d   1      -0.326   3.498   0.549  0.00  0.00     0.049 A 
ATOM     15 CL   UNL d   1      -1.826   3.082   1.316  0.00  0.00    -0.083 Cl
ENDBRANCH   1   8
BRANCH   4  16
ATOM     16  C   UNL d   1       1.088  -2.344  -0.006  0.00  0.00     0.039 A 
ATOM     17  C   UNL d   1       0.486  -3.397  -0.722  0.00  0.00     0.051 A 
ATOM     18  C   UNL d   1       1.055  -4.676  -0.727  0.00  0.00     0.067 A 
ATOM     19 CL   UNL d   1      -0.937  -3.209  -1.691  0.00  0.00    -0.083 Cl
ATOM     20  C   UNL d   1       2.231  -4.912  -0.028  0.00  0.00     0.118 A 
ATOM     21  C   UNL d   1       2.854  -3.895   0.676  0.00  0.00     0.043 A 
ATOM     22  F   UNL d   1       2.775  -6.134  -0.046  0.00  0.00    -0.206 F 
ATOM     23  C   UNL d   1       2.288  -2.617   0.686  0.00  0.00     0.020 A 
ENDBRANCH   4  16
TORSDOF 2
