REMARK  2 active torsions:
REMARK  status: ('A' for Active; 'I' for Inactive)
REMARK    1  A    between atoms: C_6  and  N_1 
REMARK    2  A    between atoms: N_8  and  C_6 
ROOT
ATOM      1  N   UNL d   1      -2.938   0.849  -0.217  0.00  0.00    -0.260 N 
ATOM      2  C   UNL d   1      -1.766   0.448  -0.788  0.00  0.00     0.241 C 
ATOM      3  C   UNL d   1      -0.921  -0.318   0.232  0.00  0.00     0.077 C 
ATOM      4  C   UNL d   1      -2.872   0.757   1.144  0.00  0.00     0.229 C 
ATOM      5  C   UNL d   1      -1.708  -0.114   1.538  0.00  0.00     0.127 C 
ATOM      6  C   UNL d   1       0.507   0.228   0.328  0.00  0.00    -0.034 A 
ATOM      7  O   UNL d   1      -1.431   0.673  -1.949  0.00  0.00    -0.272 OA
ATOM      8  O   UNL d   1      -3.616   1.289   1.948  0.00  0.00    -0.273 OA
ATOM      9  C   UNL d   1       1.627  -0.631   0.283  0.00  0.00    -0.051 A 
ATOM     10  C   UNL d   1      -0.945  -1.799  -0.211  0.00  0.00     0.025 C 
ATOM     11  C   UNL d   1       0.736   1.614   0.430  0.00  0.00     0.009 A 
ATOM     12  C   UNL d   1       0.097  -2.633   0.521  0.00  0.00     0.006 C 
ATOM     13  C   UNL d   1       1.495  -2.131   0.189  0.00  0.00     0.039 C 
ATOM     14  C   UNL d   1       2.924  -0.089   0.242  0.00  0.00     0.007 A 
ATOM     15  C   UNL d   1       2.029   2.138   0.389  0.00  0.00     0.001 A 
ATOM     16  C   UNL d   1       3.123   1.287   0.275  0.00  0.00     0.001 A 
ENDROOT
BRANCH   1  17
ATOM     17  C   UNL d   1      -3.902   1.685  -0.901  0.00  0.00     0.407 C 
BRANCH  17  18
ATOM     18  N   UNL d   1      -5.123   1.017  -1.359  0.00  0.00     0.110 N 
ATOM     19  C   UNL d   1      -5.962   0.394  -0.331  0.00  0.00     0.300 C 
ATOM     20  C   UNL d   1      -5.557  -1.048   0.018  0.00  0.00     0.198 C 
ATOM     21  O   UNL d   1      -5.430  -1.878  -1.144  0.00  0.00    -0.388 OA
ATOM     22  C   UNL d   1      -4.567  -1.306  -2.136  0.00  0.00     0.198 C 
ATOM     23  C   UNL d   1      -4.988   0.120  -2.510  0.00  0.00     0.300 C 
ENDBRANCH  17  18
ENDBRANCH   1  17
TORSDOF 2
