REMARK  5 active torsions:
REMARK  status: ('A' for Active; 'I' for Inactive)
REMARK    1  A    between atoms: C_8  and  C_5 
REMARK    2  A    between atoms: O_20  and  C_8 
REMARK    3  A    between atoms: C_9  and  N_16 
REMARK    4  A    between atoms: N_16  and  C_19 
REMARK    5  A    between atoms: C_24  and  O_20 
ROOT
ATOM      1  C   UNL d   1      -7.418  -1.163   0.504  0.00  0.00     0.135 C 
ATOM      2  C   UNL d   1      -6.231  -0.531   0.518  0.00  0.00     0.117 C 
ATOM      3  C   UNL d   1      -8.566  -0.584  -0.107  0.00  0.00     0.107 C 
ATOM      4  N   UNL d   1      -9.467  -0.070  -0.625  0.00  0.00    -0.191 NA
ENDROOT
BRANCH   1   5
ATOM      5  C   UNL d   1      -7.489  -2.528   1.076  0.00  0.00     0.305 C 
ATOM      6  O   UNL d   1      -6.543  -3.127   1.566  0.00  0.00    -0.258 OA
BRANCH   5   7
ATOM      7  O   UNL d   1      -8.733  -3.034   0.882  0.00  0.00    -0.317 OA
BRANCH   7   8
ATOM      8  C   UNL d   1      -8.848  -4.462   0.932  0.00  0.00     0.174 C 
ATOM      9  C   UNL d   1      -8.548  -4.997  -0.457  0.00  0.00     0.034 C 
ENDBRANCH   7   8
ENDBRANCH   5   7
ENDBRANCH   1   5
BRANCH   2  10
ATOM     10  N   UNL d   1      -5.945   0.721   0.025  0.00  0.00    -0.364 N 
ATOM     11  H   UNL d   1      -6.725   1.254  -0.357  0.00  0.00     0.165 HD
BRANCH  10  12
ATOM     12  C   UNL d   1      -4.716   1.396  -0.017  0.00  0.00     0.033 A 
ATOM     13  C   UNL d   1      -4.743   2.796  -0.024  0.00  0.00     0.048 A 
ATOM     14  C   UNL d   1      -3.555   3.530  -0.005  0.00  0.00     0.051 A 
ATOM     15  C   UNL d   1      -3.586   4.997   0.004  0.00  0.00     0.199 A 
ATOM     16  C   UNL d   1      -2.324   2.888   0.018  0.00  0.00     0.092 A 
ATOM     17  C   UNL d   1      -2.291   5.678   0.028  0.00  0.00     0.066 A 
ATOM     18  O   UNL d   1      -4.639   5.621  -0.004  0.00  0.00    -0.286 OA
ATOM     19  C   UNL d   1      -1.129   4.921   0.036  0.00  0.00     0.162 A 
ATOM     20  C   UNL d   1      -2.200   7.069   0.040  0.00  0.00     0.021 A 
ATOM     21  N   UNL d   1       0.104   5.478   0.050  0.00  0.00    -0.346 N 
ATOM     22  O   UNL d   1      -1.122   3.546   0.031  0.00  0.00    -0.292 OA
ATOM     23  C   UNL d   1       0.170   6.829   0.057  0.00  0.00     0.090 A 
ATOM     24  HN  UNL d   1       0.947   4.904   0.054  1.00  0.00     0.167 HD
ATOM     25  C   UNL d   1      -0.942   7.658   0.054  0.00  0.00     0.018 A 
ATOM     26  C   UNL d   1      -2.282   1.495   0.033  0.00  0.00     0.040 A 
ATOM     27  C   UNL d   1      -3.472   0.754   0.031  0.00  0.00     0.032 A 
ENDBRANCH  10  12
ENDBRANCH   2  10
TORSDOF 5
