REMARK  5 active torsions:
REMARK  status: ('A' for Active; 'I' for Inactive)
REMARK    1  A    between atoms: C_2  and  S_1 
REMARK    2  A    between atoms: C_8  and  S_1 
REMARK    3  A    between atoms: O_9  and  C_7 
REMARK    4  A    between atoms: C_11  and  C_8 
REMARK    5  A    between atoms: C_10  and  O_9 
ROOT
ATOM      1  C   UNL d   1       0.458   0.426   1.648  0.00  0.00     0.160 C 
ATOM      2  C   UNL d   1       0.930   0.060   0.366  0.00  0.00     0.113 C 
ATOM      3  N   UNL d   1       1.366  -0.288  -0.650  0.00  0.00    -0.191 NA
ATOM      4  C   UNL d   1       0.736  -0.313   2.733  0.00  0.00     0.169 C 
ENDROOT
BRANCH   1   5
ATOM      5  S   UNL d   1      -0.482   1.875   1.789  0.00  0.00     0.187 S 
ATOM      6  O   UNL d   1      -1.740   1.584   2.456  0.00  0.00    -0.222 OA
ATOM      7  O   UNL d   1      -0.513   2.563   0.509  0.00  0.00    -0.222 OA
BRANCH   5   8
ATOM      8  C   UNL d   1       0.475   2.910   2.892  0.00  0.00     0.146 C 
BRANCH   8   9
ATOM      9  C   UNL d   1       1.859   3.245   2.350  0.00  0.00     0.011 C 
ATOM     10  C   UNL d   1       2.631   4.133   3.312  0.00  0.00     0.006 C 
ENDBRANCH   8   9
ENDBRANCH   5   8
ENDBRANCH   1   5
BRANCH   4  11
ATOM     11  O   UNL d   1       0.259  -0.024   3.979  0.00  0.00    -0.361 OA
BRANCH  11  12
ATOM     12  C   UNL d   1       1.114  -0.425   5.051  0.00  0.00     0.170 C 
ATOM     13  C   UNL d   1       0.447   0.028   6.337  0.00  0.00     0.034 C 
ENDBRANCH  11  12
ENDBRANCH   4  11
TORSDOF 5
