REMARK  2 active torsions:
REMARK  status: ('A' for Active; 'I' for Inactive)
REMARK    1  A    between atoms: C_5  and  N_1 
REMARK    2  A    between atoms: C_14  and  C_9 
ROOT
ATOM      1  C   UNL d   1       0.711  -2.395  -0.152  0.00  0.00     0.046 A 
ATOM      2  C   UNL d   1       1.292  -5.186  -0.399  0.00  0.00    -0.055 A 
ATOM      3  C   UNL d   1       0.159  -3.176  -1.180  0.00  0.00     0.031 A 
ATOM      4  C   UNL d   1       1.570  -3.051   0.743  0.00  0.00     0.031 A 
ATOM      5  C   UNL d   1       0.447  -4.542  -1.306  0.00  0.00     0.010 A 
ATOM      6  C   UNL d   1       1.856  -4.420   0.624  0.00  0.00     0.010 A 
ENDROOT
BRANCH   1   7
ATOM      7  N   UNL d   1       0.417  -0.989  -0.041  0.00  0.00    -0.242 N 
ATOM      8  C   UNL d   1      -0.727  -0.436  -0.581  0.00  0.00     0.293 A 
ATOM      9  S   UNL d   1      -0.782   1.298  -0.333  0.00  0.00    -0.059 SA
ATOM     10  O   UNL d   1      -1.668  -0.986  -1.135  0.00  0.00    -0.259 OA
ATOM     11  C   UNL d   1       0.787   1.324   0.516  0.00  0.00     0.187 A 
ATOM     12  C   UNL d   1       1.256  -0.101   0.620  0.00  0.00     0.241 A 
ATOM     13  O   UNL d   1       2.309  -0.349   1.202  0.00  0.00    -0.272 OA
ENDBRANCH   1   7
BRANCH   2  14
ATOM     14  C   UNL d   1       1.576  -6.674  -0.488  0.00  0.00     0.010 C 
ATOM     15  C   UNL d   1       0.286  -7.490  -0.360  0.00  0.00     0.015 C 
ATOM     16  C   UNL d   1       2.324  -7.041  -1.772  0.00  0.00     0.015 C 
ENDBRANCH   2  14
TORSDOF 2
