REMARK  2 active torsions:
REMARK  status: ('A' for Active; 'I' for Inactive)
REMARK    1  A    between atoms: C_9  and  C_4 
REMARK    2  A    between atoms: C_8  and  C_10 
ROOT
ATOM      1  C   UNL d   1       1.327  -1.398   0.081  0.00  0.00     0.303 A 
ATOM      2  N   UNL d   1       1.180   1.390  -0.006  0.00  0.00    -0.335 N 
ATOM      3  HN  UNL d   1       1.163   2.409  -0.022  1.00  0.00     0.168 HD
ATOM      4  C   UNL d   1       2.292   0.736   0.001  0.00  0.00     0.162 A 
ATOM      5  O   UNL d   1       2.422  -0.601   0.039  0.00  0.00    -0.257 OA
ATOM      6  C   UNL d   1       0.003  -0.748   0.050  0.00  0.00     0.088 A 
ATOM      7  C   UNL d   1       0.001   0.645   0.008  0.00  0.00     0.052 A 
ATOM      8  O   UNL d   1       1.471  -2.612   0.134  0.00  0.00    -0.259 OA
ATOM      9  C   UNL d   1      -1.217  -1.444   0.053  0.00  0.00     0.052 A 
ATOM     10 CL   UNL d   1      -1.359  -3.165   0.114  0.00  0.00    -0.083 Cl
ATOM     11  C   UNL d   1      -1.212   1.341  -0.034  0.00  0.00     0.030 A 
ATOM     12  C   UNL d   1      -2.424   0.656  -0.042  0.00  0.00     0.004 A 
ATOM     13  C   UNL d   1      -2.425  -0.735   0.002  0.00  0.00     0.025 A 
ENDROOT
BRANCH   4  14
ATOM     14  C   UNL d   1       3.628   1.389  -0.027  0.00  0.00     0.016 A 
ATOM     15  C   UNL d   1       3.710   2.788   0.055  0.00  0.00     0.032 A 
ATOM     16  C   UNL d   1       4.957   3.437   0.039  0.00  0.00     0.048 A 
ATOM     17  C   UNL d   1       6.124   2.665  -0.078  0.00  0.00     0.016 A 
ATOM     18  C   UNL d   1       6.050   1.275  -0.164  0.00  0.00     0.002 A 
ATOM     19  C   UNL d   1       4.808   0.640  -0.134  0.00  0.00     0.016 A 
BRANCH  16  20
ATOM     20  C   UNL d   1       5.065   4.938   0.157  0.00  0.00     0.417 C 
ATOM     21  F   UNL d   1       3.863   5.564   0.291  0.00  0.00    -0.166 F 
ATOM     22  F   UNL d   1       5.806   5.319   1.234  0.00  0.00    -0.166 F 
ATOM     23  F   UNL d   1       5.663   5.504  -0.928  0.00  0.00    -0.166 F 
ENDBRANCH  16  20
ENDBRANCH   4  14
TORSDOF 2
