REMARK  2 active torsions:
REMARK  status: ('A' for Active; 'I' for Inactive)
REMARK    1  A    between atoms: C_6  and  C_1 
REMARK    2  A    between atoms: C_2  and  C_6 
REMARK       I    between atoms: N_14  and  C_2 
ROOT
ATOM      1  C   UNL d   1       0.700   0.798   1.117  0.00  0.00    -0.031 C 
ATOM      2  C   UNL d   1       0.501   0.443  -1.399  0.00  0.00    -0.013 C 
ATOM      3  C   UNL d   1      -1.541   0.236   0.057  0.00  0.00    -0.013 C 
ATOM      4  C   UNL d   1       0.266  -1.518   0.161  0.00  0.00    -0.013 C 
ATOM      5  C   UNL d   1      -0.832   1.024   1.170  0.00  0.00     0.014 C 
ATOM      6  C   UNL d   1       0.978  -0.719   1.270  0.00  0.00     0.014 C 
ATOM      7  C   UNL d   1       1.214   1.229  -0.285  0.00  0.00     0.014 C 
ATOM      8  C   UNL d   1      -1.248  -1.263   0.240  0.00  0.00     0.009 C 
ATOM      9  C   UNL d   1      -1.011   0.701  -1.308  0.00  0.00     0.009 C 
ATOM     10  C   UNL d   1       0.777  -1.057  -1.213  0.00  0.00     0.009 C 
ENDROOT
BRANCH   1  11
ATOM     11  C   UNL d   1       1.436   1.628   2.192  0.00  0.00     0.112 C 
BRANCH  11  12
ATOM     12  C   UNL d   1       1.063   1.289   3.623  0.00  0.00     0.216 C 
ATOM     13  O   UNL d   1       1.632   0.429   4.281  0.00  0.00    -0.274 OA
ATOM     14  N   UNL d   1       0.027   2.000   4.143  0.00  0.00    -0.370 N 
ATOM     15  H   UNL d   1      -0.501   2.683   3.617  0.00  0.00     0.159 HD
ATOM     16  H   UNL d   1      -0.272   1.775   5.083  0.00  0.00     0.159 HD
ENDBRANCH  11  12
ENDBRANCH   1  11
TORSDOF 2
