REMARK  22 active torsions:
REMARK  status: ('A' for Active; 'I' for Inactive)
REMARK    1  A    between atoms: C_8  and  N_1 
REMARK    2  A    between atoms: C_9  and  N_5 
REMARK    3  A    between atoms: C_10  and  C_8 
REMARK    4  A    between atoms: C_11  and  C_9 
REMARK    5  A    between atoms: C_21  and  C_10 
REMARK    6  A    between atoms: C_25  and  C_11 
REMARK    7  A    between atoms: C_12  and  C_14 
REMARK    8  A    between atoms: C_13  and  C_15 
REMARK    9  A    between atoms: C_14  and  C_24 
REMARK   10  A    between atoms: C_15  and  C_29 
REMARK   11  A    between atoms: C_16  and  C_17 
REMARK   12  A    between atoms: C_29  and  C_16 
REMARK   13  A    between atoms: C_17  and  C_18 
REMARK   14  A    between atoms: C_18  and  C_19 
REMARK   15  A    between atoms: C_19  and  C_20 
REMARK   16  A    between atoms: C_20  and  C_21 
REMARK   17  A    between atoms: C_22  and  C_28 
REMARK   18  A    between atoms: C_23  and  C_22 
REMARK   19  A    between atoms: C_24  and  C_23 
REMARK   20  A    between atoms: C_26  and  C_25 
REMARK   21  A    between atoms: C_27  and  C_26 
REMARK   22  A    between atoms: C_28  and  C_27 
ROOT
ATOM      1  N   UNL d   1       0.785   1.021  -0.218  0.00  0.00    -0.341 N 
ATOM      2  C   UNL d   1       1.595   0.045   0.339  0.00  0.00     0.139 C 
ATOM      3  S   UNL d   1       1.002  -1.566   0.004  0.00  0.00    -0.070 SA
ATOM      4  C   UNL d   1      -0.571   1.095   0.283  0.00  0.00     0.400 C 
ATOM      5  N   UNL d   1      -1.303  -0.078  -0.167  0.00  0.00     0.115 N 
ATOM      6  C   UNL d   1      -0.723  -1.297   0.404  0.00  0.00     0.355 C 
ATOM      7  S   UNL d   1       3.050   0.295   1.127  0.00  0.00    -0.053 SA
ENDROOT
BRANCH   1   8
ATOM      8  C   UNL d   1       1.349   2.209  -0.872  0.00  0.00     0.126 C 
BRANCH   8   9
ATOM      9  C   UNL d   1       2.108   1.789  -2.134  0.00  0.00     0.020 C 
BRANCH   9  10
ATOM     10  C   UNL d   1       2.667   2.968  -2.923  0.00  0.00     0.002 C 
BRANCH  10  11
ATOM     11  C   UNL d   1       3.419   2.443  -4.146  0.00  0.00     0.000 C 
BRANCH  11  12
ATOM     12  C   UNL d   1       4.022   3.568  -4.980  0.00  0.00     0.000 C 
BRANCH  12  13
ATOM     13  C   UNL d   1       4.774   2.995  -6.181  0.00  0.00     0.000 C 
BRANCH  13  14
ATOM     14  C   UNL d   1       5.389   4.103  -7.029  0.00  0.00     0.000 C 
BRANCH  14  15
ATOM     15  C   UNL d   1       6.140   3.526  -8.227  0.00  0.00     0.000 C 
BRANCH  15  16
ATOM     16  C   UNL d   1       6.754   4.639  -9.073  0.00  0.00     0.000 C 
BRANCH  16  17
ATOM     17  C   UNL d   1       7.510   4.072 -10.273  0.00  0.00    -0.000 C 
BRANCH  17  18
ATOM     18  C   UNL d   1       8.121   5.189 -11.117  0.00  0.00    -0.005 C 
ATOM     19  C   UNL d   1       8.876   4.631 -12.312  0.00  0.00     0.005 C 
ENDBRANCH  17  18
ENDBRANCH  16  17
ENDBRANCH  15  16
ENDBRANCH  14  15
ENDBRANCH  13  14
ENDBRANCH  12  13
ENDBRANCH  11  12
ENDBRANCH  10  11
ENDBRANCH   9  10
ENDBRANCH   8   9
ENDBRANCH   1   8
BRANCH   5  20
ATOM     20  C   UNL d   1      -2.723  -0.020   0.236  0.00  0.00     0.275 C 
BRANCH  20  21
ATOM     21  C   UNL d   1      -3.522   1.170  -0.308  0.00  0.00     0.030 C 
BRANCH  21  22
ATOM     22  C   UNL d   1      -3.508   1.250  -1.832  0.00  0.00     0.002 C 
BRANCH  22  23
ATOM     23  C   UNL d   1      -4.253   2.497  -2.306  0.00  0.00     0.000 C 
BRANCH  23  24
ATOM     24  C   UNL d   1      -4.284   2.571  -3.830  0.00  0.00     0.000 C 
BRANCH  24  25
ATOM     25  C   UNL d   1      -5.013   3.828  -4.293  0.00  0.00     0.000 C 
BRANCH  25  26
ATOM     26  C   UNL d   1      -5.065   3.901  -5.815  0.00  0.00     0.000 C 
BRANCH  26  27
ATOM     27  C   UNL d   1      -5.801   5.156  -6.275  0.00  0.00     0.000 C 
BRANCH  27  28
ATOM     28  C   UNL d   1      -5.857   5.231  -7.798  0.00  0.00     0.000 C 
BRANCH  28  29
ATOM     29  C   UNL d   1      -6.597   6.486  -8.258  0.00  0.00    -0.000 C 
BRANCH  29  30
ATOM     30  C   UNL d   1      -6.653   6.565  -9.782  0.00  0.00    -0.005 C 
ATOM     31  C   UNL d   1      -7.391   7.810 -10.242  0.00  0.00     0.005 C 
ENDBRANCH  29  30
ENDBRANCH  28  29
ENDBRANCH  27  28
ENDBRANCH  26  27
ENDBRANCH  25  26
ENDBRANCH  24  25
ENDBRANCH  23  24
ENDBRANCH  22  23
ENDBRANCH  21  22
ENDBRANCH  20  21
ENDBRANCH   5  20
TORSDOF 22
