REMARK  2 active torsions:
REMARK  status: ('A' for Active; 'I' for Inactive)
REMARK    1  A    between atoms: N_7  and  C_2 
REMARK    2  A    between atoms: C_9  and  N_7 
ROOT
ATOM      1  N   UNL d   1       3.235  -0.653  -0.089  0.00  0.00    -0.335 N 
ATOM      2  H   UNL d   1       3.256  -0.258   0.841  0.00  0.00     0.168 HD
ENDROOT
BRANCH   1   3
ATOM      3  C   UNL d   1       2.476   0.037  -0.990  0.00  0.00     0.166 A 
ATOM      4  S   UNL d   1       1.599   1.413  -0.334  0.00  0.00    -0.022 SA
ATOM      5  C   UNL d   1       0.879   1.645  -1.901  0.00  0.00     0.160 A 
ATOM      6  N   UNL d   1       1.421   0.736  -2.766  0.00  0.00    -0.282 N 
ATOM      7  S   UNL d   1      -0.275   2.755  -2.318  0.00  0.00    -0.051 SA
ATOM      8  N   UNL d   1       2.297  -0.172  -2.257  0.00  0.00    -0.278 N 
ATOM      9  H   UNL d   1       1.154   0.672  -3.742  0.00  0.00     0.188 HD
ATOM     10  HN  UNL d   1       2.749  -0.911  -2.796  1.00  0.00     0.189 HD
ENDBRANCH   1   3
BRANCH   1  11
ATOM     11  C   UNL d   1       3.568  -2.021  -0.142  0.00  0.00     0.036 A 
ATOM     12  C   UNL d   1       3.172  -2.874  -1.178  0.00  0.00     0.071 A 
ATOM     13  C   UNL d   1       3.538  -4.217  -1.173  0.00  0.00     0.118 A 
ATOM     14  F   UNL d   1       3.117  -5.015  -2.163  0.00  0.00    -0.206 F 
ATOM     15  C   UNL d   1       4.322  -4.744  -0.159  0.00  0.00     0.042 A 
ATOM     16  C   UNL d   1       4.762  -3.908   0.862  0.00  0.00     0.005 A 
ATOM     17  C   UNL d   1       4.393  -2.556   0.864  0.00  0.00     0.029 A 
ENDBRANCH   1  11
TORSDOF 2
