REMARK  2 active torsions:
REMARK  status: ('A' for Active; 'I' for Inactive)
REMARK    1  A    between atoms: N_7  and  C_4 
REMARK    2  A    between atoms: C_9  and  N_7 
ROOT
ATOM      1  C   UNL d   1      -2.370  -0.794   0.382  0.00  0.00     0.098 A 
ATOM      2  C   UNL d   1      -1.228  -1.741   0.311  0.00  0.00     0.199 A 
ATOM      3  C   UNL d   1      -1.828   0.584   0.502  0.00  0.00     0.199 A 
ATOM      4  C   UNL d   1      -3.669  -1.081   0.212  0.00  0.00     0.112 C 
ATOM      5  C   UNL d   1      -0.027  -0.902   0.256  0.00  0.00     0.029 A 
ATOM      6  C   UNL d   1      -0.369   0.446   0.370  0.00  0.00     0.029 A 
ATOM      7  C   UNL d   1      -4.113  -2.444   0.073  0.00  0.00     0.113 C 
ATOM      8  N   UNL d   1      -4.494  -3.533  -0.053  0.00  0.00    -0.190 NA
ATOM      9  O   UNL d   1      -2.455   1.607   0.675  0.00  0.00    -0.286 OA
ATOM     10  O   UNL d   1      -1.246  -2.949   0.259  0.00  0.00    -0.286 OA
ATOM     11  C   UNL d   1       1.278  -1.310   0.065  0.00  0.00     0.016 A 
ATOM     12  C   UNL d   1       0.590   1.436   0.305  0.00  0.00     0.016 A 
ATOM     13  C   UNL d   1       1.921   1.040   0.109  0.00  0.00     0.001 A 
ATOM     14  C   UNL d   1       2.259  -0.323  -0.012  0.00  0.00     0.001 A 
ENDROOT
BRANCH   4  15
ATOM     15  N   UNL d   1      -4.708  -0.148   0.114  0.00  0.00    -0.249 NA
ATOM     16  H   UNL d   1      -4.441   0.753   0.532  0.00  0.00     0.134 HD
BRANCH  15  17
ATOM     17  C   UNL d   1      -5.352   0.146  -1.133  0.00  0.00     0.019 A 
ATOM     18  C   UNL d   1      -6.498   0.969  -1.164  0.00  0.00    -0.039 A 
ATOM     19  C   UNL d   1      -7.152   1.202  -2.392  0.00  0.00     0.032 A 
ATOM     20  C   UNL d   1      -7.110   1.592   0.062  0.00  0.00     0.050 C 
ATOM     21  C   UNL d   1      -6.665   0.657  -3.576  0.00  0.00     0.034 A 
ATOM     22  C   UNL d   1      -5.514  -0.116  -3.564  0.00  0.00     0.026 A 
ATOM     23 CL   UNL d   1      -7.493   0.935  -5.058  0.00  0.00    -0.084 Cl
ATOM     24  C   UNL d   1      -4.867  -0.372  -2.352  0.00  0.00     0.026 A 
ENDBRANCH  15  17
ENDBRANCH   4  15
TORSDOF 2
