REMARK  3 active torsions:
REMARK  status: ('A' for Active; 'I' for Inactive)
REMARK    1  A    between atoms: C_10  and  C_1 
REMARK    2  A    between atoms: C_11  and  C_4 
REMARK    3  A    between atoms: N_12  and  C_7 
ROOT
ATOM      1  C   UNL d   1      -0.670   1.240  -0.113  0.00  0.00     0.086 A 
ATOM      2  N   UNL d   1      -1.321   0.056  -0.155  0.00  0.00    -0.295 N 
ATOM      3  HN  UNL d   1      -2.340   0.032  -0.197  1.00  0.00     0.187 HD
ATOM      4  C   UNL d   1       0.726   1.228  -0.013  0.00  0.00     0.074 A 
ATOM      5  N   UNL d   1       1.435   0.064  -0.004  0.00  0.00    -0.329 N 
ATOM      6  HN  UNL d   1       2.453   0.059   0.062  1.00  0.00     0.168 HD
ATOM      7  C   UNL d   1       0.733  -1.069  -0.086  0.00  0.00     0.170 A 
ATOM      8  N   UNL d   1      -0.606  -1.110  -0.140  0.00  0.00    -0.275 N 
ATOM      9  HN  UNL d   1      -1.090  -2.007  -0.171  1.00  0.00     0.189 HD
ENDROOT
BRANCH   1  10
ATOM     10  C   UNL d   1      -1.547   2.428  -0.178  0.00  0.00    -0.006 A 
ATOM     11  C   UNL d   1      -2.735   2.475   0.577  0.00  0.00     0.014 A 
ATOM     12  C   UNL d   1      -3.543   3.616   0.593  0.00  0.00     0.001 A 
ATOM     13  C   UNL d   1      -3.179   4.737  -0.146  0.00  0.00     0.000 A 
ATOM     14  C   UNL d   1      -2.032   4.704  -0.931  0.00  0.00     0.001 A 
ATOM     15  C   UNL d   1      -1.240   3.552  -0.966  0.00  0.00     0.014 A 
ENDBRANCH   1  10
BRANCH   4  16
ATOM     16  C   UNL d   1       1.580   2.436   0.058  0.00  0.00    -0.007 A 
ATOM     17  C   UNL d   1       1.295   3.516   0.913  0.00  0.00     0.014 A 
ATOM     18  C   UNL d   1       2.033   4.703   0.849  0.00  0.00     0.001 A 
ATOM     19  C   UNL d   1       3.103   4.812  -0.033  0.00  0.00     0.000 A 
ATOM     20  C   UNL d   1       3.453   3.729  -0.833  0.00  0.00     0.001 A 
ATOM     21  C   UNL d   1       2.700   2.552  -0.785  0.00  0.00     0.014 A 
ENDBRANCH   4  16
BRANCH   7  22
ATOM     22  N   UNL d   1       1.445  -2.255  -0.076  0.00  0.00    -0.273 NA
ATOM     23  H   UNL d   1       2.346  -2.112   0.363  0.00  0.00     0.127 HD
ATOM     24  H   UNL d   1       0.873  -3.011   0.274  0.00  0.00     0.127 HD
ENDBRANCH   7  22
TORSDOF 3
