REMARK  4 active torsions:
REMARK  status: ('A' for Active; 'I' for Inactive)
REMARK    1  A    between atoms: C_7  and  C_6 
REMARK    2  A    between atoms: O_8  and  C_10 
REMARK    3  A    between atoms: C_11  and  O_8 
REMARK    4  A    between atoms: C_12  and  C_11 
ROOT
ATOM      1  C   UNL d   1      -1.098  -2.000   0.567  0.00  0.00     0.125 C 
ATOM      2  N   UNL d   1      -1.406  -3.874   2.320  0.00  0.00    -0.191 NA
ATOM      3  N   UNL d   1      -3.092  -0.439   0.056  0.00  0.00    -0.191 NA
ATOM      4  C   UNL d   1      -1.261  -3.034   1.533  0.00  0.00     0.110 C 
ATOM      5  C   UNL d   1      -2.204  -1.141   0.301  0.00  0.00     0.110 C 
ATOM      6  C   UNL d   1       0.049  -1.820  -0.117  0.00  0.00     0.045 C 
ENDROOT
BRANCH   6   7
ATOM      7  C   UNL d   1       1.242  -2.665  -0.002  0.00  0.00    -0.032 A 
ATOM      8  C   UNL d   1       2.258  -2.362   0.913  0.00  0.00     0.048 A 
ATOM      9  C   UNL d   1       3.385  -3.184   1.011  0.00  0.00     0.070 A 
ATOM     10  C   UNL d   1       3.517  -4.276   0.149  0.00  0.00     0.037 A 
ATOM     11  C   UNL d   1       2.500  -4.589  -0.752  0.00  0.00     0.004 A 
ATOM     12  C   UNL d   1       1.361  -3.792  -0.821  0.00  0.00     0.011 A 
BRANCH   9  13
ATOM     13  O   UNL d   1       4.293  -2.839   1.982  0.00  0.00    -0.347 OA
BRANCH  13  14
ATOM     14  C   UNL d   1       5.159  -3.902   2.395  0.00  0.00     0.214 C 
BRANCH  14  15
ATOM     15  C   UNL d   1       5.777  -3.633   3.746  0.00  0.00    -0.034 A 
ATOM     16  C   UNL d   1       5.970  -4.703   4.637  0.00  0.00     0.009 A 
ATOM     17  C   UNL d   1       6.583  -4.501   5.872  0.00  0.00     0.001 A 
ATOM     18  C   UNL d   1       7.021  -3.228   6.229  0.00  0.00     0.000 A 
ATOM     19  C   UNL d   1       6.847  -2.159   5.350  0.00  0.00     0.001 A 
ATOM     20  C   UNL d   1       6.233  -2.360   4.112  0.00  0.00     0.009 A 
ENDBRANCH  14  15
ENDBRANCH  13  14
ENDBRANCH   9  13
ENDBRANCH   6   7
TORSDOF 4
