REMARK  4 active torsions:
REMARK  status: ('A' for Active; 'I' for Inactive)
REMARK    1  A    between atoms: C_6  and  C_1 
REMARK    2  A    between atoms: C_11  and  C_3 
REMARK    3  A    between atoms: O_15  and  C_6 
REMARK       I    between atoms: C_7  and  N_10 
REMARK       I    between atoms: N_14  and  C_7 
REMARK    4  A    between atoms: N_10  and  N_8 
ROOT
ATOM      1  C   UNL d   1      -0.165   1.183  -0.018  0.00  0.00     0.111 A 
ATOM      2  N   UNL d   1       0.633   0.055  -0.021  0.00  0.00    -0.355 N 
ATOM      3  C   UNL d   1      -1.476  -0.700  -0.032  0.00  0.00    -0.001 A 
ATOM      4  C   UNL d   1      -0.152  -1.081  -0.023  0.00  0.00     0.104 A 
ATOM      5  C   UNL d   1      -1.475   0.717  -0.025  0.00  0.00     0.050 A 
ATOM      6  C   UNL d   1       2.079  -0.020  -0.033  0.00  0.00     0.156 C 
ENDROOT
BRANCH   3   7
ATOM      7  C   UNL d   1      -2.620  -1.586  -0.048  0.00  0.00     0.120 C 
ATOM      8  N   UNL d   1      -3.795  -1.047  -0.064  0.00  0.00    -0.307 N 
ATOM      9  HN  UNL d   1      -3.928  -0.036  -0.063  1.00  0.00     0.186 HD
BRANCH   8  10
ATOM     10  N   UNL d   1      -4.848  -1.917  -0.085  0.00  0.00    -0.252 N 
ATOM     11  C   UNL d   1      -6.145  -1.467  -0.104  0.00  0.00     0.332 C 
ATOM     12  O   UNL d   1      -7.111  -2.216  -0.153  0.00  0.00    -0.246 OA
ATOM     13  N   UNL d   1      -6.264  -0.117  -0.059  0.00  0.00    -0.351 N 
ATOM     14  H   UNL d   1      -5.407   0.415  -0.127  0.00  0.00     0.160 HD
ATOM     15  H   UNL d   1      -7.168   0.317  -0.140  0.00  0.00     0.160 HD
ATOM     16  H   UNL d   1      -4.708  -2.921  -0.110  0.00  0.00     0.191 HD
ENDBRANCH   8  10
ENDBRANCH   3   7
BRANCH   1  17
ATOM     17  C   UNL d   1       0.268   2.570  -0.011  0.00  0.00     0.309 C 
ATOM     18  O   UNL d   1       1.423   2.972  -0.006  0.00  0.00    -0.258 OA
BRANCH  17  19
ATOM     19  O   UNL d   1      -0.829   3.382  -0.012  0.00  0.00    -0.321 OA
ATOM     20  C   UNL d   1      -0.546   4.780  -0.005  0.00  0.00     0.213 C 
ENDBRANCH  17  19
ENDBRANCH   1  17
TORSDOF 4
