REMARK  5 active torsions:
REMARK  status: ('A' for Active; 'I' for Inactive)
REMARK    1  A    between atoms: C_5  and  C_1 
REMARK    2  A    between atoms: C_7  and  C_2 
REMARK       I    between atoms: N_11  and  C_5 
REMARK    3  A    between atoms: C_6  and  C_10 
REMARK    4  A    between atoms: C_12  and  N_11 
REMARK    5  A    between atoms: O_24  and  C_18 
ROOT
ATOM      1  C   UNL d   1       0.622  -2.391  -0.386  0.00  0.00     0.261 C 
ATOM      2  N   UNL d   1      -0.178  -3.513  -0.189  0.00  0.00    -0.323 N 
ATOM      3  O   UNL d   1       1.829  -2.442  -0.594  0.00  0.00    -0.267 OA
ATOM      4  H   UNL d   1      -1.177  -3.397  -0.271  0.00  0.00     0.169 HD
ENDROOT
BRANCH   1   5
ATOM      5  C   UNL d   1      -0.009  -1.089  -0.295  0.00  0.00     0.093 A 
ATOM      6  C   UNL d   1      -1.194  -0.459  -0.813  0.00  0.00     0.085 A 
ATOM      7  N   UNL d   1      -1.231   0.821  -0.367  0.00  0.00    -0.259 N 
ATOM      8  O   UNL d   1      -0.093   1.054   0.342  0.00  0.00    -0.241 OA
ATOM      9  HN  UNL d   1      -1.980   1.492  -0.535  1.00  0.00     0.195 HD
ATOM     10  C   UNL d   1       0.651  -0.065   0.369  0.00  0.00     0.090 A 
ATOM     11  C   UNL d   1       1.954   0.038   1.063  0.00  0.00     0.080 C 
BRANCH   6  12
ATOM     12  C   UNL d   1      -2.300  -0.868  -1.703  0.00  0.00     0.015 A 
ATOM     13  C   UNL d   1      -2.237  -1.818  -2.735  0.00  0.00     0.046 A 
ATOM     14 CL   UNL d   1      -0.812  -2.681  -3.175  0.00  0.00    -0.083 Cl
ATOM     15  C   UNL d   1      -3.353  -2.058  -3.561  0.00  0.00     0.025 A 
ATOM     16  C   UNL d   1      -4.527  -1.321  -3.422  0.00  0.00     0.002 A 
ATOM     17  C   UNL d   1      -4.605  -0.350  -2.438  0.00  0.00     0.001 A 
ATOM     18  C   UNL d   1      -3.518  -0.144  -1.585  0.00  0.00     0.015 A 
ENDBRANCH   6  12
ENDBRANCH   1   5
BRANCH   2  19
ATOM     19  C   UNL d   1       0.343  -4.836  -0.205  0.00  0.00     0.038 A 
ATOM     20  C   UNL d   1       1.681  -5.113   0.116  0.00  0.00     0.046 A 
ATOM     21  C   UNL d   1       2.236  -6.387  -0.074  0.00  0.00     0.052 A 
ATOM     22  C   UNL d   1       1.413  -7.410  -0.553  0.00  0.00     0.053 A 
ATOM     23  C   UNL d   1       0.060  -7.166  -0.797  0.00  0.00     0.071 A 
ATOM     24  C   UNL d   1      -0.482  -5.888  -0.615  0.00  0.00     0.066 A 
BRANCH  21  25
ATOM     25  C   UNL d   1       3.710  -6.621   0.143  0.00  0.00     0.417 C 
ATOM     26  F   UNL d   1       4.333  -5.614   0.818  0.00  0.00    -0.166 F 
ATOM     27  F   UNL d   1       3.962  -7.752   0.860  0.00  0.00    -0.166 F 
ATOM     28  F   UNL d   1       4.391  -6.763  -1.027  0.00  0.00    -0.166 F 
ENDBRANCH  21  25
BRANCH  23  29
ATOM     29  O   UNL d   1      -0.640  -8.180  -1.393  0.00  0.00    -0.356 OA
ATOM     30  C   UNL d   1      -1.791  -8.585  -0.660  0.00  0.00     0.210 C 
ENDBRANCH  23  29
ENDBRANCH   2  19
TORSDOF 5
