REMARK  3 active torsions:
REMARK  status: ('A' for Active; 'I' for Inactive)
REMARK    1  A    between atoms: C_7  and  C_1 
REMARK    2  A    between atoms: C_2  and  C_9 
REMARK    3  A    between atoms: C_4  and  C_3 
ROOT
ATOM      1  C   UNL d   1       1.824  -4.766  -0.309  0.00  0.00     0.055 C 
ATOM      2  C   UNL d   1       1.370  -6.040  -0.311  0.00  0.00     0.036 C 
ATOM      3  C   UNL d   1       0.902  -3.673  -0.156  0.00  0.00     0.100 C 
ATOM      4  N   UNL d   1       0.149  -2.797  -0.047  0.00  0.00    -0.191 NA
ENDROOT
BRANCH   1   5
ATOM      5  C   UNL d   1       3.278  -4.482  -0.505  0.00  0.00    -0.015 A 
ATOM      6  C   UNL d   1       4.285  -5.384  -0.101  0.00  0.00     0.029 A 
ATOM      7  C   UNL d   1       5.654  -5.106  -0.293  0.00  0.00     0.048 A 
ATOM      8  C   UNL d   1       6.022  -3.892  -0.882  0.00  0.00     0.016 A 
ATOM      9  C   UNL d   1       5.046  -2.979  -1.273  0.00  0.00     0.002 A 
ATOM     10  C   UNL d   1       3.691  -3.273  -1.088  0.00  0.00     0.013 A 
BRANCH   7  11
ATOM     11  C   UNL d   1       6.722  -6.089   0.126  0.00  0.00     0.417 C 
ATOM     12  F   UNL d   1       6.222  -7.243   0.651  0.00  0.00    -0.166 F 
ATOM     13  F   UNL d   1       7.557  -5.580   1.073  0.00  0.00    -0.166 F 
ATOM     14  F   UNL d   1       7.519  -6.468  -0.911  0.00  0.00    -0.166 F 
ENDBRANCH   7  11
ENDBRANCH   1   5
BRANCH   2  15
ATOM     15  C   UNL d   1      -0.043  -6.415  -0.131  0.00  0.00    -0.013 A 
ATOM     16  C   UNL d   1      -0.941  -6.539  -1.206  0.00  0.00     0.045 A 
ATOM     17  C   UNL d   1      -2.289  -6.820  -0.974  0.00  0.00     0.048 A 
ATOM     18 CL   UNL d   1      -0.420  -6.349  -2.844  0.00  0.00    -0.083 Cl
ATOM     19  C   UNL d   1      -2.741  -6.987   0.333  0.00  0.00     0.035 A 
ATOM     20  C   UNL d   1      -1.859  -6.892   1.408  0.00  0.00     0.024 A 
ATOM     21 CL   UNL d   1      -4.406  -7.308   0.625  0.00  0.00    -0.084 Cl
ATOM     22  C   UNL d   1      -0.511  -6.608   1.177  0.00  0.00     0.015 A 
ENDBRANCH   2  15
TORSDOF 3
