REMARK  4 active torsions:
REMARK  status: ('A' for Active; 'I' for Inactive)
REMARK    1  A    between atoms: N_4  and  N_1 
REMARK    2  A    between atoms: S_8  and  C_3 
REMARK    3  A    between atoms: N_11  and  C_3 
REMARK    4  A    between atoms: C_7  and  C_6 
ROOT
ATOM      1  N   UNL d   1       0.993  -0.053  -0.103  0.00  0.00    -0.303 N 
ATOM      2  HN  UNL d   1       0.504  -0.737   0.475  1.00  0.00     0.186 HD
ATOM      3  C   UNL d   1       2.290   0.057  -0.107  0.00  0.00     0.032 C 
ATOM      4  C   UNL d   1       3.078   0.972  -1.023  0.00  0.00     0.070 C 
ENDROOT
BRANCH   1   5
ATOM      5  N   UNL d   1       0.325   0.825  -0.939  0.00  0.00    -0.284 N 
ATOM      6  C   UNL d   1      -0.781   0.394  -1.468  0.00  0.00     0.130 C 
ATOM      7  HN  UNL d   1       0.681   1.762  -1.130  1.00  0.00     0.188 HD
BRANCH   6   8
ATOM      8  S   UNL d   1      -1.445  -1.221  -1.352  0.00  0.00    -0.103 SA
ATOM      9  C   UNL d   1      -1.828  -1.276   0.408  0.00  0.00     0.098 C 
ENDBRANCH   6   8
BRANCH   6  10
ATOM     10  N   UNL d   1      -1.521   1.207  -2.273  0.00  0.00    -0.282 NA
ATOM     11  H   UNL d   1      -0.986   1.984  -2.638  0.00  0.00     0.126 HD
ATOM     12  H   UNL d   1      -2.068   0.709  -2.963  0.00  0.00     0.126 HD
ENDBRANCH   6  10
ENDBRANCH   1   5
BRANCH   3  13
ATOM     13  C   UNL d   1       3.062  -0.751   0.886  0.00  0.00    -0.012 A 
ATOM     14  C   UNL d   1       4.362  -1.202   0.625  0.00  0.00     0.016 A 
ATOM     15  C   UNL d   1       5.054  -1.930   1.597  0.00  0.00     0.043 A 
ATOM     16  C   UNL d   1       4.449  -2.195   2.822  0.00  0.00     0.116 A 
ATOM     17  C   UNL d   1       3.160  -1.756   3.093  0.00  0.00     0.043 A 
ATOM     18  F   UNL d   1       5.122  -2.883   3.753  0.00  0.00    -0.206 F 
ATOM     19  C   UNL d   1       2.462  -1.037   2.123  0.00  0.00     0.016 A 
ENDBRANCH   3  13
TORSDOF 4
