REMARK  6 active torsions:
REMARK  status: ('A' for Active; 'I' for Inactive)
REMARK    1  A    between atoms: S_3  and  C_1 
REMARK    2  A    between atoms: C_7  and  C_2 
REMARK    3  A    between atoms: N_8  and  S_3 
REMARK    4  A    between atoms: O_18  and  C_7 
REMARK    5  A    between atoms: C_13  and  N_8 
REMARK    6  A    between atoms: C_9  and  C_13 
ROOT
ATOM      1  C   UNL d   1       0.763   1.382   0.017  0.00  0.00     0.128 A 
ATOM      2  C   UNL d   1      -0.676   1.409   0.033  0.00  0.00     0.092 A 
ATOM      3  C   UNL d   1       1.146   0.053   0.036  0.00  0.00     0.073 A 
ATOM      4  C   UNL d   1      -1.056   0.074   0.052  0.00  0.00     0.068 A 
ATOM      5  O   UNL d   1       0.038  -0.734   0.057  0.00  0.00    -0.317 OA
ATOM      6  C   UNL d   1       2.417  -0.702   0.035  0.00  0.00     0.078 C 
ATOM      7  C   UNL d   1      -2.356  -0.637   0.046  0.00  0.00     0.078 C 
ENDROOT
BRANCH   1   8
ATOM      8  S   UNL d   1       1.773   2.773  -0.037  0.00  0.00     0.262 S 
ATOM      9  O   UNL d   1       3.131   2.296  -0.093  0.00  0.00    -0.200 OA
ATOM     10  O   UNL d   1       1.171   3.522  -1.121  0.00  0.00    -0.200 OA
BRANCH   8  11
ATOM     11  N   UNL d   1       1.549   3.659   1.365  0.00  0.00    -0.311 N 
ATOM     12  H   UNL d   1       0.574   3.863   1.587  0.00  0.00     0.172 HD
BRANCH  11  13
ATOM     13  C   UNL d   1       2.359   3.245   2.517  0.00  0.00     0.178 C 
BRANCH  13  14
ATOM     14  C   UNL d   1       2.075   4.179   3.656  0.00  0.00     0.001 A 
ATOM     15  S   UNL d   1       1.481   3.565   5.142  0.00  0.00    -0.105 SA
ATOM     16  C   UNL d   1       1.507   5.113   5.869  0.00  0.00     0.050 A 
ATOM     17  C   UNL d   1       1.938   6.086   4.996  0.00  0.00     0.008 A 
ATOM     18  C   UNL d   1       2.261   5.548   3.717  0.00  0.00     0.017 A 
ENDBRANCH  13  14
ENDBRANCH  11  13
ENDBRANCH   8  11
ENDBRANCH   1   8
BRANCH   2  19
ATOM     19  C   UNL d   1      -1.624   2.513   0.073  0.00  0.00     0.180 C 
ATOM     20  O   UNL d   1      -2.711   2.425   0.625  0.00  0.00    -0.646 OA
BRANCH  19  21
ATOM     21  O   UNL d   1      -1.245   3.677  -0.504  0.00  0.00    -0.773 OA
ATOM     22  H   UNL d   1      -0.426   3.655  -1.056  0.00  0.00     0.167 HD
ENDBRANCH  19  21
ENDBRANCH   2  19
TORSDOF 6
