REMARK  4 active torsions:
REMARK  status: ('A' for Active; 'I' for Inactive)
REMARK    1  A    between atoms: C_8  and  N_2 
REMARK    2  A    between atoms: C_9  and  N_3 
REMARK    3  A    between atoms: C_11  and  C_5 
REMARK    4  A    between atoms: S_15  and  C_14 
ROOT
ATOM      1  C   UNL d   1       0.943  -0.997  -0.199  0.00  0.00     0.157 A 
ATOM      2  N   UNL d   1      -0.443  -1.272  -0.070  0.00  0.00    -0.294 N 
ATOM      3  N   UNL d   1       2.058  -1.591  -0.412  0.00  0.00    -0.322 N 
ATOM      4  HN  UNL d   1       2.908  -1.028  -0.398  1.00  0.00     0.169 HD
ATOM      5  C   UNL d   1      -1.264  -0.098   0.078  0.00  0.00     0.033 A 
ATOM      6  S   UNL d   1       1.174   0.780  -0.015  0.00  0.00    -0.063 SA
ATOM      7  C   UNL d   1      -0.525   1.034   0.113  0.00  0.00     0.079 A 
ENDROOT
BRANCH   2   8
ATOM      8  C   UNL d   1      -0.900  -2.614   0.075  0.00  0.00     0.043 A 
ATOM      9  C   UNL d   1      -0.440  -3.427   1.137  0.00  0.00     0.048 A 
ATOM     10  C   UNL d   1      -0.818  -4.774   1.242  0.00  0.00     0.002 A 
ATOM     11  C   UNL d   1      -1.734  -5.290   0.315  0.00  0.00     0.018 A 
ATOM     12  C   UNL d   1      -2.200  -4.508  -0.737  0.00  0.00     0.004 A 
ATOM     13  C   UNL d   1      -1.752  -3.195  -0.874  0.00  0.00     0.030 A 
BRANCH  10  14
ATOM     14  S   UNL d   1      -0.209  -5.934   2.463  0.00  0.00    -0.134 SA
ATOM     15  C   UNL d   1       1.227  -5.092   3.175  0.00  0.00     0.095 C 
ENDBRANCH  10  14
ENDBRANCH   2   8
BRANCH   3  16
ATOM     16  C   UNL d   1       2.186  -2.944  -0.661  0.00  0.00     0.106 A 
ATOM     17  N   UNL d   1       1.389  -3.505  -1.588  0.00  0.00    -0.352 N 
ATOM     18  C   UNL d   1       1.539  -4.831  -1.801  0.00  0.00     0.089 A 
ATOM     19  HN  UNL d   1       0.703  -2.955  -2.106  1.00  0.00     0.166 HD
ATOM     20  C   UNL d   1       2.490  -5.618  -1.169  0.00  0.00     0.017 A 
ATOM     21  C   UNL d   1       3.350  -5.004  -0.273  0.00  0.00     0.005 A 
ATOM     22  C   UNL d   1       3.201  -3.644  -0.017  0.00  0.00     0.048 A 
ENDBRANCH   3  16
BRANCH   5  23
ATOM     23  C   UNL d   1      -2.815  -0.018   0.166  0.00  0.00    -0.008 C 
ATOM     24  C   UNL d   1      -3.478  -1.065   1.082  0.00  0.00     0.021 C 
ATOM     25  C   UNL d   1      -3.297   1.347   0.758  0.00  0.00     0.021 C 
ATOM     26  C   UNL d   1      -3.418  -0.067  -1.255  0.00  0.00     0.021 C 
ENDBRANCH   5  23
TORSDOF 4
