REMARK  4 active torsions:
REMARK  status: ('A' for Active; 'I' for Inactive)
REMARK    1  A    between atoms: C_7  and  C_1 
REMARK    2  A    between atoms: C_4  and  N_10 
REMARK    3  A    between atoms: O_19  and  C_5 
REMARK    4  A    between atoms: C_17  and  N_6 
REMARK       I    between atoms: N_10  and  C_7 
ROOT
ATOM      1  C   UNL d   1      -2.324   3.539   0.015  0.00  0.00     0.265 C 
ATOM      2  N   UNL d   1      -1.748   4.679   0.521  0.00  0.00    -0.307 N 
ATOM      3  O   UNL d   1      -3.488   3.476  -0.393  0.00  0.00    -0.267 OA
ATOM      4  H   UNL d   1      -0.724   4.717   0.574  0.00  0.00     0.170 HD
ENDROOT
BRANCH   1   5
ATOM      5  C   UNL d   1      -1.438   2.340  -0.084  0.00  0.00     0.134 C 
ATOM      6  C   UNL d   1       0.033   2.380   0.170  0.00  0.00     0.266 C 
ATOM      7  N   UNL d   1       0.763   1.200   0.029  0.00  0.00    -0.312 N 
ATOM      8  O   UNL d   1       0.561   3.459   0.440  0.00  0.00    -0.267 OA
ATOM      9  C   UNL d   1       2.204   1.282   0.196  0.00  0.00     0.133 C 
ATOM     10  C   UNL d   1       0.123  -0.053  -0.131  0.00  0.00     0.056 A 
ATOM     11  C   UNL d   1       3.025   0.025  -0.052  0.00  0.00     0.025 C 
ATOM     12  C   UNL d   1       2.315  -1.291   0.199  0.00  0.00     0.042 C 
ATOM     13  C   UNL d   1       0.836  -1.254  -0.030  0.00  0.00    -0.030 A 
ATOM     14  C   UNL d   1       0.139  -2.475  -0.056  0.00  0.00     0.009 A 
ATOM     15  C   UNL d   1      -1.243  -2.505  -0.208  0.00  0.00     0.002 A 
ATOM     16  C   UNL d   1      -1.940  -1.314  -0.365  0.00  0.00     0.016 A 
ATOM     17  C   UNL d   1      -1.265  -0.083  -0.334  0.00  0.00     0.026 A 
ATOM     18  C   UNL d   1      -2.012   1.169  -0.443  0.00  0.00     0.099 C 
BRANCH  18  19
ATOM     19  O   UNL d   1      -3.313   1.035  -0.897  0.00  0.00    -0.359 OA
ATOM     20  H   UNL d   1      -3.708   1.932  -0.989  0.00  0.00     0.217 HD
ENDBRANCH  18  19
ENDBRANCH   1   5
BRANCH   2  21
ATOM     21  C   UNL d   1      -2.465   5.868   0.546  0.00  0.00     0.132 C 
ATOM     22  N   UNL d   1      -1.939   7.102   0.176  0.00  0.00    -0.240 N 
ATOM     23  N   UNL d   1      -2.810   8.112   0.442  0.00  0.00    -0.297 N 
ATOM     24  C   UNL d   1      -3.955   7.493   0.762  0.00  0.00     0.026 C 
ATOM     25  HN  UNL d   1      -2.631   9.116   0.406  1.00  0.00     0.187 HD
ATOM     26  C   UNL d   1      -3.774   6.103   0.903  0.00  0.00     0.076 C 
ATOM     27  C   UNL d   1      -5.218   8.256   0.908  0.00  0.00     0.070 C 
BRANCH  22  28
ATOM     28  C   UNL d   1      -0.736   7.350  -0.543  0.00  0.00     0.058 A 
ATOM     29  C   UNL d   1      -0.217   6.386  -1.419  0.00  0.00     0.031 A 
ATOM     30  C   UNL d   1       0.973   6.620  -2.100  0.00  0.00     0.002 A 
ATOM     31  C   UNL d   1       1.650   7.826  -1.919  0.00  0.00     0.000 A 
ATOM     32  C   UNL d   1       1.115   8.801  -1.078  0.00  0.00     0.002 A 
ATOM     33  C   UNL d   1      -0.088   8.581  -0.400  0.00  0.00     0.031 A 
ENDBRANCH  22  28
ENDBRANCH   2  21
TORSDOF 4
