REMARK  3 active torsions:
REMARK  status: ('A' for Active; 'I' for Inactive)
REMARK    1  A    between atoms: O_7  and  C_1 
REMARK    2  A    between atoms: C_10  and  O_7 
REMARK       I    between atoms: C_8  and  N_9 
REMARK    3  A    between atoms: N_9  and  C_12 
ROOT
ATOM      1  O   UNL d   1       0.010  -3.066  -0.287  0.00  0.00    -0.304 OA
ENDROOT
BRANCH   1   2
ATOM      2  C   UNL d   1       0.043  -1.785   0.229  0.00  0.00     0.159 A 
ATOM      3  C   UNL d   1       1.196  -0.989   0.289  0.00  0.00     0.195 A 
ATOM      4  C   UNL d   1       1.167   0.250   0.921  0.00  0.00     0.199 A 
ATOM      5  F   UNL d   1       2.351  -1.406  -0.251  0.00  0.00    -0.200 F 
ATOM      6  F   UNL d   1       2.292   0.971   1.029  0.00  0.00    -0.199 F 
ATOM      7  C   UNL d   1      -0.023   0.738   1.436  0.00  0.00     0.199 A 
ATOM      8  C   UNL d   1      -1.190  -0.005   1.307  0.00  0.00     0.199 A 
ATOM      9  F   UNL d   1      -0.052   1.935   2.040  0.00  0.00    -0.199 F 
ATOM     10  C   UNL d   1      -1.157  -1.260   0.708  0.00  0.00     0.195 A 
ATOM     11  F   UNL d   1      -2.350   0.490   1.762  0.00  0.00    -0.199 F 
ATOM     12  F   UNL d   1      -2.290  -1.970   0.601  0.00  0.00    -0.200 F 
ENDBRANCH   1   2
BRANCH   1  13
ATOM     13  C   UNL d   1       1.083  -3.892  -0.019  0.00  0.00     0.078 C 
ATOM     14  C   UNL d   1       1.783  -3.851   1.191  0.00  0.00     0.066 C 
ATOM     15  C   UNL d   1       2.987  -4.537   1.338  0.00  0.00     0.037 C 
ATOM     16  C   UNL d   1       3.395  -5.401   0.315  0.00  0.00     0.029 C 
ATOM     17  C   UNL d   1       2.627  -5.542  -0.847  0.00  0.00     0.005 C 
ATOM     18  C   UNL d   1       1.475  -4.774  -1.021  0.00  0.00     0.037 C 
BRANCH  15  19
ATOM     19  N   UNL d   1       3.844  -4.357   2.446  0.00  0.00    -0.327 N 
ATOM     20  C   UNL d   1       3.700  -3.419   3.458  0.00  0.00     0.218 C 
ATOM     21  O   UNL d   1       2.784  -2.616   3.596  0.00  0.00    -0.274 OA
ATOM     22  C   UNL d   1       4.828  -3.449   4.462  0.00  0.00     0.117 C 
ATOM     23  H   UNL d   1       4.701  -4.893   2.431  0.00  0.00     0.169 HD
ENDBRANCH  15  19
ENDBRANCH   1  13
TORSDOF 3
