REMARK  3 active torsions:
REMARK  status: ('A' for Active; 'I' for Inactive)
REMARK    1  A    between atoms: C_9  and  N_1 
REMARK    2  A    between atoms: C_7  and  C_4 
REMARK    3  A    between atoms: C_8  and  C_6 
ROOT
ATOM      1  N   UNL d   1       0.945  -0.757  -0.034  0.00  0.00    -0.291 N 
ATOM      2  N   UNL d   1       1.010   0.596  -0.094  0.00  0.00    -0.301 N 
ATOM      3  HN  UNL d   1       1.850   1.171  -0.162  1.00  0.00     0.187 HD
ATOM      4  C   UNL d   1      -0.355  -1.237  -0.050  0.00  0.00     0.038 A 
ATOM      5  C   UNL d   1      -1.131  -0.086  -0.017  0.00  0.00     0.054 A 
ATOM      6  C   UNL d   1      -0.255   1.015  -0.044  0.00  0.00     0.035 A 
ENDROOT
BRANCH   4   7
ATOM      7  C   UNL d   1      -0.873  -2.680  -0.010  0.00  0.00    -0.007 C 
ATOM      8  C   UNL d   1      -1.157  -3.060   1.456  0.00  0.00     0.021 C 
ATOM      9  C   UNL d   1      -2.205  -2.768  -0.807  0.00  0.00     0.021 C 
ATOM     10  C   UNL d   1       0.037  -3.746  -0.638  0.00  0.00     0.021 C 
ENDBRANCH   4   7
BRANCH   1  11
ATOM     11  C   UNL d   1       2.221  -1.468   0.022  0.00  0.00     0.100 C 
ATOM     12  C   UNL d   1       2.784  -1.683  -1.383  0.00  0.00     0.034 C 
ATOM     13  C   UNL d   1       3.269  -0.767   0.899  0.00  0.00     0.034 C 
ENDBRANCH   1  11
BRANCH   6  14
ATOM     14  C   UNL d   1      -0.621   2.490  -0.029  0.00  0.00    -0.007 C 
ATOM     15  C   UNL d   1       0.620   3.406  -0.072  0.00  0.00     0.021 C 
ATOM     16  C   UNL d   1      -1.501   2.823  -1.252  0.00  0.00     0.021 C 
ATOM     17  C   UNL d   1      -1.412   2.824   1.254  0.00  0.00     0.021 C 
ENDBRANCH   6  14
TORSDOF 3
