REMARK  2 active torsions:
REMARK  status: ('A' for Active; 'I' for Inactive)
REMARK    1  A    between atoms: C_2  and  C_1 
REMARK    2  A    between atoms: N_13  and  C_2 
ROOT
ATOM      1  C   UNL d   1      -1.575   0.254   0.161  0.00  0.00     0.014 C 
ATOM      2  C   UNL d   1      -0.763   1.008   1.258  0.00  0.00     0.021 C 
ATOM      3  C   UNL d   1      -1.056   0.748  -1.220  0.00  0.00     0.021 C 
ATOM      4  C   UNL d   1      -1.234  -1.259   0.294  0.00  0.00     0.021 C 
ATOM      5  C   UNL d   1       0.280  -1.504   0.147  0.00  0.00    -0.013 C 
ATOM      6  C   UNL d   1       0.748   0.767   1.115  0.00  0.00    -0.013 C 
ATOM      7  C   UNL d   1       0.457   0.503  -1.367  0.00  0.00    -0.013 C 
ATOM      8  C   UNL d   1       1.030  -0.736   1.244  0.00  0.00     0.009 C 
ATOM      9  C   UNL d   1       0.744  -1.001  -1.230  0.00  0.00     0.009 C 
ATOM     10  C   UNL d   1       1.207   1.263  -0.263  0.00  0.00     0.009 C 
ENDROOT
BRANCH   1  11
ATOM     11  C   UNL d   1      -3.127   0.458   0.246  0.00  0.00     0.081 C 
ATOM     12  S   UNL d   1      -3.853   1.419   1.421  0.00  0.00    -0.065 SA
BRANCH  11  13
ATOM     13  N   UNL d   1      -3.845  -0.216  -0.731  0.00  0.00    -0.388 N 
ATOM     14  C   UNL d   1      -5.286  -0.225  -0.931  0.00  0.00     0.147 C 
ATOM     15  H   UNL d   1      -3.328  -0.774  -1.397  0.00  0.00     0.159 HD
ENDBRANCH  11  13
ENDBRANCH   1  11
TORSDOF 2
