REMARK  3 active torsions:
REMARK  status: ('A' for Active; 'I' for Inactive)
REMARK    1  A    between atoms: C_11  and  N_1 
REMARK    2  A    between atoms: C_12  and  C_6 
REMARK    3  A    between atoms: O_19  and  C_15 
ROOT
ATOM      1  N   UNL d   1      -3.048   1.059  -0.047  0.00  0.00    -0.282 N 
ATOM      2  N   UNL d   1      -1.749   1.470  -0.234  0.00  0.00    -0.300 N 
ATOM      3  HN  UNL d   1      -1.437   2.385  -0.560  1.00  0.00     0.187 HD
ATOM      4  C   UNL d   1      -1.000   0.458   0.088  0.00  0.00     0.045 C 
ATOM      5  C   UNL d   1      -1.735  -0.711   0.690  0.00  0.00     0.077 C 
ATOM      6  C   UNL d   1      -3.154  -0.387   0.198  0.00  0.00     0.152 C 
ATOM      7  C   UNL d   1       0.461   0.427  -0.001  0.00  0.00     0.005 A 
ATOM      8  S   UNL d   1       0.184  -2.256  -0.713  0.00  0.00    -0.128 SA
ATOM      9  C   UNL d   1      -1.179  -2.106   0.480  0.00  0.00     0.092 C 
ATOM     10  C   UNL d   1       1.099  -0.783  -0.297  0.00  0.00     0.012 A 
ATOM     11  C   UNL d   1       1.199   1.594   0.217  0.00  0.00     0.015 A 
ATOM     12  C   UNL d   1       2.496  -0.820  -0.341  0.00  0.00     0.019 A 
ATOM     13  C   UNL d   1       2.592   1.542   0.184  0.00  0.00     0.001 A 
ATOM     14  C   UNL d   1       3.240   0.336  -0.086  0.00  0.00     0.001 A 
ENDROOT
BRANCH   6  15
ATOM     15  C   UNL d   1      -3.620  -1.134  -1.043  0.00  0.00    -0.033 A 
ATOM     16  C   UNL d   1      -4.732  -1.987  -0.961  0.00  0.00     0.012 A 
ATOM     17  C   UNL d   1      -5.157  -2.715  -2.075  0.00  0.00     0.037 A 
ATOM     18  C   UNL d   1      -4.479  -2.618  -3.291  0.00  0.00     0.068 A 
ATOM     19  C   UNL d   1      -3.393  -1.751  -3.394  0.00  0.00     0.037 A 
ATOM     20  C   UNL d   1      -2.973  -1.012  -2.283  0.00  0.00     0.012 A 
BRANCH  18  21
ATOM     21  O   UNL d   1      -4.977  -3.408  -4.290  0.00  0.00    -0.356 OA
ATOM     22  C   UNL d   1      -4.209  -3.481  -5.485  0.00  0.00     0.210 C 
ENDBRANCH  18  21
ENDBRANCH   6  15
BRANCH   1  23
ATOM     23  C   UNL d   1      -4.127   1.930  -0.192  0.00  0.00     0.051 A 
ATOM     24  C   UNL d   1      -3.952   3.227  -0.697  0.00  0.00     0.031 A 
ATOM     25  C   UNL d   1      -5.027   4.112  -0.846  0.00  0.00     0.002 A 
ATOM     26  C   UNL d   1      -6.309   3.722  -0.475  0.00  0.00     0.000 A 
ATOM     27  C   UNL d   1      -6.513   2.449   0.040  0.00  0.00     0.002 A 
ATOM     28  C   UNL d   1      -5.435   1.566   0.175  0.00  0.00     0.031 A 
ENDBRANCH   1  23
TORSDOF 3
