REMARK  3 active torsions:
REMARK  status: ('A' for Active; 'I' for Inactive)
REMARK    1  A    between atoms: S_2  and  C_1 
REMARK       I    between atoms: N_4  and  C_1 
REMARK    2  A    between atoms: C_3  and  S_2 
REMARK    3  A    between atoms: C_7  and  N_4 
ROOT
ATOM      1  C   UNL d   1       0.843   0.181   0.070  0.00  0.00     0.289 C 
ATOM      2  N   UNL d   1       0.111  -0.887   0.502  0.00  0.00    -0.318 N 
ATOM      3  O   UNL d   1       2.041   0.385   0.174  0.00  0.00    -0.260 OA
ATOM      4  H   UNL d   1      -0.836  -0.909   0.142  0.00  0.00     0.169 HD
ENDROOT
BRANCH   1   5
ATOM      5  S   UNL d   1      -0.238   1.362  -0.660  0.00  0.00    -0.028 SA
BRANCH   5   6
ATOM      6  C   UNL d   1      -0.136   0.979  -2.405  0.00  0.00     0.031 A 
ATOM      7  C   UNL d   1      -0.731  -0.139  -3.013  0.00  0.00     0.051 A 
ATOM      8 CL   UNL d   1      -1.581  -1.354  -2.121  0.00  0.00    -0.083 Cl
ATOM      9  C   UNL d   1      -0.714  -0.287  -4.406  0.00  0.00     0.025 A 
ATOM     10  C   UNL d   1      -0.126   0.688  -5.211  0.00  0.00     0.002 A 
ATOM     11  C   UNL d   1       0.458   1.806  -4.626  0.00  0.00     0.001 A 
ATOM     12  C   UNL d   1       0.458   1.948  -3.233  0.00  0.00     0.021 A 
ENDBRANCH   5   6
ENDBRANCH   1   5
BRANCH   2  13
ATOM     13  C   UNL d   1       0.528  -1.976   1.284  0.00  0.00     0.035 A 
ATOM     14  C   UNL d   1       1.717  -1.991   2.014  0.00  0.00     0.029 A 
ATOM     15  C   UNL d   1       2.043  -3.099   2.804  0.00  0.00     0.002 A 
ATOM     16  C   UNL d   1       1.194  -4.204   2.848  0.00  0.00     0.000 A 
ATOM     17  C   UNL d   1       0.007  -4.196   2.120  0.00  0.00     0.002 A 
ATOM     18  C   UNL d   1      -0.330  -3.081   1.351  0.00  0.00     0.029 A 
ENDBRANCH   2  13
TORSDOF 3
