REMARK  9 active torsions:
REMARK  status: ('A' for Active; 'I' for Inactive)
REMARK    1  A    between atoms: C_6  and  C_1 
REMARK    2  A    between atoms: C_14  and  N_2 
REMARK    3  A    between atoms: C_8  and  C_4 
REMARK    4  A    between atoms: O_15  and  C_6 
REMARK       I    between atoms: C_7  and  N_12 
REMARK    5  A    between atoms: O_9  and  C_7 
REMARK    6  A    between atoms: C_13  and  O_9 
REMARK    7  A    between atoms: N_12  and  C_17 
REMARK    8  A    between atoms: C_17  and  C_14 
REMARK    9  A    between atoms: C_23  and  O_15 
ROOT
ATOM      1  C   UNL d   1      -0.308   1.472  -0.065  0.00  0.00     0.064 A 
ATOM      2  N   UNL d   1       0.890  -0.447  -0.120  0.00  0.00    -0.347 N 
ATOM      3  C   UNL d   1       0.982   0.951  -0.092  0.00  0.00     0.024 A 
ATOM      4  C   UNL d   1      -0.456  -0.816  -0.160  0.00  0.00     0.046 A 
ATOM      5  C   UNL d   1      -1.181   0.365  -0.120  0.00  0.00     0.050 A 
ATOM      6  C   UNL d   1       2.247   1.747  -0.042  0.00  0.00     0.069 C 
ENDROOT
BRANCH   2   7
ATOM      7  C   UNL d   1       2.035  -1.348  -0.013  0.00  0.00     0.149 C 
BRANCH   7   8
ATOM      8  C   UNL d   1       2.340  -2.177  -1.267  0.00  0.00     0.145 C 
BRANCH   8   9
ATOM      9  N   UNL d   1       3.636  -2.847  -1.207  0.00  0.00    -0.335 N 
ATOM     10  C   UNL d   1       3.928  -3.831  -0.311  0.00  0.00     0.361 C 
ATOM     11  O   UNL d   1       3.159  -4.196   0.565  0.00  0.00    -0.238 OA
ATOM     12  H   UNL d   1       4.280  -2.772  -1.990  0.00  0.00     0.164 HD
BRANCH  10  13
ATOM     13  O   UNL d   1       5.158  -4.346  -0.555  0.00  0.00    -0.294 OA
BRANCH  13  14
ATOM     14  C   UNL d   1       5.640  -5.513   0.172  0.00  0.00     0.061 C 
ATOM     15  C   UNL d   1       4.713  -6.714  -0.069  0.00  0.00     0.046 C 
ATOM     16  C   UNL d   1       7.031  -5.828  -0.416  0.00  0.00     0.046 C 
ATOM     17  C   UNL d   1       5.801  -5.241   1.675  0.00  0.00     0.046 C 
ENDBRANCH  13  14
ENDBRANCH  10  13
ENDBRANCH   8   9
ENDBRANCH   7   8
ENDBRANCH   2   7
BRANCH   4  18
ATOM     18  C   UNL d   1      -1.083  -2.153  -0.215  0.00  0.00    -0.009 A 
ATOM     19  C   UNL d   1      -2.297  -2.287  -0.922  0.00  0.00     0.014 A 
ATOM     20  C   UNL d   1      -3.025  -3.478  -0.923  0.00  0.00     0.001 A 
ATOM     21  C   UNL d   1      -2.538  -4.576  -0.227  0.00  0.00     0.000 A 
ATOM     22  C   UNL d   1      -1.338  -4.470   0.478  0.00  0.00     0.001 A 
ATOM     23  C   UNL d   1      -0.626  -3.262   0.495  0.00  0.00     0.014 A 
ENDBRANCH   4  18
BRANCH   1  24
ATOM     24  C   UNL d   1      -0.713   2.865   0.075  0.00  0.00     0.295 C 
ATOM     25  O   UNL d   1       0.069   3.797   0.239  0.00  0.00    -0.259 OA
BRANCH  24  26
ATOM     26  O   UNL d   1      -2.072   2.985   0.101  0.00  0.00    -0.318 OA
BRANCH  26  27
ATOM     27  C   UNL d   1      -2.585   4.167   0.724  0.00  0.00     0.174 C 
ATOM     28  C   UNL d   1      -2.657   3.922   2.221  0.00  0.00     0.034 C 
ENDBRANCH  26  27
ENDBRANCH  24  26
ENDBRANCH   1  24
TORSDOF 9
