REMARK  4 active torsions:
REMARK  status: ('A' for Active; 'I' for Inactive)
REMARK    1  A    between atoms: S_9  and  C_3 
REMARK    2  A    between atoms: C_10  and  N_8 
REMARK    3  A    between atoms: C_11  and  S_9 
REMARK    4  A    between atoms: C_13  and  C_11 
ROOT
ATOM      1  S   UNL d   1      -1.281  -0.257   0.588  0.00  0.00    -0.026 SA
ATOM      2  C   UNL d   1      -0.328   1.116   0.136  0.00  0.00     0.166 A 
ATOM      3  C   UNL d   1      -0.016  -1.244  -0.006  0.00  0.00     0.130 A 
ATOM      4  N   UNL d   1       0.781   0.776  -0.489  0.00  0.00    -0.278 N 
ATOM      5  HN  UNL d   1       1.434   1.455  -0.881  1.00  0.00     0.189 HD
ATOM      6  N   UNL d   1       0.972  -0.582  -0.561  0.00  0.00    -0.286 N 
ATOM      7  HN  UNL d   1       1.783  -1.023  -0.993  1.00  0.00     0.188 HD
ATOM      8  N   UNL d   1      -0.758   2.371   0.422  0.00  0.00    -0.336 N 
ATOM      9  H   UNL d   1      -1.679   2.467   0.833  0.00  0.00     0.168 HD
ENDROOT
BRANCH   8  10
ATOM     10  C   UNL d   1       0.024   3.542   0.478  0.00  0.00     0.034 A 
ATOM     11  C   UNL d   1       1.424   3.546   0.385  0.00  0.00     0.031 A 
ATOM     12  C   UNL d   1       2.154   4.738   0.402  0.00  0.00     0.026 A 
ATOM     13  C   UNL d   1       1.487   5.954   0.494  0.00  0.00     0.034 A 
ATOM     14  C   UNL d   1       0.099   5.984   0.567  0.00  0.00     0.026 A 
ATOM     15 CL   UNL d   1       2.383   7.421   0.511  0.00  0.00    -0.084 Cl
ATOM     16  C   UNL d   1      -0.627   4.785   0.553  0.00  0.00     0.031 A 
ENDBRANCH   8  10
BRANCH   3  17
ATOM     17  S   UNL d   1      -0.003  -2.988   0.118  0.00  0.00    -0.099 SA
BRANCH  17  18
ATOM     18  C   UNL d   1       1.788  -3.277  -0.031  0.00  0.00     0.120 C 
BRANCH  18  19
ATOM     19  C   UNL d   1       2.130  -4.744   0.011  0.00  0.00    -0.049 A 
ATOM     20  C   UNL d   1       2.257  -5.474  -1.178  0.00  0.00     0.008 A 
ATOM     21  C   UNL d   1       2.579  -6.833  -1.146  0.00  0.00     0.007 A 
ATOM     22  C   UNL d   1       2.773  -7.487   0.076  0.00  0.00    -0.062 A 
ATOM     23  C   UNL d   1       2.639  -6.762   1.265  0.00  0.00     0.007 A 
ATOM     24  C   UNL d   1       3.116  -8.947   0.094  0.00  0.00     0.048 C 
ATOM     25  C   UNL d   1       2.318  -5.403   1.233  0.00  0.00     0.008 A 
ENDBRANCH  18  19
ENDBRANCH  17  18
ENDBRANCH   3  17
TORSDOF 4
