REMARK  9 active torsions:
REMARK  status: ('A' for Active; 'I' for Inactive)
REMARK    1  A    between atoms: O_15  and  C_1 
REMARK    2  A    between atoms: N_3  and  C_2 
REMARK    3  A    between atoms: C_6  and  C_12 
REMARK    4  A    between atoms: C_7  and  C_13 
REMARK    5  A    between atoms: C_8  and  C_10 
REMARK    6  A    between atoms: C_9  and  C_11 
REMARK    7  A    between atoms: O_27  and  C_14 
REMARK    8  A    between atoms: C_16  and  O_15 
REMARK    9  A    between atoms: C_19  and  O_27 
ROOT
ATOM      1  C   UNL d   1      -0.605   1.150   0.034  0.00  0.00     0.183 A 
ATOM      2  C   UNL d   1       0.772   1.181   0.141  0.00  0.00     0.154 A 
ATOM      3  N   UNL d   1      -1.286  -0.016  -0.045  0.00  0.00    -0.315 N 
ATOM      4  HN  UNL d   1      -2.305  -0.028  -0.102  1.00  0.00     0.170 HD
ATOM      5  C   UNL d   1      -0.573  -1.165  -0.046  0.00  0.00     0.150 A 
ATOM      6  C   UNL d   1       1.507  -0.008   0.060  0.00  0.00     0.045 A 
ATOM      7  C   UNL d   1       0.811  -1.212  -0.050  0.00  0.00     0.059 A 
ENDROOT
BRANCH   1   8
ATOM      8  O   UNL d   1      -1.348   2.317   0.010  0.00  0.00    -0.291 OA
BRANCH   8   9
ATOM      9  C   UNL d   1      -2.497   2.329  -0.757  0.00  0.00     0.079 A 
ATOM     10  C   UNL d   1      -3.558   3.110  -0.294  0.00  0.00     0.053 A 
ATOM     11  C   UNL d   1      -4.725   3.260  -1.065  0.00  0.00     0.051 A 
ATOM     12  C   UNL d   1      -4.820   2.592  -2.299  0.00  0.00     0.032 A 
ATOM     13  C   UNL d   1      -3.755   1.820  -2.784  0.00  0.00     0.051 A 
ATOM     14  C   UNL d   1      -2.596   1.698  -2.003  0.00  0.00     0.053 A 
BRANCH  11  15
ATOM     15  C   UNL d   1      -5.835   4.170  -0.593  0.00  0.00     0.417 C 
ATOM     16  F   UNL d   1      -6.820   4.342  -1.518  0.00  0.00    -0.166 F 
ATOM     17  F   UNL d   1      -6.451   3.713   0.530  0.00  0.00    -0.166 F 
ATOM     18  F   UNL d   1      -5.385   5.421  -0.297  0.00  0.00    -0.166 F 
ENDBRANCH  11  15
BRANCH  13  19
ATOM     19  C   UNL d   1      -3.813   1.160  -4.141  0.00  0.00     0.417 C 
ATOM     20  F   UNL d   1      -4.898   1.526  -4.876  0.00  0.00    -0.166 F 
ATOM     21  F   UNL d   1      -2.727   1.465  -4.905  0.00  0.00    -0.166 F 
ATOM     22  F   UNL d   1      -3.848  -0.198  -4.066  0.00  0.00    -0.166 F 
ENDBRANCH  13  19
ENDBRANCH   8   9
ENDBRANCH   1   8
BRANCH   2  23
ATOM     23  N   UNL d   1       1.456   2.428   0.366  0.00  0.00    -0.111 N 
ATOM     24  O   UNL d   1       1.148   3.062   1.385  0.00  0.00    -0.532 OA
ATOM     25  O   UNL d   1       2.339   2.730  -0.438  0.00  0.00    -0.532 OA
ENDBRANCH   2  23
BRANCH   5  26
ATOM     26  O   UNL d   1      -1.271  -2.361  -0.015  0.00  0.00    -0.294 OA
BRANCH  26  27
ATOM     27  C   UNL d   1      -2.431  -2.381   0.737  0.00  0.00     0.079 A 
ATOM     28  C   UNL d   1      -3.461  -3.204   0.285  0.00  0.00     0.053 A 
ATOM     29  C   UNL d   1      -4.650  -3.327   1.024  0.00  0.00     0.051 A 
ATOM     30  C   UNL d   1      -4.796  -2.594   2.215  0.00  0.00     0.032 A 
ATOM     31  C   UNL d   1      -3.760  -1.778   2.691  0.00  0.00     0.051 A 
ATOM     32  C   UNL d   1      -2.575  -1.691   1.947  0.00  0.00     0.053 A 
BRANCH  29  33
ATOM     33  C   UNL d   1      -5.737  -4.262   0.550  0.00  0.00     0.417 C 
ATOM     34  F   UNL d   1      -6.789  -4.346   1.411  0.00  0.00    -0.166 F 
ATOM     35  F   UNL d   1      -6.262  -3.894  -0.650  0.00  0.00    -0.166 F 
ATOM     36  F   UNL d   1      -5.285  -5.536   0.391  0.00  0.00    -0.166 F 
ENDBRANCH  29  33
BRANCH  31  37
ATOM     37  C   UNL d   1      -3.880  -1.013   3.987  0.00  0.00     0.417 C 
ATOM     38  F   UNL d   1      -5.020  -1.292   4.677  0.00  0.00    -0.166 F 
ATOM     39  F   UNL d   1      -2.853  -1.285   4.839  0.00  0.00    -0.166 F 
ATOM     40  F   UNL d   1      -3.869   0.335   3.805  0.00  0.00    -0.166 F 
ENDBRANCH  31  37
ENDBRANCH  26  27
ENDBRANCH   5  26
TORSDOF 9
