REMARK  1 active torsions:
REMARK  status: ('A' for Active; 'I' for Inactive)
REMARK    1  A    between atoms: C_2  and  N_1 
ROOT
ATOM      1  C   UNL d   1       0.244   1.244  -0.134  0.00  0.00     0.103 A 
ATOM      2  C   UNL d   1      -1.587   2.608   0.662  0.00  0.00    -0.006 A 
ATOM      3  N   UNL d   1      -2.026   4.676  -0.047  0.00  0.00    -0.365 N 
ATOM      4  C   UNL d   1      -0.874   1.394   0.704  0.00  0.00     0.049 A 
ATOM      5  C   UNL d   1      -1.158   3.617  -0.201  0.00  0.00     0.042 A 
ATOM      6  C   UNL d   1      -2.986   4.369   0.880  0.00  0.00     0.089 A 
ATOM      7  C   UNL d   1      -2.737   3.097   1.341  0.00  0.00     0.030 A 
ATOM      8  C   UNL d   1       0.659   2.272  -0.989  0.00  0.00     0.038 A 
ATOM      9  C   UNL d   1      -0.041   3.482  -1.034  0.00  0.00     0.033 A 
ATOM     10  H   UNL d   1      -1.962   5.549  -0.552  0.00  0.00     0.165 HD
ENDROOT
BRANCH   1  11
ATOM     11  N   UNL d   1       0.988  -0.023  -0.114  0.00  0.00    -0.116 N 
ATOM     12  O   UNL d   1       0.589  -0.916   0.647  0.00  0.00    -0.532 OA
ATOM     13  O   UNL d   1       1.971  -0.127  -0.862  0.00  0.00    -0.532 OA
ENDBRANCH   1  11
TORSDOF 1
