REMARK  3 active torsions:
REMARK  status: ('A' for Active; 'I' for Inactive)
REMARK    1  A    between atoms: C_2  and  C_1 
REMARK    2  A    between atoms: O_13  and  C_1 
REMARK    3  A    between atoms: C_8  and  C_7 
ROOT
ATOM      1  C   UNL d   1      -0.966   0.480  -0.571  0.00  0.00     0.233 C 
ATOM      2  N   UNL d   1      -0.403   0.738   0.762  0.00  0.00    -0.198 NA
ATOM      3  N   UNL d   1       0.841   0.214   0.913  0.00  0.00    -0.322 N 
ATOM      4  HN  UNL d   1       1.528   0.460   1.625  1.00  0.00     0.180 HD
ATOM      5  C   UNL d   1      -0.222  -0.799  -0.939  0.00  0.00     0.124 C 
ATOM      6  C   UNL d   1       0.979  -0.667  -0.036  0.00  0.00     0.035 C 
ATOM      7  H   UNL d   1      -0.442   1.718   1.030  0.00  0.00     0.150 HD
ENDROOT
BRANCH   6   8
ATOM      8  C   UNL d   1       2.186  -1.506  -0.209  0.00  0.00    -0.012 A 
ATOM      9  C   UNL d   1       2.265  -2.460  -1.233  0.00  0.00     0.023 A 
ATOM     10  C   UNL d   1       3.412  -3.231  -1.319  0.00  0.00    -0.022 A 
ATOM     11  C   UNL d   1       3.788  -4.256  -2.320  0.00  0.00     0.068 C 
ATOM     12  C   UNL d   1       4.460  -3.058  -0.429  0.00  0.00     0.075 A 
ATOM     13  C   UNL d   1       4.993  -4.862  -1.600  0.00  0.00     0.180 C 
ATOM     14  O   UNL d   1       5.521  -3.894  -0.662  0.00  0.00    -0.350 OA
ATOM     15  C   UNL d   1       4.417  -2.116   0.575  0.00  0.00     0.038 A 
ATOM     16  C   UNL d   1       3.264  -1.333   0.685  0.00  0.00     0.016 A 
ENDBRANCH   6   8
BRANCH   1  17
ATOM     17  C   UNL d   1      -2.517   0.291  -0.611  0.00  0.00     0.434 C 
ATOM     18  F   UNL d   1      -3.080   0.310   0.620  0.00  0.00    -0.166 F 
ATOM     19  F   UNL d   1      -3.091   1.309  -1.308  0.00  0.00    -0.166 F 
ATOM     20  F   UNL d   1      -2.891  -0.861  -1.213  0.00  0.00    -0.166 F 
ENDBRANCH   1  17
BRANCH   1  21
ATOM     21  O   UNL d   1      -0.521   1.512  -1.470  0.00  0.00    -0.366 OA
ATOM     22  H   UNL d   1      -1.107   2.277  -1.327  0.00  0.00     0.212 HD
ENDBRANCH   1  21
TORSDOF 3
