REMARK  4 active torsions:
REMARK  status: ('A' for Active; 'I' for Inactive)
REMARK    1  A    between atoms: N_2  and  C_1 
REMARK    2  A    between atoms: N_6  and  C_1 
REMARK    3  A    between atoms: C_3  and  N_2 
REMARK    4  A    between atoms: N_4  and  N_6 
ROOT
ATOM      1  C   UNL d   1       0.820  -0.078   0.043  0.00  0.00     0.191 C 
ATOM      2  S   UNL d   1       0.206   1.157   1.005  0.00  0.00    -0.039 SA
ENDROOT
BRANCH   1   3
ATOM      3  N   UNL d   1       2.063  -0.689   0.211  0.00  0.00    -0.332 N 
ATOM      4  H   UNL d   1       2.599  -0.810  -0.637  0.00  0.00     0.168 HD
BRANCH   3   5
ATOM      5  C   UNL d   1       2.718  -0.994   1.432  0.00  0.00     0.040 A 
ATOM      6  C   UNL d   1       4.113  -1.170   1.489  0.00  0.00    -0.035 A 
ATOM      7  C   UNL d   1       4.706  -1.558   2.711  0.00  0.00     0.015 A 
ATOM      8  C   UNL d   1       5.049  -0.948   0.333  0.00  0.00     0.050 C 
ATOM      9  C   UNL d   1       3.945  -1.764   3.868  0.00  0.00    -0.061 A 
ATOM     10  C   UNL d   1       2.566  -1.593   3.796  0.00  0.00     0.009 A 
ATOM     11  C   UNL d   1       4.605  -2.163   5.154  0.00  0.00     0.048 C 
ATOM     12  C   UNL d   1       1.964  -1.226   2.592  0.00  0.00     0.030 A 
ENDBRANCH   3   5
ENDBRANCH   1   3
BRANCH   1  13
ATOM     13  N   UNL d   1       0.164  -0.591  -1.083  0.00  0.00    -0.276 N 
ATOM     14  H   UNL d   1       0.580  -1.409  -1.510  0.00  0.00     0.189 HD
BRANCH  13  15
ATOM     15  N   UNL d   1      -1.195  -0.477  -1.171  0.00  0.00    -0.307 N 
ATOM     16  C   UNL d   1      -1.833  -0.964  -2.192  0.00  0.00     0.004 C 
ATOM     17  C   UNL d   1      -3.352  -0.931  -2.128  0.00  0.00     0.054 C 
ATOM     18  C   UNL d   1      -1.204  -1.538  -3.444  0.00  0.00     0.054 C 
ATOM     19  C   UNL d   1      -3.903   0.202  -2.979  0.00  0.00     0.006 C 
ATOM     20  C   UNL d   1      -4.112  -0.155  -4.451  0.00  0.00     0.000 C 
ATOM     21  C   UNL d   1      -3.046  -1.020  -5.125  0.00  0.00     0.000 C 
ATOM     22  C   UNL d   1      -1.606  -0.748  -4.690  0.00  0.00     0.006 C 
ATOM     23  HN  UNL d   1      -1.713  -0.005  -0.430  1.00  0.00     0.186 HD
ENDBRANCH  13  15
ENDBRANCH   1  13
TORSDOF 4
