REMARK  1 active torsions:
REMARK  status: ('A' for Active; 'I' for Inactive)
REMARK    1  A    between atoms: C_8  and  C_5 
ROOT
ATOM      1  N   UNL d   1       2.430  -1.085  -0.008  0.00  0.00    -0.353 N 
ATOM      2  HN  UNL d   1       2.726  -2.061  -0.021  1.00  0.00     0.166 HD
ATOM      3  N   UNL d   1       1.601   1.607  -0.007  0.00  0.00    -0.362 N 
ATOM      4  HN  UNL d   1       1.313   2.585  -0.013  1.00  0.00     0.165 HD
ATOM      5  C   UNL d   1       3.338  -0.075   0.023  0.00  0.00     0.058 A 
ATOM      6  C   UNL d   1       0.707   0.604  -0.015  0.00  0.00     0.060 A 
ATOM      7  C   UNL d   1       1.124  -0.750  -0.021  0.00  0.00     0.059 A 
ATOM      8  C   UNL d   1      -0.648   0.904  -0.014  0.00  0.00     0.055 A 
ATOM      9  C   UNL d   1       2.907   1.246   0.011  0.00  0.00     0.118 A 
ATOM     10  C   UNL d   1       0.159  -1.750  -0.032  0.00  0.00     0.033 A 
ATOM     11  C   UNL d   1      -1.600  -0.111  -0.020  0.00  0.00     0.036 A 
ATOM     12  C   UNL d   1      -1.203  -1.442  -0.030  0.00  0.00     0.026 A 
ATOM     13 CL   UNL d   1      -3.273   0.284  -0.010  0.00  0.00    -0.084 Cl
ENDROOT
BRANCH   5  14
ATOM     14  C   UNL d   1       4.757  -0.473   0.086  0.00  0.00    -0.006 A 
ATOM     15  C   UNL d   1       5.198  -1.669  -0.514  0.00  0.00     0.039 A 
ATOM     16  C   UNL d   1       6.538  -2.072  -0.450  0.00  0.00     0.056 A 
ATOM     17 CL   UNL d   1       6.972  -3.554  -1.226  0.00  0.00    -0.083 Cl
ATOM     18  C   UNL d   1       7.471  -1.282   0.225  0.00  0.00     0.055 A 
ATOM     19  C   UNL d   1       7.058  -0.095   0.830  0.00  0.00     0.026 A 
ATOM     20 CL   UNL d   1       9.138  -1.714   0.356  0.00  0.00    -0.083 Cl
ATOM     21  C   UNL d   1       5.718   0.302   0.761  0.00  0.00     0.015 A 
ENDBRANCH   5  14
TORSDOF 1
