REMARK  6 active torsions:
REMARK  status: ('A' for Active; 'I' for Inactive)
REMARK    1  A    between atoms: O_11  and  C_1 
REMARK    2  A    between atoms: O_12  and  C_2 
REMARK    3  A    between atoms: C_13  and  O_11 
REMARK    4  A    between atoms: C_14  and  O_12 
REMARK    5  A    between atoms: O_25  and  C_15 
REMARK    6  A    between atoms: O_26  and  C_16 
ROOT
ATOM      1  C   UNL d   1       2.429   0.689  -0.168  0.00  0.00     0.111 C 
ATOM      2  C   UNL d   1       2.433  -0.711  -0.093  0.00  0.00     0.111 C 
ATOM      3  C   UNL d   1      -0.009   0.681  -0.004  0.00  0.00     0.068 C 
ATOM      4  C   UNL d   1      -0.011  -0.713  -0.057  0.00  0.00     0.068 C 
ATOM      5  N   UNL d   1      -2.208   2.050   0.052  0.00  0.00    -0.191 NA
ATOM      6  N   UNL d   1      -2.195  -2.109   0.030  0.00  0.00    -0.191 NA
ATOM      7  C   UNL d   1      -1.231   1.432   0.038  0.00  0.00     0.101 C 
ATOM      8  C   UNL d   1      -1.224  -1.473  -0.014  0.00  0.00     0.101 C 
ATOM      9  C   UNL d   1       1.207   1.375  -0.041  0.00  0.00     0.064 C 
ATOM     10  C   UNL d   1       1.207  -1.401  -0.112  0.00  0.00     0.064 C 
ENDROOT
BRANCH   1  11
ATOM     11  O   UNL d   1       3.622   1.368  -0.347  0.00  0.00    -0.308 OA
BRANCH  11  12
ATOM     12  C   UNL d   1       3.620   2.490  -1.165  0.00  0.00     0.076 A 
ATOM     13  C   UNL d   1       4.517   3.516  -0.855  0.00  0.00     0.040 A 
ATOM     14  C   UNL d   1       4.515   4.714  -1.592  0.00  0.00     0.039 A 
ATOM     15  C   UNL d   1       3.607   4.893  -2.637  0.00  0.00     0.068 A 
ATOM     16  C   UNL d   1       2.752   3.845  -2.978  0.00  0.00     0.039 A 
ATOM     17  C   UNL d   1       2.783   2.638  -2.276  0.00  0.00     0.040 A 
BRANCH  15  18
ATOM     18  O   UNL d   1       3.439   6.017  -3.396  0.00  0.00    -0.356 OA
ATOM     19  C   UNL d   1       4.292   7.122  -3.137  0.00  0.00     0.210 C 
ENDBRANCH  15  18
ENDBRANCH  11  12
ENDBRANCH   1  11
BRANCH   2  20
ATOM     20  O   UNL d   1       3.638  -1.391  -0.010  0.00  0.00    -0.308 OA
BRANCH  20  21
ATOM     21  C   UNL d   1       3.656  -2.558   0.739  0.00  0.00     0.076 A 
ATOM     22  C   UNL d   1       4.339  -3.659   0.218  0.00  0.00     0.040 A 
ATOM     23  C   UNL d   1       4.292  -4.899   0.878  0.00  0.00     0.039 A 
ATOM     24  C   UNL d   1       3.559  -5.039   2.058  0.00  0.00     0.068 A 
ATOM     25  C   UNL d   1       2.926  -3.920   2.603  0.00  0.00     0.039 A 
ATOM     26  C   UNL d   1       3.002  -2.678   1.970  0.00  0.00     0.040 A 
BRANCH  24  27
ATOM     27  O   UNL d   1       3.372  -6.188   2.773  0.00  0.00    -0.356 OA
ATOM     28  C   UNL d   1       4.011  -7.367   2.303  0.00  0.00     0.210 C 
ENDBRANCH  24  27
ENDBRANCH  20  21
ENDBRANCH   2  20
TORSDOF 6
