REMARK  5 active torsions:
REMARK  status: ('A' for Active; 'I' for Inactive)
REMARK    1  A    between atoms: C_2  and  C_1 
REMARK       I    between atoms: N_4  and  C_1 
REMARK    2  A    between atoms: O_7  and  C_3 
REMARK    3  A    between atoms: C_8  and  N_4 
REMARK    4  A    between atoms: C_16  and  O_7 
REMARK    5  A    between atoms: O_17  and  C_9 
ROOT
ATOM      1  C   UNL d   1      -3.277  -0.767  -0.548  0.00  0.00     0.104 A 
ATOM      2  C   UNL d   1      -1.876  -0.756  -0.458  0.00  0.00     0.069 A 
ATOM      3  C   UNL d   1      -1.213  -0.886   0.769  0.00  0.00     0.037 A 
ATOM      4  C   UNL d   1      -4.031  -0.969   0.619  0.00  0.00     0.101 A 
ATOM      5  C   UNL d   1      -3.369  -1.094   1.847  0.00  0.00     0.042 A 
ATOM      6  C   UNL d   1      -1.976  -1.045   1.927  0.00  0.00     0.032 A 
ENDROOT
BRANCH   3   7
ATOM      7  N   UNL d   1       0.192  -0.835   0.909  0.00  0.00    -0.322 N 
ATOM      8  C   UNL d   1       1.134  -0.865  -0.106  0.00  0.00     0.263 C 
ATOM      9  O   UNL d   1       0.865  -1.059  -1.290  0.00  0.00    -0.267 OA
ATOM     10  H   UNL d   1       0.557  -0.795   1.852  0.00  0.00     0.169 HD
BRANCH   8  11
ATOM     11  C   UNL d   1       2.526  -0.677   0.311  0.00  0.00     0.072 A 
ATOM     12  S   UNL d   1       2.979  -0.236   1.900  0.00  0.00    -0.097 SA
ATOM     13  C   UNL d   1       4.639  -0.172   1.483  0.00  0.00     0.050 A 
ATOM     14  C   UNL d   1       4.851  -0.499   0.162  0.00  0.00     0.009 A 
ATOM     15  C   UNL d   1       3.635  -0.790  -0.510  0.00  0.00     0.025 A 
ENDBRANCH   8  11
ENDBRANCH   3   7
BRANCH   1  16
ATOM     16  O   UNL d   1      -3.934  -0.597  -1.738  0.00  0.00    -0.343 OA
BRANCH  16  17
ATOM     17  C   UNL d   1      -3.320   0.199  -2.755  0.00  0.00     0.129 C 
ATOM     18  C   UNL d   1      -3.184   1.672  -2.362  0.00  0.00     0.032 C 
ATOM     19  C   UNL d   1      -3.419   2.486  -3.632  0.00  0.00     0.002 C 
ATOM     20  C   UNL d   1      -3.857   1.502  -4.708  0.00  0.00     0.002 C 
ATOM     21  C   UNL d   1      -4.256   0.241  -3.962  0.00  0.00     0.032 C 
ENDBRANCH  16  17
ENDBRANCH   1  16
BRANCH   4  22
ATOM     22  O   UNL d   1      -5.395  -0.995   0.745  0.00  0.00    -0.353 OA
ATOM     23  C   UNL d   1      -6.148  -1.438  -0.376  0.00  0.00     0.210 C 
ENDBRANCH   4  22
TORSDOF 5
