REMARK  4 active torsions:
REMARK  status: ('A' for Active; 'I' for Inactive)
REMARK    1  A    between atoms: C_6  and  C_1 
REMARK    2  A    between atoms: C_3  and  C_2 
REMARK       I    between atoms: N_7  and  C_3 
REMARK       I    between atoms: C_10  and  N_7 
REMARK       I    between atoms: N_14  and  C_10 
REMARK    3  A    between atoms: C_16  and  N_14 
REMARK    4  A    between atoms: C_20  and  C_16 
ROOT
ATOM      1  C   UNL d   1       0.310  -2.758  -0.262  0.00  0.00     0.264 C 
ATOM      2  N   UNL d   1      -0.743  -3.638  -0.432  0.00  0.00    -0.275 N 
ATOM      3  C   UNL d   1      -0.536  -4.987  -0.615  0.00  0.00     0.323 C 
ATOM      4  O   UNL d   1       1.270  -2.733  -1.026  0.00  0.00    -0.267 OA
ATOM      5  N   UNL d   1      -1.734  -5.643  -0.867  0.00  0.00    -0.339 N 
ATOM      6  O   UNL d   1       0.527  -5.571  -0.503  0.00  0.00    -0.247 OA
ATOM      7  H   UNL d   1      -1.620  -3.424   0.004  0.00  0.00     0.173 HD
ATOM      8  H   UNL d   1      -2.403  -5.115  -1.406  0.00  0.00     0.164 HD
ENDROOT
BRANCH   1   9
ATOM      9  C   UNL d   1       0.116  -1.716   0.744  0.00  0.00     0.093 A 
ATOM     10  C   UNL d   1       0.825  -0.469   0.876  0.00  0.00     0.086 A 
ATOM     11  N   UNL d   1       0.362   0.230   1.924  0.00  0.00    -0.259 N 
ATOM     12  O   UNL d   1      -0.615  -0.531   2.500  0.00  0.00    -0.241 OA
ATOM     13  HN  UNL d   1       0.679   1.150   2.231  1.00  0.00     0.195 HD
ATOM     14  C   UNL d   1      -0.749  -1.702   1.829  0.00  0.00     0.090 A 
ATOM     15  C   UNL d   1      -1.733  -2.616   2.443  0.00  0.00     0.080 C 
BRANCH  10  16
ATOM     16  C   UNL d   1       1.915   0.111   0.090  0.00  0.00     0.037 A 
ATOM     17  C   UNL d   1       1.718   1.298  -0.643  0.00  0.00     0.048 A 
ATOM     18 CL   UNL d   1       0.160   2.042  -0.813  0.00  0.00    -0.083 Cl
ATOM     19  C   UNL d   1       2.790   1.943  -1.276  0.00  0.00     0.025 A 
ATOM     20  C   UNL d   1       4.070   1.402  -1.211  0.00  0.00     0.003 A 
ATOM     21  C   UNL d   1       4.281   0.219  -0.509  0.00  0.00     0.025 A 
ATOM     22  C   UNL d   1       3.218  -0.416   0.153  0.00  0.00     0.048 A 
ATOM     23 CL   UNL d   1       3.616  -1.812   1.101  0.00  0.00    -0.083 Cl
ENDBRANCH  10  16
ENDBRANCH   1   9
BRANCH   5  24
ATOM     24  C   UNL d   1      -1.701  -7.066  -1.155  0.00  0.00     0.162 C 
BRANCH  24  25
ATOM     25  C   UNL d   1      -3.090  -7.643  -1.297  0.00  0.00    -0.040 A 
ATOM     26  C   UNL d   1      -3.516  -8.191  -2.518  0.00  0.00     0.010 A 
ATOM     27  C   UNL d   1      -4.787  -8.759  -2.640  0.00  0.00     0.024 A 
ATOM     28  C   UNL d   1      -5.644  -8.783  -1.541  0.00  0.00     0.034 A 
ATOM     29  C   UNL d   1      -5.240  -8.240  -0.323  0.00  0.00     0.024 A 
ATOM     30 CL   UNL d   1      -7.205  -9.491  -1.689  0.00  0.00    -0.084 Cl
ATOM     31  C   UNL d   1      -3.968  -7.674  -0.202  0.00  0.00     0.010 A 
ENDBRANCH  24  25
ENDBRANCH   5  24
TORSDOF 4
