REMARK  5 active torsions:
REMARK  status: ('A' for Active; 'I' for Inactive)
REMARK    1  A    between atoms: S_9  and  C_1 
REMARK    2  A    between atoms: C_7  and  N_2 
REMARK    3  A    between atoms: C_13  and  S_9 
REMARK    4  A    between atoms: C_11  and  C_13 
REMARK    5  A    between atoms: C_12  and  C_11 
ROOT
ATOM      1  C   UNL d   1       0.981   0.789  -0.137  0.00  0.00     0.148 C 
ATOM      2  N   UNL d   1       1.449  -0.538   0.011  0.00  0.00    -0.297 N 
ATOM      3  N   UNL d   1      -0.252   1.170  -0.138  0.00  0.00    -0.358 N 
ATOM      4  HN  UNL d   1      -0.487   2.149  -0.299  1.00  0.00     0.162 HD
ATOM      5  C   UNL d   1       0.465  -1.562  -0.028  0.00  0.00     0.014 C 
ATOM      6  C   UNL d   1      -0.835  -1.229  -0.023  0.00  0.00     0.028 C 
ATOM      7  C   UNL d   1      -1.310   0.188   0.093  0.00  0.00     0.044 C 
ATOM      8  C   UNL d   1       0.778  -3.039  -0.037  0.00  0.00     0.068 C 
ATOM      9  C   UNL d   1      -1.863   0.412   1.510  0.00  0.00     0.042 C 
ATOM     10  C   UNL d   1      -2.412   0.459  -0.938  0.00  0.00     0.042 C 
ENDROOT
BRANCH   1  11
ATOM     11  S   UNL d   1       2.050   2.200  -0.333  0.00  0.00    -0.086 SA
BRANCH  11  12
ATOM     12  C   UNL d   1       3.282   1.707  -1.567  0.00  0.00     0.161 C 
BRANCH  12  13
ATOM     13  C   UNL d   1       4.151   2.911  -1.967  0.00  0.00     0.144 C 
ATOM     14  O   UNL d   1       3.805   4.075  -1.738  0.00  0.00    -0.296 OA
BRANCH  13  15
ATOM     15  C   UNL d   1       5.434   2.663  -2.795  0.00  0.00     0.010 C 
ATOM     16  C   UNL d   1       5.054   2.766  -4.278  0.00  0.00     0.022 C 
ATOM     17  C   UNL d   1       6.455   3.771  -2.457  0.00  0.00     0.022 C 
ATOM     18  C   UNL d   1       6.099   1.311  -2.522  0.00  0.00     0.022 C 
ENDBRANCH  13  15
ENDBRANCH  12  13
ENDBRANCH  11  12
ENDBRANCH   1  11
BRANCH   2  19
ATOM     19  C   UNL d   1       2.786  -0.811   0.466  0.00  0.00     0.043 A 
ATOM     20  C   UNL d   1       3.356  -0.070   1.520  0.00  0.00     0.053 A 
ATOM     21  C   UNL d   1       4.686  -0.260   1.895  0.00  0.00     0.036 A 
ATOM     22 CL   UNL d   1       5.391   0.760   3.088  0.00  0.00    -0.084 Cl
ATOM     23  C   UNL d   1       5.457  -1.245   1.289  0.00  0.00     0.024 A 
ATOM     24  C   UNL d   1       4.902  -2.023   0.277  0.00  0.00     0.004 A 
ATOM     25  C   UNL d   1       3.591  -1.787  -0.150  0.00  0.00     0.030 A 
ENDBRANCH   2  19
TORSDOF 5
