REMARK  8 active torsions:
REMARK  status: ('A' for Active; 'I' for Inactive)
REMARK    1  A    between atoms: N_2  and  S_1 
REMARK    2  A    between atoms: C_5  and  S_1 
REMARK    3  A    between atoms: C_6  and  N_2 
REMARK    4  A    between atoms: C_12  and  N_2 
REMARK    5  A    between atoms: C_3  and  C_8 
REMARK    6  A    between atoms: C_4  and  C_6 
REMARK    7  A    between atoms: C_19  and  C_12 
REMARK    8  A    between atoms: O_27  and  C_20 
ROOT
ATOM      1  N   UNL d   1       0.580   1.561   0.011  0.00  0.00    -0.197 NA
ENDROOT
BRANCH   1   2
ATOM      2  S   UNL d   1       1.383   0.031  -0.159  0.00  0.00     0.244 S 
ATOM      3  O   UNL d   1       0.534  -0.993   0.416  0.00  0.00    -0.206 OA
ATOM      4  O   UNL d   1       2.774   0.123   0.218  0.00  0.00    -0.206 OA
BRANCH   2   5
ATOM      5  C   UNL d   1       1.372  -0.192  -1.931  0.00  0.00     0.075 A 
ATOM      6  C   UNL d   1       0.425  -1.029  -2.530  0.00  0.00     0.041 A 
ATOM      7  C   UNL d   1       0.472  -1.260  -3.915  0.00  0.00     0.049 A 
ATOM      8  C   UNL d   1       1.485  -0.651  -4.675  0.00  0.00     0.016 A 
ATOM      9  C   UNL d   1       2.441   0.166  -4.068  0.00  0.00     0.002 A 
ATOM     10  C   UNL d   1       2.390   0.391  -2.693  0.00  0.00     0.025 A 
BRANCH   7  11
ATOM     11  C   UNL d   1      -0.540  -2.153  -4.591  0.00  0.00     0.417 C 
ATOM     12  F   UNL d   1      -1.423  -2.725  -3.727  0.00  0.00    -0.166 F 
ATOM     13  F   UNL d   1      -1.295  -1.476  -5.500  0.00  0.00    -0.166 F 
ATOM     14  F   UNL d   1       0.039  -3.179  -5.273  0.00  0.00    -0.166 F 
ENDBRANCH   7  11
ENDBRANCH   2   5
ENDBRANCH   1   2
BRANCH   1  15
ATOM     15  C   UNL d   1      -0.906   1.367  -0.008  0.00  0.00     0.165 C 
BRANCH  15  16
ATOM     16  C   UNL d   1      -1.676   2.644   0.117  0.00  0.00     0.025 A 
ATOM     17  N   UNL d   1      -1.687   3.658  -0.811  0.00  0.00    -0.363 N 
ATOM     18  C   UNL d   1      -2.513   4.669  -0.381  0.00  0.00     0.090 A 
ATOM     19  C   UNL d   1      -0.958   3.703  -2.060  0.00  0.00     0.155 C 
ATOM     20  C   UNL d   1      -3.063   4.295   0.823  0.00  0.00     0.019 A 
ATOM     21  C   UNL d   1      -2.544   3.021   1.136  0.00  0.00     0.027 A 
ENDBRANCH  15  16
ENDBRANCH   1  15
BRANCH   1  22
ATOM     22  C   UNL d   1       1.040   2.345   1.202  0.00  0.00     0.146 C 
BRANCH  22  23
ATOM     23  C   UNL d   1       2.473   2.838   1.151  0.00  0.00    -0.044 A 
ATOM     24  C   UNL d   1       3.094   3.208  -0.051  0.00  0.00     0.011 A 
ATOM     25  C   UNL d   1       4.447   3.566  -0.076  0.00  0.00     0.037 A 
ATOM     26  C   UNL d   1       5.182   3.603   1.108  0.00  0.00     0.068 A 
ATOM     27  C   UNL d   1       4.547   3.331   2.319  0.00  0.00     0.037 A 
ATOM     28  C   UNL d   1       3.205   2.944   2.342  0.00  0.00     0.011 A 
BRANCH  26  29
ATOM     29  O   UNL d   1       6.505   3.937   1.198  0.00  0.00    -0.356 OA
ATOM     30  C   UNL d   1       7.308   3.510   0.103  0.00  0.00     0.210 C 
ENDBRANCH  26  29
ENDBRANCH  22  23
ENDBRANCH   1  22
TORSDOF 8
