REMARK  6 active torsions:
REMARK  status: ('A' for Active; 'I' for Inactive)
REMARK    1  A    between atoms: C_6  and  C_1 
REMARK    2  A    between atoms: N_4  and  C_2 
REMARK       I    between atoms: C_3  and  N_4 
REMARK    3  A    between atoms: C_10  and  C_3 
REMARK    4  A    between atoms: O_13  and  C_6 
REMARK    5  A    between atoms: O_14  and  C_8 
REMARK    6  A    between atoms: O_15  and  C_9 
ROOT
ATOM      1  C   UNL d   1       1.014  -0.430   1.082  0.00  0.00     0.069 C 
ATOM      2  C   UNL d   1       0.476  -1.222   0.051  0.00  0.00     0.053 C 
ATOM      3  C   UNL d   1       0.307   0.708   1.495  0.00  0.00     0.059 C 
ATOM      4  C   UNL d   1      -0.848  -1.012  -0.341  0.00  0.00     0.070 C 
ATOM      5  C   UNL d   1      -0.961   1.006   0.979  0.00  0.00     0.102 C 
ATOM      6  C   UNL d   1      -1.582   0.088   0.122  0.00  0.00     0.103 C 
ENDROOT
BRANCH   2   7
ATOM      7  N   UNL d   1       1.238  -2.245  -0.541  0.00  0.00    -0.325 N 
ATOM      8  C   UNL d   1       1.585  -2.462  -1.844  0.00  0.00     0.229 C 
ATOM      9  O   UNL d   1       2.436  -3.352  -2.006  0.00  0.00    -0.272 OA
ATOM     10  H   UNL d   1       1.990  -2.621   0.046  0.00  0.00     0.169 HD
BRANCH   8  11
ATOM     11  C   UNL d   1       0.994  -1.752  -3.093  0.00  0.00     0.030 C 
ATOM     12  C   UNL d   1       0.627  -0.269  -2.942  0.00  0.00     0.025 C 
ATOM     13  C   UNL d   1       2.100  -1.792  -4.184  0.00  0.00     0.025 C 
ATOM     14  C   UNL d   1      -0.197  -2.567  -3.618  0.00  0.00     0.025 C 
ENDBRANCH   8  11
ENDBRANCH   2   7
BRANCH   1  15
ATOM     15  C   UNL d   1       2.310  -0.795   1.728  0.00  0.00     0.295 C 
ATOM     16  O   UNL d   1       2.946  -1.795   1.440  0.00  0.00    -0.259 OA
BRANCH  15  17
ATOM     17  O   UNL d   1       2.618   0.077   2.721  0.00  0.00    -0.322 OA
ATOM     18  C   UNL d   1       3.749  -0.298   3.508  0.00  0.00     0.213 C 
ENDBRANCH  15  17
ENDBRANCH   1  15
BRANCH   6  19
ATOM     19  O   UNL d   1      -2.867   0.324  -0.284  0.00  0.00    -0.353 OA
ATOM     20  C   UNL d   1      -3.674  -0.828  -0.512  0.00  0.00     0.210 C 
ENDBRANCH   6  19
BRANCH   5  21
ATOM     21  O   UNL d   1      -1.465   2.186   1.456  0.00  0.00    -0.353 OA
ATOM     22  C   UNL d   1      -2.518   2.800   0.723  0.00  0.00     0.210 C 
ENDBRANCH   5  21
TORSDOF 6
