REMARK  5 active torsions:
REMARK  status: ('A' for Active; 'I' for Inactive)
REMARK    1  A    between atoms: O_10  and  C_3 
REMARK       I    between atoms: N_4  and  C_5 
REMARK    2  A    between atoms: C_13  and  N_4 
REMARK    3  A    between atoms: C_14  and  N_4 
REMARK    4  A    between atoms: C_5  and  C_11 
REMARK    5  A    between atoms: C_11  and  O_10 
ROOT
ATOM      1  N   UNL d   1       0.642   5.870  -0.007  0.00  0.00    -0.311 N 
ATOM      2  C   UNL d   1      -0.586   5.345   0.429  0.00  0.00     0.248 C 
ATOM      3  O   UNL d   1      -0.793   4.128   0.463  0.00  0.00    -0.271 OA
ENDROOT
BRANCH   2   4
ATOM      4  C   UNL d   1      -1.767   6.334   0.734  0.00  0.00     0.278 C 
BRANCH   4   5
ATOM      5  O   UNL d   1      -2.079   6.565   2.111  0.00  0.00    -0.341 OA
BRANCH   5   6
ATOM      6  C   UNL d   1      -3.173   7.372   2.402  0.00  0.00     0.083 A 
ATOM      7  C   UNL d   1      -3.891   8.085   1.439  0.00  0.00     0.062 A 
ATOM      8  C   UNL d   1      -4.968   8.870   1.840  0.00  0.00     0.008 A 
ATOM      9  N   UNL d   1      -5.374   8.954   3.122  0.00  0.00    -0.359 N 
ATOM     10  C   UNL d   1      -5.713   9.735   0.866  0.00  0.00     0.068 C 
ATOM     11  C   UNL d   1      -4.699   8.271   4.059  0.00  0.00     0.045 A 
ATOM     12  HN  UNL d   1      -6.179   9.527   3.376  1.00  0.00     0.166 HD
ATOM     13  C   UNL d   1      -3.569   7.478   3.764  0.00  0.00     0.024 A 
ATOM     14  C   UNL d   1      -5.161   8.372   5.365  0.00  0.00     0.030 A 
ATOM     15  C   UNL d   1      -2.910   6.846   4.850  0.00  0.00     0.016 A 
ATOM     16  C   UNL d   1      -3.383   6.970   6.160  0.00  0.00     0.001 A 
ATOM     17  C   UNL d   1      -4.518   7.721   6.420  0.00  0.00     0.002 A 
ENDBRANCH   5   6
ENDBRANCH   4   5
ENDBRANCH   2   4
BRANCH   1  18
ATOM     18  C   UNL d   1       0.967   7.257   0.116  0.00  0.00     0.037 A 
ATOM     19  C   UNL d   1       0.799   7.928   1.331  0.00  0.00     0.030 A 
ATOM     20  C   UNL d   1       1.168   9.270   1.451  0.00  0.00     0.002 A 
ATOM     21  C   UNL d   1       1.715   9.946   0.360  0.00  0.00     0.000 A 
ATOM     22  C   UNL d   1       1.886   9.286  -0.853  0.00  0.00     0.002 A 
ATOM     23  C   UNL d   1       1.514   7.949  -0.974  0.00  0.00     0.030 A 
ENDBRANCH   1  18
BRANCH   1  24
ATOM     24  C   UNL d   1       1.713   5.014  -0.629  0.00  0.00     0.093 C 
ATOM     25  C   UNL d   1       1.360   4.503  -2.040  0.00  0.00     0.026 C 
ATOM     26  C   UNL d   1       1.010   3.024  -2.142  0.00  0.00     0.002 C 
ATOM     27  C   UNL d   1       2.027   2.163  -1.413  0.00  0.00     0.000 C 
ATOM     28  C   UNL d   1       2.037   2.515   0.067  0.00  0.00     0.002 C 
ATOM     29  C   UNL d   1       2.378   3.982   0.308  0.00  0.00     0.026 C 
ENDBRANCH   1  24
TORSDOF 5
