REMARK  3 active torsions:
REMARK  status: ('A' for Active; 'I' for Inactive)
REMARK    1  A    between atoms: C_5  and  C_1 
REMARK    2  A    between atoms: C_13  and  C_2 
REMARK    3  A    between atoms: O_19  and  C_16 
ROOT
ATOM      1  C   UNL d   1       2.026   1.365  -1.004  0.00  0.00     0.049 C 
ATOM      2  C   UNL d   1       2.906   0.967  -1.946  0.00  0.00     0.125 C 
ATOM      3  N   UNL d   1       2.889  -1.394  -2.993  0.00  0.00    -0.191 NA
ATOM      4  N   UNL d   1       4.638   2.677  -2.811  0.00  0.00    -0.191 NA
ATOM      5  C   UNL d   1       2.891  -0.329  -2.529  0.00  0.00     0.111 C 
ATOM      6  C   UNL d   1       3.871   1.897  -2.425  0.00  0.00     0.111 C 
ENDROOT
BRANCH   1   7
ATOM      7  C   UNL d   1       0.942   0.631  -0.423  0.00  0.00     0.012 A 
ATOM      8  C   UNL d   1      -0.330   1.123   0.027  0.00  0.00     0.070 A 
ATOM      9  N   UNL d   1      -1.048   0.124   0.570  0.00  0.00    -0.299 N 
ATOM     10  N   UNL d   1      -0.284  -0.967   0.430  0.00  0.00    -0.311 N 
ATOM     11  HN  UNL d   1      -1.972   0.184   0.996  1.00  0.00     0.187 HD
ATOM     12  C   UNL d   1       0.929  -0.713  -0.137  0.00  0.00     0.120 A 
ATOM     13  H   UNL d   1      -0.652  -1.856   0.752  0.00  0.00     0.186 HD
BRANCH   8  14
ATOM     14  C   UNL d   1      -0.887   2.480  -0.047  0.00  0.00    -0.007 A 
ATOM     15  C   UNL d   1      -0.583   3.333  -1.117  0.00  0.00     0.016 A 
ATOM     16  C   UNL d   1      -1.097   4.633  -1.173  0.00  0.00     0.037 A 
ATOM     17  C   UNL d   1      -1.945   5.093  -0.169  0.00  0.00     0.068 A 
ATOM     18  C   UNL d   1      -2.299   4.236   0.873  0.00  0.00     0.037 A 
ATOM     19  C   UNL d   1      -1.767   2.943   0.941  0.00  0.00     0.016 A 
BRANCH  17  20
ATOM     20  O   UNL d   1      -2.523   6.332  -0.138  0.00  0.00    -0.356 OA
ATOM     21  C   UNL d   1      -1.774   7.372  -0.758  0.00  0.00     0.210 C 
ENDBRANCH  17  20
ENDBRANCH   8  14
ENDBRANCH   1   7
TORSDOF 3
