REMARK  3 active torsions:
REMARK  status: ('A' for Active; 'I' for Inactive)
REMARK    1  A    between atoms: N_7  and  C_1 
REMARK    2  A    between atoms: C_5  and  C_2 
REMARK       I    between atoms: C_9  and  N_8 
REMARK    3  A    between atoms: C_17  and  C_9 
ROOT
ATOM      1  C   UNL d   1      -1.028  -1.430  -0.174  0.00  0.00     0.045 A 
ATOM      2  C   UNL d   1      -1.348   0.793   0.724  0.00  0.00     0.119 A 
ATOM      3  N   UNL d   1      -1.168   1.364  -0.493  0.00  0.00    -0.352 N 
ATOM      4  HN  UNL d   1      -1.223   2.376  -0.606  1.00  0.00     0.166 HD
ATOM      5  C   UNL d   1      -1.308  -0.586   0.906  0.00  0.00     0.064 A 
ATOM      6  C   UNL d   1      -0.832  -0.834  -1.452  0.00  0.00     0.017 A 
ATOM      7  C   UNL d   1      -0.916   0.572  -1.546  0.00  0.00     0.045 A 
ATOM      8  C   UNL d   1      -0.504  -1.567  -2.618  0.00  0.00     0.016 A 
ATOM      9  C   UNL d   1      -0.696   1.181  -2.775  0.00  0.00     0.030 A 
ATOM     10  C   UNL d   1      -0.300  -0.938  -3.843  0.00  0.00     0.001 A 
ATOM     11  C   UNL d   1      -0.393   0.443  -3.921  0.00  0.00     0.002 A 
ENDROOT
BRANCH   1  12
ATOM     12  N   UNL d   1      -0.851  -2.808   0.009  0.00  0.00    -0.377 N 
ATOM     13  C   UNL d   1      -0.290  -3.265   1.293  0.00  0.00     0.143 C 
ATOM     14  C   UNL d   1       0.308  -4.665   1.108  0.00  0.00     0.145 C 
ATOM     15  N   UNL d   1      -0.670  -5.609   0.553  0.00  0.00    -0.349 N 
ATOM     16  C   UNL d   1      -1.381  -5.132  -0.645  0.00  0.00     0.145 C 
ATOM     17  C   UNL d   1      -0.662  -6.976   0.837  0.00  0.00     0.224 C 
ATOM     18  C   UNL d   1      -1.934  -3.696  -0.480  0.00  0.00     0.143 C 
ATOM     19  O   UNL d   1      -1.294  -7.770   0.128  0.00  0.00    -0.273 OA
BRANCH  17  20
ATOM     20  C   UNL d   1       0.136  -7.429   2.095  0.00  0.00     0.078 C 
ATOM     21  C   UNL d   1      -0.038  -8.901   2.566  0.00  0.00     0.014 C 
ATOM     22  C   UNL d   1      -0.020  -8.390   4.017  0.00  0.00     0.002 C 
ATOM     23  C   UNL d   1      -0.451  -7.019   3.479  0.00  0.00     0.014 C 
ENDBRANCH  17  20
ENDBRANCH   1  12
BRANCH   2  24
ATOM     24  C   UNL d   1      -1.560   1.680   1.945  0.00  0.00     0.432 C 
ATOM     25  F   UNL d   1      -1.391   3.012   1.715  0.00  0.00    -0.165 F 
ATOM     26  F   UNL d   1      -2.808   1.545   2.479  0.00  0.00    -0.165 F 
ATOM     27  F   UNL d   1      -0.698   1.371   2.962  0.00  0.00    -0.165 F 
ENDBRANCH   2  24
TORSDOF 3
