REMARK  2 active torsions:
REMARK  status: ('A' for Active; 'I' for Inactive)
REMARK    1  A    between atoms: N_3  and  C_1 
REMARK    2  A    between atoms: C_2  and  N_3 
ROOT
ATOM      1  C   UNL d   1       0.944   1.651   2.009  0.00  0.00     0.043 A 
ATOM      2  C   UNL d   1       0.564   1.489   3.347  0.00  0.00     0.072 A 
ATOM      3  C   UNL d   1       2.035   2.488   1.701  0.00  0.00    -0.035 A 
ATOM      4  C   UNL d   1       2.723   3.136   2.743  0.00  0.00     0.012 A 
ATOM      5  C   UNL d   1       1.256   2.145   4.358  0.00  0.00     0.118 A 
ATOM      6  C   UNL d   1       2.334   2.960   4.069  0.00  0.00     0.043 A 
ATOM      7  F   UNL d   1       0.890   1.959   5.634  0.00  0.00    -0.206 F 
ATOM      8  C   UNL d   1       2.497   2.768   0.293  0.00  0.00     0.050 C 
ENDROOT
BRANCH   1   9
ATOM      9  N   UNL d   1       0.315   0.913   0.986  0.00  0.00    -0.333 N 
ATOM     10  H   UNL d   1       0.895   0.652   0.194  0.00  0.00     0.168 HD
BRANCH   9  11
ATOM     11  C   UNL d   1      -0.933   0.380   0.947  0.00  0.00     0.170 C 
ATOM     12  S   UNL d   1      -1.315  -0.847  -0.103  0.00  0.00    -0.041 SA
ATOM     13  N   UNL d   1      -1.883   0.927   1.734  0.00  0.00    -0.376 N 
ATOM     14  H   UNL d   1      -1.769   1.898   2.009  0.00  0.00     0.158 HD
ATOM     15  H   UNL d   1      -2.838   0.629   1.578  0.00  0.00     0.158 HD
ENDBRANCH   9  11
ENDBRANCH   1   9
TORSDOF 2
