REMARK  4 active torsions:
REMARK  status: ('A' for Active; 'I' for Inactive)
REMARK    1  A    between atoms: C_10  and  N_1 
REMARK    2  A    between atoms: C_3  and  C_2 
REMARK    3  A    between atoms: C_4  and  O_14 
REMARK    4  A    between atoms: O_14  and  C_20 
ROOT
ATOM      1  C   UNL d   1      -2.315   0.035  -1.065  0.00  0.00     0.064 C 
ATOM      2  C   UNL d   1      -3.440   0.208  -0.345  0.00  0.00     0.126 C 
ATOM      3  N   UNL d   1      -3.461   0.632   2.205  0.00  0.00    -0.191 NA
ATOM      4  N   UNL d   1      -5.691   0.086  -1.612  0.00  0.00    -0.191 NA
ATOM      5  C   UNL d   1      -3.442   0.439   1.062  0.00  0.00     0.111 C 
ATOM      6  C   UNL d   1      -4.692   0.152  -1.025  0.00  0.00     0.111 C 
ENDROOT
BRANCH   1   7
ATOM      7  C   UNL d   1      -1.012   0.050  -0.502  0.00  0.00     0.041 A 
ATOM      8  N   UNL d   1      -0.400  -1.085   0.051  0.00  0.00    -0.322 N 
ATOM      9  C   UNL d   1       0.797  -0.654   0.608  0.00  0.00     0.097 A 
ATOM     10  C   UNL d   1       0.994   0.676   0.324  0.00  0.00     0.020 A 
ATOM     11  C   UNL d   1      -0.140   1.120  -0.376  0.00  0.00     0.031 A 
BRANCH   8  12
ATOM     12  C   UNL d   1      -0.826  -2.457   0.042  0.00  0.00     0.039 A 
ATOM     13  C   UNL d   1      -1.692  -2.954  -0.940  0.00  0.00     0.033 A 
ATOM     14  C   UNL d   1      -2.028  -4.315  -0.986  0.00  0.00     0.039 A 
ATOM     15  C   UNL d   1      -1.462  -5.208  -0.083  0.00  0.00     0.078 A 
ATOM     16  C   UNL d   1      -0.645  -4.713   0.933  0.00  0.00     0.039 A 
ATOM     17  C   UNL d   1      -0.323  -3.353   0.996  0.00  0.00     0.033 A 
BRANCH  15  18
ATOM     18  O   UNL d   1      -1.645  -6.556  -0.070  0.00  0.00    -0.255 OA
BRANCH  18  19
ATOM     19  C   UNL d   1      -1.885  -7.231  -1.299  0.00  0.00     0.530 C 
ATOM     20  F   UNL d   1      -1.600  -6.496  -2.396  0.00  0.00    -0.144 F 
ATOM     21  F   UNL d   1      -1.111  -8.338  -1.338  0.00  0.00    -0.144 F 
ATOM     22  F   UNL d   1      -3.178  -7.617  -1.355  0.00  0.00    -0.144 F 
ENDBRANCH  18  19
ENDBRANCH  15  18
ENDBRANCH   8  12
ENDBRANCH   1   7
TORSDOF 4
