REMARK  9 active torsions:
REMARK  status: ('A' for Active; 'I' for Inactive)
REMARK    1  A    between atoms: C_5  and  C_1 
REMARK    2  A    between atoms: C_13  and  C_1 
REMARK    3  A    between atoms: C_8  and  C_2 
REMARK    4  A    between atoms: C_7  and  C_5 
REMARK    5  A    between atoms: N_6  and  C_14 
REMARK    6  A    between atoms: N_15  and  N_9 
REMARK    7  A    between atoms: O_27  and  C_13 
REMARK    8  A    between atoms: C_26  and  N_15 
REMARK    9  A    between atoms: C_30  and  O_27 
ROOT
ATOM      1  C   UNL d   1      -3.421   3.079  -3.598  0.00  0.00     0.056 A 
ATOM      2  C   UNL d   1      -3.811   2.958  -2.259  0.00  0.00     0.034 A 
ATOM      3  C   UNL d   1      -2.192   2.542  -4.000  0.00  0.00     0.034 A 
ATOM      4  C   UNL d   1      -1.741   1.774  -1.730  0.00  0.00     0.048 A 
ATOM      5  C   UNL d   1      -2.966   2.326  -1.334  0.00  0.00     0.033 A 
ATOM      6  C   UNL d   1      -1.365   1.899  -3.074  0.00  0.00     0.033 A 
ENDROOT
BRANCH   4   7
ATOM      7  N   UNL d   1      -0.867   1.230  -0.761  0.00  0.00    -0.300 N 
ATOM      8  H   UNL d   1      -1.333   1.008   0.126  0.00  0.00     0.187 HD
BRANCH   7   9
ATOM      9  N   UNL d   1       0.069   0.351  -1.210  0.00  0.00    -0.291 N 
ATOM     10  C   UNL d   1       1.006  -0.015  -0.381  0.00  0.00     0.179 C 
ATOM     11  HN  UNL d   1       0.039  -0.009  -2.164  1.00  0.00     0.187 HD
BRANCH  10  12
ATOM     12  C   UNL d   1       1.121   0.509   1.020  0.00  0.00     0.289 C 
ATOM     13  O   UNL d   1       0.111   0.556   1.719  0.00  0.00    -0.281 OA
BRANCH  12  14
ATOM     14  C   UNL d   1       2.506   0.948   1.426  0.00  0.00     0.457 C 
ATOM     15  F   UNL d   1       3.455   0.772   0.468  0.00  0.00    -0.163 F 
ATOM     16  F   UNL d   1       2.550   2.275   1.735  0.00  0.00    -0.163 F 
ATOM     17  F   UNL d   1       2.948   0.291   2.533  0.00  0.00    -0.163 F 
ENDBRANCH  12  14
ENDBRANCH  10  12
BRANCH  10  18
ATOM     18  C   UNL d   1       2.043  -0.998  -0.894  0.00  0.00     0.315 C 
ATOM     19  O   UNL d   1       2.666  -1.706  -0.117  0.00  0.00    -0.257 OA
BRANCH  18  20
ATOM     20  O   UNL d   1       2.235  -0.812  -2.207  0.00  0.00    -0.317 OA
BRANCH  20  21
ATOM     21  C   UNL d   1       3.477  -1.268  -2.752  0.00  0.00     0.175 C 
ATOM     22  C   UNL d   1       4.403  -0.065  -2.813  0.00  0.00     0.034 C 
ENDBRANCH  20  21
ENDBRANCH  18  20
ENDBRANCH  10  18
ENDBRANCH   7   9
ENDBRANCH   4   7
BRANCH   1  23
ATOM     23  N   UNL d   1      -4.234   3.753  -4.553  0.00  0.00    -0.267 N 
ATOM     24  N   UNL d   1      -3.797   3.943  -5.825  0.00  0.00    -0.290 N 
ATOM     25  C   UNL d   1      -4.772   4.630  -6.447  0.00  0.00     0.134 A 
ATOM     26  HN  UNL d   1      -2.912   3.630  -6.226  1.00  0.00     0.187 HD
ATOM     27  C   UNL d   1      -5.858   4.863  -5.569  0.00  0.00     0.055 A 
ATOM     28  C   UNL d   1      -5.487   4.295  -4.374  0.00  0.00     0.119 A 
BRANCH  25  29
ATOM     29  C   UNL d   1      -4.683   5.066  -7.886  0.00  0.00     0.434 C 
ATOM     30  F   UNL d   1      -3.498   4.766  -8.479  0.00  0.00    -0.165 F 
ATOM     31  F   UNL d   1      -5.657   4.489  -8.643  0.00  0.00    -0.165 F 
ATOM     32  F   UNL d   1      -4.851   6.412  -8.011  0.00  0.00    -0.165 F 
ENDBRANCH  25  29
ENDBRANCH   1  23
TORSDOF 9
