REMARK  6 active torsions:
REMARK  status: ('A' for Active; 'I' for Inactive)
REMARK    1  A    between atoms: C_2  and  S_1 
REMARK    2  A    between atoms: C_11  and  S_1 
REMARK    3  A    between atoms: C_3  and  C_8 
REMARK    4  A    between atoms: C_4  and  C_7 
REMARK    5  A    between atoms: N_15  and  N_5 
REMARK    6  A    between atoms: C_16  and  N_15 
ROOT
ATOM      1  C   UNL d   1       0.627   0.330  -1.698  0.00  0.00     0.229 C 
ATOM      2  N   UNL d   1      -0.189  -0.458  -2.338  0.00  0.00    -0.281 N 
ATOM      3  HN  UNL d   1      -0.611  -0.154  -3.216  1.00  0.00     0.188 HD
ATOM      4  C   UNL d   1       1.207  -0.084  -0.454  0.00  0.00     0.132 C 
ATOM      5  N   UNL d   1       1.625  -0.471   0.561  0.00  0.00    -0.189 NA
ENDROOT
BRANCH   1   6
ATOM      6  S   UNL d   1       1.074   1.912  -2.283  0.00  0.00     0.233 S 
ATOM      7  O   UNL d   1       2.501   1.866  -2.550  0.00  0.00    -0.215 OA
ATOM      8  O   UNL d   1       0.521   2.869  -1.341  0.00  0.00    -0.215 OA
BRANCH   6   9
ATOM      9  C   UNL d   1       0.248   2.163  -3.838  0.00  0.00     0.066 A 
ATOM     10  C   UNL d   1      -1.031   2.733  -3.855  0.00  0.00     0.025 A 
ATOM     11  C   UNL d   1      -1.633   3.043  -5.078  0.00  0.00     0.025 A 
ATOM     12  C   UNL d   1      -0.953   2.795  -6.271  0.00  0.00     0.034 A 
ATOM     13  C   UNL d   1       0.323   2.233  -6.254  0.00  0.00     0.025 A 
ATOM     14 CL   UNL d   1      -1.684   3.211  -7.772  0.00  0.00    -0.084 Cl
ATOM     15  C   UNL d   1       0.931   1.919  -5.035  0.00  0.00     0.025 A 
ENDBRANCH   6   9
ENDBRANCH   1   6
BRANCH   2  16
ATOM     16  N   UNL d   1      -0.479  -1.696  -1.831  0.00  0.00    -0.299 N 
ATOM     17  H   UNL d   1      -0.476  -1.884  -0.825  0.00  0.00     0.187 HD
BRANCH  16  18
ATOM     18  C   UNL d   1      -1.368  -2.522  -2.554  0.00  0.00     0.049 A 
ATOM     19  C   UNL d   1      -1.831  -2.170  -3.828  0.00  0.00     0.047 A 
ATOM     20  C   UNL d   1      -2.655  -3.026  -4.576  0.00  0.00     0.050 A 
ATOM     21  C   UNL d   1      -3.011  -4.269  -4.035  0.00  0.00     0.032 A 
ATOM     22  C   UNL d   1      -2.528  -4.670  -2.780  0.00  0.00     0.050 A 
ATOM     23  C   UNL d   1      -1.701  -3.790  -2.055  0.00  0.00     0.047 A 
BRANCH  20  24
ATOM     24  C   UNL d   1      -3.111  -2.601  -5.949  0.00  0.00     0.417 C 
ATOM     25  F   UNL d   1      -3.871  -3.537  -6.581  0.00  0.00    -0.166 F 
ATOM     26  F   UNL d   1      -3.862  -1.466  -5.920  0.00  0.00    -0.166 F 
ATOM     27  F   UNL d   1      -2.067  -2.341  -6.782  0.00  0.00    -0.166 F 
ENDBRANCH  20  24
BRANCH  22  28
ATOM     28  C   UNL d   1      -2.860  -6.035  -2.224  0.00  0.00     0.417 C 
ATOM     29  F   UNL d   1      -3.702  -6.753  -3.018  0.00  0.00    -0.166 F 
ATOM     30  F   UNL d   1      -1.754  -6.809  -2.056  0.00  0.00    -0.166 F 
ATOM     31  F   UNL d   1      -3.462  -5.969  -1.005  0.00  0.00    -0.166 F 
ENDBRANCH  22  28
ENDBRANCH  16  18
ENDBRANCH   2  16
TORSDOF 6
