REMARK  2 active torsions:
REMARK  status: ('A' for Active; 'I' for Inactive)
REMARK    1  A    between atoms: N_9  and  C_2 
REMARK       I    between atoms: C_10  and  N_9 
REMARK    2  A    between atoms: C_13  and  C_10 
ROOT
ATOM      1  C   UNL d   1       0.439  -0.849  -0.136  0.00  0.00     0.089 A 
ATOM      2  C   UNL d   1      -1.999   0.468  -0.319  0.00  0.00     0.155 C 
ATOM      3  C   UNL d   1       0.286   0.505  -0.035  0.00  0.00     0.062 A 
ATOM      4  S   UNL d   1      -2.057  -1.135  -0.988  0.00  0.00    -0.010 SA
ATOM      5  C   UNL d   1      -0.607  -1.808  -0.289  0.00  0.00     0.235 C 
ATOM      6  N   UNL d   1      -0.957   1.146   0.047  0.00  0.00    -0.335 N 
ATOM      7  HN  UNL d   1      -1.039   2.106   0.381  1.00  0.00     0.168 HD
ATOM      8  S   UNL d   1       2.073  -1.318  -0.064  0.00  0.00    -0.095 SA
ATOM      9  C   UNL d   1       1.527   1.208   0.049  0.00  0.00    -0.027 A 
ATOM     10  C   UNL d   1       2.584   0.312   0.037  0.00  0.00     0.059 A 
ATOM     11  O   UNL d   1      -0.533  -3.007  -0.049  0.00  0.00    -0.279 OA
ATOM     12  C   UNL d   1       1.707   2.686   0.138  0.00  0.00     0.051 C 
ENDROOT
BRANCH   2  13
ATOM     13  N   UNL d   1      -3.206   1.129  -0.157  0.00  0.00    -0.301 N 
ATOM     14  C   UNL d   1      -4.520   0.755  -0.437  0.00  0.00     0.281 C 
ATOM     15  O   UNL d   1      -4.841  -0.237  -1.081  0.00  0.00    -0.265 OA
ATOM     16  H   UNL d   1      -3.106   2.024   0.306  0.00  0.00     0.171 HD
BRANCH  14  17
ATOM     17  C   UNL d   1      -5.514   1.676   0.075  0.00  0.00     0.142 A 
ATOM     18  O   UNL d   1      -5.128   2.782   0.785  0.00  0.00    -0.317 OA
ATOM     19  C   UNL d   1      -6.263   3.441   1.141  0.00  0.00     0.143 A 
ATOM     20  C   UNL d   1      -7.375   2.782   0.671  0.00  0.00     0.027 A 
ATOM     21  C   UNL d   1      -6.894   1.644  -0.015  0.00  0.00     0.045 A 
ENDBRANCH  14  17
ENDBRANCH   2  13
TORSDOF 2
