REMARK  0 active torsions:
REMARK  status: ('A' for Active; 'I' for Inactive)
ROOT
ATOM      1  C   UNL d   1      -1.044  -0.428  -0.111  0.00  0.00     0.119 C 
ATOM      2  N   UNL d   1       0.038  -1.380   0.181  0.00  0.00    -0.357 N 
ATOM      3  C   UNL d   1      -0.314   0.830  -0.804  0.00  0.00     0.026 C 
ATOM      4  C   UNL d   1       1.120   0.590  -0.366  0.00  0.00    -0.019 A 
ATOM      5  N   UNL d   1      -1.539  -0.114   1.213  0.00  0.00    -0.333 N 
ATOM      6  C   UNL d   1       1.255  -0.717   0.104  0.00  0.00     0.039 A 
ATOM      7  C   UNL d   1      -2.741   0.471   1.471  0.00  0.00     0.219 C 
ATOM      8  C   UNL d   1       2.508  -1.187   0.460  0.00  0.00     0.030 A 
ATOM      9  C   UNL d   1       2.208   1.452  -0.462  0.00  0.00     0.017 A 
ATOM     10  O   UNL d   1      -2.935   1.062   2.530  0.00  0.00    -0.274 OA
ATOM     11  C   UNL d   1      -2.199  -1.037  -0.926  0.00  0.00     0.055 C 
ATOM     12  C   UNL d   1      -0.061  -2.818   0.203  0.00  0.00     0.152 C 
ATOM     13  C   UNL d   1       3.613  -0.328   0.378  0.00  0.00     0.009 A 
ATOM     14  C   UNL d   1       3.468   0.998  -0.070  0.00  0.00    -0.061 A 
ATOM     15  C   UNL d   1      -0.325   0.774  -2.346  0.00  0.00     0.025 C 
ATOM     16  C   UNL d   1      -0.799   2.212  -0.337  0.00  0.00     0.025 C 
ATOM     17  C   UNL d   1      -3.853   0.260   0.464  0.00  0.00     0.103 C 
ATOM     18  C   UNL d   1      -3.397  -0.092  -0.948  0.00  0.00     0.013 C 
ATOM     19  C   UNL d   1       4.661   1.905  -0.130  0.00  0.00     0.048 C 
ATOM     20  H   UNL d   1      -0.823   0.028   1.911  0.00  0.00     0.165 HD
ENDROOT
TORSDOF 0
