REMARK  6 active torsions:
REMARK  status: ('A' for Active; 'I' for Inactive)
REMARK    1  A    between atoms: C_4  and  C_1 
REMARK    2  A    between atoms: O_8  and  C_2 
REMARK    3  A    between atoms: C_3  and  C_5 
REMARK       I    between atoms: N_6  and  C_4 
REMARK       I    between atoms: C_5  and  N_7 
REMARK    4  A    between atoms: N_7  and  N_6 
REMARK    5  A    between atoms: C_18  and  O_8 
REMARK    6  A    between atoms: N_17  and  C_9 
ROOT
ATOM      1  C   UNL d   1       0.767   5.015   0.262  0.00  0.00     0.274 C 
ATOM      2  N   UNL d   1       0.022   4.055   0.923  0.00  0.00    -0.263 N 
ATOM      3  O   UNL d   1       1.893   4.780  -0.163  0.00  0.00    -0.266 OA
ATOM      4  H   UNL d   1      -0.899   4.209   1.325  0.00  0.00     0.190 HD
ENDROOT
BRANCH   1   5
ATOM      5  C   UNL d   1       0.113   6.353   0.109  0.00  0.00     0.085 A 
ATOM      6  C   UNL d   1       0.496   7.256  -0.883  0.00  0.00     0.164 A 
ATOM      7  N   UNL d   1      -0.062   8.496  -1.013  0.00  0.00    -0.346 N 
ATOM      8  C   UNL d   1      -1.063   8.834  -0.181  0.00  0.00     0.090 A 
ATOM      9  HN  UNL d   1       0.272   9.148  -1.722  1.00  0.00     0.167 HD
ATOM     10  C   UNL d   1      -1.531   8.001   0.813  0.00  0.00     0.018 A 
ATOM     11  C   UNL d   1      -0.921   6.758   0.972  0.00  0.00     0.023 A 
BRANCH   6  12
ATOM     12  O   UNL d   1       1.479   6.899  -1.798  0.00  0.00    -0.293 OA
BRANCH  12  13
ATOM     13  C   UNL d   1       1.467   7.536  -3.021  0.00  0.00     0.077 A 
ATOM     14  C   UNL d   1       2.684   8.011  -3.513  0.00  0.00     0.037 A 
ATOM     15  C   UNL d   1       2.729   8.662  -4.750  0.00  0.00     0.003 A 
ATOM     16  C   UNL d   1       1.562   8.826  -5.497  0.00  0.00     0.000 A 
ATOM     17  C   UNL d   1       0.352   8.322  -5.022  0.00  0.00     0.003 A 
ATOM     18  C   UNL d   1       0.307   7.662  -3.794  0.00  0.00     0.037 A 
ENDBRANCH  12  13
ENDBRANCH   6  12
ENDBRANCH   1   5
BRANCH   2  19
ATOM     19  N   UNL d   1       0.600   2.824   1.263  0.00  0.00    -0.263 N 
ATOM     20  C   UNL d   1      -0.068   2.081   2.223  0.00  0.00     0.272 C 
ATOM     21  O   UNL d   1      -1.050   2.538   2.813  0.00  0.00    -0.266 OA
ATOM     22  H   UNL d   1       1.347   2.486   0.661  0.00  0.00     0.190 HD
BRANCH  20  23
ATOM     23  C   UNL d   1       0.410   0.695   2.503  0.00  0.00     0.056 A 
ATOM     24  C   UNL d   1      -0.497  -0.262   3.017  0.00  0.00     0.021 A 
ATOM     25  C   UNL d   1      -0.044  -1.572   3.241  0.00  0.00     0.026 A 
ATOM     26  C   UNL d   1       1.295  -1.907   3.053  0.00  0.00     0.026 A 
ATOM     27  C   UNL d   1       2.192  -0.941   2.607  0.00  0.00     0.035 A 
ATOM     28  C   UNL d   1       1.760   0.358   2.325  0.00  0.00     0.042 A 
ATOM     29 CL   UNL d   1       3.847  -1.354   2.390  0.00  0.00    -0.084 Cl
BRANCH  24  30
ATOM     30  N   UNL d   1      -1.884  -0.025   3.092  0.00  0.00    -0.302 NA
ATOM     31  H   UNL d   1      -2.087   0.977   3.192  0.00  0.00     0.124 HD
ATOM     32  H   UNL d   1      -2.362  -0.573   3.800  0.00  0.00     0.124 HD
ENDBRANCH  24  30
ENDBRANCH  20  23
ENDBRANCH   2  19
TORSDOF 6
