REMARK  3 active torsions:
REMARK  status: ('A' for Active; 'I' for Inactive)
REMARK    1  A    between atoms: C_3  and  S_1 
REMARK    2  A    between atoms: N_6  and  S_1 
REMARK    3  A    between atoms: O_28  and  C_16 
ROOT
ATOM      1  C   UNL d   1      -0.076  -4.086  -2.798  0.00  0.00     0.148 A 
ATOM      2  N   UNL d   1      -0.581  -3.662  -3.937  0.00  0.00    -0.336 N 
ATOM      3  HN  UNL d   1      -0.525  -2.697  -4.262  1.00  0.00     0.168 HD
ATOM      4  N   UNL d   1       0.802  -1.246   0.203  0.00  0.00    -0.203 NA
ATOM      5  S   UNL d   1      -0.202  -5.795  -2.585  0.00  0.00    -0.052 SA
ATOM      6  N   UNL d   1       0.398  -3.216  -1.864  0.00  0.00    -0.359 N 
ATOM      7  C   UNL d   1      -1.123  -5.931  -4.037  0.00  0.00     0.036 A 
ATOM      8  C   UNL d   1      -1.192  -4.676  -4.634  0.00  0.00     0.051 A 
ATOM      9  C   UNL d   1       1.104  -2.695   0.485  0.00  0.00     0.127 C 
ATOM     10  C   UNL d   1      -0.228  -1.105  -0.865  0.00  0.00     0.127 C 
ATOM     11  C   UNL d   1      -1.752  -7.051  -4.607  0.00  0.00     0.045 A 
ATOM     12  C   UNL d   1       0.257  -1.781  -2.148  0.00  0.00     0.140 C 
ATOM     13  C   UNL d   1       1.354  -3.547  -0.799  0.00  0.00     0.140 C 
ATOM     14  C   UNL d   1      -1.888  -4.522  -5.849  0.00  0.00     0.032 A 
ATOM     15  C   UNL d   1      -2.459  -6.867  -5.800  0.00  0.00     0.035 A 
ATOM     16  C   UNL d   1      -2.526  -5.623  -6.423  0.00  0.00     0.026 A 
ATOM     17 CL   UNL d   1      -3.282  -8.203  -6.509  0.00  0.00    -0.084 Cl
ENDROOT
BRANCH   4  18
ATOM     18  S   UNL d   1       2.143  -0.207   0.039  0.00  0.00     0.246 S 
ATOM     19  O   UNL d   1       3.282  -1.038  -0.284  0.00  0.00    -0.206 OA
ATOM     20  O   UNL d   1       1.761   0.913  -0.793  0.00  0.00    -0.206 OA
BRANCH  18  21
ATOM     21  C   UNL d   1       2.305   0.464   1.672  0.00  0.00     0.109 A 
ATOM     22  C   UNL d   1       1.132   0.869   2.331  0.00  0.00     0.051 A 
ATOM     23  C   UNL d   1       1.216   1.466   3.586  0.00  0.00     0.035 A 
ATOM     24 CL   UNL d   1      -0.219   1.964   4.393  0.00  0.00    -0.084 Cl
ATOM     25  C   UNL d   1       2.455   1.669   4.189  0.00  0.00     0.026 A 
ATOM     26  C   UNL d   1       3.620   1.265   3.533  0.00  0.00     0.040 A 
ATOM     27  C   UNL d   1       3.549   0.673   2.268  0.00  0.00     0.091 A 
BRANCH  27  28
ATOM     28  O   UNL d   1       4.725   0.271   1.707  0.00  0.00    -0.354 OA
ATOM     29  C   UNL d   1       5.229   1.228   0.773  0.00  0.00     0.210 C 
ENDBRANCH  27  28
ENDBRANCH  18  21
ENDBRANCH   4  18
TORSDOF 3
