REMARK  2 active torsions:
REMARK  status: ('A' for Active; 'I' for Inactive)
REMARK    1  A    between atoms: C_8  and  C_4 
REMARK    2  A    between atoms: C_13  and  N_7 
ROOT
ATOM      1  N   UNL d   1       1.456  -0.542  -0.049  0.00  0.00    -0.335 N 
ATOM      2  HN  UNL d   1       2.364  -0.999  -0.131  1.00  0.00     0.168 HD
ATOM      3  C   UNL d   1       0.309  -1.179   0.015  0.00  0.00     0.149 A 
ATOM      4  C   UNL d   1       1.276   0.825   0.009  0.00  0.00     0.051 A 
ATOM      5  S   UNL d   1      -1.062  -0.148   0.196  0.00  0.00    -0.064 SA
ATOM      6  C   UNL d   1      -0.039   1.228   0.112  0.00  0.00     0.083 A 
ATOM      7  N   UNL d   1       0.159  -2.524  -0.021  0.00  0.00    -0.337 N 
ATOM      8  H   UNL d   1      -0.750  -2.911   0.200  0.00  0.00     0.168 HD
ENDROOT
BRANCH   7   9
ATOM      9  C   UNL d   1       1.045  -3.428  -0.639  0.00  0.00     0.036 A 
ATOM     10  C   UNL d   1       1.091  -4.753  -0.199  0.00  0.00     0.046 A 
ATOM     11  C   UNL d   1       2.005  -5.621  -0.779  0.00  0.00     0.090 A 
ATOM     12  N   UNL d   1       2.859  -5.271  -1.762  0.00  0.00    -0.375 N 
ATOM     13  C   UNL d   1       2.813  -3.986  -2.165  0.00  0.00     0.090 A 
ATOM     14  HN  UNL d   1       3.504  -5.943  -2.177  1.00  0.00     0.164 HD
ATOM     15  C   UNL d   1       1.950  -3.044  -1.634  0.00  0.00     0.046 A 
ENDBRANCH   7   9
BRANCH   4  16
ATOM     16  C   UNL d   1       2.426   1.718  -0.013  0.00  0.00    -0.009 A 
ATOM     17  C   UNL d   1       2.368   2.990  -0.597  0.00  0.00     0.015 A 
ATOM     18  C   UNL d   1       3.501   3.813  -0.613  0.00  0.00     0.020 A 
ATOM     19  C   UNL d   1       4.692   3.367  -0.044  0.00  0.00     0.011 A 
ATOM     20  C   UNL d   1       4.768   2.104   0.537  0.00  0.00     0.020 A 
ATOM     21 BR   UNL d   1       6.219   4.481  -0.069  0.00  0.00    -0.051 Br
ATOM     22  C   UNL d   1       3.639   1.282   0.547  0.00  0.00     0.015 A 
ENDBRANCH   4  16
TORSDOF 2
