REMARK  4 active torsions:
REMARK  status: ('A' for Active; 'I' for Inactive)
REMARK    1  A    between atoms: N_2  and  C_1 
REMARK    2  A    between atoms: N_4  and  C_1 
REMARK    3  A    between atoms: C_3  and  N_2 
REMARK    4  A    between atoms: C_10  and  N_4 
ROOT
ATOM      1  C   UNL d   1       1.044   0.128  -0.046  0.00  0.00     0.176 C 
ATOM      2  S   UNL d   1       2.637   0.661  -0.093  0.00  0.00    -0.041 SA
ENDROOT
BRANCH   1   3
ATOM      3  N   UNL d   1       0.412  -0.618  -1.041  0.00  0.00    -0.333 N 
ATOM      4  H   UNL d   1      -0.515  -0.275  -1.266  0.00  0.00     0.168 HD
BRANCH   3   5
ATOM      5  C   UNL d   1       1.018  -1.455  -2.001  0.00  0.00     0.035 A 
ATOM      6  C   UNL d   1       2.119  -2.250  -1.677  0.00  0.00     0.036 A 
ATOM      7  C   UNL d   1       2.687  -3.110  -2.622  0.00  0.00    -0.059 A 
ATOM      8  C   UNL d   1       3.869  -3.959  -2.260  0.00  0.00     0.048 C 
ATOM      9  C   UNL d   1       2.137  -3.168  -3.907  0.00  0.00     0.013 A 
ATOM     10  C   UNL d   1       1.020  -2.391  -4.243  0.00  0.00    -0.059 A 
ATOM     11  C   UNL d   1       0.450  -1.551  -3.275  0.00  0.00     0.036 A 
ATOM     12  C   UNL d   1       0.458  -2.470  -5.633  0.00  0.00     0.048 C 
ENDBRANCH   3   5
ENDBRANCH   1   3
BRANCH   1  13
ATOM     13  N   UNL d   1       0.143   0.363   0.992  0.00  0.00    -0.333 N 
ATOM     14  H   UNL d   1      -0.392  -0.458   1.248  0.00  0.00     0.168 HD
BRANCH  13  15
ATOM     15  C   UNL d   1       0.170   1.409   1.936  0.00  0.00     0.034 A 
ATOM     16  C   UNL d   1       0.563   2.701   1.580  0.00  0.00     0.030 A 
ATOM     17  C   UNL d   1       0.523   3.737   2.515  0.00  0.00     0.009 A 
ATOM     18  C   UNL d   1       0.084   3.496   3.820  0.00  0.00    -0.062 A 
ATOM     19  C   UNL d   1      -0.320   2.204   4.173  0.00  0.00     0.009 A 
ATOM     20  C   UNL d   1       0.029   4.630   4.800  0.00  0.00     0.048 C 
ATOM     21  C   UNL d   1      -0.292   1.169   3.230  0.00  0.00     0.030 A 
ENDBRANCH  13  15
ENDBRANCH   1  13
TORSDOF 4
