REMARK  3 active torsions:
REMARK  status: ('A' for Active; 'I' for Inactive)
REMARK    1  A    between atoms: C_2  and  N_1 
REMARK    2  A    between atoms: O_4  and  C_3 
REMARK    3  A    between atoms: C_9  and  O_4 
ROOT
ATOM      1  C   UNL d   1       0.348  -1.026   1.014  0.00  0.00     0.138 A 
ATOM      2  C   UNL d   1       0.458  -1.256   2.395  0.00  0.00     0.130 A 
ATOM      3  C   UNL d   1      -0.418  -2.196   2.959  0.00  0.00     0.070 A 
ATOM      4  C   UNL d   1      -0.526  -1.753   0.192  0.00  0.00     0.039 A 
ATOM      5 CL   UNL d   1      -0.594  -2.437   4.663  0.00  0.00    -0.081 Cl
ATOM      6  C   UNL d   1      -1.331  -2.732   0.762  0.00  0.00     0.004 A 
ATOM      7  C   UNL d   1      -1.280  -2.946   2.140  0.00  0.00     0.027 A 
ENDROOT
BRANCH   2   8
ATOM      8  O   UNL d   1       1.318  -0.445   3.093  0.00  0.00    -0.307 OA
BRANCH   8   9
ATOM      9  C   UNL d   1       2.151  -0.934   4.068  0.00  0.00     0.076 A 
ATOM     10  C   UNL d   1       2.645  -2.238   4.153  0.00  0.00     0.037 A 
ATOM     11  C   UNL d   1       3.434  -2.610   5.244  0.00  0.00     0.003 A 
ATOM     12  C   UNL d   1       3.772  -1.674   6.224  0.00  0.00     0.000 A 
ATOM     13  C   UNL d   1       3.338  -0.356   6.103  0.00  0.00     0.003 A 
ATOM     14  C   UNL d   1       2.535   0.011   5.026  0.00  0.00     0.037 A 
ENDBRANCH   8   9
ENDBRANCH   2   8
BRANCH   1  15
ATOM     15  N   UNL d   1       1.116   0.037   0.390  0.00  0.00    -0.113 N 
ATOM     16  O   UNL d   1       0.953   1.188   0.816  0.00  0.00    -0.532 OA
ATOM     17  O   UNL d   1       1.830  -0.282  -0.570  0.00  0.00    -0.532 OA
ENDBRANCH   1  15
TORSDOF 3
