REMARK  4 active torsions:
REMARK  status: ('A' for Active; 'I' for Inactive)
REMARK    1  A    between atoms: C_4  and  N_1 
REMARK    2  A    between atoms: C_3  and  C_5 
REMARK    3  A    between atoms: C_8  and  C_6 
REMARK    4  A    between atoms: O_20  and  C_9 
ROOT
ATOM      1  N   UNL d   1       0.985   0.121  -0.121  0.00  0.00    -0.364 N 
ATOM      2  HN  UNL d   1       2.003   0.095  -0.183  1.00  0.00     0.165 HD
ATOM      3  C   UNL d   1       0.289  -0.974  -0.073  0.00  0.00     0.102 C 
ENDROOT
BRANCH   1   4
ATOM      4  C   UNL d   1       0.285   1.350  -0.084  0.00  0.00     0.054 A 
ATOM      5  C   UNL d   1      -0.735   1.561   0.862  0.00  0.00     0.046 A 
ATOM      6  C   UNL d   1      -1.467   2.753   0.895  0.00  0.00     0.011 A 
ATOM      7  C   UNL d   1      -1.125   3.781   0.007  0.00  0.00     0.017 A 
ATOM      8  C   UNL d   1      -0.079   3.612  -0.904  0.00  0.00     0.027 A 
ATOM      9  C   UNL d   1       0.618   2.404  -0.952  0.00  0.00     0.060 A 
ATOM     10 CL   UNL d   1       1.895   2.242  -2.105  0.00  0.00    -0.082 Cl
BRANCH   6  11
ATOM     11  C   UNL d   1      -2.611   2.980   1.833  0.00  0.00     0.155 C 
ATOM     12  O   UNL d   1      -3.159   4.085   1.846  0.00  0.00    -0.293 OA
ATOM     13  C   UNL d   1      -3.119   1.881   2.735  0.00  0.00     0.096 C 
ENDBRANCH   6  11
ENDBRANCH   1   4
BRANCH   3  14
ATOM     14  C   UNL d   1       0.923  -2.304  -0.094  0.00  0.00     0.014 A 
ATOM     15  C   UNL d   1       2.284  -2.478  -0.361  0.00  0.00     0.077 A 
ATOM     16  C   UNL d   1       2.832  -3.758  -0.392  0.00  0.00     0.039 A 
ATOM     17  C   UNL d   1       2.022  -4.870  -0.148  0.00  0.00     0.022 A 
ATOM     18  C   UNL d   1       0.667  -4.692   0.128  0.00  0.00     0.011 A 
ATOM     19  C   UNL d   1       0.109  -3.414   0.157  0.00  0.00     0.034 A 
ATOM     20 BR   UNL d   1      -0.429  -6.195   0.463  0.00  0.00    -0.051 Br
BRANCH  15  21
ATOM     21  O   UNL d   1       3.133  -1.437  -0.613  0.00  0.00    -0.360 OA
ATOM     22  H   UNL d   1       2.616  -0.603  -0.540  0.00  0.00     0.217 HD
ENDBRANCH  15  21
ENDBRANCH   3  14
TORSDOF 4
