REMARK  1 active torsions:
REMARK  status: ('A' for Active; 'I' for Inactive)
REMARK    1  A    between atoms: C_4  and  C_3 
ROOT
ATOM      1  C   UNL d   1       0.091   0.966  -0.099  0.00  0.00     0.182 A 
ATOM      2  C   UNL d   1       0.880  -0.313   0.083  0.00  0.00     0.182 A 
ATOM      3  C   UNL d   1      -0.635  -0.379  -0.084  0.00  0.00     0.098 A 
ATOM      4  C   UNL d   1      -0.102   1.841   1.021  0.00  0.00     0.088 C 
ATOM      5  C   UNL d   1       1.776  -0.727  -0.957  0.00  0.00     0.088 C 
ATOM      6  C   UNL d   1       1.397  -0.661   1.379  0.00  0.00     0.088 C 
ATOM      7  C   UNL d   1       0.205   1.703  -1.325  0.00  0.00     0.088 C 
ATOM      8  N   UNL d   1       0.282   2.283  -2.325  0.00  0.00    -0.195 NA
ATOM      9  N   UNL d   1      -0.261   2.524   1.943  0.00  0.00    -0.195 NA
ATOM     10  N   UNL d   1       2.497  -1.066  -1.798  0.00  0.00    -0.195 NA
ATOM     11  N   UNL d   1       1.778  -0.942   2.435  0.00  0.00    -0.195 NA
ENDROOT
BRANCH   3  12
ATOM     12  C   UNL d   1      -1.341  -0.919  -1.319  0.00  0.00    -0.047 A 
ATOM     13  C   UNL d   1      -2.442  -0.233  -1.873  0.00  0.00     0.033 A 
ATOM     14  C   UNL d   1      -3.155  -0.734  -2.973  0.00  0.00     0.056 A 
ATOM     15 CL   UNL d   1      -4.490   0.195  -3.554  0.00  0.00    -0.083 Cl
ATOM     16  C   UNL d   1      -2.784  -1.951  -3.544  0.00  0.00     0.055 A 
ATOM     17  C   UNL d   1      -1.705  -2.655  -3.007  0.00  0.00     0.026 A 
ATOM     18 CL   UNL d   1      -3.622  -2.648  -4.881  0.00  0.00    -0.083 Cl
ATOM     19  C   UNL d   1      -1.003  -2.149  -1.905  0.00  0.00     0.009 A 
ENDBRANCH   3  12
TORSDOF 1
