REMARK  2 active torsions:
REMARK  status: ('A' for Active; 'I' for Inactive)
REMARK    1  A    between atoms: C_17  and  N_4 
REMARK    2  A    between atoms: O_15  and  N_11 
ROOT
ATOM      1  C   UNL d   1       1.126  -0.875  -0.006  0.00  0.00     0.139 A 
ATOM      2  C   UNL d   1       0.509   0.341   0.038  0.00  0.00     0.108 A 
ATOM      3  N   UNL d   1       2.535  -0.892  -0.102  0.00  0.00    -0.288 N 
ATOM      4  N   UNL d   1       0.303  -2.071  -0.020  0.00  0.00    -0.261 N 
ATOM      5  C   UNL d   1      -0.918   0.446   0.046  0.00  0.00     0.113 A 
ATOM      6  C   UNL d   1      -1.672  -0.715  -0.026  0.00  0.00     0.188 A 
ATOM      7  N   UNL d   1       2.676   1.461   0.090  0.00  0.00    -0.270 N 
ATOM      8  C   UNL d   1       3.332   0.255   0.034  0.00  0.00     0.332 C 
ATOM      9  C   UNL d   1       1.311   1.595   0.019  0.00  0.00     0.267 C 
ATOM     10  C   UNL d   1      -1.135  -2.022  -0.064  0.00  0.00     0.288 A 
ATOM     11  N   UNL d   1      -2.954  -0.383  -0.021  0.00  0.00    -0.094 N 
ATOM     12  N   UNL d   1      -1.706   1.521   0.109  0.00  0.00    -0.236 N 
ATOM     13  HN  UNL d   1      -1.409   2.494   0.177  1.00  0.00     0.197 HD
ATOM     14  O   UNL d   1      -3.015   1.049   0.063  0.00  0.00    -0.127 OA
ATOM     15  O   UNL d   1       4.563   0.193   0.071  0.00  0.00    -0.246 OA
ATOM     16  O   UNL d   1       0.780   2.701  -0.063  0.00  0.00    -0.267 OA
ATOM     17  O   UNL d   1      -1.875  -2.998  -0.087  0.00  0.00    -0.265 OA
ATOM     18  C   UNL d   1       3.321  -2.081  -0.412  0.00  0.00     0.163 C 
ATOM     19  C   UNL d   1       3.454   2.691   0.086  0.00  0.00     0.164 C 
ENDROOT
BRANCH   4  20
ATOM     20  C   UNL d   1       0.785  -3.413   0.149  0.00  0.00     0.044 A 
ATOM     21  C   UNL d   1       0.494  -4.382  -0.828  0.00  0.00     0.030 A 
ATOM     22  C   UNL d   1       0.883  -5.709  -0.649  0.00  0.00     0.002 A 
ATOM     23  C   UNL d   1       1.556  -6.083   0.509  0.00  0.00     0.000 A 
ATOM     24  C   UNL d   1       1.838  -5.132   1.492  0.00  0.00     0.002 A 
ATOM     25  C   UNL d   1       1.449  -3.800   1.318  0.00  0.00     0.030 A 
ENDBRANCH   4  20
BRANCH  11  26
ATOM     26  O   UNL d   1      -4.054  -0.978  -0.069  0.00  0.00    -0.261 OA
ATOM     27  HO  UNL d   1      -4.973  -0.740  -0.065  1.00  0.00     0.247 HD
ENDBRANCH  11  26
TORSDOF 2
