REMARK  10 active torsions:
REMARK  status: ('A' for Active; 'I' for Inactive)
REMARK    1  A    between atoms: C_3  and  C_1 
REMARK    2  A    between atoms: C_2  and  C_4 
REMARK    3  A    between atoms: O_28  and  C_5 
REMARK    4  A    between atoms: C_6  and  C_8 
REMARK    5  A    between atoms: C_7  and  N_16 
REMARK    6  A    between atoms: N_17  and  C_7 
REMARK       I    between atoms: C_8  and  N_15 
REMARK    7  A    between atoms: O_30  and  C_9 
REMARK    8  A    between atoms: O_29  and  C_10 
REMARK    9  A    between atoms: N_16  and  C_12 
REMARK   10  A    between atoms: N_15  and  N_17 
ROOT
ATOM      1  C   UNL d   1       1.292  -1.968   3.713  0.00  0.00     0.191 C 
ATOM      2  S   UNL d   1       1.038  -1.405   5.272  0.00  0.00    -0.039 SA
ENDROOT
BRANCH   1   3
ATOM      3  N   UNL d   1       1.393  -1.046   2.706  0.00  0.00    -0.332 N 
ATOM      4  H   UNL d   1       1.083  -0.121   2.987  0.00  0.00     0.168 HD
BRANCH   3   5
ATOM      5  C   UNL d   1       1.849  -1.182   1.381  0.00  0.00     0.035 A 
ATOM      6  C   UNL d   1       2.649  -2.239   0.938  0.00  0.00     0.045 A 
ATOM      7  C   UNL d   1       3.021  -2.352  -0.411  0.00  0.00     0.050 A 
ATOM      8  C   UNL d   1       2.594  -1.372  -1.318  0.00  0.00     0.032 A 
ATOM      9  C   UNL d   1       1.816  -0.287  -0.887  0.00  0.00     0.050 A 
ATOM     10  C   UNL d   1       1.484  -0.183   0.474  0.00  0.00     0.045 A 
BRANCH   7  11
ATOM     11  C   UNL d   1       3.856  -3.530  -0.858  0.00  0.00     0.417 C 
ATOM     12  F   UNL d   1       4.062  -3.568  -2.203  0.00  0.00    -0.166 F 
ATOM     13  F   UNL d   1       3.284  -4.721  -0.533  0.00  0.00    -0.166 F 
ATOM     14  F   UNL d   1       5.091  -3.537  -0.288  0.00  0.00    -0.166 F 
ENDBRANCH   7  11
BRANCH   9  15
ATOM     15  C   UNL d   1       1.313   0.747  -1.866  0.00  0.00     0.417 C 
ATOM     16  F   UNL d   1       1.389   0.340  -3.163  0.00  0.00    -0.166 F 
ATOM     17  F   UNL d   1       0.007   1.069  -1.653  0.00  0.00    -0.166 F 
ATOM     18  F   UNL d   1       2.005   1.915  -1.794  0.00  0.00    -0.166 F 
ENDBRANCH   9  15
ENDBRANCH   3   5
ENDBRANCH   1   3
BRANCH   1  19
ATOM     19  N   UNL d   1       1.382  -3.292   3.365  0.00  0.00    -0.273 N 
ATOM     20  H   UNL d   1       1.013  -3.565   2.452  0.00  0.00     0.189 HD
BRANCH  19  21
ATOM     21  N   UNL d   1       1.261  -4.294   4.330  0.00  0.00    -0.264 N 
ATOM     22  C   UNL d   1       0.667  -5.488   3.986  0.00  0.00     0.270 C 
ATOM     23  O   UNL d   1       0.266  -5.741   2.860  0.00  0.00    -0.266 OA
ATOM     24  H   UNL d   1       1.708  -4.119   5.229  0.00  0.00     0.190 HD
BRANCH  22  25
ATOM     25  C   UNL d   1       0.569  -6.476   5.087  0.00  0.00     0.039 A 
ATOM     26  C   UNL d   1       0.368  -6.065   6.405  0.00  0.00     0.057 A 
ATOM     27  C   UNL d   1       0.320  -7.003   7.445  0.00  0.00     0.105 A 
ATOM     28  C   UNL d   1       0.463  -8.384   7.166  0.00  0.00     0.135 A 
ATOM     29  C   UNL d   1       0.689  -8.786   5.827  0.00  0.00     0.105 A 
ATOM     30  C   UNL d   1       0.716  -7.829   4.802  0.00  0.00     0.057 A 
BRANCH  27  31
ATOM     31  O   UNL d   1       0.236  -6.577   8.749  0.00  0.00    -0.353 OA
ATOM     32  C   UNL d   1      -0.541  -5.400   8.979  0.00  0.00     0.210 C 
ENDBRANCH  27  31
BRANCH  28  33
ATOM     33  O   UNL d   1       0.420  -9.386   8.097  0.00  0.00    -0.351 OA
ATOM     34  C   UNL d   1      -0.135  -9.158   9.384  0.00  0.00     0.210 C 
ENDBRANCH  28  33
BRANCH  29  35
ATOM     35  O   UNL d   1       0.934 -10.035   5.321  0.00  0.00    -0.353 OA
ATOM     36  C   UNL d   1       0.853 -11.188   6.140  0.00  0.00     0.210 C 
ENDBRANCH  29  35
ENDBRANCH  22  25
ENDBRANCH  19  21
ENDBRANCH   1  19
TORSDOF 10
