REMARK  3 active torsions:
REMARK  status: ('A' for Active; 'I' for Inactive)
REMARK    1  A    between atoms: C_7  and  C_1 
REMARK    2  A    between atoms: O_9  and  C_7 
REMARK    3  A    between atoms: C_8  and  O_9 
ROOT
ATOM      1  C   UNL d   1      -1.202   1.056   0.000  0.00  0.00    -0.021 A 
ATOM      2  C   UNL d   1       0.054   1.723   0.084  0.00  0.00    -0.047 A 
ATOM      3  C   UNL d   1      -1.236  -0.370  -0.024  0.00  0.00    -0.047 A 
ATOM      4  C   UNL d   1       1.259   0.973   0.012  0.00  0.00    -0.049 A 
ATOM      5  C   UNL d   1      -0.026  -1.117  -0.002  0.00  0.00    -0.049 A 
ATOM      6  C   UNL d   1       1.219  -0.445  -0.007  0.00  0.00    -0.049 A 
ATOM      7  C   UNL d   1       2.614   1.655  -0.047  0.00  0.00     0.049 C 
ATOM      8  C   UNL d   1      -0.042  -2.631   0.028  0.00  0.00     0.049 C 
ATOM      9  C   UNL d   1       0.164   3.226   0.232  0.00  0.00     0.049 C 
ATOM     10  C   UNL d   1       2.528  -1.209  -0.022  0.00  0.00     0.049 C 
ATOM     11  C   UNL d   1      -2.550  -1.128  -0.060  0.00  0.00     0.049 C 
ENDROOT
BRANCH   1  12
ATOM     12  C   UNL d   1      -2.509   1.838  -0.054  0.00  0.00     0.218 C 
BRANCH  12  13
ATOM     13  O   UNL d   1      -3.267   1.540  -1.242  0.00  0.00    -0.317 OA
BRANCH  13  14
ATOM     14  C   UNL d   1      -2.951   2.263  -2.347  0.00  0.00     0.255 C 
ATOM     15  O   UNL d   1      -2.109   3.143  -2.409  0.00  0.00    -0.266 OA
ATOM     16  C   UNL d   1      -3.838   1.876  -3.495  0.00  0.00     0.126 C 
ENDBRANCH  13  14
ENDBRANCH  12  13
ENDBRANCH   1  12
TORSDOF 3
