REMARK  4 active torsions:
REMARK  status: ('A' for Active; 'I' for Inactive)
REMARK    1  A    between atoms: S_2  and  C_1 
REMARK    2  A    between atoms: N_7  and  S_2 
REMARK    3  A    between atoms: C_8  and  C_3 
REMARK    4  A    between atoms: O_12  and  C_8 
ROOT
ATOM      1  C   UNL d   1       0.685   1.398   0.096  0.00  0.00     0.122 A 
ATOM      2  C   UNL d   1      -0.755   1.373   0.174  0.00  0.00     0.094 A 
ATOM      3  C   UNL d   1       1.102   0.076   0.091  0.00  0.00     0.073 A 
ATOM      4  C   UNL d   1      -1.091   0.025   0.130  0.00  0.00     0.067 A 
ATOM      5  O   UNL d   1       0.022  -0.747   0.119  0.00  0.00    -0.318 OA
ATOM      6  C   UNL d   1       2.393  -0.647   0.038  0.00  0.00     0.078 C 
ATOM      7  C   UNL d   1      -2.360  -0.738   0.092  0.00  0.00     0.078 C 
ENDROOT
BRANCH   1   8
ATOM      8  S   UNL d   1       1.726   2.776  -0.050  0.00  0.00     0.247 S 
ATOM      9  O   UNL d   1       2.880   2.272  -0.768  0.00  0.00    -0.206 OA
ATOM     10  O   UNL d   1       0.903   3.812  -0.633  0.00  0.00    -0.206 OA
BRANCH   8  11
ATOM     11  N   UNL d   1       2.256   3.266   1.510  0.00  0.00    -0.206 NA
ATOM     12  C   UNL d   1       1.215   3.922   2.337  0.00  0.00     0.107 C 
ATOM     13  C   UNL d   1       1.779   4.441   3.654  0.00  0.00     0.015 C 
ATOM     14  C   UNL d   1       2.468   3.320   4.415  0.00  0.00     0.002 C 
ATOM     15  C   UNL d   1       3.592   2.755   3.559  0.00  0.00     0.015 C 
ATOM     16  C   UNL d   1       3.064   2.243   2.224  0.00  0.00     0.107 C 
ENDBRANCH   8  11
ENDBRANCH   1   8
BRANCH   2  17
ATOM     17  C   UNL d   1      -1.751   2.433   0.240  0.00  0.00     0.297 C 
ATOM     18  O   UNL d   1      -2.912   2.271  -0.125  0.00  0.00    -0.259 OA
BRANCH  17  19
ATOM     19  O   UNL d   1      -1.316   3.566   0.845  0.00  0.00    -0.322 OA
ATOM     20  C   UNL d   1      -2.275   4.627   0.907  0.00  0.00     0.213 C 
ENDBRANCH  17  19
ENDBRANCH   2  17
TORSDOF 4
