REMARK  6 active torsions:
REMARK  status: ('A' for Active; 'I' for Inactive)
REMARK    1  A    between atoms: N_4  and  C_1 
REMARK    2  A    between atoms: N_5  and  C_2 
REMARK    3  A    between atoms: O_10  and  C_3 
REMARK    4  A    between atoms: C_6  and  C_7 
REMARK    5  A    between atoms: C_21  and  O_10 
REMARK    6  A    between atoms: C_22  and  C_15 
ROOT
ATOM      1  C   UNL d   1      -0.774  -2.910  -2.073  0.00  0.00     0.140 A 
ATOM      2  C   UNL d   1       0.265  -4.860  -1.171  0.00  0.00     0.140 A 
ATOM      3  C   UNL d   1       0.169  -3.462  -1.196  0.00  0.00     0.142 A 
ATOM      4  C   UNL d   1      -1.375  -5.098  -2.953  0.00  0.00     0.052 A 
ATOM      5  C   UNL d   1      -0.469  -5.673  -2.054  0.00  0.00     0.055 A 
ATOM      6  C   UNL d   1      -1.538  -3.708  -2.950  0.00  0.00     0.055 A 
ENDROOT
BRANCH   3   7
ATOM      7  O   UNL d   1       0.924  -2.600  -0.438  0.00  0.00    -0.306 OA
BRANCH   7   8
ATOM      8  C   UNL d   1       2.283  -2.811  -0.357  0.00  0.00     0.076 A 
ATOM      9  C   UNL d   1       3.052  -3.364  -1.380  0.00  0.00     0.038 A 
ATOM     10  C   UNL d   1       4.390  -3.685  -1.148  0.00  0.00     0.010 A 
ATOM     11  C   UNL d   1       5.008  -3.385   0.075  0.00  0.00    -0.054 A 
ATOM     12  C   UNL d   1       4.233  -2.755   1.060  0.00  0.00     0.010 A 
ATOM     13  C   UNL d   1       2.881  -2.473   0.851  0.00  0.00     0.038 A 
BRANCH  11  14
ATOM     14  C   UNL d   1       6.491  -3.703   0.236  0.00  0.00     0.018 C 
ATOM     15  C   UNL d   1       6.864  -4.572   1.447  0.00  0.00     0.009 C 
ATOM     16  C   UNL d   1       6.908  -3.826   2.776  0.00  0.00     0.001 C 
ATOM     17  C   UNL d   1       7.651  -2.493   2.709  0.00  0.00     0.000 C 
ATOM     18  C   UNL d   1       7.349  -1.640   1.477  0.00  0.00     0.001 C 
ATOM     19  C   UNL d   1       7.364  -2.442   0.182  0.00  0.00     0.009 C 
ENDBRANCH  11  14
ENDBRANCH   7   8
ENDBRANCH   3   7
BRANCH   2  20
ATOM     20  N   UNL d   1       1.122  -5.561  -0.227  0.00  0.00    -0.113 N 
ATOM     21  O   UNL d   1       0.912  -5.366   0.977  0.00  0.00    -0.532 OA
ATOM     22  O   UNL d   1       1.945  -6.351  -0.705  0.00  0.00    -0.532 OA
ENDBRANCH   2  20
BRANCH   1  23
ATOM     23  N   UNL d   1      -0.991  -1.472  -2.118  0.00  0.00    -0.113 N 
ATOM     24  O   UNL d   1      -1.310  -0.913  -1.065  0.00  0.00    -0.532 OA
ATOM     25  O   UNL d   1      -0.898  -0.933  -3.228  0.00  0.00    -0.532 OA
ENDBRANCH   1  23
BRANCH   4  26
ATOM     26  C   UNL d   1      -2.174  -5.966  -3.901  0.00  0.00     0.417 C 
ATOM     27  F   UNL d   1      -1.852  -7.286  -3.818  0.00  0.00    -0.166 F 
ATOM     28  F   UNL d   1      -3.508  -5.886  -3.660  0.00  0.00    -0.166 F 
ATOM     29  F   UNL d   1      -1.995  -5.613  -5.200  0.00  0.00    -0.166 F 
ENDBRANCH   4  26
TORSDOF 6
