REMARK  7 active torsions:
REMARK  status: ('A' for Active; 'I' for Inactive)
REMARK    1  A    between atoms: C_2  and  S_1 
REMARK    2  A    between atoms: C_11  and  S_1 
REMARK    3  A    between atoms: C_3  and  C_5 
REMARK    4  A    between atoms: C_4  and  C_6 
REMARK    5  A    between atoms: N_14  and  C_7 
REMARK    6  A    between atoms: C_24  and  C_11 
REMARK    7  A    between atoms: C_15  and  N_14 
ROOT
ATOM      1  C   UNL d   1       0.380  -0.369  -1.678  0.00  0.00     0.154 C 
ATOM      2  C   UNL d   1      -0.346  -1.477  -1.915  0.00  0.00     0.123 C 
ATOM      3  C   UNL d   1       0.795  -0.006  -0.373  0.00  0.00     0.113 C 
ATOM      4  N   UNL d   1       1.081   0.203   0.730  0.00  0.00    -0.191 NA
ENDROOT
BRANCH   1   5
ATOM      5  S   UNL d   1       0.924   0.616  -3.009  0.00  0.00     0.190 S 
ATOM      6  O   UNL d   1       1.618  -0.249  -3.949  0.00  0.00    -0.222 OA
ATOM      7  O   UNL d   1       1.581   1.796  -2.476  0.00  0.00    -0.222 OA
BRANCH   5   8
ATOM      8  C   UNL d   1      -0.604   1.151  -3.783  0.00  0.00     0.185 C 
BRANCH   8   9
ATOM      9  C   UNL d   1      -0.309   2.115  -4.912  0.00  0.00    -0.044 A 
ATOM     10  C   UNL d   1      -0.036   1.647  -6.209  0.00  0.00     0.010 A 
ATOM     11  C   UNL d   1       0.204   2.545  -7.255  0.00  0.00     0.024 A 
ATOM     12  C   UNL d   1       0.178   3.916  -7.015  0.00  0.00     0.034 A 
ATOM     13  C   UNL d   1      -0.077   4.397  -5.734  0.00  0.00     0.024 A 
ATOM     14 CL   UNL d   1       0.458   5.019  -8.305  0.00  0.00    -0.084 Cl
ATOM     15  C   UNL d   1      -0.317   3.501  -4.686  0.00  0.00     0.010 A 
ENDBRANCH   8   9
ENDBRANCH   5   8
ENDBRANCH   1   5
BRANCH   2  16
ATOM     16  N   UNL d   1      -0.881  -2.357  -0.996  0.00  0.00    -0.364 N 
ATOM     17  H   UNL d   1      -0.768  -2.131  -0.006  0.00  0.00     0.165 HD
BRANCH  16  18
ATOM     18  C   UNL d   1      -1.585  -3.550  -1.244  0.00  0.00     0.033 A 
ATOM     19  C   UNL d   1      -1.423  -4.299  -2.413  0.00  0.00     0.045 A 
ATOM     20  C   UNL d   1      -2.216  -5.431  -2.676  0.00  0.00     0.050 A 
ATOM     21  C   UNL d   1      -3.206  -5.801  -1.754  0.00  0.00     0.032 A 
ATOM     22  C   UNL d   1      -3.404  -5.057  -0.582  0.00  0.00     0.050 A 
ATOM     23  C   UNL d   1      -2.576  -3.947  -0.334  0.00  0.00     0.045 A 
BRANCH  20  24
ATOM     24  C   UNL d   1      -2.004  -6.209  -3.954  0.00  0.00     0.417 C 
ATOM     25  F   UNL d   1      -2.875  -7.242  -4.112  0.00  0.00    -0.166 F 
ATOM     26  F   UNL d   1      -2.147  -5.425  -5.059  0.00  0.00    -0.166 F 
ATOM     27  F   UNL d   1      -0.758  -6.748  -4.035  0.00  0.00    -0.166 F 
ENDBRANCH  20  24
BRANCH  22  28
ATOM     28  C   UNL d   1      -4.509  -5.399   0.390  0.00  0.00     0.417 C 
ATOM     29  F   UNL d   1      -5.284  -6.442  -0.014  0.00  0.00    -0.166 F 
ATOM     30  F   UNL d   1      -4.038  -5.733   1.621  0.00  0.00    -0.166 F 
ATOM     31  F   UNL d   1      -5.361  -4.355   0.584  0.00  0.00    -0.166 F 
ENDBRANCH  22  28
ENDBRANCH  16  18
ENDBRANCH   2  16
TORSDOF 7
