REMARK  1 active torsions:
REMARK  status: ('A' for Active; 'I' for Inactive)
REMARK    1  A    between atoms: C_12  and  C_10 
ROOT
ATOM      1  C   UNL d   1      -1.098   0.688   0.044  0.00  0.00     0.046 A 
ATOM      2  C   UNL d   1      -0.682  -0.628  -0.000  0.00  0.00     0.073 A 
ATOM      3  C   UNL d   1       0.113   1.526   0.045  0.00  0.00     0.195 A 
ATOM      4  N   UNL d   1      -1.545  -1.638  -0.061  0.00  0.00    -0.299 N 
ATOM      5  HN  UNL d   1      -1.228  -2.607  -0.097  1.00  0.00     0.187 HD
ATOM      6  C   UNL d   1       1.270   0.601   0.019  0.00  0.00     0.027 A 
ATOM      7  C   UNL d   1       0.755  -0.709  -0.001  0.00  0.00     0.007 A 
ATOM      8  N   UNL d   1      -2.889  -1.319  -0.074  0.00  0.00    -0.299 N 
ATOM      9  HN  UNL d   1      -3.572  -2.073  -0.148  1.00  0.00     0.187 HD
ATOM     10  C   UNL d   1      -3.337  -0.030   0.008  0.00  0.00     0.061 A 
ATOM     11  C   UNL d   1      -2.432   1.027   0.062  0.00  0.00     0.049 A 
ATOM     12  O   UNL d   1       0.142   2.738   0.052  0.00  0.00    -0.287 OA
ATOM     13  C   UNL d   1       2.621   0.877   0.013  0.00  0.00     0.016 A 
ATOM     14  C   UNL d   1       1.613  -1.791  -0.009  0.00  0.00     0.015 A 
ATOM     15  C   UNL d   1       3.489  -0.217  -0.001  0.00  0.00     0.001 A 
ATOM     16  C   UNL d   1       2.991  -1.537  -0.008  0.00  0.00     0.001 A 
ENDROOT
BRANCH  10  17
ATOM     17  C   UNL d   1      -4.805   0.166  -0.028  0.00  0.00     0.014 A 
ATOM     18  C   UNL d   1      -5.736  -0.717   0.567  0.00  0.00     0.048 A 
ATOM     19  C   UNL d   1      -7.119  -0.498   0.465  0.00  0.00     0.048 A 
ATOM     20 CL   UNL d   1      -5.273  -2.092   1.516  0.00  0.00    -0.083 Cl
ATOM     21  C   UNL d   1      -7.601   0.617  -0.209  0.00  0.00     0.035 A 
ATOM     22  C   UNL d   1      -6.718   1.518  -0.786  0.00  0.00     0.025 A 
ATOM     23 CL   UNL d   1      -9.295   0.886  -0.323  0.00  0.00    -0.084 Cl
ATOM     24  C   UNL d   1      -5.340   1.290  -0.703  0.00  0.00     0.017 A 
ENDBRANCH  10  17
TORSDOF 1
