REMARK  5 active torsions:
REMARK  status: ('A' for Active; 'I' for Inactive)
REMARK    1  A    between atoms: N_6  and  C_1 
REMARK    2  A    between atoms: C_2  and  C_3 
REMARK    3  A    between atoms: C_19  and  N_10 
REMARK    4  A    between atoms: C_21  and  C_19 
REMARK    5  A    between atoms: O_20  and  C_21 
ROOT
ATOM      1  C   UNL d   1      -0.212   1.090   0.170  0.00  0.00     0.125 A 
ATOM      2  C   UNL d   1      -1.592  -1.338   0.222  0.00  0.00     0.065 A 
ATOM      3  N   UNL d   1      -0.621   0.516  -0.989  0.00  0.00    -0.350 N 
ATOM      4  HN  UNL d   1      -0.428   0.967  -1.884  1.00  0.00     0.166 HD
ATOM      5  C   UNL d   1      -0.507   0.472   1.403  0.00  0.00     0.078 A 
ATOM      6  C   UNL d   1      -1.205  -0.741   1.420  0.00  0.00     0.045 A 
ATOM      7  C   UNL d   1      -1.290  -0.664  -0.946  0.00  0.00     0.106 A 
ATOM      8 CL   UNL d   1       0.088   1.037   2.927  0.00  0.00    -0.080 Cl
ENDROOT
BRANCH   1   9
ATOM      9  N   UNL d   1       0.611   2.197   0.082  0.00  0.00    -0.363 N 
ATOM     10  C   UNL d   1       1.377   2.380  -1.154  0.00  0.00     0.154 C 
ATOM     11  C   UNL d   1       2.676   3.140  -0.787  0.00  0.00     0.292 C 
ATOM     12  N   UNL d   1       2.482   4.441  -0.096  0.00  0.00     0.093 N 
ATOM     13  C   UNL d   1       1.547   4.242   1.048  0.00  0.00     0.292 C 
ATOM     14  C   UNL d   1       0.240   3.467   0.715  0.00  0.00     0.154 C 
BRANCH  12  15
ATOM     15  C   UNL d   1       1.988   5.506  -0.985  0.00  0.00     0.298 C 
BRANCH  15  16
ATOM     16  C   UNL d   1       2.935   5.857  -2.143  0.00  0.00     0.194 C 
BRANCH  16  17
ATOM     17  O   UNL d   1       2.398   6.953  -2.881  0.00  0.00    -0.399 OA
ATOM     18  H   UNL d   1       3.009   7.119  -3.618  0.00  0.00     0.209 HD
ENDBRANCH  16  17
ENDBRANCH  15  16
ENDBRANCH  12  15
ENDBRANCH   1   9
BRANCH   2  19
ATOM     19  C   UNL d   1      -2.262  -2.675   0.168  0.00  0.00     0.418 C 
ATOM     20  F   UNL d   1      -2.451  -3.235   1.394  0.00  0.00    -0.166 F 
ATOM     21  F   UNL d   1      -3.491  -2.621  -0.413  0.00  0.00    -0.166 F 
ATOM     22  F   UNL d   1      -1.547  -3.585  -0.549  0.00  0.00    -0.166 F 
ENDBRANCH   2  19
TORSDOF 5
