REMARK  6 active torsions:
REMARK  status: ('A' for Active; 'I' for Inactive)
REMARK    1  A    between atoms: N_7  and  C_1 
REMARK    2  A    between atoms: C_3  and  N_6 
REMARK    3  A    between atoms: N_13  and  C_3 
REMARK    4  A    between atoms: C_4  and  C_9 
REMARK    5  A    between atoms: C_5  and  C_10 
REMARK    6  A    between atoms: C_16  and  N_13 
ROOT
ATOM      1  C   UNL d   1       2.442   6.814   0.344  0.00  0.00     0.174 C 
ATOM      2  S   UNL d   1       3.095   7.542   1.702  0.00  0.00    -0.041 SA
ENDROOT
BRANCH   1   3
ATOM      3  N   UNL d   1       2.186   5.460   0.211  0.00  0.00    -0.356 N 
ATOM      4  C   UNL d   1       3.057   4.719  -0.715  0.00  0.00     0.140 C 
ATOM      5  C   UNL d   1       2.451   3.379  -1.165  0.00  0.00     0.117 C 
ATOM      6  N   UNL d   1       2.023   2.577   0.006  0.00  0.00    -0.266 NA
ATOM      7  C   UNL d   1       1.095   3.331   0.886  0.00  0.00     0.117 C 
ATOM      8  C   UNL d   1       1.747   4.644   1.357  0.00  0.00     0.140 C 
BRANCH   6   9
ATOM      9  C   UNL d   1       1.479   1.340  -0.408  0.00  0.00     0.096 A 
ATOM     10  C   UNL d   1       2.274   0.298  -0.944  0.00  0.00     0.037 A 
ATOM     11  C   UNL d   1       1.604  -0.848  -1.344  0.00  0.00     0.088 A 
ATOM     12  C   UNL d   1       3.689   0.149  -1.159  0.00  0.00     0.025 A 
ATOM     13  S   UNL d   1       2.641  -2.029  -2.006  0.00  0.00    -0.083 SA
ATOM     14  N   UNL d   1       0.282  -1.075  -1.254  0.00  0.00    -0.346 N 
ATOM     15  C   UNL d   1       4.020  -1.055  -1.740  0.00  0.00     0.053 A 
ATOM     16  C   UNL d   1      -0.368  -0.051  -0.703  0.00  0.00     0.182 A 
ATOM     17  HN  UNL d   1      -0.171  -1.932  -1.572  1.00  0.00     0.167 HD
ATOM     18  N   UNL d   1       0.147   1.115  -0.281  0.00  0.00    -0.342 N 
ATOM     19  HN  UNL d   1      -0.457   1.825   0.132  1.00  0.00     0.167 HD
ENDBRANCH   6   9
ENDBRANCH   1   3
BRANCH   1  20
ATOM     20  N   UNL d   1       2.223   7.595  -0.765  0.00  0.00    -0.333 N 
ATOM     21  H   UNL d   1       2.709   8.486  -0.736  0.00  0.00     0.168 HD
BRANCH  20  22
ATOM     22  C   UNL d   1       1.154   7.520  -1.689  0.00  0.00     0.035 A 
ATOM     23  C   UNL d   1       0.054   6.676  -1.524  0.00  0.00     0.045 A 
ATOM     24  C   UNL d   1      -1.042   6.725  -2.402  0.00  0.00     0.050 A 
ATOM     25  C   UNL d   1      -1.015   7.627  -3.474  0.00  0.00     0.032 A 
ATOM     26  C   UNL d   1       0.077   8.488  -3.658  0.00  0.00     0.050 A 
ATOM     27  C   UNL d   1       1.156   8.424  -2.757  0.00  0.00     0.045 A 
BRANCH  24  28
ATOM     28  C   UNL d   1      -2.233   5.829  -2.153  0.00  0.00     0.417 C 
ATOM     29  F   UNL d   1      -3.284   6.083  -2.981  0.00  0.00    -0.166 F 
ATOM     30  F   UNL d   1      -1.933   4.512  -2.318  0.00  0.00    -0.166 F 
ATOM     31  F   UNL d   1      -2.718   5.949  -0.886  0.00  0.00    -0.166 F 
ENDBRANCH  24  28
BRANCH  26  32
ATOM     32  C   UNL d   1       0.109   9.472  -4.804  0.00  0.00     0.417 C 
ATOM     33  F   UNL d   1      -1.095   9.623  -5.421  0.00  0.00    -0.166 F 
ATOM     34  F   UNL d   1       0.486  10.719  -4.409  0.00  0.00    -0.166 F 
ATOM     35  F   UNL d   1       0.987   9.103  -5.776  0.00  0.00    -0.166 F 
ENDBRANCH  26  32
ENDBRANCH  20  22
ENDBRANCH   1  20
TORSDOF 6
