REMARK  7 active torsions:
REMARK  status: ('A' for Active; 'I' for Inactive)
REMARK    1  A    between atoms: C_2  and  N_1 
REMARK    2  A    between atoms: C_6  and  C_3 
REMARK    3  A    between atoms: N_10  and  C_4 
REMARK    4  A    between atoms: C_5  and  N_9 
REMARK    5  A    between atoms: O_14  and  C_6 
REMARK    6  A    between atoms: N_9  and  N_10 
REMARK    7  A    between atoms: C_18  and  O_14 
ROOT
ATOM      1  C   UNL d   1      -1.879   3.744  -4.449  0.00  0.00     0.131 C 
ATOM      2  C   UNL d   1      -0.793   4.234  -3.826  0.00  0.00     0.108 C 
ATOM      3  C   UNL d   1      -2.170   2.357  -4.463  0.00  0.00     0.106 C 
ATOM      4  N   UNL d   1      -2.406   1.218  -4.481  0.00  0.00    -0.191 NA
ENDROOT
BRANCH   1   5
ATOM      5  C   UNL d   1      -2.809   4.711  -5.080  0.00  0.00     0.304 C 
ATOM      6  O   UNL d   1      -2.621   5.917  -5.130  0.00  0.00    -0.258 OA
BRANCH   5   7
ATOM      7  O   UNL d   1      -3.931   4.070  -5.500  0.00  0.00    -0.317 OA
BRANCH   7   8
ATOM      8  C   UNL d   1      -5.037   4.899  -5.889  0.00  0.00     0.174 C 
ATOM      9  C   UNL d   1      -5.868   5.224  -4.661  0.00  0.00     0.034 C 
ENDBRANCH   7   8
ENDBRANCH   5   7
ENDBRANCH   1   5
BRANCH   2  10
ATOM     10  N   UNL d   1       0.134   3.559  -3.039  0.00  0.00    -0.213 NA
ATOM     11  H   UNL d   1       1.058   4.002  -3.120  0.00  0.00     0.152 HD
BRANCH  10  12
ATOM     12  N   UNL d   1      -0.071   3.186  -1.701  0.00  0.00    -0.311 N 
ATOM     13  C   UNL d   1      -1.385   3.475  -1.090  0.00  0.00     0.172 C 
BRANCH  12  14
ATOM     14  C   UNL d   1       0.536   1.995  -1.208  0.00  0.00     0.078 A 
ATOM     15  C   UNL d   1       0.866   1.758   0.143  0.00  0.00     0.130 A 
ATOM     16  C   UNL d   1       1.406   0.540   0.594  0.00  0.00     0.038 A 
ATOM     17  C   UNL d   1       1.669  -0.472  -0.322  0.00  0.00     0.003 A 
ATOM     18  C   UNL d   1       1.407  -0.257  -1.672  0.00  0.00     0.002 A 
ATOM     19  C   UNL d   1       0.853   0.956  -2.105  0.00  0.00     0.033 A 
BRANCH  15  20
ATOM     20  N   UNL d   1       0.749   2.805   1.140  0.00  0.00    -0.113 N 
ATOM     21  O   UNL d   1       1.396   3.846   0.963  0.00  0.00    -0.532 OA
ATOM     22  O   UNL d   1       0.028   2.567   2.120  0.00  0.00    -0.532 OA
ENDBRANCH  15  20
ENDBRANCH  12  14
ENDBRANCH  10  12
ENDBRANCH   2  10
TORSDOF 7
