REMARK  6 active torsions:
REMARK  status: ('A' for Active; 'I' for Inactive)
REMARK    1  A    between atoms: C_9  and  C_1 
REMARK    2  A    between atoms: N_6  and  C_2 
REMARK    3  A    between atoms: C_11  and  C_4 
REMARK       I    between atoms: C_7  and  N_6 
REMARK    4  A    between atoms: C_8  and  C_7 
REMARK    5  A    between atoms: O_21  and  C_12 
REMARK    6  A    between atoms: O_25  and  C_13 
ROOT
ATOM      1  C   UNL d   1      -0.047   1.145  -0.329  0.00  0.00     0.077 C 
ATOM      2  C   UNL d   1       1.282   0.826  -0.100  0.00  0.00     0.057 C 
ATOM      3  S   UNL d   1      -1.053  -0.233  -0.106  0.00  0.00    -0.084 SA
ATOM      4  C   UNL d   1       0.268  -1.319  -0.106  0.00  0.00     0.018 C 
ATOM      5  C   UNL d   1       1.449  -0.603  -0.022  0.00  0.00     0.051 C 
ENDROOT
BRANCH   2   6
ATOM      6  N   UNL d   1       2.412   1.635  -0.009  0.00  0.00    -0.322 N 
ATOM      7  C   UNL d   1       2.470   2.994   0.238  0.00  0.00     0.256 C 
ATOM      8  O   UNL d   1       1.506   3.735   0.399  0.00  0.00    -0.267 OA
ATOM      9  H   UNL d   1       3.285   1.129  -0.046  0.00  0.00     0.169 HD
BRANCH   7  10
ATOM     10  C   UNL d   1       3.857   3.575   0.234  0.00  0.00     0.035 A 
ATOM     11  C   UNL d   1       4.022   4.906  -0.179  0.00  0.00     0.056 A 
ATOM     12  C   UNL d   1       5.303   5.440  -0.410  0.00  0.00     0.102 A 
ATOM     13  C   UNL d   1       6.429   4.622  -0.205  0.00  0.00     0.101 A 
ATOM     14  C   UNL d   1       6.258   3.337   0.324  0.00  0.00     0.040 A 
ATOM     15  C   UNL d   1       4.985   2.815   0.554  0.00  0.00     0.020 A 
BRANCH  12  16
ATOM     16  O   UNL d   1       5.519   6.725  -0.830  0.00  0.00    -0.353 OA
ATOM     17  C   UNL d   1       4.395   7.562  -1.065  0.00  0.00     0.210 C 
ENDBRANCH  12  16
BRANCH  13  18
ATOM     18  O   UNL d   1       7.746   4.913  -0.448  0.00  0.00    -0.353 OA
ATOM     19  C   UNL d   1       8.051   5.998  -1.315  0.00  0.00     0.210 C 
ENDBRANCH  13  18
ENDBRANCH   7  10
ENDBRANCH   2   6
BRANCH   1  20
ATOM     20  C   UNL d   1      -0.739   2.346  -0.785  0.00  0.00     0.164 C 
ATOM     21  O   UNL d   1      -1.863   2.669  -0.405  0.00  0.00    -0.292 OA
ATOM     22  C   UNL d   1      -0.136   3.078  -1.965  0.00  0.00     0.097 C 
ENDBRANCH   1  20
BRANCH   4  23
ATOM     23  C   UNL d   1       0.057  -2.779  -0.180  0.00  0.00    -0.019 A 
ATOM     24  C   UNL d   1      -1.099  -3.323  -0.773  0.00  0.00     0.016 A 
ATOM     25  C   UNL d   1      -1.267  -4.703  -0.905  0.00  0.00     0.043 A 
ATOM     26  C   UNL d   1      -0.275  -5.557  -0.452  0.00  0.00     0.116 A 
ATOM     27  C   UNL d   1       0.876  -5.057   0.142  0.00  0.00     0.043 A 
ATOM     28  F   UNL d   1      -0.425  -6.880  -0.594  0.00  0.00    -0.206 F 
ATOM     29  C   UNL d   1       1.041  -3.674   0.279  0.00  0.00     0.016 A 
ENDBRANCH   4  23
TORSDOF 6
