REMARK  9 active torsions:
REMARK  status: ('A' for Active; 'I' for Inactive)
REMARK    1  A    between atoms: C_7  and  C_1 
REMARK    2  A    between atoms: C_2  and  C_8 
REMARK    3  A    between atoms: C_11  and  C_7 
REMARK    4  A    between atoms: O_17  and  C_7 
REMARK    5  A    between atoms: C_8  and  C_12 
REMARK    6  A    between atoms: O_18  and  C_8 
REMARK    7  A    between atoms: C_12  and  C_11 
REMARK    8  A    between atoms: O_19  and  C_11 
REMARK    9  A    between atoms: O_20  and  C_12 
ROOT
ATOM      1  C   UNL d   1      -4.305   0.687  -1.161  0.00  0.00     0.186 C 
ENDROOT
BRANCH   1   2
ATOM      2  C   UNL d   1      -3.772  -0.123   0.042  0.00  0.00     0.217 C 
BRANCH   2   3
ATOM      3  C   UNL d   1      -4.258   0.404   1.357  0.00  0.00     0.114 A 
ATOM      4  N   UNL d   1      -4.630   1.643   1.635  0.00  0.00    -0.342 N 
ATOM      5  C   UNL d   1      -5.046   1.612   2.949  0.00  0.00     0.060 A 
ATOM      6  HN  UNL d   1      -4.612   2.449   1.010  1.00  0.00     0.167 HD
ATOM      7  C   UNL d   1      -5.567   2.635   3.755  0.00  0.00     0.032 A 
ATOM      8  C   UNL d   1      -4.902   0.337   3.485  0.00  0.00     0.060 A 
ATOM      9  C   UNL d   1      -5.923   2.336   5.077  0.00  0.00     0.002 A 
ATOM     10  C   UNL d   1      -5.764   1.045   5.588  0.00  0.00     0.002 A 
ATOM     11  C   UNL d   1      -5.248   0.011   4.799  0.00  0.00     0.032 A 
ATOM     12  N   UNL d   1      -4.382  -0.409   2.459  0.00  0.00    -0.342 N 
ATOM     13  H   UNL d   1      -4.144  -1.387   2.495  0.00  0.00     0.167 HD
ENDBRANCH   2   3
BRANCH   2  14
ATOM     14  O   UNL d   1      -2.344  -0.032   0.082  0.00  0.00    -0.385 OA
ATOM     15  H   UNL d   1      -2.131   0.864  -0.244  0.00  0.00     0.210 HD
ENDBRANCH   2  14
ENDBRANCH   1   2
BRANCH   1  16
ATOM     16  C   UNL d   1      -5.839   0.629  -1.287  0.00  0.00     0.186 C 
BRANCH  16  17
ATOM     17  C   UNL d   1      -6.379   1.448  -2.481  0.00  0.00     0.217 C 
BRANCH  17  18
ATOM     18  C   UNL d   1      -5.902   0.931  -3.803  0.00  0.00     0.114 A 
ATOM     19  N   UNL d   1      -5.520  -0.300  -4.095  0.00  0.00    -0.342 N 
ATOM     20  C   UNL d   1      -5.124  -0.256  -5.413  0.00  0.00     0.060 A 
ATOM     21  HN  UNL d   1      -5.518  -1.111  -3.476  1.00  0.00     0.167 HD
ATOM     22  C   UNL d   1      -4.601  -1.267  -6.236  0.00  0.00     0.032 A 
ATOM     23  C   UNL d   1      -5.290   1.021  -5.941  0.00  0.00     0.060 A 
ATOM     24  C   UNL d   1      -4.267  -0.953  -7.560  0.00  0.00     0.002 A 
ATOM     25  C   UNL d   1      -4.446   0.339  -8.059  0.00  0.00     0.002 A 
ATOM     26  C   UNL d   1      -4.966   1.360  -7.254  0.00  0.00     0.032 A 
ATOM     27  N   UNL d   1      -5.807   1.750  -4.902  0.00  0.00    -0.342 N 
ATOM     28  H   UNL d   1      -6.065   2.725  -4.930  0.00  0.00     0.167 HD
ENDBRANCH  17  18
BRANCH  17  29
ATOM     29  O   UNL d   1      -7.807   1.355  -2.511  0.00  0.00    -0.385 OA
ATOM     30  H   UNL d   1      -8.018   0.457  -2.187  0.00  0.00     0.210 HD
ENDBRANCH  17  29
ENDBRANCH  16  17
BRANCH  16  31
ATOM     31  O   UNL d   1      -6.301  -0.735  -1.373  0.00  0.00    -0.390 OA
ATOM     32  H   UNL d   1      -6.080  -1.039  -2.284  0.00  0.00     0.210 HD
ENDBRANCH  16  31
ENDBRANCH   1  16
BRANCH   1  33
ATOM     33  O   UNL d   1      -3.842   2.050  -1.080  0.00  0.00    -0.390 OA
ATOM     34  H   UNL d   1      -4.061   2.361  -0.171  0.00  0.00     0.210 HD
ENDBRANCH   1  33
TORSDOF 9
