REMARK  4 active torsions:
REMARK  status: ('A' for Active; 'I' for Inactive)
REMARK    1  A    between atoms: N_2  and  N_1 
REMARK       I    between atoms: C_3  and  N_2 
REMARK       I    between atoms: N_8  and  C_3 
REMARK    2  A    between atoms: C_16  and  N_8 
REMARK    3  A    between atoms: C_10  and  C_17 
REMARK    4  A    between atoms: C_17  and  C_16 
ROOT
ATOM      1  N   UNL d   1       0.440  -1.012  -1.088  0.00  0.00    -0.072 N 
ATOM      2  C   UNL d   1       1.211  -1.876  -1.798  0.00  0.00     0.691 C 
ATOM      3  N   UNL d   1       2.498  -1.973  -1.823  0.00  0.00    -0.233 N 
ATOM      4  HN  UNL d   1       3.024  -2.649  -2.377  1.00  0.00     0.174 HD
ATOM      5  N   UNL d   1       0.462  -2.738  -2.561  0.00  0.00    -0.225 N 
ATOM      6  H   UNL d   1      -0.555  -1.147  -1.103  0.00  0.00     0.212 HD
ATOM      7  H   UNL d   1       2.917  -1.266  -1.199  0.00  0.00     0.174 HD
ATOM      8  H   UNL d   1      -0.455  -2.426  -2.854  0.00  0.00     0.177 HD
ENDROOT
BRANCH   5   9
ATOM      9  C   UNL d   1       1.121  -3.631  -3.519  0.00  0.00     0.142 C 
BRANCH   9  10
ATOM     10  C   UNL d   1       0.097  -4.428  -4.332  0.00  0.00     0.058 C 
BRANCH  10  11
ATOM     11  C   UNL d   1       0.766  -5.402  -5.274  0.00  0.00    -0.057 A 
ATOM     12  C   UNL d   1       1.059  -6.707  -4.851  0.00  0.00     0.009 A 
ATOM     13  C   UNL d   1       1.706  -7.601  -5.707  0.00  0.00     0.024 A 
ATOM     14  C   UNL d   1       2.069  -7.195  -6.989  0.00  0.00     0.034 A 
ATOM     15  C   UNL d   1       1.790  -5.900  -7.421  0.00  0.00     0.024 A 
ATOM     16 CL   UNL d   1       2.869  -8.296  -8.041  0.00  0.00    -0.084 Cl
ATOM     17  C   UNL d   1       1.143  -5.005  -6.566  0.00  0.00     0.009 A 
ENDBRANCH  10  11
ENDBRANCH   9  10
ENDBRANCH   5   9
BRANCH   1  18
ATOM     18  N   UNL d   1       0.932  -0.139  -0.199  0.00  0.00    -0.024 N 
ATOM     19  O   UNL d   1       0.061   0.474   0.416  0.00  0.00    -0.516 OA
ATOM     20  O   UNL d   1       2.156  -0.012  -0.078  0.00  0.00    -0.516 OA
ENDBRANCH   1  18
TORSDOF 4
