REMARK  3 active torsions:
REMARK  status: ('A' for Active; 'I' for Inactive)
REMARK    1  A    between atoms: N_7  and  C_3 
REMARK    2  A    between atoms: C_8  and  C_10 
REMARK    3  A    between atoms: C_11  and  N_9 
ROOT
ATOM      1  N   UNL d   1      -1.294   3.030  -0.166  0.00  0.00    -0.364 N 
ATOM      2  N   UNL d   1      -2.688   5.471  -0.628  0.00  0.00    -0.364 N 
ATOM      3  C   UNL d   1      -2.108   3.656   0.910  0.00  0.00     0.144 C 
ATOM      4  C   UNL d   1      -0.742   4.065  -1.094  0.00  0.00     0.144 C 
ATOM      5  C   UNL d   1      -3.259   4.477   0.285  0.00  0.00     0.144 C 
ATOM      6  C   UNL d   1      -1.877   4.915  -1.715  0.00  0.00     0.144 C 
ENDROOT
BRANCH   2   7
ATOM      7  C   UNL d   1      -3.092   6.781  -0.667  0.00  0.00     0.103 A 
ATOM      8  N   UNL d   1      -3.144   7.415  -1.857  0.00  0.00    -0.352 N 
ATOM      9  C   UNL d   1      -3.506   8.722  -1.887  0.00  0.00     0.106 A 
ATOM     10  HN  UNL d   1      -2.915   6.920  -2.719  1.00  0.00     0.166 HD
ATOM     11  C   UNL d   1      -3.800   9.469  -0.762  0.00  0.00     0.063 A 
ATOM     12  C   UNL d   1      -3.717   8.822   0.467  0.00  0.00     0.021 A 
ATOM     13  C   UNL d   1      -3.371   7.473   0.509  0.00  0.00     0.049 A 
BRANCH  11  14
ATOM     14  C   UNL d   1      -4.175  10.912  -0.859  0.00  0.00     0.418 C 
ATOM     15  F   UNL d   1      -4.245  11.376  -2.137  0.00  0.00    -0.166 F 
ATOM     16  F   UNL d   1      -5.390  11.171  -0.300  0.00  0.00    -0.166 F 
ATOM     17  F   UNL d   1      -3.290  11.724  -0.216  0.00  0.00    -0.166 F 
ENDBRANCH  11  14
ENDBRANCH   2   7
BRANCH   1  18
ATOM     18  C   UNL d   1      -0.675   1.782  -0.005  0.00  0.00     0.114 A 
ATOM     19  N   UNL d   1      -1.402   0.607   0.166  0.00  0.00    -0.289 N 
ATOM     20  C   UNL d   1      -0.814  -0.658   0.256  0.00  0.00     0.332 A 
ATOM     21  C   UNL d   1      -2.860   0.645   0.173  0.00  0.00     0.163 C 
ATOM     22  N   UNL d   1       0.563  -0.709   0.115  0.00  0.00    -0.271 N 
ATOM     23  O   UNL d   1      -1.482  -1.679   0.435  0.00  0.00    -0.246 OA
ATOM     24  C   UNL d   1       1.227  -1.997   0.086  0.00  0.00     0.164 C 
ATOM     25  C   UNL d   1       1.356   0.405  -0.020  0.00  0.00     0.254 A 
ATOM     26  C   UNL d   1       0.660   1.687  -0.073  0.00  0.00     0.123 A 
ATOM     27  O   UNL d   1       2.582   0.384  -0.117  0.00  0.00    -0.268 OA
ENDBRANCH   1  18
TORSDOF 3
