REMARK  8 active torsions:
REMARK  status: ('A' for Active; 'I' for Inactive)
REMARK    1  A    between atoms: C_8  and  N_1 
REMARK    2  A    between atoms: C_10  and  C_2 
REMARK    3  A    between atoms: S_9  and  C_5 
REMARK    4  A    between atoms: C_11  and  C_8 
REMARK    5  A    between atoms: C_26  and  S_9 
REMARK    6  A    between atoms: C_13  and  C_15 
REMARK    7  A    between atoms: C_14  and  C_16 
REMARK    8  A    between atoms: C_27  and  C_26 
ROOT
ATOM      1  N   UNL d   1      -0.249  -1.169  -0.100  0.00  0.00    -0.305 N 
ATOM      2  C   UNL d   1       0.977  -0.516  -0.148  0.00  0.00     0.135 A 
ATOM      3  N   UNL d   1       0.733   0.786  -0.082  0.00  0.00    -0.283 N 
ATOM      4  HN  UNL d   1       1.442   1.518  -0.063  1.00  0.00     0.188 HD
ATOM      5  C   UNL d   1      -1.205  -0.179  -0.058  0.00  0.00     0.163 A 
ATOM      6  N   UNL d   1      -0.624   0.994  -0.043  0.00  0.00    -0.278 N 
ATOM      7  HN  UNL d   1      -1.093   1.899  -0.008  1.00  0.00     0.189 HD
ENDROOT
BRANCH   5   8
ATOM      8  S   UNL d   1      -2.916  -0.469  -0.001  0.00  0.00    -0.088 SA
BRANCH   8   9
ATOM      9  C   UNL d   1      -3.578   1.132  -0.566  0.00  0.00     0.121 C 
BRANCH   9  10
ATOM     10  C   UNL d   1      -5.094   1.159  -0.569  0.00  0.00    -0.049 A 
ATOM     11  C   UNL d   1      -5.809   1.660   0.524  0.00  0.00     0.008 A 
ATOM     12  C   UNL d   1      -7.214   1.689   0.516  0.00  0.00     0.008 A 
ATOM     13  C   UNL d   1      -7.960   1.215  -0.579  0.00  0.00    -0.051 A 
ATOM     14  C   UNL d   1      -7.228   0.716  -1.669  0.00  0.00     0.008 A 
ATOM     15  C   UNL d   1      -5.823   0.684  -1.664  0.00  0.00     0.008 A 
BRANCH  13  16
ATOM     16  C   UNL d   1      -9.503   1.238  -0.550  0.00  0.00    -0.024 C 
ATOM     17  C   UNL d   1     -10.158   0.681  -1.836  0.00  0.00     0.019 C 
ATOM     18  C   UNL d   1     -10.017   0.381   0.628  0.00  0.00     0.019 C 
ATOM     19  C   UNL d   1     -10.022   2.682  -0.370  0.00  0.00     0.019 C 
ENDBRANCH  13  16
ENDBRANCH   9  10
ENDBRANCH   8   9
ENDBRANCH   5   8
BRANCH   1  20
ATOM     20  C   UNL d   1      -0.486  -2.594   0.034  0.00  0.00     0.198 C 
BRANCH  20  21
ATOM     21  C   UNL d   1      -0.704  -3.260  -1.279  0.00  0.00     0.070 A 
ATOM     22  O   UNL d   1      -0.338  -4.577  -1.332  0.00  0.00    -0.325 OA
ATOM     23  C   UNL d   1      -0.614  -5.021  -2.590  0.00  0.00     0.142 A 
ATOM     24  C   UNL d   1      -1.148  -4.009  -3.345  0.00  0.00     0.027 A 
ATOM     25  C   UNL d   1      -1.206  -2.869  -2.505  0.00  0.00     0.036 A 
ENDBRANCH  20  21
ENDBRANCH   1  20
BRANCH   2  26
ATOM     26  C   UNL d   1       2.331  -1.101  -0.184  0.00  0.00     0.009 A 
ATOM     27  C   UNL d   1       2.648  -2.291  -0.846  0.00  0.00     0.016 A 
ATOM     28  C   UNL d   1       3.943  -2.837  -0.793  0.00  0.00     0.009 A 
ATOM     29  C   UNL d   1       4.984  -2.211  -0.089  0.00  0.00    -0.051 A 
ATOM     30  C   UNL d   1       4.688  -0.960   0.475  0.00  0.00     0.009 A 
ATOM     31  C   UNL d   1       3.388  -0.424   0.437  0.00  0.00     0.016 A 
BRANCH  29  32
ATOM     32  C   UNL d   1       6.378  -2.858   0.044  0.00  0.00    -0.024 C 
ATOM     33  C   UNL d   1       7.088  -2.447   1.356  0.00  0.00     0.019 C 
ATOM     34  C   UNL d   1       6.301  -4.404   0.066  0.00  0.00     0.019 C 
ATOM     35  C   UNL d   1       7.266  -2.436  -1.142  0.00  0.00     0.019 C 
ENDBRANCH  29  32
ENDBRANCH   2  26
TORSDOF 8
