REMARK  5 active torsions:
REMARK  status: ('A' for Active; 'I' for Inactive)
REMARK    1  A    between atoms: N_5  and  C_1 
REMARK    2  A    between atoms: N_8  and  C_1 
REMARK    3  A    between atoms: C_9  and  N_5 
REMARK    4  A    between atoms: C_6  and  C_15 
REMARK    5  A    between atoms: C_15  and  N_8 
ROOT
ATOM      1  C   UNL d   1       1.213   0.041  -0.038  0.00  0.00     0.172 C 
ATOM      2  S   UNL d   1       0.492  -0.965  -1.161  0.00  0.00    -0.041 SA
ENDROOT
BRANCH   1   3
ATOM      3  N   UNL d   1       0.595   0.885   0.854  0.00  0.00    -0.333 N 
ATOM      4  H   UNL d   1       1.042   1.795   0.905  0.00  0.00     0.168 HD
BRANCH   3   5
ATOM      5  C   UNL d   1      -0.734   0.810   1.320  0.00  0.00     0.036 A 
ATOM      6  C   UNL d   1      -1.443   1.999   1.520  0.00  0.00     0.056 A 
ATOM      7  C   UNL d   1      -2.764   1.951   1.977  0.00  0.00     0.074 A 
ATOM      8 CL   UNL d   1      -3.653   3.416   2.149  0.00  0.00    -0.081 Cl
ATOM      9  C   UNL d   1      -3.354   0.727   2.281  0.00  0.00     0.138 A 
ATOM     10  C   UNL d   1      -2.639  -0.456   2.134  0.00  0.00     0.046 A 
ATOM     11  F   UNL d   1      -4.618   0.663   2.728  0.00  0.00    -0.204 F 
ATOM     12  C   UNL d   1      -1.328  -0.413   1.651  0.00  0.00     0.032 A 
ENDBRANCH   3   5
ENDBRANCH   1   3
BRANCH   1  13
ATOM     13  N   UNL d   1       2.581   0.092  -0.030  0.00  0.00    -0.362 N 
ATOM     14  H   UNL d   1       3.005  -0.501  -0.734  0.00  0.00     0.162 HD
BRANCH  13  15
ATOM     15  C   UNL d   1       3.399   0.379   1.132  0.00  0.00     0.168 C 
BRANCH  15  16
ATOM     16  C   UNL d   1       3.965   1.757   1.032  0.00  0.00     0.000 A 
ATOM     17  S   UNL d   1       3.296   3.035   1.958  0.00  0.00    -0.105 SA
ATOM     18  C   UNL d   1       4.466   4.144   1.392  0.00  0.00     0.050 A 
ATOM     19  C   UNL d   1       5.341   3.564   0.502  0.00  0.00     0.008 A 
ATOM     20  C   UNL d   1       5.047   2.187   0.288  0.00  0.00     0.017 A 
ENDBRANCH  15  16
ENDBRANCH  13  15
ENDBRANCH   1  13
TORSDOF 5
