REMARK  4 active torsions:
REMARK  status: ('A' for Active; 'I' for Inactive)
REMARK    1  A    between atoms: C_2  and  C_1 
REMARK    2  A    between atoms: C_3  and  C_6 
REMARK    3  A    between atoms: C_13  and  C_8 
REMARK    4  A    between atoms: C_19  and  N_10 
ROOT
ATOM      1  C   UNL d   1      -0.048   1.092   0.015  0.00  0.00     0.088 A 
ATOM      2  O   UNL d   1      -0.926   0.037  -0.026  0.00  0.00    -0.309 OA
ATOM      3  C   UNL d   1       1.245   0.606  -0.002  0.00  0.00     0.041 A 
ATOM      4  C   UNL d   1      -0.186  -1.114  -0.027  0.00  0.00     0.091 A 
ATOM      5  C   UNL d   1       1.157  -0.803  -0.004  0.00  0.00     0.041 A 
ENDROOT
BRANCH   1   6
ATOM      6  C   UNL d   1      -0.645   2.429   0.046  0.00  0.00     0.020 A 
ATOM      7  C   UNL d   1      -1.860   2.650  -0.636  0.00  0.00     0.032 A 
ATOM      8  C   UNL d   1      -2.473   3.916  -0.674  0.00  0.00     0.048 A 
ATOM      9  C   UNL d   1      -1.856   4.985  -0.016  0.00  0.00     0.018 A 
ATOM     10  C   UNL d   1      -0.660   4.789   0.673  0.00  0.00     0.026 A 
ATOM     11  C   UNL d   1      -0.059   3.524   0.711  0.00  0.00     0.047 A 
ATOM     12 CL   UNL d   1       1.390   3.403   1.651  0.00  0.00    -0.083 Cl
BRANCH   8  13
ATOM     13  C   UNL d   1      -3.776   4.139  -1.404  0.00  0.00     0.417 C 
ATOM     14  F   UNL d   1      -4.246   3.030  -2.037  0.00  0.00    -0.166 F 
ATOM     15  F   UNL d   1      -4.773   4.545  -0.569  0.00  0.00    -0.166 F 
ATOM     16  F   UNL d   1      -3.676   5.102  -2.361  0.00  0.00    -0.166 F 
ENDBRANCH   8  13
ENDBRANCH   1   6
BRANCH   4  17
ATOM     17  C   UNL d   1      -0.861  -2.383  -0.061  0.00  0.00     0.125 C 
ATOM     18  N   UNL d   1      -0.170  -3.471   0.049  0.00  0.00    -0.363 N 
ATOM     19  HN  UNL d   1       0.839  -3.414   0.191  1.00  0.00     0.165 HD
BRANCH  18  20
ATOM     20  C   UNL d   1      -0.788  -4.726  -0.022  0.00  0.00     0.032 A 
ATOM     21  C   UNL d   1      -0.058  -5.757  -0.627  0.00  0.00     0.031 A 
ATOM     22  C   UNL d   1      -0.570  -7.055  -0.709  0.00  0.00     0.026 A 
ATOM     23  C   UNL d   1      -1.826  -7.330  -0.178  0.00  0.00     0.034 A 
ATOM     24  C   UNL d   1      -2.562  -6.322   0.442  0.00  0.00     0.026 A 
ATOM     25 CL   UNL d   1      -2.464  -8.924  -0.274  0.00  0.00    -0.084 Cl
ATOM     26  C   UNL d   1      -2.039  -5.026   0.528  0.00  0.00     0.031 A 
ENDBRANCH  18  20
ENDBRANCH   4  17
TORSDOF 4
