REMARK  15 active torsions:
REMARK  status: ('A' for Active; 'I' for Inactive)
REMARK    1  A    between atoms: C_1  and  O_7 
REMARK    2  A    between atoms: C_1  and  C_3 
REMARK    3  A    between atoms: C_1  and  C_2 
REMARK    4  A    between atoms: C_2  and  N_6 
REMARK    5  A    between atoms: C_2  and  C_5 
REMARK    6  A    between atoms: C_3  and  O_8 
REMARK    7  A    between atoms: C_4  and  C_3 
REMARK    8  A    between atoms: C_16  and  C_4 
REMARK    9  A    between atoms: C_4  and  O_9 
REMARK   10  A    between atoms: N_23  and  C_5 
REMARK       I    between atoms: C_10  and  N_6 
REMARK   11  A    between atoms: C_11  and  O_7 
REMARK   12  A    between atoms: C_12  and  O_8 
REMARK   13  A    between atoms: C_13  and  O_9 
REMARK   14  A    between atoms: C_15  and  O_17 
REMARK   15  A    between atoms: O_17  and  C_16 
ROOT
ATOM      1  C   UNL d   1      -1.112   0.808  -0.671  0.00  0.00     0.193 C 
ENDROOT
BRANCH   1   2
ATOM      2  O   UNL d   1      -1.887   1.646  -1.568  0.00  0.00    -0.311 OA
BRANCH   2   3
ATOM      3  C   UNL d   1      -2.016   2.961  -1.255  0.00  0.00     0.255 C 
ATOM      4  O   UNL d   1      -1.547   3.494  -0.260  0.00  0.00    -0.266 OA
ATOM      5  C   UNL d   1      -2.712   3.692  -2.365  0.00  0.00     0.126 C 
ENDBRANCH   2   3
ENDBRANCH   1   2
BRANCH   1   6
ATOM      6  C   UNL d   1      -1.876   0.464   0.637  0.00  0.00     0.195 C 
BRANCH   6   7
ATOM      7  O   UNL d   1      -3.065  -0.333   0.433  0.00  0.00    -0.311 OA
BRANCH   7   8
ATOM      8  C   UNL d   1      -4.225   0.351   0.223  0.00  0.00     0.255 C 
ATOM      9  O   UNL d   1      -4.312   1.534  -0.078  0.00  0.00    -0.266 OA
ATOM     10  C   UNL d   1      -5.420  -0.500   0.531  0.00  0.00     0.126 C 
ENDBRANCH   7   8
ENDBRANCH   6   7
BRANCH   6  11
ATOM     11  C   UNL d   1      -1.040  -0.165   1.798  0.00  0.00     0.188 C 
BRANCH  11  12
ATOM     12  C   UNL d   1      -0.669  -1.665   1.751  0.00  0.00     0.213 C 
BRANCH  12  13
ATOM     13  O   UNL d   1      -1.789  -2.539   1.550  0.00  0.00    -0.319 OA
BRANCH  13  14
ATOM     14  C   UNL d   1      -2.440  -2.936   2.675  0.00  0.00     0.254 C 
ATOM     15  O   UNL d   1      -2.243  -2.491   3.796  0.00  0.00    -0.266 OA
ATOM     16  C   UNL d   1      -3.461  -3.984   2.351  0.00  0.00     0.126 C 
ENDBRANCH  13  14
ENDBRANCH  12  13
ENDBRANCH  11  12
BRANCH  11  17
ATOM     17  O   UNL d   1       0.066   0.702   2.193  0.00  0.00    -0.311 OA
BRANCH  17  18
ATOM     18  C   UNL d   1       1.296   0.572   1.630  0.00  0.00     0.255 C 
ATOM     19  O   UNL d   1       1.593  -0.224   0.759  0.00  0.00    -0.266 OA
ATOM     20  C   UNL d   1       2.239   1.610   2.158  0.00  0.00     0.126 C 
ENDBRANCH  17  18
ENDBRANCH  11  17
ENDBRANCH   6  11
ENDBRANCH   1   6
BRANCH   1  21
ATOM     21  C   UNL d   1      -0.570  -0.371  -1.501  0.00  0.00     0.177 C 
BRANCH  21  22
ATOM     22  N   UNL d   1       0.359   0.128  -2.525  0.00  0.00    -0.348 N 
ATOM     23  C   UNL d   1       1.490  -0.565  -2.877  0.00  0.00     0.214 C 
ATOM     24  O   UNL d   1       1.737  -1.699  -2.486  0.00  0.00    -0.274 OA
ATOM     25  C   UNL d   1       2.438   0.206  -3.761  0.00  0.00     0.117 C 
ATOM     26  H   UNL d   1       0.082   0.947  -3.050  0.00  0.00     0.163 HD
ENDBRANCH  21  22
BRANCH  21  27
ATOM     27  C   UNL d   1      -1.566  -1.337  -2.165  0.00  0.00     0.096 C 
ATOM     28  S   UNL d   1      -2.837  -0.920  -3.164  0.00  0.00    -0.064 SA
BRANCH  27  29
ATOM     29  N   UNL d   1      -1.288  -2.669  -1.983  0.00  0.00    -0.392 N 
ATOM     30  H   UNL d   1      -1.824  -3.346  -2.512  0.00  0.00     0.156 HD
ATOM     31  H   UNL d   1      -0.352  -2.954  -1.700  0.00  0.00     0.156 HD
ENDBRANCH  27  29
ENDBRANCH  21  27
ENDBRANCH   1  21
TORSDOF 15
