REMARK  3 active torsions:
REMARK  status: ('A' for Active; 'I' for Inactive)
REMARK    1  A    between atoms: N_6  and  C_1 
REMARK    2  A    between atoms: C_10  and  N_2 
REMARK       I    between atoms: C_8  and  N_6 
REMARK    3  A    between atoms: C_9  and  C_8 
ROOT
ATOM      1  C   UNL d   1      -0.119  -1.115  -0.289  0.00  0.00     0.149 C 
ATOM      2  N   UNL d   1       1.103  -0.504   0.026  0.00  0.00    -0.238 N 
ATOM      3  C   UNL d   1      -1.015  -0.074  -0.409  0.00  0.00     0.080 C 
ATOM      4  N   UNL d   1       0.909   0.810   0.361  0.00  0.00    -0.295 N 
ATOM      5  HN  UNL d   1       1.583   1.444   0.790  1.00  0.00     0.187 HD
ATOM      6  C   UNL d   1      -0.349   1.085   0.008  0.00  0.00     0.043 C 
ATOM      7 BR   UNL d   1      -2.826  -0.193  -0.884  0.00  0.00    -0.045 Br
ATOM      8  C   UNL d   1      -0.845   2.481   0.114  0.00  0.00     0.071 C 
ENDROOT
BRANCH   1   9
ATOM      9  N   UNL d   1      -0.427  -2.465  -0.452  0.00  0.00    -0.307 N 
ATOM     10  C   UNL d   1       0.103  -3.461   0.373  0.00  0.00     0.278 C 
ATOM     11  O   UNL d   1       0.985  -3.241   1.206  0.00  0.00    -0.268 OA
ATOM     12  H   UNL d   1      -1.357  -2.654  -0.825  0.00  0.00     0.170 HD
BRANCH  10  13
ATOM     13  C   UNL d   1      -0.485  -4.879   0.134  0.00  0.00     0.269 C 
ATOM     14 CL   UNL d   1      -2.154  -4.764  -0.516  0.00  0.00    -0.073 Cl
ATOM     15 CL   UNL d   1       0.553  -5.706  -1.054  0.00  0.00    -0.073 Cl
ATOM     16 CL   UNL d   1      -0.536  -5.786   1.664  0.00  0.00    -0.073 Cl
ENDBRANCH  10  13
ENDBRANCH   1   9
BRANCH   2  17
ATOM     17  C   UNL d   1       2.445  -0.968  -0.115  0.00  0.00     0.058 A 
ATOM     18  C   UNL d   1       2.769  -2.046  -0.949  0.00  0.00     0.031 A 
ATOM     19  C   UNL d   1       4.103  -2.453  -1.076  0.00  0.00     0.002 A 
ATOM     20  C   UNL d   1       5.117  -1.784  -0.392  0.00  0.00     0.000 A 
ATOM     21  C   UNL d   1       4.802  -0.694   0.419  0.00  0.00     0.002 A 
ATOM     22  C   UNL d   1       3.475  -0.280   0.548  0.00  0.00     0.031 A 
ENDBRANCH   2  17
TORSDOF 3
