REMARK  4 active torsions:
REMARK  status: ('A' for Active; 'I' for Inactive)
REMARK    1  A    between atoms: C_2  and  C_1 
REMARK    2  A    between atoms: C_3  and  C_2 
REMARK    3  A    between atoms: C_7  and  C_3 
REMARK    4  A    between atoms: N_18  and  C_8 
ROOT
ATOM      1  C   UNL d   1       1.466  -0.061  -0.017  0.00  0.00     0.148 A 
ATOM      2  S   UNL d   1       0.697   0.505  -1.452  0.00  0.00    -0.032 SA
ATOM      3  N   UNL d   1       0.761   0.147   1.073  0.00  0.00    -0.290 N 
ATOM      4  HN  UNL d   1       1.080  -0.097   2.011  1.00  0.00     0.187 HD
ATOM      5  C   UNL d   1      -0.630   0.982  -0.474  0.00  0.00     0.158 A 
ATOM      6  N   UNL d   1      -0.457   0.731   0.804  0.00  0.00    -0.279 N 
ATOM      7  HN  UNL d   1      -1.150   0.945   1.521  1.00  0.00     0.189 HD
ENDROOT
BRANCH   1   8
ATOM      8  C   UNL d   1       2.824  -0.684  -0.092  0.00  0.00     0.366 C 
ATOM      9  F   UNL d   1       2.922  -1.486  -1.198  0.00  0.00    -0.191 F 
ATOM     10  F   UNL d   1       3.749   0.307  -0.305  0.00  0.00    -0.191 F 
BRANCH   8  11
ATOM     11  C   UNL d   1       3.245  -1.475   1.132  0.00  0.00     0.409 C 
ATOM     12  F   UNL d   1       4.545  -1.886   0.962  0.00  0.00    -0.189 F 
ATOM     13  F   UNL d   1       3.268  -0.694   2.250  0.00  0.00    -0.189 F 
BRANCH  11  14
ATOM     14  C   UNL d   1       2.370  -2.697   1.332  0.00  0.00     0.461 C 
ATOM     15  F   UNL d   1       2.350  -3.489   0.231  0.00  0.00    -0.165 F 
ATOM     16  F   UNL d   1       2.827  -3.467   2.352  0.00  0.00    -0.165 F 
ATOM     17  F   UNL d   1       1.085  -2.404   1.617  0.00  0.00    -0.165 F 
ENDBRANCH  11  14
ENDBRANCH   8  11
ENDBRANCH   1   8
BRANCH   5  18
ATOM     18  N   UNL d   1      -1.728   1.546  -1.005  0.00  0.00    -0.379 N 
ATOM     19  H   UNL d   1      -1.906   1.433  -1.997  0.00  0.00     0.158 HD
ATOM     20  H   UNL d   1      -2.562   1.548  -0.426  0.00  0.00     0.158 HD
ENDBRANCH   5  18
TORSDOF 4
