REMARK  3 active torsions:
REMARK  status: ('A' for Active; 'I' for Inactive)
REMARK       I    between atoms: N_4  and  C_1 
REMARK    1  A    between atoms: O_7  and  C_1 
REMARK    2  A    between atoms: C_6  and  N_4 
REMARK    3  A    between atoms: C_14  and  O_7 
ROOT
ATOM      1  C   UNL d   1       3.873  -1.034   1.581  0.00  0.00    -0.091 C 
ATOM      2  C   UNL d   1       4.555  -1.905   2.051  0.00  0.00     0.014 C 
ATOM      3  C   UNL d   1       3.056   0.068   1.068  0.00  0.00     0.273 C 
ENDROOT
BRANCH   3   4
ATOM      4  O   UNL d   1       2.377  -0.344  -0.125  0.00  0.00    -0.292 OA
BRANCH   4   5
ATOM      5  C   UNL d   1       1.069  -0.010  -0.199  0.00  0.00     0.366 C 
ATOM      6  N   UNL d   1       0.456  -0.242  -1.401  0.00  0.00    -0.303 N 
ATOM      7  H   UNL d   1      -0.494   0.106  -1.386  0.00  0.00     0.171 HD
ATOM      8  O   UNL d   1       0.431   0.519   0.707  0.00  0.00    -0.238 OA
BRANCH   6   9
ATOM      9  C   UNL d   1       0.881  -0.867  -2.586  0.00  0.00     0.036 A 
ATOM     10  C   UNL d   1       2.106  -1.514  -2.754  0.00  0.00     0.031 A 
ATOM     11  C   UNL d   1       2.398  -2.177  -3.953  0.00  0.00     0.026 A 
ATOM     12  C   UNL d   1       1.471  -2.189  -4.991  0.00  0.00     0.034 A 
ATOM     13  C   UNL d   1       0.261  -1.519  -4.852  0.00  0.00     0.026 A 
ATOM     14 CL   UNL d   1       1.812  -3.051  -6.439  0.00  0.00    -0.084 Cl
ATOM     15  C   UNL d   1      -0.030  -0.860  -3.654  0.00  0.00     0.031 A 
ENDBRANCH   6   9
ENDBRANCH   4   5
ENDBRANCH   3   4
TORSDOF 3
