REMARK  9 active torsions:
REMARK  status: ('A' for Active; 'I' for Inactive)
REMARK    1  A    between atoms: C_5  and  C_1 
REMARK    2  A    between atoms: O_7  and  C_2 
REMARK    3  A    between atoms: C_3  and  C_10 
REMARK    4  A    between atoms: C_4  and  N_8 
REMARK    5  A    between atoms: N_14  and  C_4 
REMARK    6  A    between atoms: O_29  and  C_5 
REMARK    7  A    between atoms: N_8  and  C_6 
REMARK    8  A    between atoms: C_11  and  O_7 
REMARK    9  A    between atoms: C_13  and  N_14 
ROOT
ATOM      1  C   UNL d   1       2.010   3.603   0.779  0.00  0.00     0.069 C 
ATOM      2  C   UNL d   1       2.253   5.904  -0.032  0.00  0.00     0.050 C 
ATOM      3  C   UNL d   1       1.991   3.174  -0.562  0.00  0.00     0.102 C 
ATOM      4  C   UNL d   1       2.066   4.980   1.015  0.00  0.00     0.048 C 
ATOM      5  C   UNL d   1       2.397   5.431  -1.340  0.00  0.00     0.019 C 
ATOM      6  C   UNL d   1       2.261   4.074  -1.605  0.00  0.00     0.040 C 
ENDROOT
BRANCH   1   7
ATOM      7  N   UNL d   1       2.025   2.608   1.798  0.00  0.00    -0.331 N 
ATOM      8  H   UNL d   1       1.997   1.670   1.414  0.00  0.00     0.168 HD
BRANCH   7   9
ATOM      9  C   UNL d   1       2.466   2.665   3.104  0.00  0.00     0.176 C 
ATOM     10  S   UNL d   1       2.986   3.979   4.003  0.00  0.00    -0.041 SA
BRANCH   9  11
ATOM     11  N   UNL d   1       2.655   1.463   3.739  0.00  0.00    -0.333 N 
ATOM     12  H   UNL d   1       3.284   1.561   4.533  0.00  0.00     0.168 HD
BRANCH  11  13
ATOM     13  C   UNL d   1       2.181   0.166   3.495  0.00  0.00     0.037 A 
ATOM     14  C   UNL d   1       2.947  -0.892   3.998  0.00  0.00     0.053 A 
ATOM     15  C   UNL d   1       2.533  -2.209   3.809  0.00  0.00     0.037 A 
ATOM     16 CL   UNL d   1       3.518  -3.499   4.380  0.00  0.00    -0.084 Cl
ATOM     17  C   UNL d   1       1.337  -2.486   3.159  0.00  0.00     0.048 A 
ATOM     18  C   UNL d   1       0.557  -1.428   2.696  0.00  0.00     0.037 A 
ATOM     19  C   UNL d   1       0.973  -0.103   2.854  0.00  0.00     0.053 A 
ATOM     20 CL   UNL d   1      -0.951  -1.757   1.935  0.00  0.00    -0.084 Cl
ENDBRANCH  11  13
ENDBRANCH   9  11
ENDBRANCH   7   9
ENDBRANCH   1   7
BRANCH   3  21
ATOM     21  O   UNL d   1       1.743   1.843  -0.847  0.00  0.00    -0.307 OA
BRANCH  21  22
ATOM     22  C   UNL d   1       0.890   1.512  -1.864  0.00  0.00     0.099 A 
ATOM     23  C   UNL d   1       0.981   0.306  -2.540  0.00  0.00     0.114 A 
ATOM     24  S   UNL d   1      -0.176   0.230  -3.816  0.00  0.00    -0.093 SA
ATOM     25  C   UNL d   1      -0.823   1.758  -3.433  0.00  0.00     0.053 A 
ATOM     26  C   UNL d   1      -0.197   2.317  -2.343  0.00  0.00     0.046 A 
BRANCH  23  27
ATOM     27  C   UNL d   1       1.865  -0.833  -2.370  0.00  0.00     0.302 C 
ATOM     28  O   UNL d   1       1.807  -1.891  -2.994  0.00  0.00    -0.259 OA
BRANCH  27  29
ATOM     29  O   UNL d   1       2.797  -0.581  -1.410  0.00  0.00    -0.322 OA
ATOM     30  C   UNL d   1       3.727  -1.644  -1.196  0.00  0.00     0.213 C 
ENDBRANCH  27  29
ENDBRANCH  23  27
ENDBRANCH  21  22
ENDBRANCH   3  21
BRANCH   2  31
ATOM     31  C   UNL d   1       2.346   7.384   0.247  0.00  0.00     0.417 C 
ATOM     32  F   UNL d   1       1.916   7.737   1.489  0.00  0.00    -0.166 F 
ATOM     33  F   UNL d   1       3.619   7.852   0.139  0.00  0.00    -0.166 F 
ATOM     34  F   UNL d   1       1.603   8.122  -0.625  0.00  0.00    -0.166 F 
ENDBRANCH   2  31
TORSDOF 9
