REMARK  3 active torsions:
REMARK  status: ('A' for Active; 'I' for Inactive)
REMARK       I    between atoms: N_7  and  C_1 
REMARK       I    between atoms: N_10  and  C_1 
REMARK    1  A    between atoms: C_2  and  N_8 
REMARK    2  A    between atoms: C_3  and  C_4 
REMARK    3  A    between atoms: C_12  and  N_10 
ROOT
ATOM      1  C   UNL d   1       0.706   0.023  -0.103  0.00  0.00     0.322 C 
ATOM      2  N   UNL d   1       0.192   1.307   0.091  0.00  0.00    -0.332 N 
ATOM      3  N   UNL d   1      -1.486   3.703   0.435  0.00  0.00    -0.364 N 
ATOM      4  N   UNL d   1       1.423  -0.136  -1.269  0.00  0.00    -0.309 N 
ATOM      5  O   UNL d   1       0.519  -0.871   0.720  0.00  0.00    -0.247 OA
ATOM      6  C   UNL d   1      -0.595   1.548   1.320  0.00  0.00     0.147 C 
ATOM      7  C   UNL d   1      -1.823   2.478   1.183  0.00  0.00     0.144 C 
ATOM      8  C   UNL d   1      -0.220   3.084  -1.596  0.00  0.00     0.040 C 
ATOM      9  C   UNL d   1       0.738   2.502  -0.561  0.00  0.00     0.129 C 
ATOM     10  C   UNL d   1      -1.557   3.558  -1.022  0.00  0.00     0.126 C 
ATOM     11  H   UNL d   1       1.300   0.583  -1.964  0.00  0.00     0.170 HD
ENDROOT
BRANCH   4  12
ATOM     12  C   UNL d   1       2.241  -1.223  -1.639  0.00  0.00     0.042 A 
ATOM     13  C   UNL d   1       2.430  -2.364  -0.855  0.00  0.00     0.072 A 
ATOM     14  C   UNL d   1       3.302  -3.366  -1.276  0.00  0.00     0.121 A 
ATOM     15  F   UNL d   1       3.470  -4.453  -0.511  0.00  0.00    -0.206 F 
ATOM     16  C   UNL d   1       4.005  -3.259  -2.464  0.00  0.00     0.084 A 
ATOM     17  C   UNL d   1       3.811  -2.131  -3.245  0.00  0.00     0.121 A 
ATOM     18  C   UNL d   1       2.936  -1.121  -2.853  0.00  0.00     0.072 A 
ATOM     19  F   UNL d   1       4.487  -2.002  -4.395  0.00  0.00    -0.206 F 
ENDBRANCH   4  12
BRANCH   3  20
ATOM     20  C   UNL d   1      -1.806   4.941   0.984  0.00  0.00     0.125 A 
ATOM     21  N   UNL d   1      -2.797   4.989   1.910  0.00  0.00    -0.350 N 
ATOM     22  C   UNL d   1      -3.127   6.183   2.467  0.00  0.00     0.106 A 
ATOM     23  HN  UNL d   1      -3.288   4.138   2.185  1.00  0.00     0.166 HD
ATOM     24  C   UNL d   1      -2.510   7.382   2.156  0.00  0.00     0.065 A 
ATOM     25  C   UNL d   1      -1.478   7.337   1.226  0.00  0.00     0.045 A 
ATOM     26  C   UNL d   1      -1.115   6.122   0.644  0.00  0.00     0.078 A 
ATOM     27 CL   UNL d   1       0.263   6.178  -0.401  0.00  0.00    -0.080 Cl
BRANCH  24  28
ATOM     28  C   UNL d   1      -2.939   8.658   2.806  0.00  0.00     0.418 C 
ATOM     29  F   UNL d   1      -2.224   9.740   2.387  0.00  0.00    -0.166 F 
ATOM     30  F   UNL d   1      -4.243   8.956   2.557  0.00  0.00    -0.166 F 
ATOM     31  F   UNL d   1      -2.809   8.628   4.160  0.00  0.00    -0.166 F 
ENDBRANCH  24  28
ENDBRANCH   3  20
TORSDOF 3
