REMARK  4 active torsions:
REMARK  status: ('A' for Active; 'I' for Inactive)
REMARK    1  A    between atoms: C_2  and  S_1 
REMARK    2  A    between atoms: C_6  and  S_1 
REMARK    3  A    between atoms: N_4  and  C_3 
REMARK       I    between atoms: C_5  and  N_4 
REMARK    4  A    between atoms: C_15  and  C_5 
ROOT
ATOM      1  C   UNL d   1       0.568   1.659  -0.015  0.00  0.00     0.098 A 
ATOM      2  C   UNL d   1      -0.758   1.842   0.502  0.00  0.00     0.063 A 
ATOM      3  S   UNL d   1       0.220   4.203   0.106  0.00  0.00    -0.110 SA
ATOM      4  C   UNL d   1       1.214   2.860  -0.234  0.00  0.00     0.075 A 
ATOM      5  C   UNL d   1      -1.061   3.187   0.602  0.00  0.00     0.080 A 
ENDROOT
BRANCH   1   6
ATOM      6  S   UNL d   1       1.374   0.136  -0.197  0.00  0.00     0.209 S 
ATOM      7  O   UNL d   1       1.025  -0.587   1.010  0.00  0.00    -0.217 OA
ATOM      8  O   UNL d   1       2.739   0.454  -0.559  0.00  0.00    -0.217 OA
BRANCH   6   9
ATOM      9  C   UNL d   1       0.661  -0.752  -1.550  0.00  0.00     0.064 A 
ATOM     10  C   UNL d   1      -0.075  -0.116  -2.551  0.00  0.00     0.025 A 
ATOM     11  C   UNL d   1      -0.600  -0.880  -3.598  0.00  0.00     0.025 A 
ATOM     12  C   UNL d   1      -0.392  -2.261  -3.638  0.00  0.00     0.034 A 
ATOM     13  C   UNL d   1       0.341  -2.893  -2.635  0.00  0.00     0.025 A 
ATOM     14 CL   UNL d   1      -1.015  -3.182  -4.947  0.00  0.00    -0.084 Cl
ATOM     15  C   UNL d   1       0.864  -2.137  -1.589  0.00  0.00     0.025 A 
ENDBRANCH   6   9
ENDBRANCH   1   6
BRANCH   2  16
ATOM     16  N   UNL d   1      -1.645   0.827   0.866  0.00  0.00    -0.325 N 
ATOM     17  C   UNL d   1      -2.469   0.931   1.979  0.00  0.00     0.225 C 
ATOM     18  O   UNL d   1      -2.517   1.905   2.729  0.00  0.00    -0.273 OA
ATOM     19  H   UNL d   1      -1.416  -0.111   0.567  0.00  0.00     0.169 HD
BRANCH  17  20
ATOM     20  C   UNL d   1      -3.384  -0.267   2.217  0.00  0.00     0.070 C 
ATOM     21  C   UNL d   1      -4.537  -0.236   1.222  0.00  0.00     0.019 C 
ATOM     22  C   UNL d   1      -2.652  -1.605   2.197  0.00  0.00     0.019 C 
ENDBRANCH  17  20
ENDBRANCH   2  16
TORSDOF 4
