REMARK  3 active torsions:
REMARK  status: ('A' for Active; 'I' for Inactive)
REMARK    1  A    between atoms: C_2  and  N_1 
REMARK    2  A    between atoms: N_3  and  C_2 
REMARK    3  A    between atoms: C_5  and  N_3 
ROOT
ATOM      1  N   UNL d   1      -0.568  -3.304   0.071  0.00  0.00    -0.332 N 
ATOM      2  H   UNL d   1      -0.282  -3.285   1.052  0.00  0.00     0.168 HD
ENDROOT
BRANCH   1   3
ATOM      3  C   UNL d   1       0.482  -3.405  -0.822  0.00  0.00     0.181 C 
ATOM      4  S   UNL d   1       0.399  -4.227  -2.292  0.00  0.00    -0.040 SA
BRANCH   3   5
ATOM      5  N   UNL d   1       1.655  -2.775  -0.354  0.00  0.00    -0.294 N 
ATOM      6  C   UNL d   1       1.849  -2.214   0.926  0.00  0.00     0.226 C 
ATOM      7  O   UNL d   1       1.115  -2.340   1.900  0.00  0.00    -0.273 OA
ATOM      8  C   UNL d   1       3.135  -1.429   0.923  0.00  0.00     0.105 C 
ATOM      9  C   UNL d   1       3.874  -2.012  -0.266  0.00  0.00     0.029 C 
ATOM     10  C   UNL d   1       2.760  -2.391  -1.216  0.00  0.00     0.135 C 
ENDBRANCH   3   5
ENDBRANCH   1   3
BRANCH   1  11
ATOM     11  C   UNL d   1      -1.968  -3.345  -0.132  0.00  0.00     0.046 A 
ATOM     12  C   UNL d   1      -2.742  -4.036   0.830  0.00  0.00    -0.035 A 
ATOM     13  C   UNL d   1      -4.144  -3.934   0.805  0.00  0.00     0.009 A 
ATOM     14  C   UNL d   1      -2.149  -4.937   1.884  0.00  0.00     0.050 C 
ATOM     15  C   UNL d   1      -4.783  -3.185  -0.174  0.00  0.00     0.001 A 
ATOM     16  C   UNL d   1      -4.027  -2.535  -1.141  0.00  0.00     0.009 A 
ATOM     17  C   UNL d   1      -2.617  -2.581  -1.129  0.00  0.00    -0.035 A 
ATOM     18  C   UNL d   1      -1.939  -1.720  -2.159  0.00  0.00     0.050 C 
ENDBRANCH   1  11
TORSDOF 3
