REMARK  1 active torsions:
REMARK  status: ('A' for Active; 'I' for Inactive)
REMARK    1  A    between atoms: C_11  and  C_4 
ROOT
ATOM      1  C   UNL d   1      -2.078   0.324   0.025  0.00  0.00    -0.006 C 
ATOM      2  C   UNL d   1      -1.089  -0.798   0.002  0.00  0.00     0.189 C 
ATOM      3  C   UNL d   1       0.351  -0.409   0.011  0.00  0.00     0.021 A 
ATOM      4  C   UNL d   1      -3.286   0.100  -0.523  0.00  0.00     0.024 C 
ATOM      5  C   UNL d   1       0.732   0.946  -0.033  0.00  0.00    -0.044 A 
ATOM      6  C   UNL d   1      -1.582   1.604   0.632  0.00  0.00     0.047 C 
ATOM      7  O   UNL d   1      -1.434  -1.974  -0.042  0.00  0.00    -0.287 OA
ATOM      8  C   UNL d   1      -0.301   2.042  -0.068  0.00  0.00     0.044 C 
ATOM      9  C   UNL d   1       1.328  -1.412   0.028  0.00  0.00     0.016 A 
ATOM     10  C   UNL d   1       2.094   1.273  -0.096  0.00  0.00     0.008 A 
ATOM     11  C   UNL d   1       2.681  -1.071  -0.014  0.00  0.00     0.001 A 
ATOM     12  C   UNL d   1       3.062   0.268  -0.082  0.00  0.00     0.001 A 
ENDROOT
BRANCH   4  13
ATOM     13  C   UNL d   1      -4.319   1.124  -0.659  0.00  0.00    -0.020 A 
ATOM     14  C   UNL d   1      -4.334   1.990  -1.750  0.00  0.00     0.099 A 
ATOM     15  N   UNL d   1      -5.246   2.975  -1.927  0.00  0.00    -0.374 N 
ATOM     16  C   UNL d   1      -6.194   3.096  -0.973  0.00  0.00     0.087 A 
ATOM     17  HN  UNL d   1      -5.219   3.592  -2.738  1.00  0.00     0.164 HD
ATOM     18  C   UNL d   1      -6.266   2.287   0.150  0.00  0.00     0.018 A 
ATOM     19  C   UNL d   1      -5.309   1.285   0.309  0.00  0.00     0.014 A 
ENDBRANCH   4  13
TORSDOF 1
