REMARK  3 active torsions:
REMARK  status: ('A' for Active; 'I' for Inactive)
REMARK    1  A    between atoms: C_2  and  N_1 
REMARK    2  A    between atoms: N_10  and  C_5 
REMARK       I    between atoms: C_11  and  N_10 
REMARK       I    between atoms: N_13  and  C_11 
REMARK    3  A    between atoms: N_12  and  N_13 
ROOT
ATOM      1  N   UNL d   1       1.452  -0.495  -0.090  0.00  0.00    -0.256 N 
ATOM      2  N   UNL d   1       1.356   0.876  -0.107  0.00  0.00    -0.278 N 
ATOM      3  HN  UNL d   1       2.117   1.549  -0.189  1.00  0.00     0.189 HD
ATOM      4  C   UNL d   1       0.053   1.136   0.008  0.00  0.00     0.126 A 
ATOM      5  C   UNL d   1       0.190  -1.086  -0.003  0.00  0.00     0.034 A 
ATOM      6  C   UNL d   1      -0.699  -0.042   0.126  0.00  0.00     0.076 A 
ATOM      7  C   UNL d   1      -0.154  -2.528  -0.143  0.00  0.00     0.070 C 
ENDROOT
BRANCH   4   8
ATOM      8  N   UNL d   1      -0.572   2.359  -0.036  0.00  0.00    -0.293 N 
ATOM      9  C   UNL d   1      -0.132   3.634  -0.198  0.00  0.00     0.336 C 
ATOM     10  N   UNL d   1       1.219   3.871  -0.204  0.00  0.00    -0.271 N 
ATOM     11  O   UNL d   1      -1.005   4.503  -0.299  0.00  0.00    -0.246 OA
ATOM     12  H   UNL d   1       1.836   3.062  -0.246  0.00  0.00     0.185 HD
ATOM     13  H   UNL d   1      -1.581   2.337   0.003  0.00  0.00     0.172 HD
BRANCH  10  14
ATOM     14  N   UNL d   1       1.786   5.192  -0.340  0.00  0.00    -0.223 NA
ATOM     15  C   UNL d   1       1.571   5.756  -1.691  0.00  0.00     0.140 C 
ATOM     16  C   UNL d   1       2.087   7.200  -1.810  0.00  0.00     0.183 C 
ATOM     17  O   UNL d   1       1.493   8.055  -0.827  0.00  0.00    -0.389 OA
ATOM     18  C   UNL d   1       1.808   7.572   0.485  0.00  0.00     0.183 C 
ATOM     19  C   UNL d   1       1.300   6.136   0.697  0.00  0.00     0.140 C 
ENDBRANCH  10  14
ENDBRANCH   4   8
BRANCH   1  20
ATOM     20  C   UNL d   1       2.695  -1.169  -0.285  0.00  0.00     0.100 C 
ATOM     21  C   UNL d   1       3.006  -2.333   0.447  0.00  0.00     0.066 C 
ATOM     22  C   UNL d   1       4.049  -3.179   0.051  0.00  0.00     0.050 C 
ATOM     23 CL   UNL d   1       2.246  -2.737   1.957  0.00  0.00    -0.082 Cl
ATOM     24  C   UNL d   1       4.844  -2.826  -1.030  0.00  0.00     0.037 C 
ATOM     25  C   UNL d   1       4.639  -1.616  -1.680  0.00  0.00     0.050 C 
ATOM     26 CL   UNL d   1       6.092  -3.885  -1.555  0.00  0.00    -0.084 Cl
ATOM     27  C   UNL d   1       3.570  -0.780  -1.317  0.00  0.00     0.066 C 
ATOM     28 CL   UNL d   1       3.383   0.638  -2.287  0.00  0.00    -0.082 Cl
ENDBRANCH   1  20
TORSDOF 3
