REMARK  1 active torsions:
REMARK  status: ('A' for Active; 'I' for Inactive)
REMARK       I    between atoms: N_2  and  C_1 
REMARK       I    between atoms: N_3  and  C_1 
REMARK       I    between atoms: C_4  and  N_2 
REMARK    1  A    between atoms: C_5  and  C_4 
ROOT
ATOM      1  C   UNL d   1       0.782  -0.602  -0.312  0.00  0.00     0.325 C 
ATOM      2  N   UNL d   1       0.321  -0.496   0.983  0.00  0.00    -0.275 N 
ATOM      3  N   UNL d   1       0.156   0.232  -1.227  0.00  0.00    -0.324 N 
ATOM      4  C   UNL d   1       0.928  -1.058   2.090  0.00  0.00     0.261 C 
ATOM      5  C   UNL d   1       0.695   0.269  -2.572  0.00  0.00     0.201 C 
ATOM      6  O   UNL d   1       1.678  -1.361  -0.670  0.00  0.00    -0.247 OA
ATOM      7  S   UNL d   1       0.162   1.832  -3.300  0.00  0.00    -0.147 SA
ATOM      8  O   UNL d   1       1.957  -1.723   2.071  0.00  0.00    -0.267 OA
ATOM      9  C   UNL d   1      -0.887   1.218  -0.962  0.00  0.00     0.138 C 
ATOM     10  C   UNL d   1      -1.289   1.935  -2.244  0.00  0.00     0.095 C 
ATOM     11  H   UNL d   1      -0.533   0.009   1.125  0.00  0.00     0.173 HD
ENDROOT
BRANCH   4  12
ATOM     12  C   UNL d   1       0.321  -0.761   3.428  0.00  0.00     0.054 A 
ATOM     13  C   UNL d   1      -1.032  -0.487   3.672  0.00  0.00     0.049 A 
ATOM     14 CL   UNL d   1      -2.251  -0.497   2.447  0.00  0.00    -0.083 Cl
ATOM     15  C   UNL d   1      -1.467  -0.207   4.977  0.00  0.00     0.025 A 
ATOM     16  C   UNL d   1      -0.567  -0.206   6.043  0.00  0.00     0.002 A 
ATOM     17  C   UNL d   1       0.773  -0.494   5.815  0.00  0.00     0.001 A 
ATOM     18  C   UNL d   1       1.212  -0.771   4.519  0.00  0.00     0.019 A 
ENDBRANCH   4  12
TORSDOF 1
