REMARK  3 active torsions:
REMARK  status: ('A' for Active; 'I' for Inactive)
REMARK    1  A    between atoms: C_6  and  C_1 
REMARK    2  A    between atoms: C_10  and  C_6 
REMARK    3  A    between atoms: C_12  and  C_10 
ROOT
ATOM      1  C   UNL d   1      -2.228  -0.862  -0.167  0.00  0.00     0.123 C 
ATOM      2  N   UNL d   1      -1.593   0.418  -0.569  0.00  0.00    -0.251 NA
ATOM      3  C   UNL d   1      -1.065  -1.944   0.049  0.00  0.00     0.025 C 
ATOM      4  N   UNL d   1      -3.217  -1.229  -1.152  0.00  0.00    -0.334 N 
ATOM      5  C   UNL d   1      -0.272   0.297   0.020  0.00  0.00     0.020 A 
ATOM      6  C   UNL d   1       0.124  -1.028   0.211  0.00  0.00    -0.025 A 
ATOM      7  C   UNL d   1      -3.304  -0.838  -2.440  0.00  0.00     0.220 C 
ATOM      8  C   UNL d   1      -1.289   0.608  -2.002  0.00  0.00     0.108 C 
ATOM      9  C   UNL d   1      -2.376   0.203  -2.957  0.00  0.00     0.118 C 
ATOM     10  O   UNL d   1      -4.173  -1.328  -3.155  0.00  0.00    -0.274 OA
ATOM     11  C   UNL d   1      -0.882  -2.881  -1.157  0.00  0.00     0.024 C 
ATOM     12  C   UNL d   1      -1.208  -2.804   1.319  0.00  0.00     0.024 C 
ATOM     13  C   UNL d   1       0.632   1.347   0.128  0.00  0.00     0.024 A 
ATOM     14  C   UNL d   1       1.464  -1.336   0.396  0.00  0.00     0.010 A 
ATOM     15  C   UNL d   1       1.975   1.044   0.341  0.00  0.00     0.002 A 
ATOM     16  C   UNL d   1       2.392  -0.291   0.441  0.00  0.00     0.001 A 
ATOM     17  H   UNL d   1      -3.917  -1.901  -0.895  0.00  0.00     0.164 HD
ENDROOT
BRANCH   1  18
ATOM     18  C   UNL d   1      -3.100  -0.619   1.076  0.00  0.00     0.023 C 
BRANCH  18  19
ATOM     19  C   UNL d   1      -3.326   0.547   1.708  0.00  0.00     0.018 C 
BRANCH  19  20
ATOM     20  C   UNL d   1      -4.228   0.686   2.808  0.00  0.00     0.004 A 
ATOM     21  S   UNL d   1      -4.331   2.223   3.598  0.00  0.00    -0.102 SA
ATOM     22  C   UNL d   1      -5.543   1.690   4.673  0.00  0.00     0.050 A 
ATOM     23  C   UNL d   1      -5.871   0.372   4.466  0.00  0.00     0.008 A 
ATOM     24  C   UNL d   1      -5.114  -0.203   3.400  0.00  0.00     0.019 A 
ENDBRANCH  19  20
ENDBRANCH  18  19
ENDBRANCH   1  18
TORSDOF 3
