REMARK  6 active torsions:
REMARK  status: ('A' for Active; 'I' for Inactive)
REMARK    1  A    between atoms: C_2  and  S_1 
REMARK    2  A    between atoms: N_10  and  S_1 
REMARK    3  A    between atoms: C_7  and  C_3 
REMARK    4  A    between atoms: S_4  and  C_5 
REMARK    5  A    between atoms: C_6  and  S_4 
REMARK    6  A    between atoms: O_12  and  C_7 
ROOT
ATOM      1  C   UNL d   1       0.187   1.339   1.065  0.00  0.00     0.091 A 
ATOM      2  C   UNL d   1      -0.201   0.610   2.206  0.00  0.00     0.028 A 
ATOM      3  C   UNL d   1       0.406   2.732   1.151  0.00  0.00     0.026 A 
ATOM      4  C   UNL d   1      -0.324   1.325   3.416  0.00  0.00     0.020 A 
ATOM      5  C   UNL d   1       0.270   3.408   2.359  0.00  0.00     0.002 A 
ATOM      6  C   UNL d   1      -0.097   2.702   3.493  0.00  0.00     0.001 A 
ENDROOT
BRANCH   2   7
ATOM      7  S   UNL d   1      -0.276  -1.171   2.375  0.00  0.00    -0.088 SA
BRANCH   7   8
ATOM      8  C   UNL d   1      -2.002  -1.627   2.176  0.00  0.00     0.022 A 
ATOM      9  C   UNL d   1      -2.998  -1.594   3.172  0.00  0.00     0.054 A 
ATOM     10  C   UNL d   1      -4.268  -2.161   2.922  0.00  0.00     0.020 A 
ATOM     11  C   UNL d   1      -4.556  -2.766   1.702  0.00  0.00     0.001 A 
ATOM     12  C   UNL d   1      -3.586  -2.798   0.712  0.00  0.00     0.001 A 
ATOM     13  C   UNL d   1      -2.325  -2.246   0.954  0.00  0.00     0.020 A 
BRANCH   9  14
ATOM     14  C   UNL d   1      -2.841  -1.018   4.531  0.00  0.00     0.177 C 
ATOM     15  O   UNL d   1      -3.736  -0.409   5.090  0.00  0.00    -0.646 OA
BRANCH  14  16
ATOM     16  O   UNL d   1      -1.673  -1.313   5.133  0.00  0.00    -0.773 OA
ATOM     17  H   UNL d   1      -1.057  -1.827   4.575  0.00  0.00     0.167 HD
ENDBRANCH  14  16
ENDBRANCH   9  14
ENDBRANCH   7   8
ENDBRANCH   2   7
BRANCH   1  18
ATOM     18  S   UNL d   1       0.441   0.648  -0.555  0.00  0.00     0.240 S 
ATOM     19  O   UNL d   1       0.195   1.684  -1.534  0.00  0.00    -0.206 OA
ATOM     20  O   UNL d   1      -0.180  -0.645  -0.671  0.00  0.00    -0.206 OA
BRANCH  18  21
ATOM     21  N   UNL d   1       2.099   0.343  -0.568  0.00  0.00    -0.225 NA
ATOM     22  H   UNL d   1       2.592   0.695   0.251  0.00  0.00     0.136 HD
ATOM     23  H   UNL d   1       2.248  -0.658  -0.707  0.00  0.00     0.136 HD
ENDBRANCH  18  21
ENDBRANCH   1  18
TORSDOF 6
