REMARK  3 active torsions:
REMARK  status: ('A' for Active; 'I' for Inactive)
REMARK    1  A    between atoms: C_15  and  C_7 
REMARK    2  A    between atoms: S_18  and  C_8 
REMARK    3  A    between atoms: N_17  and  C_16 
ROOT
ATOM      1  N   UNL d   1       0.279   0.269   0.595  0.00  0.00    -0.214 N 
ATOM      2  C   UNL d   1       0.301  -0.565  -0.500  0.00  0.00     0.153 A 
ATOM      3  N   UNL d   1       1.547  -0.758  -0.866  0.00  0.00    -0.324 N 
ATOM      4  HN  UNL d   1       1.891  -1.316  -1.648  1.00  0.00     0.169 HD
ATOM      5  N   UNL d   1       1.538   0.611   0.962  0.00  0.00    -0.274 N 
ATOM      6  HN  UNL d   1       1.842   1.205   1.734  1.00  0.00     0.189 HD
ATOM      7  C   UNL d   1       2.285  -0.033   0.048  0.00  0.00     0.132 A 
ATOM      8  C   UNL d   1      -0.901   0.687   1.225  0.00  0.00     0.167 A 
ATOM      9  C   UNL d   1      -0.951  -1.035  -1.006  0.00  0.00     0.105 A 
ATOM     10  N   UNL d   1      -2.051   0.273   0.770  0.00  0.00    -0.344 N 
ATOM     11  HN  UNL d   1      -2.926   0.564   1.207  1.00  0.00     0.167 HD
ATOM     12  C   UNL d   1      -2.046  -0.584  -0.334  0.00  0.00     0.117 A 
ATOM     13  C   UNL d   1      -1.010  -1.946  -2.167  0.00  0.00     0.104 C 
ATOM     14  N   UNL d   1      -1.057  -2.662  -3.079  0.00  0.00    -0.191 NA
ENDROOT
BRANCH   8  15
ATOM     15  S   UNL d   1      -0.814   1.766   2.613  0.00  0.00    -0.096 SA
ATOM     16  C   UNL d   1      -2.556   1.995   3.010  0.00  0.00     0.099 C 
ENDBRANCH   8  15
BRANCH   7  17
ATOM     17  C   UNL d   1       3.744   0.002   0.006  0.00  0.00     0.009 A 
ATOM     18  C   UNL d   1       4.484   0.650   0.996  0.00  0.00     0.017 A 
ATOM     19  C   UNL d   1       5.889   0.664   0.949  0.00  0.00     0.030 A 
ATOM     20  C   UNL d   1       6.614   0.041  -0.080  0.00  0.00     0.029 A 
ATOM     21  C   UNL d   1       5.848  -0.600  -1.066  0.00  0.00     0.030 A 
ATOM     22  C   UNL d   1       4.443  -0.624  -1.029  0.00  0.00     0.017 A 
BRANCH  20  23
ATOM     23  N   UNL d   1       7.997   0.049  -0.110  0.00  0.00    -0.390 N 
ATOM     24  C   UNL d   1       8.782   1.140   0.459  0.00  0.00     0.149 C 
ATOM     25  C   UNL d   1       8.773  -0.993  -0.773  0.00  0.00     0.149 C 
ENDBRANCH  20  23
ENDBRANCH   7  17
TORSDOF 3
