REMARK  5 active torsions:
REMARK  status: ('A' for Active; 'I' for Inactive)
REMARK    1  A    between atoms: N_4  and  C_1 
REMARK    2  A    between atoms: N_5  and  C_2 
REMARK    3  A    between atoms: O_10  and  C_3 
REMARK    4  A    between atoms: C_6  and  C_7 
REMARK    5  A    between atoms: C_20  and  O_10 
ROOT
ATOM      1  C   UNL d   1       1.422  -0.018  -0.017  0.00  0.00     0.140 A 
ATOM      2  C   UNL d   1      -0.719  -1.052  -0.018  0.00  0.00     0.140 A 
ATOM      3  C   UNL d   1       0.676  -1.200  -0.070  0.00  0.00     0.142 A 
ATOM      4  C   UNL d   1      -0.586   1.370   0.127  0.00  0.00     0.052 A 
ATOM      5  C   UNL d   1      -1.354   0.201   0.083  0.00  0.00     0.055 A 
ATOM      6  C   UNL d   1       0.811   1.253   0.056  0.00  0.00     0.055 A 
ENDROOT
BRANCH   3   7
ATOM      7  O   UNL d   1       1.161  -2.480   0.017  0.00  0.00    -0.304 OA
BRANCH   7   8
ATOM      8  C   UNL d   1       2.209  -2.928  -0.741  0.00  0.00     0.091 A 
ATOM      9  C   UNL d   1       2.902  -4.019  -0.222  0.00  0.00     0.124 A 
ATOM     10  N   UNL d   1       3.982  -4.588  -0.806  0.00  0.00    -0.373 N 
ATOM     11  C   UNL d   1       4.390  -4.042  -1.969  0.00  0.00     0.088 A 
ATOM     12  HN  UNL d   1       4.460  -5.386  -0.389  1.00  0.00     0.164 HD
ATOM     13  C   UNL d   1       3.744  -2.982  -2.587  0.00  0.00     0.020 A 
ATOM     14  C   UNL d   1       2.616  -2.432  -1.974  0.00  0.00     0.040 A 
ENDBRANCH   7   8
ENDBRANCH   3   7
BRANCH   2  15
ATOM     15  N   UNL d   1      -1.570  -2.229  -0.040  0.00  0.00    -0.113 N 
ATOM     16  O   UNL d   1      -1.488  -2.964  -1.031  0.00  0.00    -0.532 OA
ATOM     17  O   UNL d   1      -2.348  -2.373   0.912  0.00  0.00    -0.532 OA
ENDBRANCH   2  15
BRANCH   1  18
ATOM     18  N   UNL d   1       2.871  -0.026   0.046  0.00  0.00    -0.113 N 
ATOM     19  O   UNL d   1       3.389  -0.573   1.026  0.00  0.00    -0.532 OA
ATOM     20  O   UNL d   1       3.468   0.569  -0.859  0.00  0.00    -0.532 OA
ENDBRANCH   1  18
BRANCH   4  21
ATOM     21  C   UNL d   1      -1.225   2.733   0.290  0.00  0.00     0.417 C 
ATOM     22  F   UNL d   1      -2.579   2.683   0.391  0.00  0.00    -0.166 F 
ATOM     23  F   UNL d   1      -0.782   3.372   1.404  0.00  0.00    -0.166 F 
ATOM     24  F   UNL d   1      -0.949   3.555  -0.756  0.00  0.00    -0.166 F 
ENDBRANCH   4  21
TORSDOF 5
