REMARK  3 active torsions:
REMARK  status: ('A' for Active; 'I' for Inactive)
REMARK    1  A    between atoms: N_2  and  S_1 
REMARK    2  A    between atoms: C_8  and  S_1 
REMARK       I    between atoms: N_5  and  C_4 
REMARK       I    between atoms: N_9  and  C_4 
REMARK    3  A    between atoms: N_10  and  N_9 
ROOT
ATOM      1  N   UNL d   1       0.493  -0.616  -1.339  0.00  0.00    -0.112 N 
ATOM      2  HN  UNL d   1      -0.146  -1.410  -1.298  1.00  0.00     0.197 HD
ATOM      3  C   UNL d   1       0.812  -0.166  -2.509  0.00  0.00     0.700 C 
ATOM      4  N   UNL d   1       1.676   0.831  -2.929  0.00  0.00    -0.216 N 
ATOM      5  N   UNL d   1       0.133  -0.754  -3.568  0.00  0.00    -0.156 N 
ATOM      6  C   UNL d   1       3.111   0.806  -2.645  0.00  0.00     0.141 C 
ATOM      7  C   UNL d   1       1.212   2.223  -2.986  0.00  0.00     0.141 C 
ATOM      8  C   UNL d   1       3.387   2.148  -1.985  0.00  0.00     0.022 C 
ATOM      9  C   UNL d   1       2.457   3.076  -2.744  0.00  0.00     0.022 C 
ATOM     10  H   UNL d   1      -0.377  -1.593  -3.288  0.00  0.00     0.199 HD
ENDROOT
BRANCH   1  11
ATOM     11  S   UNL d   1       1.027  -0.020   0.055  0.00  0.00     0.276 S 
ATOM     12  O   UNL d   1       0.405   1.266   0.319  0.00  0.00    -0.200 OA
ATOM     13  O   UNL d   1       2.464  -0.180   0.160  0.00  0.00    -0.200 OA
BRANCH  11  14
ATOM     14  C   UNL d   1       0.325  -1.160   1.250  0.00  0.00     0.080 A 
ATOM     15  C   UNL d   1       1.157  -1.790   2.182  0.00  0.00     0.025 A 
ATOM     16  C   UNL d   1       0.621  -2.741   3.049  0.00  0.00     0.002 A 
ATOM     17  C   UNL d   1      -0.738  -3.062   2.986  0.00  0.00     0.000 A 
ATOM     18  C   UNL d   1      -1.567  -2.420   2.063  0.00  0.00     0.002 A 
ATOM     19  C   UNL d   1      -1.039  -1.465   1.192  0.00  0.00     0.025 A 
ENDBRANCH  11  14
ENDBRANCH   1  11
BRANCH   5  20
ATOM     20  N   UNL d   1       0.743  -0.774  -4.845  0.00  0.00    -0.235 NA
ATOM     21  H   UNL d   1       1.554  -0.148  -4.802  0.00  0.00     0.143 HD
ATOM     22  H   UNL d   1       0.111  -0.326  -5.511  0.00  0.00     0.143 HD
ENDBRANCH   5  20
TORSDOF 3
