REMARK  2 active torsions:
REMARK  status: ('A' for Active; 'I' for Inactive)
REMARK    1  A    between atoms: N_3  and  C_1 
REMARK    2  A    between atoms: C_6  and  C_2 
ROOT
ATOM      1  C   UNL d   1       2.304  -0.833  -0.004  0.00  0.00     0.115 C 
ATOM      2  C   UNL d   1       2.310   0.600  -0.440  0.00  0.00     0.225 C 
ATOM      3  C   UNL d   1       1.200  -1.522   0.312  0.00  0.00     0.049 C 
ATOM      4  O   UNL d   1       1.152   1.330   0.066  0.00  0.00    -0.334 OA
ATOM      5  C   UNL d   1      -0.022   0.619   0.118  0.00  0.00     0.080 A 
ATOM      6  C   UNL d   1      -0.056  -0.780   0.203  0.00  0.00    -0.001 A 
ATOM      7  C   UNL d   1      -1.201   1.358   0.057  0.00  0.00     0.037 A 
ATOM      8  C   UNL d   1      -1.286  -1.438   0.173  0.00  0.00     0.014 A 
ATOM      9  C   UNL d   1      -2.426   0.695   0.020  0.00  0.00     0.003 A 
ATOM     10  C   UNL d   1      -2.468  -0.699   0.066  0.00  0.00     0.001 A 
ENDROOT
BRANCH   2  11
ATOM     11  C   UNL d   1       2.311   0.806  -1.949  0.00  0.00     0.018 A 
ATOM     12  S   UNL d   1       3.584   1.675  -2.701  0.00  0.00    -0.103 SA
ATOM     13  C   UNL d   1       2.903   1.461  -4.256  0.00  0.00     0.050 A 
ATOM     14  C   UNL d   1       1.726   0.752  -4.213  0.00  0.00     0.008 A 
ATOM     15  C   UNL d   1       1.386   0.372  -2.885  0.00  0.00     0.018 A 
ENDBRANCH   2  11
BRANCH   1  16
ATOM     16  N   UNL d   1       3.594  -1.488   0.081  0.00  0.00    -0.117 N 
ATOM     17  O   UNL d   1       4.600  -0.803  -0.136  0.00  0.00    -0.532 OA
ATOM     18  O   UNL d   1       3.618  -2.691   0.376  0.00  0.00    -0.532 OA
ENDBRANCH   1  16
TORSDOF 2
