REMARK  5 active torsions:
REMARK  status: ('A' for Active; 'I' for Inactive)
REMARK    1  A    between atoms: C_2  and  C_1 
REMARK       I    between atoms: N_3  and  C_2 
REMARK    2  A    between atoms: C_9  and  N_3 
REMARK    3  A    between atoms: C_4  and  C_9 
REMARK    4  A    between atoms: O_12  and  C_4 
REMARK    5  A    between atoms: C_16  and  O_12 
ROOT
ATOM      1  C   UNL d   1      -0.136   2.243   0.090  0.00  0.00     0.258 C 
ATOM      2  N   UNL d   1      -1.181   3.141   0.098  0.00  0.00    -0.347 N 
ATOM      3  O   UNL d   1      -0.344   1.034   0.098  0.00  0.00    -0.267 OA
ATOM      4  H   UNL d   1      -1.021   4.145   0.091  0.00  0.00     0.163 HD
ENDROOT
BRANCH   1   5
ATOM      5  C   UNL d   1       1.249   2.785   0.067  0.00  0.00     0.108 A 
ATOM      6  C   UNL d   1       1.528   4.153   0.061  0.00  0.00     0.135 A 
ATOM      7  F   UNL d   1       0.539   5.061   0.074  0.00  0.00    -0.205 F 
ATOM      8  C   UNL d   1       2.842   4.630   0.041  0.00  0.00     0.043 A 
ATOM      9  C   UNL d   1       3.908   3.735   0.026  0.00  0.00     0.006 A 
ATOM     10  C   UNL d   1       3.651   2.367   0.028  0.00  0.00     0.043 A 
ATOM     11  C   UNL d   1       2.335   1.900   0.048  0.00  0.00     0.135 A 
ATOM     12  F   UNL d   1       2.161   0.571   0.048  0.00  0.00    -0.205 F 
ENDBRANCH   1   5
BRANCH   2  13
ATOM     13  C   UNL d   1      -2.559   2.668   0.093  0.00  0.00     0.233 C 
BRANCH  13  14
ATOM     14  C   UNL d   1      -3.603   3.751  -0.137  0.00  0.00     0.276 C 
ATOM     15  O   UNL d   1      -4.805   3.528  -0.231  0.00  0.00    -0.263 OA
BRANCH  14  16
ATOM     16  O   UNL d   1      -3.026   4.983  -0.253  0.00  0.00    -0.321 OA
BRANCH  16  17
ATOM     17  C   UNL d   1      -3.897   6.034  -0.698  0.00  0.00     0.174 C 
ATOM     18  C   UNL d   1      -3.857   6.082  -2.214  0.00  0.00     0.034 C 
ENDBRANCH  16  17
ENDBRANCH  14  16
ENDBRANCH  13  14
ENDBRANCH   2  13
TORSDOF 5
