REMARK  8 active torsions:
REMARK  status: ('A' for Active; 'I' for Inactive)
REMARK    1  A    between atoms: C_14  and  C_5 
REMARK    2  A    between atoms: N_7  and  C_9 
REMARK    3  A    between atoms: N_8  and  C_13 
REMARK    4  A    between atoms: O_23  and  C_14 
REMARK    5  A    between atoms: C_25  and  O_23 
REMARK    6  A    between atoms: O_24  and  C_26 
REMARK    7  A    between atoms: C_27  and  O_24 
REMARK    8  A    between atoms: C_26  and  C_25 
ROOT
ATOM      1  C   UNL d   1      -0.656   0.850   0.010  0.00  0.00     0.006 A 
ATOM      2  C   UNL d   1      -1.136  -0.483  -0.027  0.00  0.00     0.029 A 
ATOM      3  C   UNL d   1       1.223  -0.554  -0.020  0.00  0.00     0.028 A 
ATOM      4  C   UNL d   1       0.807   0.794   0.013  0.00  0.00    -0.010 A 
ATOM      5  C   UNL d   1      -1.602   1.876   0.013  0.00  0.00     0.053 A 
ATOM      6  C   UNL d   1       0.019  -1.397  -0.032  0.00  0.00     0.194 A 
ATOM      7  C   UNL d   1      -3.399   0.180  -0.073  0.00  0.00     0.104 A 
ATOM      8  C   UNL d   1      -2.471  -0.854  -0.063  0.00  0.00     0.052 A 
ATOM      9  C   UNL d   1      -2.977   1.525  -0.033  0.00  0.00     0.054 A 
ATOM     10  C   UNL d   1       2.542  -0.975  -0.074  0.00  0.00     0.052 A 
ATOM     11  C   UNL d   1       3.511   0.029  -0.092  0.00  0.00     0.103 A 
ATOM     12  C   UNL d   1       1.789   1.772   0.004  0.00  0.00     0.016 A 
ATOM     13  O   UNL d   1      -0.022  -2.607  -0.053  0.00  0.00    -0.287 OA
ATOM     14  C   UNL d   1       3.142   1.391  -0.042  0.00  0.00     0.037 A 
ENDROOT
BRANCH   5  15
ATOM     15  C   UNL d   1      -1.269   3.315   0.204  0.00  0.00     0.294 C 
ATOM     16  O   UNL d   1      -0.341   3.727   0.875  0.00  0.00    -0.259 OA
BRANCH  15  17
ATOM     17  O   UNL d   1      -2.257   4.082  -0.320  0.00  0.00    -0.315 OA
BRANCH  17  18
ATOM     18  C   UNL d   1      -2.720   5.106   0.573  0.00  0.00     0.205 C 
BRANCH  18  19
ATOM     19  C   UNL d   1      -2.361   6.512   0.121  0.00  0.00     0.194 C 
BRANCH  19  20
ATOM     20  O   UNL d   1      -2.931   7.424   1.064  0.00  0.00    -0.389 OA
BRANCH  20  21
ATOM     21  C   UNL d   1      -2.654   8.781   0.738  0.00  0.00     0.163 C 
ATOM     22  C   UNL d   1      -3.283   9.675   1.791  0.00  0.00     0.033 C 
ENDBRANCH  20  21
ENDBRANCH  19  20
ENDBRANCH  18  19
ENDBRANCH  17  18
ENDBRANCH  15  17
ENDBRANCH   5  15
BRANCH   7  23
ATOM     23  N   UNL d   1      -4.838  -0.126  -0.111  0.00  0.00    -0.116 N 
ATOM     24  O   UNL d   1      -5.168  -1.315  -0.141  0.00  0.00    -0.532 OA
ATOM     25  O   UNL d   1      -5.625   0.829  -0.104  0.00  0.00    -0.532 OA
ENDBRANCH   7  23
BRANCH  11  26
ATOM     26  N   UNL d   1       4.931  -0.331  -0.191  0.00  0.00    -0.116 N 
ATOM     27  O   UNL d   1       5.215  -1.533  -0.276  0.00  0.00    -0.532 OA
ATOM     28  O   UNL d   1       5.759   0.591  -0.196  0.00  0.00    -0.532 OA
ENDBRANCH  11  26
TORSDOF 8
