REMARK  3 active torsions:
REMARK  status: ('A' for Active; 'I' for Inactive)
REMARK    1  A    between atoms: C_8  and  C_3 
REMARK    2  A    between atoms: C_10  and  C_7 
REMARK    3  A    between atoms: O_23  and  C_13 
ROOT
ATOM      1  N   UNL d   1       1.583  -0.059  -0.009  0.00  0.00    -0.331 N 
ATOM      2  HN  UNL d   1       2.533  -0.429  -0.042  1.00  0.00     0.168 HD
ATOM      3  C   UNL d   1       1.198   1.176   0.017  0.00  0.00     0.162 A 
ATOM      4  C   UNL d   1       0.395  -0.747   0.020  0.00  0.00     0.111 A 
ATOM      5  O   UNL d   1      -0.132   1.421   0.057  0.00  0.00    -0.256 OA
ATOM      6  C   UNL d   1      -0.752   0.209   0.061  0.00  0.00     0.316 A 
ATOM      7  C   UNL d   1       0.318  -2.083   0.015  0.00  0.00     0.047 C 
ATOM      8  O   UNL d   1      -1.947   0.009   0.096  0.00  0.00    -0.257 OA
ENDROOT
BRANCH   7   9
ATOM      9  C   UNL d   1      -0.919  -2.860   0.052  0.00  0.00    -0.032 A 
ATOM     10  C   UNL d   1      -1.515  -3.180   1.274  0.00  0.00     0.033 A 
ATOM     11  C   UNL d   1      -2.693  -3.949   1.335  0.00  0.00     0.045 A 
ATOM     12 BR   UNL d   1      -3.313  -4.257   3.107  0.00  0.00    -0.048 Br
ATOM     13  C   UNL d   1      -3.287  -4.407   0.150  0.00  0.00     0.085 A 
ATOM     14  C   UNL d   1      -2.680  -4.059  -1.072  0.00  0.00     0.039 A 
ATOM     15  C   UNL d   1      -1.511  -3.296  -1.128  0.00  0.00     0.014 A 
BRANCH  13  16
ATOM     16  O   UNL d   1      -4.400  -5.166  -0.071  0.00  0.00    -0.355 OA
ATOM     17  C   UNL d   1      -5.162  -5.681   1.002  0.00  0.00     0.210 C 
ENDBRANCH  13  16
ENDBRANCH   7   9
BRANCH   3  18
ATOM     18  C   UNL d   1       2.055   2.372   0.005  0.00  0.00     0.015 A 
ATOM     19  C   UNL d   1       3.443   2.213  -0.107  0.00  0.00     0.017 A 
ATOM     20  C   UNL d   1       4.277   3.334  -0.115  0.00  0.00     0.025 A 
ATOM     21  C   UNL d   1       3.726   4.610  -0.009  0.00  0.00     0.034 A 
ATOM     22  C   UNL d   1       2.346   4.777   0.102  0.00  0.00     0.025 A 
ATOM     23 CL   UNL d   1       4.753   5.989  -0.012  0.00  0.00    -0.084 Cl
ATOM     24  C   UNL d   1       1.508   3.658   0.108  0.00  0.00     0.017 A 
ENDBRANCH   3  18
TORSDOF 3
