REMARK  6 active torsions:
REMARK  status: ('A' for Active; 'I' for Inactive)
REMARK    1  A    between atoms: C_8  and  C_1 
REMARK    2  A    between atoms: C_9  and  N_2 
REMARK    3  A    between atoms: S_10  and  C_5 
REMARK    4  A    between atoms: C_18  and  S_10 
REMARK    5  A    between atoms: C_12  and  C_13 
REMARK    6  A    between atoms: C_21  and  C_18 
ROOT
ATOM      1  C   UNL d   1      -0.186  -1.264   0.114  0.00  0.00     0.141 A 
ATOM      2  N   UNL d   1       1.097  -0.707  -0.014  0.00  0.00    -0.275 N 
ATOM      3  N   UNL d   1      -1.066  -0.280   0.205  0.00  0.00    -0.282 N 
ATOM      4  HN  UNL d   1      -2.073  -0.396   0.315  1.00  0.00     0.188 HD
ATOM      5  C   UNL d   1       0.869   0.664  -0.002  0.00  0.00     0.168 A 
ATOM      6  N   UNL d   1      -0.413   0.913   0.131  0.00  0.00    -0.278 N 
ATOM      7  HN  UNL d   1      -0.844   1.837   0.170  1.00  0.00     0.189 HD
ENDROOT
BRANCH   2   8
ATOM      8  C   UNL d   1       2.339  -1.397  -0.124  0.00  0.00     0.043 A 
ATOM      9  C   UNL d   1       2.440  -2.582  -0.853  0.00  0.00     0.031 A 
ATOM     10  C   UNL d   1       3.656  -3.273  -0.917  0.00  0.00     0.010 A 
ATOM     11  C   UNL d   1       4.815  -2.791  -0.282  0.00  0.00    -0.051 A 
ATOM     12  C   UNL d   1       4.694  -1.603   0.449  0.00  0.00     0.010 A 
ATOM     13  C   UNL d   1       3.475  -0.916   0.535  0.00  0.00     0.031 A 
BRANCH  11  14
ATOM     14  C   UNL d   1       6.147  -3.554  -0.406  0.00  0.00    -0.024 C 
ATOM     15  C   UNL d   1       7.348  -2.817   0.230  0.00  0.00     0.019 C 
ATOM     16  C   UNL d   1       6.023  -4.924   0.292  0.00  0.00     0.019 C 
ATOM     17  C   UNL d   1       6.489  -3.769  -1.897  0.00  0.00     0.019 C 
ENDBRANCH  11  14
ENDBRANCH   2   8
BRANCH   1  18
ATOM     18  C   UNL d   1      -0.550  -2.686   0.253  0.00  0.00     0.032 A 
ATOM     19  C   UNL d   1      -1.620  -3.257  -0.465  0.00  0.00     0.048 A 
ATOM     20 CL   UNL d   1      -2.566  -2.362  -1.606  0.00  0.00    -0.083 Cl
ATOM     21  C   UNL d   1      -1.941  -4.611  -0.310  0.00  0.00     0.025 A 
ATOM     22  C   UNL d   1      -1.205  -5.419   0.554  0.00  0.00     0.002 A 
ATOM     23  C   UNL d   1      -0.157  -4.868   1.284  0.00  0.00     0.001 A 
ATOM     24  C   UNL d   1       0.152  -3.511   1.151  0.00  0.00     0.017 A 
ENDBRANCH   1  18
BRANCH   5  25
ATOM     25  S   UNL d   1       2.060   1.901  -0.296  0.00  0.00    -0.087 SA
BRANCH  25  26
ATOM     26  C   UNL d   1       1.004   3.375  -0.399  0.00  0.00     0.121 C 
BRANCH  26  27
ATOM     27  C   UNL d   1       1.727   4.699  -0.578  0.00  0.00    -0.048 A 
ATOM     28  C   UNL d   1       2.924   4.842  -1.298  0.00  0.00     0.009 A 
ATOM     29  C   UNL d   1       3.495   6.105  -1.496  0.00  0.00     0.024 A 
ATOM     30  C   UNL d   1       2.863   7.240  -0.998  0.00  0.00     0.034 A 
ATOM     31  C   UNL d   1       1.669   7.126  -0.295  0.00  0.00     0.024 A 
ATOM     32 CL   UNL d   1       3.550   8.794  -1.271  0.00  0.00    -0.084 Cl
ATOM     33  C   UNL d   1       1.105   5.864  -0.088  0.00  0.00     0.009 A 
ENDBRANCH  26  27
ENDBRANCH  25  26
ENDBRANCH   5  25
TORSDOF 6
