REMARK  1 active torsions:
REMARK  status: ('A' for Active; 'I' for Inactive)
REMARK    1  A    between atoms: C_2  and  N_1 
ROOT
ATOM      1  C   UNL d   1      -0.018   2.275  -0.008  0.00  0.00     0.052 A 
ATOM      2  C   UNL d   1      -0.709   2.979   1.006  0.00  0.00    -0.024 A 
ATOM      3  C   UNL d   1      -0.697   4.393   0.993  0.00  0.00    -0.050 A 
ATOM      4  C   UNL d   1       0.705   2.984  -0.980  0.00  0.00     0.031 A 
ATOM      5  C   UNL d   1      -1.414   2.245   2.129  0.00  0.00     0.041 C 
ATOM      6  C   UNL d   1       0.700   4.375  -0.995  0.00  0.00     0.003 A 
ATOM      7  C   UNL d   1       0.003   5.075  -0.015  0.00  0.00     0.008 A 
ATOM      8  C   UNL d   1      -1.336   5.212   2.091  0.00  0.00     0.039 C 
ATOM      9  C   UNL d   1      -1.668   3.098   3.369  0.00  0.00     0.005 C 
ATOM     10  C   UNL d   1      -2.301   4.419   2.965  0.00  0.00     0.005 C 
ENDROOT
BRANCH   1  11
ATOM     11  N   UNL d   1      -0.000   0.865  -0.049  0.00  0.00    -0.245 N 
ATOM     12  C   UNL d   1      -1.104   0.066  -0.091  0.00  0.00     0.255 A 
ATOM     13  C   UNL d   1      -0.627  -1.324  -0.106  0.00  0.00     0.080 A 
ATOM     14  O   UNL d   1      -2.289   0.341  -0.174  0.00  0.00    -0.268 OA
ATOM     15  C   UNL d   1       0.704  -1.299  -0.134  0.00  0.00     0.080 A 
ATOM     16  C   UNL d   1       1.128   0.107  -0.149  0.00  0.00     0.255 A 
ATOM     17  O   UNL d   1       2.303   0.432  -0.201  0.00  0.00    -0.268 OA
ENDBRANCH   1  11
TORSDOF 1
