REMARK  1 active torsions:
REMARK  status: ('A' for Active; 'I' for Inactive)
REMARK    1  A    between atoms: C_11  and  C_3 
ROOT
ATOM      1  C   UNL d   1      -0.690   1.237  -0.001  0.00  0.00     0.140 A 
ATOM      2  N   UNL d   1       1.363  -0.064   0.004  0.00  0.00    -0.299 N 
ATOM      3  C   UNL d   1      -1.356   0.066  -0.004  0.00  0.00     0.071 A 
ATOM      4  C   UNL d   1       0.795   1.186   0.003  0.00  0.00     0.270 A 
ATOM      5  C   UNL d   1       0.672  -1.239  -0.000  0.00  0.00     0.179 A 
ATOM      6  N   UNL d   1      -0.688  -1.137  -0.006  0.00  0.00    -0.331 N 
ATOM      7  C   UNL d   1      -1.327   2.506   0.003  0.00  0.00     0.107 C 
ATOM      8  N   UNL d   1      -1.890   3.522   0.007  0.00  0.00    -0.191 NA
ATOM      9  S   UNL d   1       1.441  -2.710   0.002  0.00  0.00    -0.040 SA
ATOM     10  O   UNL d   1       1.488   2.197   0.006  0.00  0.00    -0.266 OA
ATOM     11  H   UNL d   1       2.374  -0.097   0.009  0.00  0.00     0.171 HD
ATOM     12  H   UNL d   1      -1.218  -2.005  -0.008  0.00  0.00     0.168 HD
ENDROOT
BRANCH   3  13
ATOM     13  C   UNL d   1      -2.825   0.002  -0.000  0.00  0.00    -0.005 A 
ATOM     14  C   UNL d   1      -3.536  -0.019  -1.201  0.00  0.00     0.030 A 
ATOM     15  C   UNL d   1      -4.919  -0.007  -1.142  0.00  0.00     0.088 A 
ATOM     16  N   UNL d   1      -5.619   0.013   0.012  0.00  0.00    -0.375 N 
ATOM     17  C   UNL d   1      -4.909   0.028   1.160  0.00  0.00     0.088 A 
ATOM     18  HN  UNL d   1      -6.639   0.016   0.017  1.00  0.00     0.164 HD
ATOM     19  C   UNL d   1      -3.526   0.017   1.207  0.00  0.00     0.030 A 
ENDBRANCH   3  13
TORSDOF 1
