REMARK  2 active torsions:
REMARK  status: ('A' for Active; 'I' for Inactive)
REMARK    1  A    between atoms: C_8  and  C_3 
REMARK    2  A    between atoms: S_13  and  C_6 
ROOT
ATOM      1  N   UNL d   1       1.168   0.300  -0.302  0.00  0.00    -0.320 N 
ATOM      2  HN  UNL d   1       2.087   0.621  -0.607  1.00  0.00     0.169 HD
ATOM      3  C   UNL d   1       0.059   1.053   0.020  0.00  0.00     0.139 A 
ATOM      4  N   UNL d   1      -1.016   0.330   0.383  0.00  0.00    -0.282 N 
ATOM      5  HN  UNL d   1      -1.943   0.648   0.664  1.00  0.00     0.188 HD
ATOM      6  C   UNL d   1       0.752  -0.927  -0.121  0.00  0.00     0.160 A 
ATOM      7  N   UNL d   1      -0.544  -0.923   0.277  0.00  0.00    -0.278 N 
ATOM      8  H   UNL d   1      -1.141  -1.713   0.492  0.00  0.00     0.189 HD
ENDROOT
BRANCH   3   9
ATOM      9  C   UNL d   1       0.049   2.549  -0.018  0.00  0.00     0.050 A 
ATOM     10  S   UNL d   1       1.379   3.499  -0.513  0.00  0.00    -0.098 SA
ATOM     11  C   UNL d   1       0.518   4.955  -0.248  0.00  0.00     0.050 A 
ATOM     12  C   UNL d   1      -0.758   4.722   0.216  0.00  0.00     0.009 A 
ATOM     13  C   UNL d   1      -1.031   3.328   0.345  0.00  0.00     0.023 A 
ENDBRANCH   3   9
BRANCH   6  14
ATOM     14  S   UNL d   1       1.620  -2.400  -0.299  0.00  0.00    -0.097 SA
ATOM     15  C   UNL d   1       3.255  -1.771  -0.745  0.00  0.00     0.099 C 
ENDBRANCH   6  14
TORSDOF 2
