REMARK  2 active torsions:
REMARK  status: ('A' for Active; 'I' for Inactive)
REMARK    1  A    between atoms: C_9  and  C_1 
REMARK    2  A    between atoms: O_14  and  C_1 
ROOT
ATOM      1  C   UNL d   1      -1.321   0.041   0.305  0.00  0.00     0.233 C 
ATOM      2  C   UNL d   1       2.088   1.398  -0.210  0.00  0.00     0.036 A 
ATOM      3  C   UNL d   1       0.906   0.589  -0.022  0.00  0.00     0.043 C 
ATOM      4  S   UNL d   1       2.504   2.512   1.019  0.00  0.00    -0.087 SA
ATOM      5  C   UNL d   1       3.000   1.423  -1.258  0.00  0.00    -0.031 A 
ATOM      6  N   UNL d   1       0.785  -0.619  -0.493  0.00  0.00    -0.321 N 
ATOM      7  HN  UNL d   1       1.472  -1.131  -1.047  1.00  0.00     0.180 HD
ATOM      8  C   UNL d   1      -0.290   1.071   0.756  0.00  0.00     0.125 C 
ATOM      9  N   UNL d   1      -0.439  -1.062  -0.100  0.00  0.00    -0.198 NA
ATOM     10  C   UNL d   1       4.058   2.395  -1.025  0.00  0.00    -0.011 A 
ATOM     11  C   UNL d   1       3.904   3.050   0.197  0.00  0.00     0.016 A 
ATOM     12  C   UNL d   1       5.174   2.759  -1.827  0.00  0.00     0.020 A 
ATOM     13  C   UNL d   1       4.813   4.027   0.639  0.00  0.00     0.020 A 
ATOM     14  C   UNL d   1       6.086   3.740  -1.405  0.00  0.00    -0.061 A 
ATOM     15  C   UNL d   1       2.929   0.601  -2.508  0.00  0.00     0.050 C 
ATOM     16  C   UNL d   1       5.898   4.362  -0.174  0.00  0.00     0.008 A 
ATOM     17  C   UNL d   1       7.255   4.125  -2.262  0.00  0.00     0.048 C 
ATOM     18  H   UNL d   1      -0.890  -1.621  -0.825  0.00  0.00     0.150 HD
ENDROOT
BRANCH   1  19
ATOM     19  C   UNL d   1      -2.357  -0.284   1.433  0.00  0.00     0.434 C 
ATOM     20  F   UNL d   1      -2.035   0.271   2.620  0.00  0.00    -0.166 F 
ATOM     21  F   UNL d   1      -3.571   0.227   1.086  0.00  0.00    -0.166 F 
ATOM     22  F   UNL d   1      -2.528  -1.609   1.625  0.00  0.00    -0.166 F 
ENDBRANCH   1  19
BRANCH   1  23
ATOM     23  O   UNL d   1      -1.963   0.552  -0.877  0.00  0.00    -0.366 OA
ATOM     24  H   UNL d   1      -2.749   1.055  -0.587  0.00  0.00     0.212 HD
ENDBRANCH   1  23
TORSDOF 2
