REMARK  4 active torsions:
REMARK  status: ('A' for Active; 'I' for Inactive)
REMARK    1  A    between atoms: N_2  and  C_1 
REMARK    2  A    between atoms: N_4  and  C_1 
REMARK    3  A    between atoms: C_3  and  N_2 
REMARK    4  A    between atoms: N_10  and  N_4 
ROOT
ATOM      1  N   UNL d   1       0.385  -0.811  -0.803  0.00  0.00    -0.332 N 
ATOM      2  H   UNL d   1       0.845  -0.459   0.026  0.00  0.00     0.168 HD
ENDROOT
BRANCH   1   3
ATOM      3  C   UNL d   1      -0.926  -0.372  -0.953  0.00  0.00     0.188 C 
ATOM      4  S   UNL d   1      -2.228  -1.396  -1.308  0.00  0.00    -0.039 SA
BRANCH   3   5
ATOM      5  N   UNL d   1      -1.102   1.010  -0.725  0.00  0.00    -0.295 N 
ATOM      6  C   UNL d   1      -0.055   1.986  -0.414  0.00  0.00     0.174 C 
BRANCH   5   7
ATOM      7  N   UNL d   1      -2.403   1.588  -0.864  0.00  0.00    -0.246 NA
ATOM      8  H   UNL d   1      -3.075   0.810  -0.876  0.00  0.00     0.143 HD
ATOM      9  H   UNL d   1      -2.461   1.976  -1.809  0.00  0.00     0.143 HD
ENDBRANCH   5   7
ENDBRANCH   3   5
ENDBRANCH   1   3
BRANCH   1  10
ATOM     10  C   UNL d   1       1.021  -1.882  -1.479  0.00  0.00     0.042 A 
ATOM     11  C   UNL d   1       0.648  -2.197  -2.798  0.00  0.00     0.053 A 
ATOM     12  C   UNL d   1       1.288  -3.215  -3.498  0.00  0.00     0.036 A 
ATOM     13 CL   UNL d   1       0.789  -3.594  -5.103  0.00  0.00    -0.084 Cl
ATOM     14  C   UNL d   1       2.333  -3.918  -2.919  0.00  0.00     0.024 A 
ATOM     15  C   UNL d   1       2.738  -3.596  -1.623  0.00  0.00     0.011 A 
ATOM     16  C   UNL d   1       2.088  -2.584  -0.885  0.00  0.00    -0.035 A 
ATOM     17  C   UNL d   1       2.592  -2.345   0.513  0.00  0.00     0.050 C 
ENDBRANCH   1  10
TORSDOF 4
