REMARK  4 active torsions:
REMARK  status: ('A' for Active; 'I' for Inactive)
REMARK    1  A    between atoms: C_5  and  C_1 
REMARK    2  A    between atoms: C_6  and  C_1 
REMARK    3  A    between atoms: N_3  and  C_2 
REMARK    4  A    between atoms: C_4  and  N_3 
ROOT
ATOM      1  N   UNL d   1       0.859   1.579  -1.904  0.00  0.00    -0.361 N 
ATOM      2  H   UNL d   1       1.879   1.709  -1.847  0.00  0.00     0.165 HD
ENDROOT
BRANCH   1   3
ATOM      3  C   UNL d   1       0.318   0.784  -0.920  0.00  0.00     0.107 C 
ATOM      4  C   UNL d   1       0.952   0.021  -0.005  0.00  0.00     0.070 C 
BRANCH   4   5
ATOM      5  C   UNL d   1       0.162  -0.740   1.009  0.00  0.00     0.160 C 
ATOM      6  O   UNL d   1       0.700  -1.085   2.065  0.00  0.00    -0.293 OA
ATOM      7  C   UNL d   1      -1.290  -1.102   0.774  0.00  0.00     0.097 C 
ENDBRANCH   4   5
BRANCH   4   8
ATOM      8  C   UNL d   1       2.459   0.020  -0.023  0.00  0.00     0.160 C 
ATOM      9  O   UNL d   1       3.080   0.919  -0.600  0.00  0.00    -0.293 OA
ATOM     10  C   UNL d   1       3.231  -1.105   0.613  0.00  0.00     0.097 C 
ENDBRANCH   4   8
ENDBRANCH   1   3
BRANCH   1  11
ATOM     11  C   UNL d   1       0.210   2.315  -2.915  0.00  0.00     0.093 A 
ATOM     12  C   UNL d   1      -1.113   2.075  -3.327  0.00  0.00     0.144 A 
ATOM     13  F   UNL d   1      -1.822   1.060  -2.807  0.00  0.00    -0.204 F 
ATOM     14  C   UNL d   1      -1.737   2.847  -4.308  0.00  0.00     0.045 A 
ATOM     15  C   UNL d   1      -1.054   3.900  -4.905  0.00  0.00     0.005 A 
ATOM     16  C   UNL d   1       0.255   4.175  -4.517  0.00  0.00     0.026 A 
ATOM     17  C   UNL d   1       0.877   3.393  -3.535  0.00  0.00     0.063 A 
ATOM     18 CL   UNL d   1       2.499   3.805  -3.091  0.00  0.00    -0.082 Cl
ENDBRANCH   1  11
TORSDOF 4
