REMARK  9 active torsions:
REMARK  status: ('A' for Active; 'I' for Inactive)
REMARK    1  A    between atoms: N_2  and  C_1 
REMARK    2  A    between atoms: C_5  and  C_4 
REMARK    3  A    between atoms: O_12  and  C_5 
REMARK    4  A    between atoms: N_7  and  O_12 
REMARK    5  A    between atoms: C_11  and  C_9 
REMARK    6  A    between atoms: N_22  and  C_9 
REMARK    7  A    between atoms: O_19  and  C_17 
REMARK    8  A    between atoms: C_24  and  O_19 
REMARK    9  A    between atoms: C_26  and  C_24 
ROOT
ATOM      1  N   UNL d   1      -3.111  -1.604   0.226  0.00  0.00    -0.246 N 
ATOM      2  HN  UNL d   1      -2.511  -2.384   0.494  1.00  0.00     0.196 HD
ATOM      3  C   UNL d   1      -4.364  -1.738  -0.079  0.00  0.00     0.109 C 
ENDROOT
BRANCH   3   4
ATOM      4  C   UNL d   1      -4.929  -3.129  -0.061  0.00  0.00     0.005 A 
ATOM      5  C   UNL d   1      -4.394  -4.109   0.783  0.00  0.00     0.041 A 
ATOM      6  C   UNL d   1      -4.966  -5.389   0.823  0.00  0.00     0.068 A 
ATOM      7 CL   UNL d   1      -4.286  -6.550   1.909  0.00  0.00    -0.081 Cl
ATOM      8  C   UNL d   1      -6.073  -5.706   0.019  0.00  0.00     0.090 A 
ATOM      9  C   UNL d   1      -6.546  -4.739  -0.878  0.00  0.00     0.039 A 
ATOM     10  C   UNL d   1      -5.992  -3.456  -0.907  0.00  0.00     0.017 A 
BRANCH   8  11
ATOM     11  O   UNL d   1      -6.638  -6.956   0.155  0.00  0.00    -0.345 OA
BRANCH  11  12
ATOM     12  C   UNL d   1      -7.984  -7.068  -0.319  0.00  0.00     0.214 C 
BRANCH  12  13
ATOM     13  C   UNL d   1      -8.713  -8.265   0.250  0.00  0.00    -0.034 A 
ATOM     14  C   UNL d   1     -10.079  -8.143   0.560  0.00  0.00     0.011 A 
ATOM     15  C   UNL d   1     -10.809  -9.238   1.023  0.00  0.00     0.024 A 
ATOM     16  C   UNL d   1     -10.180 -10.470   1.170  0.00  0.00     0.034 A 
ATOM     17  C   UNL d   1      -8.829 -10.614   0.855  0.00  0.00     0.024 A 
ATOM     18 CL   UNL d   1     -11.082 -11.823   1.735  0.00  0.00    -0.084 Cl
ATOM     19  C   UNL d   1      -8.097  -9.515   0.393  0.00  0.00     0.011 A 
ENDBRANCH  12  13
ENDBRANCH  11  12
ENDBRANCH   8  11
ENDBRANCH   3   4
BRANCH   3  20
ATOM     20  N   UNL d   1      -5.198  -0.694  -0.403  0.00  0.00    -0.286 NA
ATOM     21  H   UNL d   1      -4.814   0.212  -0.153  0.00  0.00     0.125 HD
ATOM     22  H   UNL d   1      -6.164  -0.793  -0.109  0.00  0.00     0.125 HD
ENDBRANCH   3  20
BRANCH   1  23
ATOM     23  O   UNL d   1      -2.658  -0.261   0.149  0.00  0.00    -0.192 OA
BRANCH  23  24
ATOM     24  C   UNL d   1      -1.300  -0.248   0.392  0.00  0.00     0.339 C 
ATOM     25  O   UNL d   1      -0.611  -1.233   0.642  0.00  0.00    -0.255 OA
BRANCH  24  26
ATOM     26  C   UNL d   1      -0.750   1.091   0.329  0.00  0.00     0.155 A 
ATOM     27  O   UNL d   1      -1.517   2.195   0.040  0.00  0.00    -0.282 OA
ATOM     28  C   UNL d   1      -0.666   3.264   0.072  0.00  0.00     0.215 A 
ATOM     29  C   UNL d   1       0.619   2.889   0.374  0.00  0.00     0.066 A 
ATOM     30  C   UNL d   1       0.566   1.486   0.537  0.00  0.00     0.048 A 
BRANCH  28  31
ATOM     31  N   UNL d   1      -1.222   4.554  -0.200  0.00  0.00    -0.090 N 
ATOM     32  O   UNL d   1      -0.435   5.508  -0.164  0.00  0.00    -0.530 OA
ATOM     33  O   UNL d   1      -2.432   4.619  -0.446  0.00  0.00    -0.530 OA
ENDBRANCH  28  31
ENDBRANCH  24  26
ENDBRANCH  23  24
ENDBRANCH   1  23
TORSDOF 9
