REMARK  6 active torsions:
REMARK  status: ('A' for Active; 'I' for Inactive)
REMARK       I    between atoms: C_3  and  N_1 
REMARK    1  A    between atoms: N_2  and  C_4 
REMARK    2  A    between atoms: C_18  and  C_3 
REMARK    3  A    between atoms: C_11  and  C_19 
REMARK    4  A    between atoms: O_17  and  C_11 
REMARK    5  A    between atoms: O_16  and  C_18 
REMARK    6  A    between atoms: C_19  and  O_16 
ROOT
ATOM      1  N   UNL d   1       1.325  -0.034   0.531  0.00  0.00    -0.350 N 
ATOM      2  C   UNL d   1       2.619  -0.022   1.060  0.00  0.00     0.243 C 
ATOM      3  C   UNL d   1      -1.456   0.085  -0.362  0.00  0.00     0.091 C 
ATOM      4  C   UNL d   1      -0.714   1.329   0.139  0.00  0.00     0.045 C 
ATOM      5  C   UNL d   1      -0.824  -1.209   0.155  0.00  0.00     0.045 C 
ATOM      6  C   UNL d   1       0.690  -1.242   0.019  0.00  0.00     0.128 C 
ATOM      7  C   UNL d   1       0.802   1.234   0.027  0.00  0.00     0.128 C 
ATOM      8  O   UNL d   1       3.235   1.028   1.266  0.00  0.00    -0.271 OA
ENDROOT
BRANCH   2   9
ATOM      9  C   UNL d   1       3.255  -1.362   1.460  0.00  0.00     0.271 C 
BRANCH   9  10
ATOM     10  O   UNL d   1       3.513  -2.231   0.355  0.00  0.00    -0.372 OA
BRANCH  10  11
ATOM     11  C   UNL d   1       4.267  -3.376   0.759  0.00  0.00     0.277 C 
BRANCH  11  12
ATOM     12  C   UNL d   1       3.370  -4.441   1.373  0.00  0.00     0.164 C 
ATOM     13  O   UNL d   1       3.643  -5.097   2.365  0.00  0.00    -0.648 OA
BRANCH  12  14
ATOM     14  O   UNL d   1       2.213  -4.592   0.679  0.00  0.00    -0.775 OA
ATOM     15  H   UNL d   1       2.194  -3.970  -0.079  0.00  0.00     0.167 HD
ENDBRANCH  12  14
ENDBRANCH  11  12
ENDBRANCH  10  11
ENDBRANCH   9  10
ENDBRANCH   2   9
BRANCH   3  16
ATOM     16  N   UNL d   1      -1.704   0.068  -1.802  0.00  0.00    -0.362 N 
ATOM     17  C   UNL d   1      -0.782   0.091  -2.815  0.00  0.00     0.091 A 
ATOM     18  C   UNL d   1      -1.454   0.049  -4.017  0.00  0.00     0.019 A 
ATOM     19  C   UNL d   1      -2.835  -0.012  -3.726  0.00  0.00     0.019 A 
ATOM     20  C   UNL d   1      -2.962  -0.002  -2.355  0.00  0.00     0.091 A 
ENDBRANCH   3  16
TORSDOF 6
