REMARK  3 active torsions:
REMARK  status: ('A' for Active; 'I' for Inactive)
REMARK    1  A    between atoms: C_4  and  N_1 
REMARK    2  A    between atoms: C_2  and  O_6 
REMARK    3  A    between atoms: O_6  and  C_12 
ROOT
ATOM      1  C   UNL d   1      -1.834   3.721   4.527  0.00  0.00     0.103 A 
ATOM      2  C   UNL d   1      -1.666   3.775   5.923  0.00  0.00     0.076 A 
ATOM      3  N   UNL d   1      -1.809   2.676   6.702  0.00  0.00    -0.363 N 
ATOM      4  HN  UNL d   1      -2.061   1.778   6.290  1.00  0.00     0.165 HD
ATOM      5  C   UNL d   1      -1.332   5.026   6.490  0.00  0.00    -0.007 A 
ATOM      6  C   UNL d   1      -1.606   4.849   3.722  0.00  0.00     0.040 A 
ATOM      7  C   UNL d   1      -1.308   6.075   4.301  0.00  0.00     0.004 A 
ATOM      8  C   UNL d   1      -1.613   2.791   8.034  0.00  0.00     0.088 A 
ATOM      9  C   UNL d   1      -1.177   6.166   5.683  0.00  0.00     0.014 A 
ATOM     10  C   UNL d   1      -1.148   5.109   7.877  0.00  0.00     0.015 A 
ATOM     11  C   UNL d   1      -1.285   3.974   8.663  0.00  0.00     0.018 A 
ENDROOT
BRANCH   1  12
ATOM     12  O   UNL d   1      -2.154   2.483   3.991  0.00  0.00    -0.308 OA
BRANCH  12  13
ATOM     13  C   UNL d   1      -2.912   2.392   2.845  0.00  0.00     0.076 A 
ATOM     14  C   UNL d   1      -2.632   1.300   2.017  0.00  0.00     0.040 A 
ATOM     15  C   UNL d   1      -3.341   1.113   0.826  0.00  0.00     0.039 A 
ATOM     16  C   UNL d   1      -4.338   2.028   0.470  0.00  0.00     0.103 A 
ATOM     17  C   UNL d   1      -4.648   3.106   1.310  0.00  0.00     0.039 A 
ATOM     18  C   UNL d   1      -3.952   3.266   2.512  0.00  0.00     0.040 A 
BRANCH  16  19
ATOM     19  N   UNL d   1      -5.069   1.857  -0.791  0.00  0.00    -0.116 N 
ATOM     20  O   UNL d   1      -5.922   2.706  -1.084  0.00  0.00    -0.532 OA
ATOM     21  O   UNL d   1      -4.790   0.872  -1.492  0.00  0.00    -0.532 OA
ENDBRANCH  16  19
ENDBRANCH  12  13
ENDBRANCH   1  12
TORSDOF 3
