REMARK  4 active torsions:
REMARK  status: ('A' for Active; 'I' for Inactive)
REMARK    1  A    between atoms: C_5  and  N_1 
REMARK    2  A    between atoms: C_7  and  C_2 
REMARK    3  A    between atoms: C_11  and  C_5 
REMARK    4  A    between atoms: O_17  and  C_12 
ROOT
ATOM      1  N   UNL d   1      -0.553  -1.186   0.249  0.00  0.00    -0.328 N 
ATOM      2  C   UNL d   1       0.844  -1.276  -0.147  0.00  0.00     0.200 C 
ATOM      3  S   UNL d   1       1.460   0.425  -0.287  0.00  0.00    -0.128 SA
ATOM      4  C   UNL d   1      -1.161   0.043   0.047  0.00  0.00     0.230 C 
ATOM      5  C   UNL d   1      -0.190   1.139  -0.315  0.00  0.00     0.179 C 
ATOM      6  O   UNL d   1      -2.372   0.239   0.129  0.00  0.00    -0.272 OA
ENDROOT
BRANCH   1   7
ATOM      7  C   UNL d   1      -1.373  -2.394   0.286  0.00  0.00     0.166 C 
BRANCH   7   8
ATOM      8  C   UNL d   1      -1.954  -2.769   1.635  0.00  0.00    -0.040 A 
ATOM      9  C   UNL d   1      -1.667  -2.082   2.820  0.00  0.00     0.011 A 
ATOM     10  C   UNL d   1      -2.157  -2.530   4.054  0.00  0.00     0.037 A 
ATOM     11  C   UNL d   1      -2.954  -3.671   4.126  0.00  0.00     0.068 A 
ATOM     12  C   UNL d   1      -3.298  -4.328   2.946  0.00  0.00     0.037 A 
ATOM     13  C   UNL d   1      -2.804  -3.884   1.714  0.00  0.00     0.011 A 
BRANCH  11  14
ATOM     14  O   UNL d   1      -3.448  -4.232   5.272  0.00  0.00    -0.356 OA
ATOM     15  C   UNL d   1      -3.019  -3.655   6.499  0.00  0.00     0.210 C 
ENDBRANCH  11  14
ENDBRANCH   7   8
ENDBRANCH   1   7
BRANCH   2  16
ATOM     16  C   UNL d   1       1.713  -2.136   0.758  0.00  0.00     0.042 A 
ATOM     17  N   UNL d   1       2.312  -3.216   0.187  0.00  0.00    -0.367 N 
ATOM     18  C   UNL d   1       3.069  -4.006   0.981  0.00  0.00     0.088 A 
ATOM     19  HN  UNL d   1       2.194  -3.423  -0.805  1.00  0.00     0.165 HD
ATOM     20  C   UNL d   1       3.250  -3.790   2.336  0.00  0.00     0.017 A 
ATOM     21  C   UNL d   1       2.643  -2.682   2.909  0.00  0.00     0.003 A 
ATOM     22  C   UNL d   1       1.874  -1.837   2.113  0.00  0.00     0.028 A 
ENDBRANCH   2  16
TORSDOF 4
