REMARK  4 active torsions:
REMARK  status: ('A' for Active; 'I' for Inactive)
REMARK    1  A    between atoms: C_2  and  C_1 
REMARK    2  A    between atoms: C_3  and  C_2 
REMARK    3  A    between atoms: N_9  and  C_4 
REMARK    4  A    between atoms: C_11  and  N_9 
ROOT
ATOM      1  C   UNL d   1       0.893  -0.100   0.104  0.00  0.00     0.106 C 
ATOM      2  C   UNL d   1       0.225   1.018  -0.241  0.00  0.00     0.114 C 
ATOM      3  C   UNL d   1       0.196  -1.285   0.450  0.00  0.00     0.104 C 
ATOM      4  N   UNL d   1      -0.394  -2.244   0.737  0.00  0.00    -0.191 NA
ENDROOT
BRANCH   1   5
ATOM      5  C   UNL d   1       2.387  -0.076   0.110  0.00  0.00     0.175 C 
ATOM      6  O   UNL d   1       3.026   0.922  -0.207  0.00  0.00    -0.291 OA
BRANCH   5   7
ATOM      7  C   UNL d   1       3.098  -1.344   0.480  0.00  0.00     0.061 A 
ATOM      8  C   UNL d   1       4.577  -1.339   0.791  0.00  0.00     0.013 A 
ATOM      9  C   UNL d   1       4.088  -1.946  -0.492  0.00  0.00     0.013 A 
ENDBRANCH   5   7
ENDBRANCH   1   5
BRANCH   2  10
ATOM     10  N   UNL d   1      -1.139   1.184  -0.352  0.00  0.00    -0.364 N 
ATOM     11  H   UNL d   1      -1.717   0.359  -0.201  0.00  0.00     0.165 HD
BRANCH  10  12
ATOM     12  C   UNL d   1      -1.876   2.352  -0.614  0.00  0.00     0.032 A 
ATOM     13  C   UNL d   1      -3.187   2.209  -1.105  0.00  0.00     0.032 A 
ATOM     14  C   UNL d   1      -3.964   3.322  -1.429  0.00  0.00     0.044 A 
ATOM     15  C   UNL d   1      -3.432   4.593  -1.266  0.00  0.00     0.116 A 
ATOM     16  C   UNL d   1      -2.138   4.765  -0.793  0.00  0.00     0.044 A 
ATOM     17  F   UNL d   1      -4.176   5.664  -1.570  0.00  0.00    -0.206 F 
ATOM     18  C   UNL d   1      -1.357   3.646  -0.481  0.00  0.00     0.032 A 
ENDBRANCH  10  12
ENDBRANCH   2  10
TORSDOF 4
