REMARK  2 active torsions:
REMARK  status: ('A' for Active; 'I' for Inactive)
REMARK       I    between atoms: C_2  and  N_3 
REMARK    1  A    between atoms: C_7  and  C_2 
REMARK    2  A    between atoms: N_3  and  C_4 
ROOT
ATOM      1  C   UNL d   1      -0.143   0.223  -0.644  0.00  0.00     0.109 A 
ATOM      2  C   UNL d   1       0.476   1.449  -0.331  0.00  0.00     0.059 A 
ATOM      3  C   UNL d   1      -1.383   0.110  -1.353  0.00  0.00     0.105 C 
ATOM      4  N   UNL d   1      -2.332  -0.024  -2.012  0.00  0.00    -0.191 NA
ATOM      5  C   UNL d   1       0.560  -0.967  -0.422  0.00  0.00     0.139 A 
ATOM      6  F   UNL d   1      -0.016  -2.152  -0.678  0.00  0.00    -0.204 F 
ATOM      7  C   UNL d   1       1.830   1.442   0.054  0.00  0.00     0.031 A 
ATOM      8  C   UNL d   1       2.525   0.243   0.236  0.00  0.00     0.005 A 
ATOM      9  C   UNL d   1       1.876  -0.967   0.029  0.00  0.00     0.044 A 
ENDROOT
BRANCH   2  10
ATOM     10  N   UNL d   1      -0.144   2.730  -0.345  0.00  0.00    -0.321 N 
ATOM     11  C   UNL d   1      -1.475   2.962  -0.036  0.00  0.00     0.256 C 
ATOM     12  O   UNL d   1      -2.306   2.103   0.228  0.00  0.00    -0.267 OA
ATOM     13  H   UNL d   1       0.474   3.530  -0.335  0.00  0.00     0.169 HD
BRANCH  11  14
ATOM     14  C   UNL d   1      -1.901   4.383   0.080  0.00  0.00     0.032 A 
ATOM     15  C   UNL d   1      -3.206   4.714  -0.317  0.00  0.00     0.018 A 
ATOM     16  C   UNL d   1      -3.706   6.000  -0.098  0.00  0.00     0.025 A 
ATOM     17  C   UNL d   1      -2.905   6.954   0.525  0.00  0.00     0.034 A 
ATOM     18  C   UNL d   1      -1.602   6.639   0.914  0.00  0.00     0.025 A 
ATOM     19 CL   UNL d   1      -3.535   8.521   0.849  0.00  0.00    -0.084 Cl
ATOM     20  C   UNL d   1      -1.096   5.352   0.694  0.00  0.00     0.018 A 
ENDBRANCH  11  14
ENDBRANCH   2  10
TORSDOF 2
