REMARK  1 active torsions:
REMARK  status: ('A' for Active; 'I' for Inactive)
REMARK    1  A    between atoms: C_7  and  C_1 
ROOT
ATOM      1  C   UNL d   1       2.277   0.743   0.017  0.00  0.00     0.167 A 
ATOM      2  N   UNL d   1       1.167   1.401   0.076  0.00  0.00    -0.335 N 
ATOM      3  HN  UNL d   1       1.155   2.420   0.129  1.00  0.00     0.168 HD
ATOM      4  O   UNL d   1       2.407  -0.602  -0.017  0.00  0.00    -0.256 OA
ATOM      5  C   UNL d   1       1.308  -1.387   0.071  0.00  0.00     0.302 A 
ATOM      6  C   UNL d   1       0.000  -0.722   0.080  0.00  0.00     0.067 A 
ATOM      7  C   UNL d   1      -0.011   0.663   0.064  0.00  0.00     0.050 A 
ATOM      8  C   UNL d   1      -1.193  -1.456   0.071  0.00  0.00     0.026 A 
ATOM      9  O   UNL d   1       1.390  -2.611   0.109  0.00  0.00    -0.259 OA
ATOM     10  C   UNL d   1      -1.233   1.331   0.002  0.00  0.00     0.031 A 
ATOM     11  C   UNL d   1      -2.422  -0.787   0.032  0.00  0.00    -0.061 A 
ATOM     12  C   UNL d   1      -2.432   0.613  -0.019  0.00  0.00     0.009 A 
ATOM     13  C   UNL d   1      -3.716  -1.544   0.016  0.00  0.00     0.048 C 
ENDROOT
BRANCH   1  14
ATOM     14  C   UNL d   1       3.603   1.383  -0.087  0.00  0.00     0.076 A 
ATOM     15  C   UNL d   1       4.696   0.809   0.573  0.00  0.00     0.132 A 
ATOM     16  F   UNL d   1       4.536  -0.252   1.377  0.00  0.00    -0.205 F 
ATOM     17  C   UNL d   1       5.984   1.324   0.431  0.00  0.00     0.043 A 
ATOM     18  C   UNL d   1       6.197   2.443  -0.367  0.00  0.00     0.005 A 
ATOM     19  C   UNL d   1       5.115   3.054  -0.999  0.00  0.00     0.025 A 
ATOM     20  C   UNL d   1       3.819   2.533  -0.861  0.00  0.00     0.051 A 
ATOM     21 CL   UNL d   1       2.573   3.361  -1.729  0.00  0.00    -0.083 Cl
ENDBRANCH   1  14
TORSDOF 1
