REMARK  13 active torsions:
REMARK  status: ('A' for Active; 'I' for Inactive)
REMARK    1  A    between atoms: C_6  and  C_1 
REMARK    2  A    between atoms: N_2  and  C_10 
REMARK    3  A    between atoms: C_8  and  C_3 
REMARK    4  A    between atoms: S_7  and  C_4 
REMARK    5  A    between atoms: O_12  and  C_6 
REMARK    6  A    between atoms: C_9  and  S_7 
REMARK    7  A    between atoms: O_13  and  C_8 
REMARK    8  A    between atoms: C_22  and  O_12 
REMARK    9  A    between atoms: C_23  and  O_13 
REMARK   10  A    between atoms: C_14  and  C_22 
REMARK   11  A    between atoms: C_17  and  C_14 
REMARK   12  A    between atoms: C_15  and  C_23 
REMARK   13  A    between atoms: C_18  and  C_15 
ROOT
ATOM      1  C   UNL d   1       1.283  -0.096  -0.384  0.00  0.00     0.059 A 
ATOM      2  C   UNL d   1       0.498  -1.271  -0.286  0.00  0.00     0.022 A 
ATOM      3  C   UNL d   1       0.648   1.163  -0.279  0.00  0.00     0.055 A 
ATOM      4  C   UNL d   1      -0.734   1.252  -0.060  0.00  0.00     0.103 A 
ATOM      5  C   UNL d   1      -0.893  -1.149  -0.088  0.00  0.00     0.022 A 
ATOM      6  C   UNL d   1      -1.511   0.098   0.023  0.00  0.00     0.037 A 
ENDROOT
BRANCH   2   7
ATOM      7  S   UNL d   1       1.121  -2.951  -0.199  0.00  0.00    -0.088 SA
BRANCH   7   8
ATOM      8  C   UNL d   1       1.089  -3.492  -1.909  0.00  0.00     0.021 A 
ATOM      9  C   UNL d   1      -0.005  -4.102  -2.565  0.00  0.00     0.056 A 
ATOM     10  C   UNL d   1       0.160  -4.550  -3.893  0.00  0.00     0.019 A 
ATOM     11  C   UNL d   1       1.387  -4.418  -4.554  0.00  0.00     0.001 A 
ATOM     12  C   UNL d   1       2.465  -3.836  -3.901  0.00  0.00     0.001 A 
ATOM     13  C   UNL d   1       2.315  -3.378  -2.594  0.00  0.00     0.020 A 
BRANCH   9  14
ATOM     14  C   UNL d   1      -1.291  -4.408  -1.859  0.00  0.00     0.295 C 
ATOM     15  O   UNL d   1      -1.389  -4.557  -0.653  0.00  0.00    -0.259 OA
BRANCH  14  16
ATOM     16  O   UNL d   1      -2.325  -4.546  -2.733  0.00  0.00    -0.310 OA
BRANCH  16  17
ATOM     17  C   UNL d   1      -3.563  -5.010  -2.168  0.00  0.00     0.263 C 
BRANCH  17  18
ATOM     18  C   UNL d   1      -4.739  -4.048  -2.348  0.00  0.00     0.183 C 
ATOM     19  O   UNL d   1      -4.631  -2.982  -2.951  0.00  0.00    -0.290 OA
BRANCH  18  20
ATOM     20  C   UNL d   1      -6.073  -4.431  -1.763  0.00  0.00     0.012 A 
ATOM     21  C   UNL d   1      -6.281  -5.636  -1.076  0.00  0.00     0.016 A 
ATOM     22  C   UNL d   1      -7.539  -5.939  -0.537  0.00  0.00     0.020 A 
ATOM     23  C   UNL d   1      -8.596  -5.041  -0.685  0.00  0.00     0.011 A 
ATOM     24  C   UNL d   1      -8.408  -3.845  -1.370  0.00  0.00     0.020 A 
ATOM     25 BR   UNL d   1     -10.287  -5.453   0.052  0.00  0.00    -0.051 Br
ATOM     26  C   UNL d   1      -7.151  -3.542  -1.908  0.00  0.00     0.016 A 
ENDBRANCH  18  20
ENDBRANCH  17  18
ENDBRANCH  16  17
ENDBRANCH  14  16
ENDBRANCH   9  14
ENDBRANCH   7   8
ENDBRANCH   2   7
BRANCH   1  27
ATOM     27  C   UNL d   1       2.778  -0.136  -0.516  0.00  0.00     0.295 C 
ATOM     28  O   UNL d   1       3.463  -1.144  -0.458  0.00  0.00    -0.259 OA
BRANCH  27  29
ATOM     29  O   UNL d   1       3.287   1.114  -0.673  0.00  0.00    -0.310 OA
BRANCH  29  30
ATOM     30  C   UNL d   1       4.715   1.213  -0.685  0.00  0.00     0.263 C 
BRANCH  30  31
ATOM     31  C   UNL d   1       5.249   2.003  -1.875  0.00  0.00     0.183 C 
ATOM     32  O   UNL d   1       4.514   2.578  -2.676  0.00  0.00    -0.290 OA
BRANCH  31  33
ATOM     33  C   UNL d   1       6.737   2.064  -2.060  0.00  0.00     0.012 A 
ATOM     34  C   UNL d   1       7.627   1.466  -1.156  0.00  0.00     0.016 A 
ATOM     35  C   UNL d   1       9.007   1.518  -1.381  0.00  0.00     0.020 A 
ATOM     36  C   UNL d   1       9.503   2.173  -2.505  0.00  0.00     0.011 A 
ATOM     37  C   UNL d   1       8.633   2.784  -3.405  0.00  0.00     0.020 A 
ATOM     38 BR   UNL d   1      11.367   2.228  -2.808  0.00  0.00    -0.051 Br
ATOM     39  C   UNL d   1       7.252   2.730  -3.183  0.00  0.00     0.016 A 
ENDBRANCH  31  33
ENDBRANCH  30  31
ENDBRANCH  29  30
ENDBRANCH  27  29
ENDBRANCH   1  27
BRANCH   4  40
ATOM     40  N   UNL d   1      -1.361   2.567   0.136  0.00  0.00    -0.116 N 
ATOM     41  O   UNL d   1      -0.626   3.563   0.124  0.00  0.00    -0.532 OA
ATOM     42  O   UNL d   1      -2.586   2.598   0.322  0.00  0.00    -0.532 OA
ENDBRANCH   4  40
TORSDOF 13
