REMARK  2 active torsions:
REMARK  status: ('A' for Active; 'I' for Inactive)
REMARK    1  A    between atoms: N_3  and  C_1 
REMARK    2  A    between atoms: C_6  and  C_2 
ROOT
ATOM      1  C   UNL d   1      -2.730  -1.661  -0.018  0.00  0.00     0.115 C 
ATOM      2  C   UNL d   1      -3.465  -0.411  -0.371  0.00  0.00     0.223 C 
ATOM      3  C   UNL d   1      -1.413  -1.721   0.222  0.00  0.00     0.049 C 
ATOM      4  O   UNL d   1      -2.751   0.791   0.019  0.00  0.00    -0.334 OA
ATOM      5  C   UNL d   1      -0.651  -0.470   0.104  0.00  0.00     0.011 A 
ATOM      6  C   UNL d   1      -1.382   0.729   0.033  0.00  0.00     0.081 A 
ATOM      7  C   UNL d   1       0.775  -0.430   0.070  0.00  0.00    -0.013 A 
ATOM      8  C   UNL d   1      -0.736   1.960   0.003  0.00  0.00     0.038 A 
ATOM      9  C   UNL d   1       1.416   0.837   0.007  0.00  0.00    -0.025 A 
ATOM     10  C   UNL d   1       0.653   2.012  -0.011  0.00  0.00     0.015 A 
ATOM     11  C   UNL d   1       1.612  -1.574   0.077  0.00  0.00     0.013 A 
ATOM     12  C   UNL d   1       2.817   0.921  -0.043  0.00  0.00     0.012 A 
ATOM     13  C   UNL d   1       3.005  -1.474   0.022  0.00  0.00     0.001 A 
ATOM     14  C   UNL d   1       3.607  -0.227  -0.038  0.00  0.00     0.001 A 
ENDROOT
BRANCH   2  15
ATOM     15  C   UNL d   1      -4.857  -0.213   0.197  0.00  0.00     0.037 A 
ATOM     16  C   UNL d   1      -5.169  -0.226   1.565  0.00  0.00     0.046 A 
ATOM     17 CL   UNL d   1      -3.981  -0.535   2.780  0.00  0.00    -0.084 Cl
ATOM     18  C   UNL d   1      -6.477   0.026   2.004  0.00  0.00     0.024 A 
ATOM     19  C   UNL d   1      -7.493   0.298   1.089  0.00  0.00     0.005 A 
ATOM     20  C   UNL d   1      -7.203   0.312  -0.270  0.00  0.00     0.043 A 
ATOM     21  C   UNL d   1      -5.902   0.060  -0.699  0.00  0.00     0.127 A 
ATOM     22  F   UNL d   1      -5.658   0.097  -2.018  0.00  0.00    -0.205 F 
ENDBRANCH   2  15
BRANCH   1  23
ATOM     23  N   UNL d   1      -3.465  -2.907  -0.059  0.00  0.00    -0.117 N 
ATOM     24  O   UNL d   1      -3.056  -3.848   0.634  0.00  0.00    -0.532 OA
ATOM     25  O   UNL d   1      -4.448  -2.958  -0.808  0.00  0.00    -0.532 OA
ENDBRANCH   1  23
TORSDOF 2
