REMARK  4 active torsions:
REMARK  status: ('A' for Active; 'I' for Inactive)
REMARK    1  A    between atoms: C_3  and  N_1 
REMARK    2  A    between atoms: C_2  and  C_8 
REMARK    3  A    between atoms: N_13  and  C_2 
REMARK    4  A    between atoms: O_14  and  N_6 
ROOT
ATOM      1  C   UNL d   1      -1.204   7.064   4.594  0.00  0.00     0.102 A 
ATOM      2  C   UNL d   1      -1.909   4.449   3.866  0.00  0.00     0.004 A 
ATOM      3  C   UNL d   1      -0.351   6.315   3.774  0.00  0.00     0.037 A 
ATOM      4  C   UNL d   1      -2.409   6.516   5.053  0.00  0.00     0.037 A 
ATOM      5  C   UNL d   1      -2.756   5.212   4.685  0.00  0.00     0.017 A 
ATOM      6  C   UNL d   1      -0.703   5.007   3.417  0.00  0.00     0.017 A 
ENDROOT
BRANCH   2   7
ATOM      7  C   UNL d   1      -2.297   3.046   3.500  0.00  0.00     0.108 C 
ATOM      8  N   UNL d   1      -3.400   2.556   3.993  0.00  0.00    -0.258 N 
ATOM      9  HN  UNL d   1      -4.019   3.055   4.633  1.00  0.00     0.195 HD
BRANCH   8  10
ATOM     10  O   UNL d   1      -3.624   1.249   3.527  0.00  0.00    -0.289 OA
ATOM     11  H   UNL d   1      -4.434   0.999   4.011  0.00  0.00     0.244 HD
ENDBRANCH   8  10
BRANCH   7  12
ATOM     12  N   UNL d   1      -1.495   2.308   2.661  0.00  0.00    -0.287 NA
ATOM     13  H   UNL d   1      -1.178   2.788   1.829  0.00  0.00     0.125 HD
ATOM     14  H   UNL d   1      -1.983   1.446   2.421  0.00  0.00     0.125 HD
ENDBRANCH   7  12
ENDBRANCH   2   7
BRANCH   1  15
ATOM     15  N   UNL d   1      -0.831   8.430   4.982  0.00  0.00    -0.116 N 
ATOM     16  O   UNL d   1       0.242   8.878   4.549  0.00  0.00    -0.532 OA
ATOM     17  O   UNL d   1      -1.607   9.054   5.718  0.00  0.00    -0.532 OA
ENDBRANCH   1  15
TORSDOF 4
