REMARK  2 active torsions:
REMARK  status: ('A' for Active; 'I' for Inactive)
REMARK    1  A    between atoms: C_8  and  C_3 
REMARK    2  A    between atoms: C_10  and  C_7 
ROOT
ATOM      1  N   UNL d   1       1.565  -0.085  -0.043  0.00  0.00    -0.331 N 
ATOM      2  HN  UNL d   1       2.510  -0.467  -0.099  1.00  0.00     0.168 HD
ATOM      3  C   UNL d   1       1.197   1.155   0.007  0.00  0.00     0.162 A 
ATOM      4  C   UNL d   1       0.371  -0.758  -0.001  0.00  0.00     0.111 A 
ATOM      5  O   UNL d   1      -0.129   1.415   0.076  0.00  0.00    -0.256 OA
ATOM      6  C   UNL d   1      -0.762   0.211   0.076  0.00  0.00     0.316 A 
ATOM      7  C   UNL d   1       0.271  -2.094  -0.026  0.00  0.00     0.047 C 
ATOM      8  O   UNL d   1      -1.960   0.021   0.131  0.00  0.00    -0.257 OA
ENDROOT
BRANCH   7   9
ATOM      9  C   UNL d   1      -0.987  -2.839   0.007  0.00  0.00    -0.032 A 
ATOM     10  C   UNL d   1      -1.632  -3.177  -1.188  0.00  0.00     0.037 A 
ATOM     11  C   UNL d   1      -2.853  -3.859  -1.161  0.00  0.00     0.056 A 
ATOM     12 CL   UNL d   1      -3.590  -4.242  -2.677  0.00  0.00    -0.083 Cl
ATOM     13  C   UNL d   1      -3.433  -4.206   0.064  0.00  0.00     0.055 A 
ATOM     14  C   UNL d   1      -2.784  -3.876   1.257  0.00  0.00     0.026 A 
ATOM     15 CL   UNL d   1      -4.941  -5.041   0.172  0.00  0.00    -0.083 Cl
ATOM     16  C   UNL d   1      -1.565  -3.195   1.230  0.00  0.00     0.013 A 
ENDBRANCH   7   9
BRANCH   3  17
ATOM     17  C   UNL d   1       2.066   2.342   0.001  0.00  0.00     0.016 A 
ATOM     18  C   UNL d   1       1.533   3.632   0.133  0.00  0.00     0.022 A 
ATOM     19  C   UNL d   1       2.377   4.751   0.148  0.00  0.00    -0.061 A 
ATOM     20  C   UNL d   1       1.816   6.134   0.307  0.00  0.00     0.048 C 
ATOM     21  C   UNL d   1       3.759   4.566   0.019  0.00  0.00     0.007 A 
ATOM     22  C   UNL d   1       4.292   3.283  -0.118  0.00  0.00     0.002 A 
ATOM     23  C   UNL d   1       3.449   2.171  -0.125  0.00  0.00     0.016 A 
ENDBRANCH   3  17
TORSDOF 2
