REMARK  4 active torsions:
REMARK  status: ('A' for Active; 'I' for Inactive)
REMARK    1  A    between atoms: C_10  and  C_3 
REMARK    2  A    between atoms: N_4  and  C_9 
REMARK    3  A    between atoms: C_14  and  C_8 
REMARK    4  A    between atoms: S_15  and  C_14 
ROOT
ATOM      1  N   UNL d   1       0.585  -0.470   0.819  0.00  0.00    -0.277 N 
ATOM      2  HN  UNL d   1       1.049  -0.913   1.612  1.00  0.00     0.189 HD
ATOM      3  C   UNL d   1      -0.244  -1.045  -0.029  0.00  0.00     0.174 A 
ATOM      4  O   UNL d   1      -0.693  -0.178  -0.994  0.00  0.00    -0.277 OA
ATOM      5  N   UNL d   1       0.703   0.845   0.426  0.00  0.00    -0.281 N 
ATOM      6  HN  UNL d   1       1.276   1.565   0.866  1.00  0.00     0.189 HD
ATOM      7  C   UNL d   1      -0.070   0.988  -0.630  0.00  0.00     0.149 A 
ENDROOT
BRANCH   3   8
ATOM      8  C   UNL d   1      -0.747  -2.412  -0.062  0.00  0.00     0.019 A 
ATOM      9  C   UNL d   1      -1.586  -2.866  -1.089  0.00  0.00     0.052 A 
ATOM     10  C   UNL d   1      -2.056  -4.189  -1.080  0.00  0.00     0.103 A 
ATOM     11  C   UNL d   1      -1.702  -5.068  -0.049  0.00  0.00     0.036 A 
ATOM     12  C   UNL d   1      -0.870  -4.620   0.976  0.00  0.00     0.003 A 
ATOM     13  C   UNL d   1      -0.395  -3.305   0.965  0.00  0.00     0.016 A 
BRANCH  10  14
ATOM     14  N   UNL d   1      -2.929  -4.655  -2.166  0.00  0.00    -0.116 N 
ATOM     15  O   UNL d   1      -3.213  -3.848  -3.061  0.00  0.00    -0.532 OA
ATOM     16  O   UNL d   1      -3.327  -5.826  -2.120  0.00  0.00    -0.532 OA
ENDBRANCH  10  14
ENDBRANCH   3   8
BRANCH   7  17
ATOM     17  C   UNL d   1      -0.356   2.207  -1.420  0.00  0.00     0.159 C 
BRANCH  17  18
ATOM     18  S   UNL d   1      -1.835   3.100  -0.830  0.00  0.00    -0.165 SA
ATOM     19  C   UNL d   1      -1.292   3.493   0.855  0.00  0.00     0.090 C 
ENDBRANCH  17  18
ENDBRANCH   7  17
TORSDOF 4
