REMARK  3 active torsions:
REMARK  status: ('A' for Active; 'I' for Inactive)
REMARK    1  A    between atoms: N_3  and  C_1 
REMARK    2  A    between atoms: C_5  and  C_2 
REMARK    3  A    between atoms: O_13  and  C_10 
ROOT
ATOM      1  C   UNL d   1       2.120  -0.032  -0.183  0.00  0.00     0.183 C 
ATOM      2  C   UNL d   1       1.158   1.129   0.086  0.00  0.00     0.149 C 
ATOM      3  N   UNL d   1      -0.246   0.761   0.232  0.00  0.00    -0.350 N 
ATOM      4  C   UNL d   1      -0.691  -0.460   0.646  0.00  0.00     0.218 C 
ATOM      5  C   UNL d   1       1.697  -1.302   0.558  0.00  0.00     0.043 C 
ATOM      6  O   UNL d   1      -1.819  -0.581   1.113  0.00  0.00    -0.274 OA
ATOM      7  C   UNL d   1       0.218  -1.637   0.395  0.00  0.00     0.105 C 
ATOM      8  H   UNL d   1      -0.902   1.505   0.444  0.00  0.00     0.163 HD
ENDROOT
BRANCH   2   9
ATOM      9  C   UNL d   1       1.325   2.352  -0.797  0.00  0.00     0.000 A 
ATOM     10  C   UNL d   1       2.401   3.234  -0.617  0.00  0.00     0.076 A 
ATOM     11  C   UNL d   1       2.561   4.353  -1.439  0.00  0.00     0.037 A 
ATOM     12  C   UNL d   1       1.640   4.611  -2.452  0.00  0.00     0.003 A 
ATOM     13  C   UNL d   1       0.574   3.738  -2.661  0.00  0.00     0.001 A 
ATOM     14  C   UNL d   1       0.422   2.617  -1.844  0.00  0.00     0.012 A 
BRANCH  10  15
ATOM     15  O   UNL d   1       3.389   2.942   0.285  0.00  0.00    -0.355 OA
ATOM     16  C   UNL d   1       3.109   3.475   1.580  0.00  0.00     0.210 C 
ENDBRANCH  10  15
ENDBRANCH   2   9
BRANCH   1  17
ATOM     17  N   UNL d   1       2.251  -0.320  -1.653  0.00  0.00    -0.148 N 
ATOM     18  O   UNL d   1       3.399  -0.359  -2.113  0.00  0.00    -0.536 OA
ATOM     19  O   UNL d   1       1.218  -0.556  -2.300  0.00  0.00    -0.536 OA
ENDBRANCH   1  17
TORSDOF 3
