REMARK  8 active torsions:
REMARK  status: ('A' for Active; 'I' for Inactive)
REMARK    1  A    between atoms: N_15  and  C_3 
REMARK    2  A    between atoms: C_7  and  C_6 
REMARK    3  A    between atoms: C_8  and  C_7 
REMARK       I    between atoms: N_10  and  C_8 
REMARK    4  A    between atoms: C_9  and  N_10 
REMARK    5  A    between atoms: C_23  and  N_15 
REMARK    6  A    between atoms: C_21  and  C_23 
REMARK    7  A    between atoms: C_24  and  C_21 
REMARK    8  A    between atoms: O_22  and  C_24 
ROOT
ATOM      1  N   UNL d   1      -0.900  -1.494   0.069  0.00  0.00    -0.307 N 
ATOM      2  HN  UNL d   1      -1.519  -2.224   0.419  1.00  0.00     0.171 HD
ATOM      3  C   UNL d   1       0.323  -1.692  -0.272  0.00  0.00     0.143 C 
ATOM      4  C   UNL d   1      -1.278  -0.175  -0.095  0.00  0.00     0.238 C 
ATOM      5  S   UNL d   1       1.211  -0.306  -0.856  0.00  0.00    -0.079 SA
ATOM      6  C   UNL d   1      -0.112   0.790  -0.232  0.00  0.00     0.156 C 
ATOM      7  O   UNL d   1      -2.436   0.216  -0.077  0.00  0.00    -0.272 OA
ENDROOT
BRANCH   6   8
ATOM      8  C   UNL d   1      -0.386   1.914  -1.211  0.00  0.00     0.128 C 
BRANCH   8   9
ATOM      9  C   UNL d   1      -1.053   3.150  -0.614  0.00  0.00     0.223 C 
ATOM     10  N   UNL d   1      -2.237   2.949   0.063  0.00  0.00    -0.326 N 
ATOM     11  H   UNL d   1      -2.612   1.996   0.124  0.00  0.00     0.169 HD
ATOM     12  O   UNL d   1      -0.559   4.250  -0.867  0.00  0.00    -0.273 OA
BRANCH  10  13
ATOM     13  C   UNL d   1      -3.200   3.965   0.352  0.00  0.00     0.058 C 
ATOM     14  C   UNL d   1      -2.915   5.333   0.255  0.00  0.00     0.055 C 
ATOM     15  C   UNL d   1      -3.945   6.277   0.285  0.00  0.00     0.036 C 
ATOM     16 CL   UNL d   1      -3.576   7.949   0.108  0.00  0.00    -0.084 Cl
ATOM     17  C   UNL d   1      -5.269   5.878   0.433  0.00  0.00     0.026 C 
ATOM     18  C   UNL d   1      -5.557   4.533   0.649  0.00  0.00     0.028 C 
ATOM     19  C   UNL d   1      -4.527   3.587   0.644  0.00  0.00     0.060 C 
ATOM     20 CL   UNL d   1      -4.948   1.947   0.981  0.00  0.00    -0.082 Cl
ENDBRANCH  10  13
ENDBRANCH   8   9
ENDBRANCH   6   8
BRANCH   3  21
ATOM     21  N   UNL d   1       1.041  -2.840  -0.223  0.00  0.00    -0.371 N 
ATOM     22  H   UNL d   1       1.974  -2.824  -0.617  0.00  0.00     0.161 HD
BRANCH  21  23
ATOM     23  C   UNL d   1       0.563  -4.103   0.298  0.00  0.00     0.123 C 
BRANCH  23  24
ATOM     24  C   UNL d   1      -0.231  -4.851  -0.767  0.00  0.00     0.046 C 
BRANCH  24  25
ATOM     25  C   UNL d   1      -0.622  -6.251  -0.310  0.00  0.00     0.168 C 
BRANCH  25  26
ATOM     26  O   UNL d   1      -1.391  -6.159   0.885  0.00  0.00    -0.396 OA
ATOM     27  C   UNL d   1      -1.846  -7.432   1.324  0.00  0.00     0.201 C 
ENDBRANCH  25  26
ENDBRANCH  24  25
ENDBRANCH  23  24
ENDBRANCH  21  23
ENDBRANCH   3  21
TORSDOF 8
