REMARK  6 active torsions:
REMARK  status: ('A' for Active; 'I' for Inactive)
REMARK    1  A    between atoms: S_4  and  C_1 
REMARK    2  A    between atoms: S_5  and  C_1 
REMARK    3  A    between atoms: C_2  and  C_6 
REMARK    4  A    between atoms: C_7  and  S_4 
REMARK    5  A    between atoms: C_8  and  S_5 
REMARK    6  A    between atoms: O_10  and  C_6 
ROOT
ATOM      1  C   UNL d   1      -0.077   1.139  -0.038  0.00  0.00     0.075 A 
ATOM      2  C   UNL d   1       0.761  -0.087   0.316  0.00  0.00     0.045 A 
ATOM      3  C   UNL d   1      -0.671  -0.298  -0.069  0.00  0.00     0.020 A 
ATOM      4  C   UNL d   1      -1.603  -0.874   0.948  0.00  0.00     0.013 C 
ENDROOT
BRANCH   1   5
ATOM      5  S   UNL d   1      -0.881   2.198   1.144  0.00  0.00    -0.108 SA
BRANCH   5   6
ATOM      6  C   UNL d   1       0.465   2.784   2.146  0.00  0.00     0.002 A 
ATOM      7  C   UNL d   1       1.065   4.017   1.863  0.00  0.00     0.018 A 
ATOM      8  C   UNL d   1       2.074   4.522   2.687  0.00  0.00     0.001 A 
ATOM      9  C   UNL d   1       2.463   3.815   3.823  0.00  0.00     0.000 A 
ATOM     10  C   UNL d   1       1.846   2.605   4.133  0.00  0.00     0.001 A 
ATOM     11  C   UNL d   1       0.849   2.091   3.299  0.00  0.00     0.018 A 
ENDBRANCH   5   6
ENDBRANCH   1   5
BRANCH   1  12
ATOM     12  S   UNL d   1       0.000   1.932  -1.618  0.00  0.00    -0.108 SA
BRANCH  12  13
ATOM     13  C   UNL d   1       1.722   2.366  -1.825  0.00  0.00     0.002 A 
ATOM     14  C   UNL d   1       2.175   2.562  -3.138  0.00  0.00     0.018 A 
ATOM     15  C   UNL d   1       3.498   2.937  -3.397  0.00  0.00     0.001 A 
ATOM     16  C   UNL d   1       4.385   3.131  -2.344  0.00  0.00     0.000 A 
ATOM     17  C   UNL d   1       3.954   2.941  -1.036  0.00  0.00     0.001 A 
ATOM     18  C   UNL d   1       2.633   2.557  -0.784  0.00  0.00     0.018 A 
ENDBRANCH  12  13
ENDBRANCH   1  12
BRANCH   2  19
ATOM     19  C   UNL d   1       1.792  -0.715  -0.566  0.00  0.00     0.171 C 
BRANCH  19  20
ATOM     20  O   UNL d   1       2.112  -2.002  -0.048  0.00  0.00    -0.400 OA
ATOM     21  H   UNL d   1       1.298  -2.534  -0.093  0.00  0.00     0.209 HD
ENDBRANCH  19  20
ENDBRANCH   2  19
TORSDOF 6
