REMARK  7 active torsions:
REMARK  status: ('A' for Active; 'I' for Inactive)
REMARK    1  A    between atoms: N_2  and  S_1 
REMARK    2  A    between atoms: C_8  and  S_1 
REMARK    3  A    between atoms: C_3  and  N_2 
REMARK    4  A    between atoms: C_4  and  N_12 
REMARK    5  A    between atoms: N_5  and  C_4 
REMARK    6  A    between atoms: C_6  and  N_5 
REMARK    7  A    between atoms: N_12  and  C_20 
ROOT
ATOM      1  C   UNL d   1      -0.210  -1.522   0.127  0.00  0.00     0.075 A 
ATOM      2  C   UNL d   1       0.021  -2.443  -0.899  0.00  0.00     0.027 A 
ATOM      3  C   UNL d   1      -0.851  -1.928   1.300  0.00  0.00     0.027 A 
ATOM      4  C   UNL d   1      -0.915  -4.216   0.479  0.00  0.00     0.034 A 
ATOM      5  C   UNL d   1      -0.330  -3.786  -0.719  0.00  0.00     0.031 A 
ATOM      6  C   UNL d   1      -1.212  -3.272   1.468  0.00  0.00     0.031 A 
ENDROOT
BRANCH   4   7
ATOM      7  N   UNL d   1      -1.006  -5.609   0.706  0.00  0.00    -0.333 N 
ATOM      8  H   UNL d   1      -0.452  -6.202   0.099  0.00  0.00     0.168 HD
BRANCH   7   9
ATOM      9  C   UNL d   1      -1.770  -6.292   1.612  0.00  0.00     0.176 C 
ATOM     10  S   UNL d   1      -3.364  -5.943   1.994  0.00  0.00    -0.041 SA
BRANCH   9  11
ATOM     11  N   UNL d   1      -1.236  -7.442   2.140  0.00  0.00    -0.333 N 
ATOM     12  H   UNL d   1      -1.950  -8.022   2.565  0.00  0.00     0.168 HD
BRANCH  11  13
ATOM     13  C   UNL d   1       0.093  -7.724   2.568  0.00  0.00     0.042 A 
ATOM     14  C   UNL d   1       0.378  -8.969   3.187  0.00  0.00    -0.013 A 
ATOM     15  C   UNL d   1       1.648  -9.155   3.784  0.00  0.00     0.042 A 
ATOM     16  C   UNL d   1      -0.635 -10.085   3.281  0.00  0.00     0.052 C 
ATOM     17 CL   UNL d   1       2.057 -10.605   4.640  0.00  0.00    -0.084 Cl
ATOM     18  C   UNL d   1       2.624  -8.160   3.736  0.00  0.00     0.024 A 
ATOM     19  C   UNL d   1       2.356  -6.965   3.087  0.00  0.00     0.004 A 
ATOM     20  C   UNL d   1       1.102  -6.750   2.513  0.00  0.00     0.030 A 
ENDBRANCH  11  13
ENDBRANCH   9  11
ENDBRANCH   7   9
ENDBRANCH   4   7
BRANCH   1  21
ATOM     21  S   UNL d   1       0.562   0.086   0.046  0.00  0.00     0.246 S 
ATOM     22  O   UNL d   1       0.719   0.553   1.408  0.00  0.00    -0.206 OA
ATOM     23  O   UNL d   1       1.697  -0.014  -0.844  0.00  0.00    -0.206 OA
BRANCH  21  24
ATOM     24  N   UNL d   1      -0.629   1.074  -0.645  0.00  0.00    -0.178 NA
ATOM     25  H   UNL d   1      -0.608   1.970  -0.151  0.00  0.00     0.146 HD
BRANCH  24  26
ATOM     26  C   UNL d   1      -0.612   1.177  -2.075  0.00  0.00     0.064 A 
ATOM     27  C   UNL d   1      -1.338   0.272  -2.833  0.00  0.00     0.069 A 
ATOM     28  C   UNL d   1      -1.264   0.338  -4.223  0.00  0.00     0.118 A 
ATOM     29  F   UNL d   1      -1.966  -0.528  -4.960  0.00  0.00    -0.206 F 
ATOM     30  C   UNL d   1      -0.467   1.289  -4.861  0.00  0.00     0.045 A 
ATOM     31  C   UNL d   1       0.271   2.192  -4.099  0.00  0.00     0.047 A 
ATOM     32  C   UNL d   1       0.198   2.129  -2.709  0.00  0.00     0.138 A 
ATOM     33  F   UNL d   1       0.909   2.999  -1.976  0.00  0.00    -0.204 F 
ENDBRANCH  24  26
ENDBRANCH  21  24
ENDBRANCH   1  21
TORSDOF 7
