REMARK  4 active torsions:
REMARK  status: ('A' for Active; 'I' for Inactive)
REMARK    1  A    between atoms: C_12  and  N_4 
REMARK    2  A    between atoms: N_18  and  C_11 
REMARK    3  A    between atoms: C_21  and  N_18 
REMARK    4  A    between atoms: C_20  and  C_21 
ROOT
ATOM      1  C   UNL d   1       0.064   0.760   0.089  0.00  0.00     0.141 C 
ATOM      2  C   UNL d   1       0.001  -0.592  -0.033  0.00  0.00     0.128 C 
ATOM      3  N   UNL d   1       1.344   1.355   0.205  0.00  0.00    -0.288 N 
ATOM      4  N   UNL d   1      -1.149   1.516   0.077  0.00  0.00    -0.262 N 
ATOM      5  N   UNL d   1       2.433  -0.719  -0.080  0.00  0.00    -0.270 N 
ATOM      6  C   UNL d   1       2.539   0.640   0.057  0.00  0.00     0.332 C 
ATOM      7  C   UNL d   1       1.244  -1.403  -0.028  0.00  0.00     0.269 C 
ATOM      8  C   UNL d   1      -2.418   0.925   0.010  0.00  0.00     0.269 C 
ATOM      9  C   UNL d   1      -2.435  -0.495   0.345  0.00  0.00     0.094 C 
ATOM     10  C   UNL d   1      -1.303  -1.316  -0.071  0.00  0.00     0.208 C 
ATOM     11  C   UNL d   1      -3.427  -0.984   1.106  0.00  0.00     0.078 C 
ATOM     12  O   UNL d   1       3.642   1.195   0.061  0.00  0.00    -0.246 OA
ATOM     13  O   UNL d   1       1.209  -2.628   0.044  0.00  0.00    -0.267 OA
ATOM     14  O   UNL d   1      -3.469   1.526  -0.216  0.00  0.00    -0.266 OA
ATOM     15  O   UNL d   1      -1.449  -2.488  -0.385  0.00  0.00    -0.286 OA
ATOM     16  C   UNL d   1       1.565   2.778   0.439  0.00  0.00     0.163 C 
ATOM     17  C   UNL d   1       3.651  -1.516  -0.129  0.00  0.00     0.164 C 
ENDROOT
BRANCH  11  18
ATOM     18  N   UNL d   1      -4.428  -0.269   1.761  0.00  0.00    -0.297 NA
ATOM     19  H   UNL d   1      -4.162   0.716   1.849  0.00  0.00     0.127 HD
BRANCH  18  20
ATOM     20  C   UNL d   1      -5.785  -0.240   1.212  0.00  0.00     0.130 C 
BRANCH  20  21
ATOM     21  C   UNL d   1      -6.770  -0.577   2.294  0.00  0.00    -0.045 A 
ATOM     22  C   UNL d   1      -7.298   0.417   3.132  0.00  0.00     0.008 A 
ATOM     23  C   UNL d   1      -8.216   0.082   4.129  0.00  0.00     0.001 A 
ATOM     24  C   UNL d   1      -8.604  -1.245   4.301  0.00  0.00     0.000 A 
ATOM     25  C   UNL d   1      -8.073  -2.241   3.486  0.00  0.00     0.001 A 
ATOM     26  C   UNL d   1      -7.153  -1.910   2.490  0.00  0.00     0.008 A 
ENDBRANCH  20  21
ENDBRANCH  18  20
ENDBRANCH  11  18
BRANCH   4  27
ATOM     27  C   UNL d   1      -1.275   2.908   0.344  0.00  0.00     0.044 A 
ATOM     28  C   UNL d   1      -1.651   3.300   1.641  0.00  0.00     0.030 A 
ATOM     29  C   UNL d   1      -1.830   4.644   1.941  0.00  0.00     0.002 A 
ATOM     30  C   UNL d   1      -1.657   5.600   0.940  0.00  0.00     0.000 A 
ATOM     31  C   UNL d   1      -1.336   5.209  -0.361  0.00  0.00     0.002 A 
ATOM     32  C   UNL d   1      -1.160   3.858  -0.672  0.00  0.00     0.030 A 
ENDBRANCH   4  27
TORSDOF 4
