REMARK  4 active torsions:
REMARK  status: ('A' for Active; 'I' for Inactive)
REMARK    1  A    between atoms: C_6  and  C_1 
REMARK    2  A    between atoms: O_12  and  C_2 
REMARK    3  A    between atoms: C_7  and  C_3 
REMARK    4  A    between atoms: N_4  and  C_6 
ROOT
ATOM      1  C   UNL d   1       1.644  -0.264   0.847  0.00  0.00     0.003 A 
ATOM      2  C   UNL d   1       0.749  -1.322   0.619  0.00  0.00     0.077 A 
ATOM      3  C   UNL d   1      -1.084   0.215   0.256  0.00  0.00     0.012 A 
ATOM      4  C   UNL d   1      -0.608  -1.093   0.359  0.00  0.00     0.052 A 
ATOM      5  C   UNL d   1       1.153   1.045   0.718  0.00  0.00     0.012 A 
ATOM      6  C   UNL d   1      -0.196   1.283   0.439  0.00  0.00     0.016 A 
ENDROOT
BRANCH   1   7
ATOM      7  C   UNL d   1       3.107  -0.530   1.150  0.00  0.00     0.314 C 
BRANCH   7   8
ATOM      8  N   UNL d   1       3.758   0.480   2.004  0.00  0.00     0.096 N 
ATOM      9  C   UNL d   1       3.251   0.468   3.397  0.00  0.00     0.299 C 
ATOM     10  C   UNL d   1       3.754  -0.707   4.253  0.00  0.00     0.198 C 
ATOM     11  O   UNL d   1       5.184  -0.782   4.252  0.00  0.00    -0.388 OA
ATOM     12  C   UNL d   1       5.681  -0.901   2.915  0.00  0.00     0.198 C 
ATOM     13  C   UNL d   1       5.225   0.281   2.043  0.00  0.00     0.299 C 
ENDBRANCH   7   8
ENDBRANCH   1   7
BRANCH   2  14
ATOM     14  O   UNL d   1       1.165  -2.626   0.728  0.00  0.00    -0.355 OA
ATOM     15  C   UNL d   1       1.623  -3.108  -0.537  0.00  0.00     0.210 C 
ENDBRANCH   2  14
BRANCH   3  16
ATOM     16  C   UNL d   1      -2.512   0.528  -0.035  0.00  0.00     0.155 C 
ATOM     17  O   UNL d   1      -2.954   1.647   0.223  0.00  0.00    -0.293 OA
ATOM     18  C   UNL d   1      -3.401  -0.530  -0.637  0.00  0.00     0.096 C 
ENDBRANCH   3  16
TORSDOF 4
