REMARK  4 active torsions:
REMARK  status: ('A' for Active; 'I' for Inactive)
REMARK    1  A    between atoms: C_6  and  C_1 
REMARK    2  A    between atoms: C_8  and  C_3 
REMARK    3  A    between atoms: C_9  and  C_4 
REMARK    4  A    between atoms: S_20  and  C_18 
ROOT
ATOM      1  C   UNL d   1      -1.440   0.691   0.004  0.00  0.00     0.011 A 
ATOM      2  N   UNL d   1       0.704   0.064  -0.045  0.00  0.00    -0.349 N 
ATOM      3  C   UNL d   1      -0.134   1.185   0.019  0.00  0.00     0.056 A 
ATOM      4  C   UNL d   1      -0.037  -1.117  -0.040  0.00  0.00     0.045 A 
ATOM      5  C   UNL d   1      -1.369  -0.723  -0.067  0.00  0.00     0.045 A 
ATOM      6  C   UNL d   1       2.155   0.098  -0.113  0.00  0.00     0.156 C 
ENDROOT
BRANCH   3   7
ATOM      7  C   UNL d   1       0.345   2.586   0.021  0.00  0.00    -0.008 A 
ATOM      8  C   UNL d   1      -0.208   3.534  -0.849  0.00  0.00     0.015 A 
ATOM      9  C   UNL d   1       0.150   4.890  -0.769  0.00  0.00     0.019 A 
ATOM     10  C   UNL d   1       1.135   5.312   0.123  0.00  0.00    -0.000 A 
ATOM     11  C   UNL d   1       1.731   4.359   0.954  0.00  0.00     0.019 A 
ATOM     12  C   UNL d   1       1.315   3.022   0.930  0.00  0.00     0.015 A 
BRANCH  10  13
ATOM     13  S   UNL d   1       1.647   7.010   0.347  0.00  0.00    -0.134 SA
ATOM     14  C   UNL d   1       1.156   7.790  -1.212  0.00  0.00     0.095 C 
ENDBRANCH  10  13
ENDBRANCH   3   7
BRANCH   1  15
ATOM     15  C   UNL d   1      -2.729   1.474   0.048  0.00  0.00     0.017 A 
ATOM     16  S   UNL d   1      -4.216   0.865  -0.557  0.00  0.00    -0.101 SA
ATOM     17  C   UNL d   1      -5.024   2.345  -0.266  0.00  0.00     0.050 A 
ATOM     18  C   UNL d   1      -4.210   3.259   0.359  0.00  0.00     0.008 A 
ATOM     19  C   UNL d   1      -2.898   2.741   0.575  0.00  0.00     0.020 A 
ENDBRANCH   1  15
BRANCH   4  20
ATOM     20  C   UNL d   1       0.484  -2.499   0.052  0.00  0.00    -0.009 A 
ATOM     21  C   UNL d   1       1.603  -2.939  -0.672  0.00  0.00     0.015 A 
ATOM     22  C   UNL d   1       2.106  -4.237  -0.516  0.00  0.00     0.024 A 
ATOM     23  C   UNL d   1       1.459  -5.137   0.321  0.00  0.00     0.034 A 
ATOM     24  C   UNL d   1       0.313  -4.744   1.004  0.00  0.00     0.024 A 
ATOM     25 CL   UNL d   1       2.068  -6.734   0.501  0.00  0.00    -0.084 Cl
ATOM     26  C   UNL d   1      -0.165  -3.435   0.872  0.00  0.00     0.015 A 
ENDBRANCH   4  20
TORSDOF 4
