REMARK  4 active torsions:
REMARK  status: ('A' for Active; 'I' for Inactive)
REMARK    1  A    between atoms: N_2  and  C_1 
REMARK    2  A    between atoms: N_5  and  C_1 
REMARK    3  A    between atoms: C_3  and  N_2 
REMARK    4  A    between atoms: C_8  and  N_5 
ROOT
ATOM      1  N   UNL d   1       0.531   0.865  -0.842  0.00  0.00    -0.331 N 
ATOM      2  H   UNL d   1       0.040   1.648  -0.437  0.00  0.00     0.168 HD
ENDROOT
BRANCH   1   3
ATOM      3  C   UNL d   1       1.020  -0.012   0.083  0.00  0.00     0.172 C 
ATOM      4  S   UNL d   1       2.597  -0.562   0.190  0.00  0.00    -0.041 SA
BRANCH   3   5
ATOM      5  N   UNL d   1       0.155  -0.413   1.058  0.00  0.00    -0.359 N 
ATOM      6  H   UNL d   1       0.611  -1.034   1.721  0.00  0.00     0.162 HD
BRANCH   5   7
ATOM      7  C   UNL d   1      -1.320  -0.349   1.147  0.00  0.00     0.021 C 
ATOM      8  C   UNL d   1      -1.989  -0.797  -0.162  0.00  0.00     0.037 C 
ATOM      9  C   UNL d   1      -1.757  -1.326   2.258  0.00  0.00     0.037 C 
ATOM     10  C   UNL d   1      -1.799   1.056   1.541  0.00  0.00     0.037 C 
ENDBRANCH   5   7
ENDBRANCH   3   5
ENDBRANCH   1   3
BRANCH   1  11
ATOM     11  C   UNL d   1       0.921   1.004  -2.193  0.00  0.00     0.073 A 
ATOM     12  C   UNL d   1       1.302  -0.080  -3.000  0.00  0.00     0.145 A 
ATOM     13  C   UNL d   1       1.629   0.101  -4.341  0.00  0.00     0.086 A 
ATOM     14  F   UNL d   1       1.267  -1.336  -2.532  0.00  0.00    -0.204 F 
ATOM     15  C   UNL d   1       1.562   1.375  -4.885  0.00  0.00     0.119 A 
ATOM     16  C   UNL d   1       1.159   2.462  -4.116  0.00  0.00     0.044 A 
ATOM     17  F   UNL d   1       1.867   1.558  -6.175  0.00  0.00    -0.206 F 
ATOM     18  C   UNL d   1       0.824   2.275  -2.772  0.00  0.00     0.036 A 
ENDBRANCH   1  11
TORSDOF 4
