REMARK  6 active torsions:
REMARK  status: ('A' for Active; 'I' for Inactive)
REMARK    1  A    between atoms: C_6  and  C_1 
REMARK    2  A    between atoms: N_3  and  C_2 
REMARK       I    between atoms: C_4  and  N_3 
REMARK    3  A    between atoms: C_10  and  C_4 
REMARK    4  A    between atoms: O_15  and  C_6 
REMARK    5  A    between atoms: O_16  and  C_8 
REMARK    6  A    between atoms: O_17  and  C_9 
ROOT
ATOM      1  C   UNL d   1       1.062  -0.201   0.304  0.00  0.00     0.069 C 
ATOM      2  C   UNL d   1       0.431  -1.250  -0.378  0.00  0.00     0.054 C 
ATOM      3  C   UNL d   1       0.364   0.998   0.500  0.00  0.00     0.059 C 
ATOM      4  C   UNL d   1      -0.949  -1.169  -0.608  0.00  0.00     0.070 C 
ATOM      5  C   UNL d   1      -0.981   1.129   0.146  0.00  0.00     0.102 C 
ATOM      6  C   UNL d   1      -1.667   0.015  -0.356  0.00  0.00     0.103 C 
ENDROOT
BRANCH   2   7
ATOM      7  N   UNL d   1       1.131  -2.431  -0.695  0.00  0.00    -0.322 N 
ATOM      8  C   UNL d   1       1.582  -2.895  -1.923  0.00  0.00     0.256 C 
ATOM      9  O   UNL d   1       2.537  -3.681  -1.856  0.00  0.00    -0.267 OA
ATOM     10  H   UNL d   1       1.891  -2.640  -0.038  0.00  0.00     0.169 HD
BRANCH   8  11
ATOM     11  C   UNL d   1       1.068  -2.568  -3.298  0.00  0.00     0.032 A 
ATOM     12  C   UNL d   1      -0.033  -1.782  -3.630  0.00  0.00     0.017 A 
ATOM     13  C   UNL d   1      -0.485  -1.670  -4.956  0.00  0.00     0.007 A 
ATOM     14  C   UNL d   1       0.183  -2.310  -6.000  0.00  0.00    -0.062 A 
ATOM     15  C   UNL d   1       1.324  -3.050  -5.700  0.00  0.00     0.007 A 
ATOM     16  C   UNL d   1      -0.365  -2.270  -7.396  0.00  0.00     0.048 C 
ATOM     17  C   UNL d   1       1.757  -3.172  -4.373  0.00  0.00     0.017 A 
ENDBRANCH   8  11
ENDBRANCH   2   7
BRANCH   1  18
ATOM     18  C   UNL d   1       2.413  -0.365   0.915  0.00  0.00     0.295 C 
ATOM     19  O   UNL d   1       2.935  -1.448   1.122  0.00  0.00    -0.259 OA
BRANCH  18  20
ATOM     20  O   UNL d   1       2.895   0.845   1.298  0.00  0.00    -0.322 OA
ATOM     21  C   UNL d   1       4.000   0.804   2.196  0.00  0.00     0.213 C 
ENDBRANCH  18  20
ENDBRANCH   1  18
BRANCH   6  22
ATOM     22  O   UNL d   1      -2.999   0.144  -0.642  0.00  0.00    -0.353 OA
ATOM     23  C   UNL d   1      -3.782  -1.045  -0.643  0.00  0.00     0.210 C 
ENDBRANCH   6  22
BRANCH   5  24
ATOM     24  O   UNL d   1      -1.435   2.398   0.378  0.00  0.00    -0.353 OA
ATOM     25  C   UNL d   1      -2.830   2.644   0.380  0.00  0.00     0.210 C 
ENDBRANCH   5  24
TORSDOF 6
