REMARK  3 active torsions:
REMARK  status: ('A' for Active; 'I' for Inactive)
REMARK    1  A    between atoms: C_2  and  C_1 
REMARK    2  A    between atoms: C_6  and  C_2 
REMARK    3  A    between atoms: C_15  and  C_5 
ROOT
ATOM      1  C   UNL d   1       1.406   2.219  -0.070  0.00  0.00     0.206 C 
ATOM      2  O   UNL d   1       0.698   1.999  -1.048  0.00  0.00    -0.285 OA
ENDROOT
BRANCH   1   3
ATOM      3  C   UNL d   1       0.728   2.450   1.250  0.00  0.00     0.081 C 
ATOM      4  N   UNL d   1       1.203   1.999   2.374  0.00  0.00    -0.321 N 
ATOM      5  N   UNL d   1       0.360   2.445   3.335  0.00  0.00    -0.239 NA
ATOM      6  HN  UNL d   1       2.037   1.427   2.505  1.00  0.00     0.180 HD
ATOM      7  C   UNL d   1      -0.921   2.886   2.781  0.00  0.00     0.126 C 
ATOM      8  H   UNL d   1       0.263   1.794   4.117  0.00  0.00     0.146 HD
ATOM      9  C   UNL d   1      -0.575   3.183   1.315  0.00  0.00     0.088 C 
BRANCH   9  10
ATOM     10  C   UNL d   1      -0.457   4.653   0.985  0.00  0.00    -0.047 A 
ATOM     11  C   UNL d   1      -1.169   5.179  -0.103  0.00  0.00     0.008 A 
ATOM     12  C   UNL d   1      -1.116   6.543  -0.394  0.00  0.00     0.001 A 
ATOM     13  C   UNL d   1      -0.344   7.396   0.392  0.00  0.00     0.000 A 
ATOM     14  C   UNL d   1       0.390   6.883   1.459  0.00  0.00     0.001 A 
ATOM     15  C   UNL d   1       0.338   5.521   1.751  0.00  0.00     0.008 A 
ENDBRANCH   9  10
ENDBRANCH   1   3
BRANCH   1  16
ATOM     16  C   UNL d   1       2.885   2.228  -0.158  0.00  0.00     0.017 A 
ATOM     17  C   UNL d   1       3.676   2.903   0.775  0.00  0.00     0.028 A 
ATOM     18  C   UNL d   1       5.078   2.870   0.696  0.00  0.00    -0.024 A 
ATOM     19  C   UNL d   1       5.831   3.557   1.650  0.00  0.00     0.013 A 
ATOM     20  C   UNL d   1       5.729   2.148  -0.337  0.00  0.00    -0.015 A 
ATOM     21  C   UNL d   1       7.222   3.553   1.600  0.00  0.00     0.013 A 
ATOM     22  C   UNL d   1       7.899   2.849   0.602  0.00  0.00    -0.025 A 
ATOM     23  C   UNL d   1       7.169   2.125  -0.375  0.00  0.00    -0.015 A 
ATOM     24  C   UNL d   1       9.304   2.865   0.578  0.00  0.00     0.012 A 
ATOM     25  C   UNL d   1       7.929   1.414  -1.339  0.00  0.00     0.013 A 
ATOM     26  C   UNL d   1       9.326   1.432  -1.348  0.00  0.00     0.001 A 
ATOM     27  C   UNL d   1      10.015   2.164  -0.392  0.00  0.00     0.001 A 
ATOM     28  C   UNL d   1       4.896   1.493  -1.279  0.00  0.00     0.014 A 
ATOM     29  C   UNL d   1       3.500   1.538  -1.198  0.00  0.00     0.016 A 
ENDBRANCH   1  16
TORSDOF 3
