REMARK  1 active torsions:
REMARK  status: ('A' for Active; 'I' for Inactive)
REMARK    1  A    between atoms: C_8  and  N_6 
ROOT
ATOM      1  C   UNL d   1      -0.463  -1.011  -0.369  0.00  0.00     0.146 C 
ATOM      2  S   UNL d   1       1.291  -1.032  -0.613  0.00  0.00    -0.057 SA
ATOM      3  N   UNL d   1      -0.876   0.269  -0.091  0.00  0.00    -0.357 N 
ATOM      4  C   UNL d   1       1.423   0.676  -0.277  0.00  0.00     0.004 C 
ATOM      5  C   UNL d   1       0.061   1.352  -0.368  0.00  0.00     0.058 C 
ATOM      6  N   UNL d   1      -1.296  -1.998  -0.456  0.00  0.00    -0.337 N 
ATOM      7  HN  UNL d   1      -2.282  -1.827  -0.259  1.00  0.00     0.168 HD
ATOM      8  C   UNL d   1       2.593   1.204   0.108  0.00  0.00     0.029 C 
ATOM      9  C   UNL d   1      -0.157   2.471   0.652  0.00  0.00     0.044 C 
ATOM     10  C   UNL d   1      -0.175   1.876  -1.792  0.00  0.00     0.044 C 
ATOM     11  H   UNL d   1      -1.868   0.429  -0.209  0.00  0.00     0.162 HD
ENDROOT
BRANCH   6  12
ATOM     12  C   UNL d   1      -0.892  -3.296  -0.811  0.00  0.00     0.035 A 
ATOM     13  C   UNL d   1       0.152  -3.979  -0.178  0.00  0.00     0.036 A 
ATOM     14  C   UNL d   1       0.600  -5.217  -0.654  0.00  0.00    -0.059 A 
ATOM     15  C   UNL d   1       1.839  -5.844  -0.090  0.00  0.00     0.048 C 
ATOM     16  C   UNL d   1      -0.101  -5.841  -1.691  0.00  0.00     0.013 A 
ATOM     17  C   UNL d   1      -1.221  -5.227  -2.265  0.00  0.00    -0.059 A 
ATOM     18  C   UNL d   1      -1.594  -3.948  -1.829  0.00  0.00     0.036 A 
ATOM     19  C   UNL d   1      -1.988  -5.931  -3.345  0.00  0.00     0.048 C 
ENDBRANCH   6  12
TORSDOF 1
