REMARK  8 active torsions:
REMARK  status: ('A' for Active; 'I' for Inactive)
REMARK    1  A    between atoms: N_2  and  S_1 
REMARK    2  A    between atoms: C_7  and  S_1 
REMARK    3  A    between atoms: C_4  and  N_2 
REMARK    4  A    between atoms: C_3  and  N_13 
REMARK    5  A    between atoms: N_5  and  C_3 
REMARK       I    between atoms: C_6  and  N_5 
REMARK    6  A    between atoms: C_14  and  C_6 
REMARK    7  A    between atoms: N_13  and  C_26 
REMARK    8  A    between atoms: C_15  and  C_14 
ROOT
ATOM      1  C   UNL d   1       1.516  -1.171  -1.509  0.00  0.00     0.080 A 
ATOM      2  C   UNL d   1       2.180  -2.399  -1.417  0.00  0.00     0.027 A 
ATOM      3  C   UNL d   1       0.645  -0.928  -2.573  0.00  0.00     0.027 A 
ATOM      4  C   UNL d   1       0.950  -3.222  -3.346  0.00  0.00     0.034 A 
ATOM      5  C   UNL d   1       0.355  -1.959  -3.477  0.00  0.00     0.031 A 
ATOM      6  C   UNL d   1       1.909  -3.414  -2.347  0.00  0.00     0.031 A 
ENDROOT
BRANCH   4   7
ATOM      7  N   UNL d   1       0.407  -4.283  -4.110  0.00  0.00    -0.333 N 
ATOM      8  H   UNL d   1      -0.563  -4.154  -4.398  0.00  0.00     0.168 HD
BRANCH   7   9
ATOM      9  C   UNL d   1       0.947  -5.496  -4.451  0.00  0.00     0.179 C 
ATOM     10  S   UNL d   1       2.567  -5.865  -4.651  0.00  0.00    -0.040 SA
BRANCH   9  11
ATOM     11  N   UNL d   1       0.046  -6.519  -4.703  0.00  0.00    -0.300 N 
ATOM     12  C   UNL d   1      -1.333  -6.554  -4.543  0.00  0.00     0.247 C 
ATOM     13  O   UNL d   1      -2.030  -5.580  -4.285  0.00  0.00    -0.268 OA
ATOM     14  H   UNL d   1       0.512  -7.383  -4.944  0.00  0.00     0.171 HD
BRANCH  12  15
ATOM     15  C   UNL d   1      -1.897  -7.919  -4.761  0.00  0.00     0.076 C 
BRANCH  15  16
ATOM     16  C   UNL d   1      -3.204  -8.168  -4.563  0.00  0.00     0.024 C 
ATOM     17  C   UNL d   1      -3.816  -9.451  -4.752  0.00  0.00     0.004 A 
ATOM     18  S   UNL d   1      -3.052 -10.766  -5.572  0.00  0.00    -0.102 SA
ATOM     19  C   UNL d   1      -5.089  -9.832  -4.346  0.00  0.00     0.019 A 
ATOM     20  C   UNL d   1      -4.393 -11.799  -5.364  0.00  0.00     0.050 A 
ATOM     21  C   UNL d   1      -5.418 -11.179  -4.691  0.00  0.00     0.008 A 
ENDBRANCH  15  16
ENDBRANCH  12  15
ENDBRANCH   9  11
ENDBRANCH   7   9
ENDBRANCH   4   7
BRANCH   1  22
ATOM     22  S   UNL d   1       1.494  -0.086  -0.087  0.00  0.00     0.263 S 
ATOM     23  O   UNL d   1       0.363   0.806  -0.229  0.00  0.00    -0.200 OA
ATOM     24  O   UNL d   1       1.632  -0.931   1.081  0.00  0.00    -0.200 OA
BRANCH  22  25
ATOM     25  N   UNL d   1       2.916   0.812  -0.179  0.00  0.00    -0.277 N 
ATOM     26  H   UNL d   1       3.735   0.228  -0.006  0.00  0.00     0.179 HD
BRANCH  25  27
ATOM     27  C   UNL d   1       3.046   1.765  -1.232  0.00  0.00     0.084 A 
ATOM     28  C   UNL d   1       2.402   2.999  -1.145  0.00  0.00     0.075 A 
ATOM     29  C   UNL d   1       2.550   3.911  -2.184  0.00  0.00     0.118 A 
ATOM     30  F   UNL d   1       1.958   5.110  -2.100  0.00  0.00    -0.206 F 
ATOM     31  C   UNL d   1       3.309   3.605  -3.313  0.00  0.00     0.045 A 
ATOM     32  C   UNL d   1       3.936   2.362  -3.405  0.00  0.00     0.047 A 
ATOM     33  C   UNL d   1       3.801   1.452  -2.364  0.00  0.00     0.143 A 
ATOM     34  F   UNL d   1       4.415   0.263  -2.442  0.00  0.00    -0.204 F 
ENDBRANCH  25  27
ENDBRANCH  22  25
ENDBRANCH   1  22
TORSDOF 8
