REMARK  4 active torsions:
REMARK  status: ('A' for Active; 'I' for Inactive)
REMARK    1  A    between atoms: C_3  and  C_1 
REMARK       I    between atoms: N_8  and  C_3 
REMARK    2  A    between atoms: C_13  and  C_5 
REMARK    3  A    between atoms: N_6  and  C_9 
REMARK    4  A    between atoms: C_16  and  N_8 
ROOT
ATOM      1  C   UNL d   1       0.207  -2.642   0.104  0.00  0.00     0.258 C 
ATOM      2  N   UNL d   1      -0.825  -3.553   0.274  0.00  0.00    -0.323 N 
ATOM      3  O   UNL d   1       1.383  -2.949  -0.048  0.00  0.00    -0.267 OA
ATOM      4  H   UNL d   1      -1.767  -3.193   0.256  0.00  0.00     0.169 HD
ENDROOT
BRANCH   1   5
ATOM      5  C   UNL d   1      -0.208  -1.238   0.115  0.00  0.00     0.064 A 
ATOM      6  C   UNL d   1      -1.504  -0.656   0.286  0.00  0.00     0.057 A 
ATOM      7  C   UNL d   1      -1.357   0.715   0.221  0.00  0.00     0.087 A 
ATOM      8  O   UNL d   1      -0.041   1.016   0.043  0.00  0.00    -0.314 OA
ATOM      9  C   UNL d   1       0.651  -0.155  -0.016  0.00  0.00     0.065 A 
ATOM     10  C   UNL d   1       2.115   0.003  -0.189  0.00  0.00     0.077 C 
BRANCH   7  11
ATOM     11  C   UNL d   1      -2.280   1.843   0.296  0.00  0.00    -0.002 A 
ATOM     12  C   UNL d   1      -1.821   3.151   0.513  0.00  0.00     0.014 A 
ATOM     13  C   UNL d   1      -2.716   4.221   0.593  0.00  0.00     0.001 A 
ATOM     14  C   UNL d   1      -4.084   3.999   0.454  0.00  0.00     0.000 A 
ATOM     15  C   UNL d   1      -4.558   2.709   0.231  0.00  0.00     0.001 A 
ATOM     16  C   UNL d   1      -3.662   1.639   0.154  0.00  0.00     0.014 A 
ENDBRANCH   7  11
ENDBRANCH   1   5
BRANCH   2  17
ATOM     17  C   UNL d   1      -0.697  -4.943   0.494  0.00  0.00     0.035 A 
ATOM     18  C   UNL d   1       0.531  -5.589   0.678  0.00  0.00     0.032 A 
ATOM     19  C   UNL d   1       0.591  -6.958   0.960  0.00  0.00     0.038 A 
ATOM     20  C   UNL d   1      -0.592  -7.694   1.056  0.00  0.00     0.103 A 
ATOM     21  C   UNL d   1      -1.829  -7.072   0.853  0.00  0.00     0.038 A 
ATOM     22  C   UNL d   1      -1.875  -5.699   0.575  0.00  0.00     0.032 A 
BRANCH  20  23
ATOM     23  N   UNL d   1      -0.533  -9.122   1.390  0.00  0.00    -0.116 N 
ATOM     24  O   UNL d   1       0.581  -9.624   1.595  0.00  0.00    -0.532 OA
ATOM     25  O   UNL d   1      -1.606  -9.742   1.455  0.00  0.00    -0.532 OA
ENDBRANCH  20  23
ENDBRANCH   2  17
TORSDOF 4
