REMARK  2 active torsions:
REMARK  status: ('A' for Active; 'I' for Inactive)
REMARK    1  A    between atoms: C_4  and  N_1 
REMARK    2  A    between atoms: C_6  and  C_3 
ROOT
ATOM      1  N   UNL d   1       1.077  -0.114  -0.057  0.00  0.00    -0.365 N 
ATOM      2  HN  UNL d   1       0.615   0.770  -0.268  1.00  0.00     0.165 HD
ATOM      3  C   UNL d   1       0.379  -1.183   0.158  0.00  0.00     0.099 C 
ENDROOT
BRANCH   1   4
ATOM      4  C   UNL d   1       2.479  -0.185   0.004  0.00  0.00     0.032 A 
ATOM      5  C   UNL d   1       3.209   0.567  -0.923  0.00  0.00     0.031 A 
ATOM      6  C   UNL d   1       4.607   0.560  -0.918  0.00  0.00     0.026 A 
ATOM      7  C   UNL d   1       5.287  -0.205   0.025  0.00  0.00     0.034 A 
ATOM      8  C   UNL d   1       4.580  -0.946   0.968  0.00  0.00     0.026 A 
ATOM      9 CL   UNL d   1       7.007  -0.227   0.032  0.00  0.00    -0.084 Cl
ATOM     10  C   UNL d   1       3.183  -0.925   0.965  0.00  0.00     0.031 A 
ENDBRANCH   1   4
BRANCH   3  11
ATOM     11  C   UNL d   1      -1.095  -1.188   0.068  0.00  0.00    -0.021 A 
ATOM     12  C   UNL d   1      -1.792  -0.074  -0.409  0.00  0.00     0.013 A 
ATOM     13  C   UNL d   1      -3.182  -0.124  -0.525  0.00  0.00     0.001 A 
ATOM     14  C   UNL d   1      -3.874  -1.280  -0.159  0.00  0.00     0.000 A 
ATOM     15  C   UNL d   1      -3.178  -2.388   0.327  0.00  0.00     0.001 A 
ATOM     16  C   UNL d   1      -1.787  -2.346   0.439  0.00  0.00     0.013 A 
ENDBRANCH   3  11
TORSDOF 2
