REMARK  8 active torsions:
REMARK  status: ('A' for Active; 'I' for Inactive)
REMARK    1  A    between atoms: O_2  and  S_1 
REMARK    2  A    between atoms: C_3  and  S_1 
REMARK    3  A    between atoms: C_13  and  O_2 
REMARK    4  A    between atoms: C_4  and  C_7 
REMARK    5  A    between atoms: O_15  and  C_4 
REMARK    6  A    between atoms: C_21  and  O_15 
REMARK    7  A    between atoms: C_22  and  C_21 
REMARK    8  A    between atoms: C_23  and  C_22 
ROOT
ATOM      1  C   UNL d   1       1.410   0.829   5.275  0.00  0.00     0.039 A 
ATOM      2  C   UNL d   1       2.399   0.638   4.304  0.00  0.00     0.020 A 
ATOM      3  C   UNL d   1       0.091   1.083   4.876  0.00  0.00     0.020 A 
ATOM      4  C   UNL d   1       0.759   1.023   2.557  0.00  0.00     0.089 A 
ATOM      5  C   UNL d   1      -0.235   1.159   3.524  0.00  0.00     0.039 A 
ATOM      6  C   UNL d   1       2.071   0.733   2.946  0.00  0.00     0.039 A 
ENDROOT
BRANCH   4   7
ATOM      7  O   UNL d   1       0.534   1.162   1.211  0.00  0.00    -0.229 OA
BRANCH   7   8
ATOM      8  S   UNL d   1      -0.757   2.004   0.663  0.00  0.00     0.303 S 
ATOM      9  O   UNL d   1      -0.864   3.245   1.409  0.00  0.00    -0.193 OA
ATOM     10  O   UNL d   1      -1.887   1.101   0.545  0.00  0.00    -0.193 OA
BRANCH   8  11
ATOM     11  C   UNL d   1      -0.305   2.457  -0.991  0.00  0.00     0.086 A 
ATOM     12  C   UNL d   1       0.377   1.548  -1.802  0.00  0.00     0.027 A 
ATOM     13  C   UNL d   1       0.759   1.939  -3.088  0.00  0.00     0.025 A 
ATOM     14  C   UNL d   1       0.462   3.225  -3.545  0.00  0.00     0.034 A 
ATOM     15  C   UNL d   1      -0.220   4.130  -2.729  0.00  0.00     0.025 A 
ATOM     16 CL   UNL d   1       0.947   3.703  -5.123  0.00  0.00    -0.084 Cl
ATOM     17  C   UNL d   1      -0.605   3.747  -1.447  0.00  0.00     0.027 A 
ENDBRANCH   8  11
ENDBRANCH   7   8
ENDBRANCH   4   7
BRANCH   1  18
ATOM     18  C   UNL d   1       1.752   0.640   6.711  0.00  0.00     0.293 C 
ATOM     19  O   UNL d   1       2.821   0.219   7.115  0.00  0.00    -0.259 OA
BRANCH  18  20
ATOM     20  O   UNL d   1       0.642   0.860   7.458  0.00  0.00    -0.318 OA
BRANCH  20  21
ATOM     21  C   UNL d   1       0.393  -0.125   8.460  0.00  0.00     0.179 C 
BRANCH  21  22
ATOM     22  C   UNL d   1       0.403   0.493   9.848  0.00  0.00     0.026 C 
BRANCH  22  23
ATOM     23  C   UNL d   1      -0.010  -0.558  10.876  0.00  0.00    -0.002 C 
ATOM     24  C   UNL d   1       0.011  -0.014  12.291  0.00  0.00     0.005 C 
ENDBRANCH  22  23
ENDBRANCH  21  22
ENDBRANCH  20  21
ENDBRANCH  18  20
ENDBRANCH   1  18
TORSDOF 8
