REMARK  3 active torsions:
REMARK  status: ('A' for Active; 'I' for Inactive)
REMARK    1  A    between atoms: C_7  and  N_1 
REMARK    2  A    between atoms: C_6  and  C_4 
REMARK    3  A    between atoms: C_10  and  C_6 
ROOT
ATOM      1  N   UNL d   1      -0.236  -1.314   0.038  0.00  0.00    -0.238 N 
ATOM      2  C   UNL d   1      -1.292  -0.423  -0.047  0.00  0.00     0.298 A 
ATOM      3  C   UNL d   1       1.028  -0.736   0.059  0.00  0.00     0.273 A 
ATOM      4  C   UNL d   1       0.927   0.748   0.033  0.00  0.00     0.079 A 
ATOM      5  S   UNL d   1      -0.706   1.236  -0.083  0.00  0.00    -0.023 SA
ATOM      6  O   UNL d   1      -2.493  -0.638  -0.056  0.00  0.00    -0.259 OA
ATOM      7  O   UNL d   1       2.121  -1.290   0.054  0.00  0.00    -0.266 OA
ENDROOT
BRANCH   4   8
ATOM      8  C   UNL d   1       2.016   1.526   0.099  0.00  0.00     0.036 C 
BRANCH   8   9
ATOM      9  C   UNL d   1       2.003   2.989   0.122  0.00  0.00    -0.035 A 
ATOM     10  C   UNL d   1       1.960   3.660   1.352  0.00  0.00     0.014 A 
ATOM     11  C   UNL d   1       1.942   5.054   1.387  0.00  0.00     0.043 A 
ATOM     12  C   UNL d   1       1.965   5.769   0.196  0.00  0.00     0.116 A 
ATOM     13  C   UNL d   1       2.010   5.117  -1.032  0.00  0.00     0.043 A 
ATOM     14  F   UNL d   1       1.946   7.108   0.231  0.00  0.00    -0.206 F 
ATOM     15  C   UNL d   1       2.028   3.722  -1.071  0.00  0.00     0.014 A 
ENDBRANCH   8   9
ENDBRANCH   4   8
BRANCH   1  16
ATOM     16  C   UNL d   1      -0.429  -2.738   0.088  0.00  0.00     0.046 A 
ATOM     17  C   UNL d   1      -1.600  -3.343  -0.400  0.00  0.00     0.030 A 
ATOM     18  C   UNL d   1      -1.775  -4.732  -0.367  0.00  0.00     0.002 A 
ATOM     19  C   UNL d   1      -0.786  -5.551   0.164  0.00  0.00     0.000 A 
ATOM     20  C   UNL d   1       0.375  -4.979   0.667  0.00  0.00     0.002 A 
ATOM     21  C   UNL d   1       0.549  -3.591   0.629  0.00  0.00     0.030 A 
ENDBRANCH   1  16
TORSDOF 3
