REMARK  4 active torsions:
REMARK  status: ('A' for Active; 'I' for Inactive)
REMARK    1  A    between atoms: N_2  and  S_1 
REMARK    2  A    between atoms: C_3  and  S_1 
REMARK    3  A    between atoms: C_12  and  C_4 
REMARK    4  A    between atoms: O_16  and  C_4 
ROOT
ATOM      1  N   UNL d   1       0.349   0.755  -1.220  0.00  0.00    -0.206 NA
ATOM      2  C   UNL d   1      -0.987   2.647  -3.043  0.00  0.00     0.087 C 
ATOM      3  C   UNL d   1       0.483   2.782  -2.606  0.00  0.00     0.058 C 
ATOM      4  C   UNL d   1      -1.426   1.177  -2.892  0.00  0.00     0.058 C 
ATOM      5  C   UNL d   1      -1.109   0.619  -1.501  0.00  0.00     0.111 C 
ATOM      6  C   UNL d   1       0.736   2.195  -1.226  0.00  0.00     0.111 C 
ENDROOT
BRANCH   1   7
ATOM      7  S   UNL d   1       0.888  -0.019   0.219  0.00  0.00     0.243 S 
ATOM      8  O   UNL d   1      -0.013   0.375   1.284  0.00  0.00    -0.206 OA
ATOM      9  O   UNL d   1       2.315   0.188   0.334  0.00  0.00    -0.206 OA
BRANCH   7  10
ATOM     10  C   UNL d   1       0.647  -1.744  -0.106  0.00  0.00     0.076 A 
ATOM     11  C   UNL d   1       1.402  -2.352  -1.112  0.00  0.00     0.048 A 
ATOM     12  C   UNL d   1       1.266  -3.722  -1.320  0.00  0.00     0.035 A 
ATOM     13 CL   UNL d   1       2.192  -4.495  -2.547  0.00  0.00    -0.084 Cl
ATOM     14  C   UNL d   1       0.394  -4.478  -0.534  0.00  0.00     0.024 A 
ATOM     15  C   UNL d   1      -0.353  -3.861   0.472  0.00  0.00     0.003 A 
ATOM     16  C   UNL d   1      -0.227  -2.490   0.691  0.00  0.00     0.025 A 
ENDBRANCH   7  10
ENDBRANCH   1   7
BRANCH   2  17
ATOM     17  C   UNL d   1      -1.257   3.194  -4.455  0.00  0.00    -0.024 A 
ATOM     18  C   UNL d   1      -0.244   3.737  -5.266  0.00  0.00     0.012 A 
ATOM     19  C   UNL d   1      -0.526   4.269  -6.529  0.00  0.00     0.024 A 
ATOM     20  C   UNL d   1      -1.831   4.267  -7.006  0.00  0.00     0.034 A 
ATOM     21  C   UNL d   1      -2.855   3.738  -6.228  0.00  0.00     0.024 A 
ATOM     22 CL   UNL d   1      -2.176   4.934  -8.553  0.00  0.00    -0.084 Cl
ATOM     23  C   UNL d   1      -2.571   3.209  -4.963  0.00  0.00     0.012 A 
ENDBRANCH   2  17
BRANCH   2  24
ATOM     24  O   UNL d   1      -1.773   3.437  -2.135  0.00  0.00    -0.385 OA
ATOM     25  H   UNL d   1      -1.767   4.354  -2.462  0.00  0.00     0.211 HD
ENDBRANCH   2  24
TORSDOF 4
