REMARK  2 active torsions:
REMARK  status: ('A' for Active; 'I' for Inactive)
REMARK       I    between atoms: N_2  and  C_1 
REMARK    1  A    between atoms: C_6  and  C_1 
REMARK    2  A    between atoms: C_7  and  N_2 
ROOT
ATOM      1  N   UNL d   1       5.074   4.506  -1.484  0.00  0.00    -0.191 NA
ATOM      2  C   UNL d   1       4.002   4.306  -1.093  0.00  0.00     0.099 C 
ATOM      3  C   UNL d   1       0.874   2.514  -0.087  0.00  0.00     0.036 A 
ATOM      4  C   UNL d   1       2.674   4.070  -0.603  0.00  0.00     0.046 A 
ATOM      5  C   UNL d   1       2.150   2.773  -0.599  0.00  0.00     0.052 A 
ATOM      6  C   UNL d   1       0.613   4.891   0.347  0.00  0.00     0.004 A 
ATOM      7  C   UNL d   1       0.094   3.592   0.347  0.00  0.00     0.029 A 
ATOM      8  C   UNL d   1       1.909   5.128  -0.113  0.00  0.00     0.023 A 
ENDROOT
BRANCH   3   9
ATOM      9  N   UNL d   1       0.340   1.208   0.051  0.00  0.00    -0.323 N 
ATOM     10  C   UNL d   1       1.082   0.037  -0.007  0.00  0.00     0.256 C 
ATOM     11  O   UNL d   1       2.291  -0.027  -0.215  0.00  0.00    -0.267 OA
ATOM     12  H   UNL d   1      -0.636   1.152   0.301  0.00  0.00     0.169 HD
BRANCH  10  13
ATOM     13  C   UNL d   1       0.374  -1.254   0.226  0.00  0.00     0.035 A 
ATOM     14  C   UNL d   1       1.012  -2.412  -0.233  0.00  0.00     0.034 A 
ATOM     15  C   UNL d   1       0.426  -3.637   0.016  0.00  0.00     0.088 A 
ATOM     16  N   UNL d   1      -0.738  -3.778   0.680  0.00  0.00    -0.375 N 
ATOM     17  C   UNL d   1      -1.333  -2.650   1.122  0.00  0.00     0.088 A 
ATOM     18  HN  UNL d   1      -1.151  -4.697   0.842  1.00  0.00     0.164 HD
ATOM     19  C   UNL d   1      -0.828  -1.373   0.924  0.00  0.00     0.034 A 
ENDBRANCH  10  13
ENDBRANCH   3   9
TORSDOF 2
