REMARK  1 active torsions:
REMARK  status: ('A' for Active; 'I' for Inactive)
REMARK    1  A    between atoms: C_7  and  N_1 
ROOT
ATOM      1  N   UNL d   1       0.552   1.109   0.118  0.00  0.00    -0.224 N 
ATOM      2  C   UNL d   1      -0.448   0.673   1.004  0.00  0.00     0.248 A 
ATOM      3  N   UNL d   1       0.810   0.216  -0.910  0.00  0.00    -0.299 N 
ATOM      4  HN  UNL d   1       1.496   0.324  -1.657  1.00  0.00     0.187 HD
ATOM      5  C   UNL d   1      -0.915  -0.631   0.433  0.00  0.00     0.158 A 
ATOM      6  C   UNL d   1       0.005  -0.784  -0.732  0.00  0.00     0.009 A 
ATOM      7  O   UNL d   1      -0.902   1.176   2.019  0.00  0.00    -0.271 OA
ATOM      8  C   UNL d   1      -0.024  -1.997  -1.595  0.00  0.00     0.065 C 
ENDROOT
BRANCH   1   9
ATOM      9  C   UNL d   1       1.311   2.305   0.189  0.00  0.00     0.059 A 
ATOM     10  C   UNL d   1       1.157   3.214   1.244  0.00  0.00     0.032 A 
ATOM     11  C   UNL d   1       1.924   4.383   1.309  0.00  0.00     0.009 A 
ATOM     12  C   UNL d   1       2.862   4.676   0.317  0.00  0.00    -0.062 A 
ATOM     13  C   UNL d   1       3.018   3.783  -0.746  0.00  0.00     0.009 A 
ATOM     14  C   UNL d   1       3.688   5.923   0.415  0.00  0.00     0.048 C 
ATOM     15  C   UNL d   1       2.252   2.612  -0.806  0.00  0.00     0.032 A 
ENDBRANCH   1   9
TORSDOF 1
