REMARK  5 active torsions:
REMARK  status: ('A' for Active; 'I' for Inactive)
REMARK    1  A    between atoms: C_2  and  C_1 
REMARK    2  A    between atoms: C_18  and  C_10 
REMARK    3  A    between atoms: C_12  and  C_15 
REMARK    4  A    between atoms: O_19  and  C_18 
REMARK    5  A    between atoms: C_20  and  O_19 
ROOT
ATOM      1  C   UNL d   1       3.979   0.570  -0.716  0.00  0.00     0.057 A 
ATOM      2  N   UNL d   1       4.857   1.442  -0.106  0.00  0.00    -0.351 N 
ATOM      3  HN  UNL d   1       4.959   2.426  -0.353  1.00  0.00     0.166 HD
ATOM      4  C   UNL d   1       4.048  -0.726  -0.242  0.00  0.00     0.082 A 
ATOM      5  C   UNL d   1       5.545   0.836   0.835  0.00  0.00     0.075 A 
ATOM      6  S   UNL d   1       5.222  -0.843   1.005  0.00  0.00    -0.084 SA
ENDROOT
BRANCH   5   7
ATOM      7  C   UNL d   1       6.561   1.511   1.700  0.00  0.00     0.240 C 
BRANCH   7   8
ATOM      8  O   UNL d   1       5.864   2.035   2.833  0.00  0.00    -0.345 OA
BRANCH   8   9
ATOM      9  C   UNL d   1       6.633   2.736   3.719  0.00  0.00     0.069 A 
ATOM     10  C   UNL d   1       5.962   3.699   4.471  0.00  0.00     0.037 A 
ATOM     11  C   UNL d   1       6.648   4.460   5.424  0.00  0.00     0.012 A 
ATOM     12  C   UNL d   1       8.019   4.258   5.653  0.00  0.00    -0.035 A 
ATOM     13  C   UNL d   1       8.678   3.273   4.897  0.00  0.00     0.012 A 
ATOM     14  C   UNL d   1       7.991   2.519   3.942  0.00  0.00     0.037 A 
BRANCH  12  15
ATOM     15  C   UNL d   1       8.742   5.077   6.702  0.00  0.00     0.141 C 
ATOM     16  S   UNL d   1      10.128   6.036   6.002  0.00  0.00    -0.148 SA
ATOM     17  C   UNL d   1      11.285   5.750   7.362  0.00  0.00     0.085 C 
ATOM     18  C   UNL d   1      11.103   4.319   7.825  0.00  0.00     0.085 C 
ATOM     19  S   UNL d   1       9.334   4.046   8.090  0.00  0.00    -0.148 SA
ENDBRANCH  12  15
ENDBRANCH   8   9
ENDBRANCH   7   8
ENDBRANCH   5   7
BRANCH   1  20
ATOM     20  C   UNL d   1       3.033   1.038  -1.794  0.00  0.00     0.039 A 
ATOM     21  S   UNL d   1       1.863   0.007  -2.493  0.00  0.00    -0.087 SA
ATOM     22  C   UNL d   1       1.218   1.246  -3.481  0.00  0.00     0.016 A 
ATOM     23  C   UNL d   1       0.124   1.144  -4.365  0.00  0.00     0.019 A 
ATOM     24  C   UNL d   1       1.925   2.437  -3.321  0.00  0.00    -0.012 A 
ATOM     25  C   UNL d   1      -0.249   2.261  -5.114  0.00  0.00     0.001 A 
ATOM     26  C   UNL d   1       0.449   3.452  -4.994  0.00  0.00     0.001 A 
ATOM     27  C   UNL d   1       1.524   3.550  -4.106  0.00  0.00     0.013 A 
ATOM     28  C   UNL d   1       2.981   2.321  -2.327  0.00  0.00    -0.031 A 
ATOM     29  C   UNL d   1       3.845   3.498  -1.980  0.00  0.00     0.050 C 
ENDBRANCH   1  20
TORSDOF 5
