REMARK  11 active torsions:
REMARK  status: ('A' for Active; 'I' for Inactive)
REMARK    1  A    between atoms: C_1  and  O_8 
REMARK    2  A    between atoms: C_2  and  O_9 
REMARK    3  A    between atoms: C_3  and  O_7 
REMARK    4  A    between atoms: C_4  and  O_10 
REMARK    5  A    between atoms: C_6  and  C_16 
REMARK    6  A    between atoms: C_11  and  O_7 
REMARK    7  A    between atoms: C_12  and  O_8 
REMARK    8  A    between atoms: C_13  and  O_9 
REMARK    9  A    between atoms: C_14  and  O_10 
REMARK   10  A    between atoms: C_15  and  O_17 
REMARK   11  A    between atoms: O_17  and  C_16 
ROOT
ATOM      1  C   UNL d   1       0.975  -1.383  -0.171  0.00  0.00     0.219 C 
ATOM      2  C   UNL d   1       1.775  -0.110   0.164  0.00  0.00     0.198 C 
ATOM      3  C   UNL d   1      -0.460  -1.256   0.382  0.00  0.00     0.302 C 
ATOM      4  C   UNL d   1       1.029   1.149  -0.314  0.00  0.00     0.195 C 
ATOM      5  O   UNL d   1      -1.094  -0.068  -0.122  0.00  0.00    -0.348 OA
ATOM      6  C   UNL d   1      -0.405   1.138   0.250  0.00  0.00     0.181 C 
ENDROOT
BRANCH   6   7
ATOM      7  C   UNL d   1      -1.232   2.337  -0.239  0.00  0.00     0.213 C 
BRANCH   7   8
ATOM      8  O   UNL d   1      -0.615   3.591   0.098  0.00  0.00    -0.319 OA
BRANCH   8   9
ATOM      9  C   UNL d   1      -0.770   3.995   1.391  0.00  0.00     0.254 C 
ATOM     10  O   UNL d   1      -1.367   3.369   2.252  0.00  0.00    -0.266 OA
ATOM     11  C   UNL d   1      -0.069   5.292   1.633  0.00  0.00     0.126 C 
ENDBRANCH   8   9
ENDBRANCH   7   8
ENDBRANCH   6   7
BRANCH   4  12
ATOM     12  O   UNL d   1       0.965   1.149  -1.762  0.00  0.00    -0.311 OA
BRANCH  12  13
ATOM     13  C   UNL d   1       1.990   1.777  -2.407  0.00  0.00     0.255 C 
ATOM     14  O   UNL d   1       2.900   2.391  -1.869  0.00  0.00    -0.266 OA
ATOM     15  C   UNL d   1       1.873   1.569  -3.885  0.00  0.00     0.126 C 
ENDBRANCH  12  13
ENDBRANCH   4  12
BRANCH   3  16
ATOM     16  O   UNL d   1      -0.456  -1.226   1.819  0.00  0.00    -0.287 OA
BRANCH  16  17
ATOM     17  C   UNL d   1      -0.527  -2.437   2.434  0.00  0.00     0.257 C 
ATOM     18  O   UNL d   1      -0.648  -3.518   1.876  0.00  0.00    -0.266 OA
ATOM     19  C   UNL d   1      -0.363  -2.269   3.914  0.00  0.00     0.126 C 
ENDBRANCH  16  17
ENDBRANCH   3  16
BRANCH   2  20
ATOM     20  O   UNL d   1       3.058  -0.159  -0.504  0.00  0.00    -0.311 OA
BRANCH  20  21
ATOM     21  C   UNL d   1       4.121  -0.622   0.199  0.00  0.00     0.255 C 
ATOM     22  O   UNL d   1       4.104  -0.950   1.376  0.00  0.00    -0.266 OA
ATOM     23  C   UNL d   1       5.310  -0.744  -0.703  0.00  0.00     0.126 C 
ENDBRANCH  20  21
ENDBRANCH   2  20
BRANCH   1  24
ATOM     24  O   UNL d   1       1.618  -2.522   0.443  0.00  0.00    -0.308 OA
BRANCH  24  25
ATOM     25  C   UNL d   1       2.487  -3.240  -0.311  0.00  0.00     0.255 C 
ATOM     26  O   UNL d   1       2.726  -3.050  -1.494  0.00  0.00    -0.266 OA
ATOM     27  C   UNL d   1       3.180  -4.255   0.546  0.00  0.00     0.126 C 
ENDBRANCH  24  25
ENDBRANCH   1  24
TORSDOF 11
