REMARK  8 active torsions:
REMARK  status: ('A' for Active; 'I' for Inactive)
REMARK    1  A    between atoms: C_6  and  C_1 
REMARK    2  A    between atoms: N_8  and  C_2 
REMARK    3  A    between atoms: O_19  and  C_6 
REMARK       I    between atoms: C_10  and  N_8 
REMARK    4  A    between atoms: C_21  and  C_10 
REMARK    5  A    between atoms: C_11  and  C_22 
REMARK    6  A    between atoms: O_20  and  C_11 
REMARK    7  A    between atoms: S_18  and  C_21 
REMARK    8  A    between atoms: C_22  and  S_18 
ROOT
ATOM      1  C   UNL d   1       0.049   1.288   0.085  0.00  0.00     0.107 A 
ATOM      2  C   UNL d   1       1.354   0.860  -0.114  0.00  0.00     0.059 A 
ATOM      3  S   UNL d   1      -1.027  -0.051   0.151  0.00  0.00    -0.081 SA
ATOM      4  C   UNL d   1       0.221  -1.198  -0.054  0.00  0.00     0.025 A 
ATOM      5  C   UNL d   1       1.438  -0.568  -0.213  0.00  0.00     0.051 A 
ATOM      6  C   UNL d   1      -0.063  -2.612  -0.026  0.00  0.00     0.022 A 
ATOM      7  S   UNL d   1       1.042  -3.740   0.649  0.00  0.00    -0.101 SA
ATOM      8  C   UNL d   1      -1.206  -3.250  -0.474  0.00  0.00     0.021 A 
ATOM      9  C   UNL d   1      -0.016  -5.053   0.371  0.00  0.00     0.050 A 
ATOM     10  C   UNL d   1      -1.181  -4.656  -0.243  0.00  0.00     0.008 A 
ENDROOT
BRANCH   2  11
ATOM     11  N   UNL d   1       2.454   1.714  -0.187  0.00  0.00    -0.325 N 
ATOM     12  C   UNL d   1       3.485   1.526  -1.096  0.00  0.00     0.231 C 
ATOM     13  O   UNL d   1       3.505   0.642  -1.954  0.00  0.00    -0.272 OA
ATOM     14  H   UNL d   1       2.378   2.605   0.305  0.00  0.00     0.169 HD
BRANCH  12  15
ATOM     15  C   UNL d   1       4.621   2.531  -0.986  0.00  0.00     0.177 C 
BRANCH  15  16
ATOM     16  S   UNL d   1       4.367   4.039  -1.995  0.00  0.00    -0.149 SA
BRANCH  16  17
ATOM     17  C   UNL d   1       2.919   4.781  -1.188  0.00  0.00     0.184 C 
BRANCH  17  18
ATOM     18  C   UNL d   1       3.171   5.017   0.284  0.00  0.00     0.149 C 
ATOM     19  O   UNL d   1       3.006   4.156   1.135  0.00  0.00    -0.649 OA
BRANCH  18  20
ATOM     20  O   UNL d   1       3.684   6.233   0.575  0.00  0.00    -0.776 OA
ATOM     21  H   UNL d   1       3.847   6.792  -0.209  0.00  0.00     0.167 HD
ENDBRANCH  18  20
ENDBRANCH  17  18
ENDBRANCH  16  17
ENDBRANCH  15  16
ENDBRANCH  12  15
ENDBRANCH   2  11
BRANCH   1  22
ATOM     22  C   UNL d   1      -0.471   2.650   0.152  0.00  0.00     0.302 C 
ATOM     23  O   UNL d   1       0.209   3.671   0.159  0.00  0.00    -0.259 OA
BRANCH  22  24
ATOM     24  O   UNL d   1      -1.836   2.653   0.151  0.00  0.00    -0.322 OA
ATOM     25  C   UNL d   1      -2.477   3.929   0.141  0.00  0.00     0.213 C 
ENDBRANCH  22  24
ENDBRANCH   1  22
TORSDOF 8
