REMARK  3 active torsions:
REMARK  status: ('A' for Active; 'I' for Inactive)
REMARK    1  A    between atoms: C_8  and  N_1 
REMARK    2  A    between atoms: C_4  and  C_10 
REMARK    3  A    between atoms: C_14  and  C_5 
ROOT
ATOM      1  N   UNL d   1      -1.347   8.848   4.027  0.00  0.00    -0.197 NA
ATOM      2  C   UNL d   1      -1.236   8.535   2.915  0.00  0.00     0.065 C 
ATOM      3  C   UNL d   1      -1.095   8.170   1.500  0.00  0.00     0.188 C 
ENDROOT
BRANCH   3   4
ATOM      4  C   UNL d   1      -0.336   6.888   1.383  0.00  0.00     0.064 A 
ATOM      5  N   UNL d   1      -0.890   5.693   1.394  0.00  0.00    -0.352 N 
ATOM      6  C   UNL d   1       0.083   4.708   1.310  0.00  0.00     0.049 A 
ATOM      7  HN  UNL d   1      -1.893   5.516   1.455  1.00  0.00     0.166 HD
ATOM      8  C   UNL d   1       1.377   5.185   1.222  0.00  0.00     0.081 A 
ATOM      9  S   UNL d   1       1.377   6.899   1.218  0.00  0.00    -0.085 SA
BRANCH   6  10
ATOM     10  C   UNL d   1      -0.278   3.294   1.336  0.00  0.00    -0.007 A 
ATOM     11  C   UNL d   1       0.520   2.318   0.724  0.00  0.00     0.049 A 
ATOM     12  C   UNL d   1       0.118   0.973   0.744  0.00  0.00     0.103 A 
ATOM     13  C   UNL d   1      -1.068   0.587   1.380  0.00  0.00     0.036 A 
ATOM     14  C   UNL d   1      -1.860   1.556   1.993  0.00  0.00     0.003 A 
ATOM     15  C   UNL d   1      -1.469   2.898   1.966  0.00  0.00     0.014 A 
BRANCH  12  16
ATOM     16  N   UNL d   1       0.948  -0.037   0.077  0.00  0.00    -0.116 N 
ATOM     17  O   UNL d   1       1.995   0.345  -0.466  0.00  0.00    -0.532 OA
ATOM     18  O   UNL d   1       0.554  -1.212   0.094  0.00  0.00    -0.532 OA
ENDBRANCH  12  16
ENDBRANCH   6  10
ENDBRANCH   3   4
TORSDOF 3
