REMARK  10 active torsions:
REMARK  status: ('A' for Active; 'I' for Inactive)
REMARK    1  A    between atoms: C_3  and  C_1 
REMARK    2  A    between atoms: C_6  and  C_1 
REMARK    3  A    between atoms: N_2  and  C_11 
REMARK       I    between atoms: N_8  and  C_3 
REMARK    4  A    between atoms: O_10  and  N_4 
REMARK    5  A    between atoms: C_7  and  O_10 
REMARK    6  A    between atoms: C_17  and  C_7 
REMARK    7  A    between atoms: C_25  and  N_8 
REMARK    8  A    between atoms: N_24  and  N_14 
REMARK    9  A    between atoms: C_28  and  N_24 
REMARK   10  A    between atoms: C_26  and  C_28 
ROOT
ATOM      1  N   UNL d   1       4.867  -4.689   3.793  0.00  0.00    -0.197 NA
ATOM      2  C   UNL d   1       4.245  -3.753   3.490  0.00  0.00     0.060 C 
ATOM      3  C   UNL d   1       3.464  -2.561   3.133  0.00  0.00     0.140 C 
ENDROOT
BRANCH   3   4
ATOM      4  C   UNL d   1       2.272  -2.934   2.255  0.00  0.00     0.124 C 
BRANCH   4   5
ATOM      5  N   UNL d   1       1.332  -1.800   2.038  0.00  0.00    -0.239 NA
ATOM      6  H   UNL d   1       0.920  -1.597   2.955  0.00  0.00     0.146 HD
BRANCH   5   7
ATOM      7  N   UNL d   1       0.337  -2.099   1.165  0.00  0.00    -0.323 N 
ATOM      8  C   UNL d   1       0.149  -1.296   0.153  0.00  0.00     0.051 C 
ATOM      9  C   UNL d   1      -0.830  -1.742  -0.901  0.00  0.00     0.072 C 
ATOM     10  HN  UNL d   1      -0.247  -2.925   1.296  1.00  0.00     0.180 HD
BRANCH   8  11
ATOM     11  C   UNL d   1       0.871   0.016  -0.074  0.00  0.00     0.145 C 
ATOM     12  N   UNL d   1       0.280   1.141  -0.376  0.00  0.00    -0.250 N 
ATOM     13  HN  UNL d   1       0.808   2.001  -0.520  1.00  0.00     0.195 HD
BRANCH  11  14
ATOM     14  C   UNL d   1       2.393   0.120   0.032  0.00  0.00     0.276 C 
ATOM     15  N   UNL d   1       2.849   1.420   0.191  0.00  0.00    -0.322 N 
ATOM     16  H   UNL d   1       2.219   2.152  -0.130  0.00  0.00     0.169 HD
ATOM     17  O   UNL d   1       3.080  -0.884  -0.086  0.00  0.00    -0.266 OA
BRANCH  15  18
ATOM     18  C   UNL d   1       4.172   1.750   0.524  0.00  0.00     0.035 A 
ATOM     19  C   UNL d   1       4.733   2.929   0.037  0.00  0.00     0.029 A 
ATOM     20  C   UNL d   1       6.063   3.244   0.336  0.00  0.00     0.002 A 
ATOM     21  C   UNL d   1       6.814   2.410   1.169  0.00  0.00     0.000 A 
ATOM     22  C   UNL d   1       6.237   1.264   1.704  0.00  0.00     0.002 A 
ATOM     23  C   UNL d   1       4.925   0.934   1.373  0.00  0.00     0.029 A 
ENDBRANCH  15  18
ENDBRANCH  11  14
BRANCH  12  24
ATOM     24  O   UNL d   1      -1.128   1.109  -0.494  0.00  0.00    -0.194 OA
BRANCH  24  25
ATOM     25  C   UNL d   1      -1.534   2.354  -0.917  0.00  0.00     0.315 C 
ATOM     26  O   UNL d   1      -0.805   3.326  -1.087  0.00  0.00    -0.257 OA
BRANCH  25  27
ATOM     27  C   UNL d   1      -2.999   2.440  -1.184  0.00  0.00     0.041 A 
ATOM     28  C   UNL d   1      -3.510   3.697  -1.564  0.00  0.00     0.020 A 
ATOM     29  C   UNL d   1      -4.870   3.870  -1.849  0.00  0.00     0.037 A 
ATOM     30  C   UNL d   1      -5.732   2.775  -1.759  0.00  0.00     0.102 A 
ATOM     31  C   UNL d   1      -5.238   1.514  -1.384  0.00  0.00     0.037 A 
ATOM     32  C   UNL d   1      -3.873   1.349  -1.099  0.00  0.00     0.020 A 
BRANCH  30  33
ATOM     33  N   UNL d   1      -7.162   2.952  -2.058  0.00  0.00    -0.116 N 
ATOM     34  O   UNL d   1      -7.547   4.085  -2.379  0.00  0.00    -0.532 OA
ATOM     35  O   UNL d   1      -7.894   1.957  -1.970  0.00  0.00    -0.532 OA
ENDBRANCH  30  33
ENDBRANCH  25  27
ENDBRANCH  24  25
ENDBRANCH  12  24
ENDBRANCH   8  11
ENDBRANCH   5   7
ENDBRANCH   4   5
ENDBRANCH   3   4
TORSDOF 10
