REMARK  6 active torsions:
REMARK  status: ('A' for Active; 'I' for Inactive)
REMARK    1  A    between atoms: C_5  and  C_1 
REMARK    2  A    between atoms: N_4  and  C_2 
REMARK    3  A    between atoms: C_3  and  N_4 
REMARK    4  A    between atoms: N_8  and  C_3 
REMARK    5  A    between atoms: O_15  and  C_5 
REMARK    6  A    between atoms: C_11  and  N_8 
ROOT
ATOM      1  C   UNL d   1       2.587   2.653   0.394  0.00  0.00     0.176 C 
ATOM      2  S   UNL d   1       1.988   3.922  -0.509  0.00  0.00    -0.041 SA
ENDROOT
BRANCH   1   3
ATOM      3  N   UNL d   1       2.210   1.332   0.305  0.00  0.00    -0.332 N 
ATOM      4  H   UNL d   1       3.005   0.702   0.311  0.00  0.00     0.168 HD
BRANCH   3   5
ATOM      5  C   UNL d   1       0.999   0.745  -0.038  0.00  0.00     0.058 A 
ATOM      6  C   UNL d   1      -0.298   1.187   0.193  0.00  0.00     0.106 A 
ATOM      7  S   UNL d   1      -1.452   0.074  -0.460  0.00  0.00    -0.094 SA
ATOM      8  C   UNL d   1      -0.250  -1.052  -0.881  0.00  0.00     0.053 A 
ATOM      9  C   UNL d   1       1.007  -0.573  -0.609  0.00  0.00     0.038 A 
BRANCH   6  10
ATOM     10  C   UNL d   1      -0.857   2.299   0.944  0.00  0.00     0.302 C 
ATOM     11  O   UNL d   1      -1.972   2.786   0.782  0.00  0.00    -0.259 OA
BRANCH  10  12
ATOM     12  O   UNL d   1      -0.025   2.643   1.970  0.00  0.00    -0.322 OA
ATOM     13  C   UNL d   1      -0.549   3.603   2.891  0.00  0.00     0.213 C 
ENDBRANCH  10  12
ENDBRANCH   6  10
ENDBRANCH   3   5
ENDBRANCH   1   3
BRANCH   1  14
ATOM     14  N   UNL d   1       3.701   2.851   1.189  0.00  0.00    -0.333 N 
ATOM     15  H   UNL d   1       4.247   3.683   0.989  0.00  0.00     0.168 HD
BRANCH  14  16
ATOM     16  C   UNL d   1       4.047   2.116   2.349  0.00  0.00     0.037 A 
ATOM     17  C   UNL d   1       3.091   1.391   3.073  0.00  0.00     0.071 A 
ATOM     18  C   UNL d   1       3.460   0.698   4.216  0.00  0.00     0.118 A 
ATOM     19  F   UNL d   1       2.532   0.025   4.905  0.00  0.00    -0.206 F 
ATOM     20  C   UNL d   1       4.775   0.703   4.659  0.00  0.00     0.042 A 
ATOM     21  C   UNL d   1       5.731   1.431   3.953  0.00  0.00     0.005 A 
ATOM     22  C   UNL d   1       5.363   2.152   2.808  0.00  0.00     0.029 A 
ENDBRANCH  14  16
ENDBRANCH   1  14
TORSDOF 6
