REMARK  6 active torsions:
REMARK  status: ('A' for Active; 'I' for Inactive)
REMARK    1  A    between atoms: C_10  and  C_3 
REMARK    2  A    between atoms: C_17  and  C_4 
REMARK    3  A    between atoms: C_7  and  C_11 
REMARK    4  A    between atoms: C_8  and  C_12 
REMARK    5  A    between atoms: C_13  and  O_18 
REMARK    6  A    between atoms: O_18  and  C_30 
ROOT
ATOM      1  N   UNL d   1       1.303   0.162  -0.004  0.00  0.00    -0.319 N 
ATOM      2  HN  UNL d   1       2.313   0.305  -0.015  1.00  0.00     0.169 HD
ATOM      3  C   UNL d   1       0.302   1.107  -0.002  0.00  0.00     0.138 A 
ATOM      4  C   UNL d   1       0.635  -0.971   0.012  0.00  0.00     0.182 A 
ATOM      5  N   UNL d   1      -0.938   0.590   0.024  0.00  0.00    -0.242 N 
ATOM      6  HN  UNL d   1      -1.828   1.088   0.034  1.00  0.00     0.196 HD
ATOM      7  O   UNL d   1      -0.719  -0.787   0.033  0.00  0.00    -0.217 OA
ENDROOT
BRANCH   3   8
ATOM      8  C   UNL d   1       0.597   2.535  -0.064  0.00  0.00     0.011 A 
ATOM      9  C   UNL d   1       1.929   2.973  -0.117  0.00  0.00     0.031 A 
ATOM     10  C   UNL d   1       2.245   4.337  -0.234  0.00  0.00     0.049 A 
ATOM     11  C   UNL d   1       1.200   5.272  -0.287  0.00  0.00     0.032 A 
ATOM     12  C   UNL d   1      -0.141   4.860  -0.233  0.00  0.00     0.049 A 
ATOM     13  C   UNL d   1      -0.429   3.489  -0.111  0.00  0.00     0.031 A 
BRANCH  10  14
ATOM     14  C   UNL d   1       3.691   4.763  -0.326  0.00  0.00     0.417 C 
ATOM     15  F   UNL d   1       3.852   6.108  -0.466  0.00  0.00    -0.166 F 
ATOM     16  F   UNL d   1       4.410   4.413   0.775  0.00  0.00    -0.166 F 
ATOM     17  F   UNL d   1       4.329   4.199  -1.388  0.00  0.00    -0.166 F 
ENDBRANCH  10  14
BRANCH  12  18
ATOM     18  C   UNL d   1      -1.273   5.857  -0.329  0.00  0.00     0.417 C 
ATOM     19  F   UNL d   1      -0.852   7.136  -0.530  0.00  0.00    -0.166 F 
ATOM     20  F   UNL d   1      -2.120   5.577  -1.357  0.00  0.00    -0.166 F 
ATOM     21  F   UNL d   1      -2.040   5.886   0.794  0.00  0.00    -0.166 F 
ENDBRANCH  12  18
ENDBRANCH   3   8
BRANCH   4  22
ATOM     22  C   UNL d   1       1.131  -2.340   0.032  0.00  0.00     0.017 A 
ATOM     23  C   UNL d   1       2.514  -2.572   0.096  0.00  0.00     0.018 A 
ATOM     24  C   UNL d   1       3.027  -3.871   0.174  0.00  0.00     0.038 A 
ATOM     25  C   UNL d   1       2.164  -4.963   0.205  0.00  0.00     0.078 A 
ATOM     26  C   UNL d   1       0.789  -4.740   0.077  0.00  0.00     0.038 A 
ATOM     27  C   UNL d   1       0.275  -3.445  -0.006  0.00  0.00     0.018 A 
BRANCH  25  28
ATOM     28  O   UNL d   1       2.511  -6.269   0.343  0.00  0.00    -0.255 OA
BRANCH  28  29
ATOM     29  C   UNL d   1       3.747  -6.594   0.963  0.00  0.00     0.530 C 
ATOM     30  F   UNL d   1       4.187  -5.639   1.811  0.00  0.00    -0.144 F 
ATOM     31  F   UNL d   1       3.582  -7.729   1.676  0.00  0.00    -0.144 F 
ATOM     32  F   UNL d   1       4.688  -6.817   0.021  0.00  0.00    -0.144 F 
ENDBRANCH  28  29
ENDBRANCH  25  28
ENDBRANCH   4  22
TORSDOF 6
