REMARK  7 active torsions:
REMARK  status: ('A' for Active; 'I' for Inactive)
REMARK    1  A    between atoms: C_8  and  N_1 
REMARK    2  A    between atoms: C_12  and  C_2 
REMARK    3  A    between atoms: S_17  and  C_3 
REMARK    4  A    between atoms: C_9  and  C_10 
REMARK    5  A    between atoms: C_16  and  C_12 
REMARK    6  A    between atoms: O_23  and  C_13 
REMARK    7  A    between atoms: O_25  and  C_14 
ROOT
ATOM      1  N   UNL d   1      -0.218  -0.911   0.936  0.00  0.00    -0.279 N 
ATOM      2  C   UNL d   1       0.855  -0.654   0.072  0.00  0.00     0.109 A 
ATOM      3  C   UNL d   1      -1.240  -0.120   0.414  0.00  0.00     0.164 A 
ATOM      4  N   UNL d   1       0.472   0.199  -0.862  0.00  0.00    -0.286 N 
ATOM      5  HN  UNL d   1       1.059   0.560  -1.614  1.00  0.00     0.188 HD
ATOM      6  N   UNL d   1      -0.833   0.515  -0.656  0.00  0.00    -0.278 N 
ATOM      7  HN  UNL d   1      -1.396   1.138  -1.234  1.00  0.00     0.189 HD
ENDROOT
BRANCH   2   8
ATOM      8  C   UNL d   1       2.203  -1.307   0.034  0.00  0.00     0.117 C 
BRANCH   8   9
ATOM      9  C   UNL d   1       2.201  -2.818  -0.098  0.00  0.00    -0.048 A 
ATOM     10  C   UNL d   1       1.215  -3.497  -0.832  0.00  0.00     0.047 A 
ATOM     11  C   UNL d   1       1.182  -4.900  -0.902  0.00  0.00     0.102 A 
ATOM     12  C   UNL d   1       2.211  -5.631  -0.284  0.00  0.00     0.101 A 
ATOM     13  C   UNL d   1       3.241  -4.946   0.376  0.00  0.00     0.040 A 
ATOM     14  C   UNL d   1       3.238  -3.556   0.476  0.00  0.00     0.010 A 
BRANCH  11  15
ATOM     15  O   UNL d   1       0.189  -5.586  -1.547  0.00  0.00    -0.353 OA
ATOM     16  C   UNL d   1      -0.888  -4.854  -2.120  0.00  0.00     0.210 C 
ENDBRANCH  11  15
BRANCH  12  17
ATOM     17  O   UNL d   1       2.387  -6.990  -0.234  0.00  0.00    -0.353 OA
ATOM     18  C   UNL d   1       1.347  -7.834  -0.699  0.00  0.00     0.210 C 
ENDBRANCH  12  17
ENDBRANCH   8   9
ENDBRANCH   2   8
BRANCH   1  19
ATOM     19  C   UNL d   1      -0.262  -1.807   2.054  0.00  0.00     0.043 A 
ATOM     20  C   UNL d   1       0.864  -2.002   2.865  0.00  0.00     0.046 A 
ATOM     21  C   UNL d   1       0.832  -2.904   3.947  0.00  0.00     0.050 A 
ATOM     22  C   UNL d   1      -0.363  -3.573   4.242  0.00  0.00     0.016 A 
ATOM     23  C   UNL d   1      -1.488  -3.381   3.447  0.00  0.00     0.003 A 
ATOM     24  C   UNL d   1      -1.430  -2.524   2.345  0.00  0.00     0.030 A 
BRANCH  21  25
ATOM     25  C   UNL d   1       2.064  -3.168   4.784  0.00  0.00     0.417 C 
ATOM     26  F   UNL d   1       3.162  -2.486   4.356  0.00  0.00    -0.166 F 
ATOM     27  F   UNL d   1       1.889  -2.821   6.088  0.00  0.00    -0.166 F 
ATOM     28  F   UNL d   1       2.418  -4.482   4.787  0.00  0.00    -0.166 F 
ENDBRANCH  21  25
ENDBRANCH   1  19
BRANCH   3  29
ATOM     29  S   UNL d   1      -2.802   0.190   1.111  0.00  0.00    -0.105 SA
ATOM     30  H   UNL d   1      -2.578  -0.209   2.369  0.00  0.00     0.110 HD
ENDBRANCH   3  29
TORSDOF 7
