REMARK  8 active torsions:
REMARK  status: ('A' for Active; 'I' for Inactive)
REMARK    1  A    between atoms: O_3  and  S_1 
REMARK    2  A    between atoms: C_12  and  S_1 
REMARK    3  A    between atoms: C_2  and  C_9 
REMARK    4  A    between atoms: N_4  and  O_3 
REMARK    5  A    between atoms: C_6  and  C_11 
REMARK       I    between atoms: N_8  and  C_6 
REMARK    6  A    between atoms: C_7  and  N_8 
REMARK    7  A    between atoms: C_11  and  C_10 
REMARK    8  A    between atoms: N_25  and  C_10 
ROOT
ATOM      1  N   UNL d   1       1.355  -1.292  -1.892  0.00  0.00    -0.237 N 
ATOM      2  HN  UNL d   1       1.135  -1.377  -0.899  1.00  0.00     0.197 HD
ATOM      3  C   UNL d   1       0.840  -2.031  -2.829  0.00  0.00     0.105 C 
ENDROOT
BRANCH   3   4
ATOM      4  C   UNL d   1      -0.261  -2.986  -2.425  0.00  0.00     0.180 C 
BRANCH   4   5
ATOM      5  C   UNL d   1       0.076  -4.438  -2.181  0.00  0.00     0.229 C 
ATOM      6  N   UNL d   1       1.331  -4.717  -1.684  0.00  0.00    -0.325 N 
ATOM      7  H   UNL d   1       1.905  -3.936  -1.378  0.00  0.00     0.169 HD
ATOM      8  O   UNL d   1      -0.805  -5.280  -2.364  0.00  0.00    -0.273 OA
BRANCH   6   9
ATOM      9  C   UNL d   1       1.874  -6.011  -1.428  0.00  0.00     0.057 A 
ATOM     10  C   UNL d   1       1.267  -7.196  -1.868  0.00  0.00     0.047 A 
ATOM     11  C   UNL d   1       1.837  -8.461  -1.613  0.00  0.00     0.050 A 
ATOM     12  C   UNL d   1       3.049  -8.529  -0.912  0.00  0.00     0.018 A 
ATOM     13  C   UNL d   1       3.668  -7.361  -0.468  0.00  0.00     0.027 A 
ATOM     14  C   UNL d   1       3.090  -6.115  -0.724  0.00  0.00     0.060 A 
ATOM     15 CL   UNL d   1       3.904  -4.703  -0.139  0.00  0.00    -0.082 Cl
BRANCH  11  16
ATOM     16  C   UNL d   1       1.184  -9.727  -2.120  0.00  0.00     0.417 C 
ATOM     17  F   UNL d   1      -0.131  -9.579  -2.437  0.00  0.00    -0.166 F 
ATOM     18  F   UNL d   1       1.790 -10.202  -3.243  0.00  0.00    -0.166 F 
ATOM     19  F   UNL d   1       1.236 -10.742  -1.212  0.00  0.00    -0.166 F 
ENDBRANCH  11  16
ENDBRANCH   6   9
ENDBRANCH   4   5
ENDBRANCH   3   4
BRANCH   3  20
ATOM     20  N   UNL d   1       1.185  -1.952  -4.155  0.00  0.00    -0.387 N 
ATOM     21  H   UNL d   1       1.656  -1.091  -4.414  0.00  0.00     0.157 HD
ATOM     22  H   UNL d   1       0.492  -2.243  -4.839  0.00  0.00     0.157 HD
ENDBRANCH   3  20
BRANCH   1  23
ATOM     23  O   UNL d   1       2.264  -0.350  -2.438  0.00  0.00    -0.146 OA
BRANCH  23  24
ATOM     24  S   UNL d   1       2.289   1.131  -1.699  0.00  0.00     0.318 S 
ATOM     25  O   UNL d   1       1.294   1.199  -0.644  0.00  0.00    -0.191 OA
ATOM     26  O   UNL d   1       2.319   2.130  -2.753  0.00  0.00    -0.191 OA
BRANCH  24  27
ATOM     27  C   UNL d   1       3.877   1.176  -0.898  0.00  0.00     0.088 A 
ATOM     28  C   UNL d   1       4.668   2.326  -0.963  0.00  0.00     0.026 A 
ATOM     29  C   UNL d   1       5.919   2.332  -0.348  0.00  0.00     0.008 A 
ATOM     30  C   UNL d   1       6.382   1.196   0.330  0.00  0.00    -0.062 A 
ATOM     31  C   UNL d   1       5.580   0.048   0.383  0.00  0.00     0.008 A 
ATOM     32  C   UNL d   1       7.735   1.210   0.986  0.00  0.00     0.048 C 
ATOM     33  C   UNL d   1       4.327   0.037  -0.229  0.00  0.00     0.026 A 
ENDBRANCH  24  27
ENDBRANCH  23  24
ENDBRANCH   1  23
TORSDOF 8
