REMARK  5 active torsions:
REMARK  status: ('A' for Active; 'I' for Inactive)
REMARK    1  A    between atoms: C_7  and  N_1 
REMARK    2  A    between atoms: S_8  and  C_2 
REMARK    3  A    between atoms: C_12  and  S_8 
REMARK    4  A    between atoms: C_10  and  C_12 
REMARK    5  A    between atoms: C_11  and  C_10 
ROOT
ATOM      1  N   UNL d   1       0.574   0.502  -0.148  0.00  0.00    -0.219 N 
ATOM      2  C   UNL d   1       1.011  -0.806  -0.007  0.00  0.00     0.177 A 
ATOM      3  N   UNL d   1       0.210  -1.438   0.824  0.00  0.00    -0.264 N 
ATOM      4  HN  UNL d   1       0.252  -2.423   1.088  1.00  0.00     0.186 HD
ATOM      5  N   UNL d   1      -0.690  -0.503   1.263  0.00  0.00    -0.006 NA
ATOM      6  N   UNL d   1      -0.444   0.686   0.732  0.00  0.00     0.001 NA
ENDROOT
BRANCH   2   7
ATOM      7  S   UNL d   1       2.517  -1.416  -0.610  0.00  0.00    -0.084 SA
BRANCH   7   8
ATOM      8  C   UNL d   1       2.470  -3.123  -0.016  0.00  0.00     0.166 C 
BRANCH   8   9
ATOM      9  C   UNL d   1       3.763  -3.868  -0.314  0.00  0.00     0.169 C 
ATOM     10  O   UNL d   1       4.779  -3.335  -0.752  0.00  0.00    -0.291 OA
BRANCH   9  11
ATOM     11  C   UNL d   1       3.789  -5.340  -0.040  0.00  0.00     0.011 A 
ATOM     12  C   UNL d   1       2.704  -6.011   0.544  0.00  0.00     0.018 A 
ATOM     13  C   UNL d   1       2.763  -7.391   0.755  0.00  0.00     0.043 A 
ATOM     14  C   UNL d   1       3.903  -8.096   0.390  0.00  0.00     0.116 A 
ATOM     15  C   UNL d   1       4.994  -7.447  -0.175  0.00  0.00     0.043 A 
ATOM     16  F   UNL d   1       3.949  -9.419   0.586  0.00  0.00    -0.206 F 
ATOM     17  C   UNL d   1       4.939  -6.068  -0.389  0.00  0.00     0.018 A 
ENDBRANCH   9  11
ENDBRANCH   8   9
ENDBRANCH   7   8
ENDBRANCH   2   7
BRANCH   1  18
ATOM     18  C   UNL d   1       1.021   1.551  -0.987  0.00  0.00     0.058 A 
ATOM     19  C   UNL d   1       1.597   1.280  -2.236  0.00  0.00     0.055 A 
ATOM     20  C   UNL d   1       2.094   2.328  -3.009  0.00  0.00     0.036 A 
ATOM     21 CL   UNL d   1       2.801   1.989  -4.541  0.00  0.00    -0.084 Cl
ATOM     22  C   UNL d   1       2.022   3.641  -2.554  0.00  0.00     0.024 A 
ATOM     23  C   UNL d   1       1.408   3.918  -1.331  0.00  0.00     0.004 A 
ATOM     24  C   UNL d   1       0.887   2.880  -0.556  0.00  0.00     0.031 A 
ENDBRANCH   1  18
TORSDOF 5
