REMARK  3 active torsions:
REMARK  status: ('A' for Active; 'I' for Inactive)
REMARK    1  A    between atoms: C_11  and  C_3 
REMARK    2  A    between atoms: C_15  and  C_4 
REMARK    3  A    between atoms: C_7  and  C_16 
ROOT
ATOM      1  N   UNL d   1       1.349  -0.618   0.181  0.00  0.00    -0.349 N 
ATOM      2  HN  UNL d   1       2.208  -1.143   0.347  1.00  0.00     0.166 HD
ATOM      3  C   UNL d   1       1.282   0.761   0.051  0.00  0.00     0.050 A 
ATOM      4  C   UNL d   1       0.151  -1.158   0.060  0.00  0.00     0.084 A 
ATOM      5  S   UNL d   1      -1.139  -0.021  -0.034  0.00  0.00    -0.081 SA
ATOM      6  C   UNL d   1      -0.004   1.259  -0.045  0.00  0.00     0.082 A 
ENDROOT
BRANCH   4   7
ATOM      7  C   UNL d   1      -0.098  -2.607   0.025  0.00  0.00    -0.002 A 
ATOM      8  C   UNL d   1       0.791  -3.477   0.679  0.00  0.00     0.015 A 
ATOM      9  C   UNL d   1       0.601  -4.862   0.649  0.00  0.00     0.014 A 
ATOM     10  C   UNL d   1      -0.479  -5.418  -0.051  0.00  0.00    -0.008 A 
ATOM     11  C   UNL d   1      -1.352  -4.558  -0.726  0.00  0.00     0.014 A 
ATOM     12  C   UNL d   1      -1.167  -3.172  -0.687  0.00  0.00     0.015 A 
BRANCH  10  13
ATOM     13  C   UNL d   1      -0.703  -6.856  -0.109  0.00  0.00     0.063 A 
ATOM     14  N   UNL d   1      -1.311  -7.444  -1.213  0.00  0.00    -0.292 N 
ATOM     15  N   UNL d   1      -1.437  -8.753  -1.072  0.00  0.00    -0.061 NA
ATOM     16  HN  UNL d   1      -1.624  -6.926  -2.035  1.00  0.00     0.183 HD
ATOM     17  S   UNL d   1      -0.848  -9.306   0.391  0.00  0.00    -0.010 SA
ATOM     18  C   UNL d   1      -0.378  -7.739   0.907  0.00  0.00     0.096 A 
ENDBRANCH  10  13
ENDBRANCH   4   7
BRANCH   3  19
ATOM     19  C   UNL d   1       2.480   1.604   0.014  0.00  0.00    -0.003 A 
ATOM     20  C   UNL d   1       3.680   1.202  -0.611  0.00  0.00    -0.049 A 
ATOM     21  C   UNL d   1       4.788   2.077  -0.598  0.00  0.00     0.014 A 
ATOM     22  C   UNL d   1       3.889  -0.119  -1.306  0.00  0.00     0.049 C 
ATOM     23  C   UNL d   1       4.723   3.343  -0.007  0.00  0.00    -0.061 A 
ATOM     24  C   UNL d   1       3.531   3.741   0.593  0.00  0.00     0.007 A 
ATOM     25  C   UNL d   1       5.921   4.244  -0.028  0.00  0.00     0.048 C 
ATOM     26  C   UNL d   1       2.430   2.880   0.611  0.00  0.00     0.015 A 
ENDBRANCH   3  19
TORSDOF 3
