REMARK  4 active torsions:
REMARK  status: ('A' for Active; 'I' for Inactive)
REMARK    1  A    between atoms: C_12  and  C_5 
REMARK    2  A    between atoms: C_15  and  C_9 
REMARK    3  A    between atoms: O_14  and  C_10 
REMARK    4  A    between atoms: O_16  and  C_15 
ROOT
ATOM      1  C   UNL d   1       0.200  -0.617   0.097  0.00  0.00     0.137 A 
ATOM      2  C   UNL d   1       0.166   0.777   0.065  0.00  0.00     0.047 A 
ATOM      3  N   UNL d   1       2.363   0.080   0.080  0.00  0.00    -0.296 N 
ATOM      4  HN  UNL d   1       3.383   0.060   0.078  1.00  0.00     0.187 HD
ATOM      5  C   UNL d   1       1.559   1.160   0.079  0.00  0.00     0.073 A 
ATOM      6  N   UNL d   1       1.520  -0.965   0.083  0.00  0.00    -0.280 N 
ATOM      7  N   UNL d   1      -0.842  -1.477   0.109  0.00  0.00    -0.321 N 
ATOM      8  HN  UNL d   1      -0.742  -2.492   0.133  1.00  0.00     0.169 HD
ATOM      9  C   UNL d   1      -1.118   1.386  -0.008  0.00  0.00    -0.014 A 
ATOM     10  C   UNL d   1      -2.020  -0.843   0.086  0.00  0.00     0.141 A 
ATOM     11  C   UNL d   1      -2.225   0.517   0.032  0.00  0.00     0.066 A 
ATOM     12  C   UNL d   1       2.029  -2.313   0.028  0.00  0.00     0.179 C 
ENDROOT
BRANCH   5  13
ATOM     13  C   UNL d   1       2.150   2.501   0.049  0.00  0.00    -0.007 A 
ATOM     14  C   UNL d   1       1.644   3.533   0.847  0.00  0.00     0.014 A 
ATOM     15  C   UNL d   1       2.097   4.844   0.686  0.00  0.00     0.001 A 
ATOM     16  C   UNL d   1       3.118   5.122  -0.219  0.00  0.00     0.000 A 
ATOM     17  C   UNL d   1       3.705   4.085  -0.942  0.00  0.00     0.001 A 
ATOM     18  C   UNL d   1       3.223   2.780  -0.810  0.00  0.00     0.014 A 
ENDBRANCH   5  13
BRANCH   9  19
ATOM     19  C   UNL d   1      -1.408   2.865  -0.147  0.00  0.00     0.206 C 
BRANCH  19  20
ATOM     20  O   UNL d   1      -0.683   3.463  -1.215  0.00  0.00    -0.391 OA
ATOM     21  C   UNL d   1      -1.170   3.102  -2.499  0.00  0.00     0.201 C 
ENDBRANCH  19  20
ENDBRANCH   9  19
BRANCH  10  22
ATOM     22  O   UNL d   1      -3.096  -1.675   0.097  0.00  0.00    -0.346 OA
ATOM     23  H   UNL d   1      -2.644  -2.537   0.119  0.00  0.00     0.219 HD
ENDBRANCH  10  22
TORSDOF 4
