REMARK  3 active torsions:
REMARK  status: ('A' for Active; 'I' for Inactive)
REMARK    1  A    between atoms: S_11  and  C_6 
REMARK    2  A    between atoms: N_12  and  C_7 
REMARK    3  A    between atoms: C_13  and  S_11 
ROOT
ATOM      1  C   UNL d   1       5.521  -1.410   0.830  0.00  0.00    -0.107 C 
ATOM      2  C   UNL d   1       6.614  -1.907   0.905  0.00  0.00     0.013 C 
ATOM      3  C   UNL d   1       4.186  -0.798   0.738  0.00  0.00     0.175 C 
ENDROOT
BRANCH   3   4
ATOM      4  S   UNL d   1       2.980  -1.949   0.022  0.00  0.00    -0.082 SA
BRANCH   4   5
ATOM      5  C   UNL d   1       1.574  -0.962   0.024  0.00  0.00     0.148 A 
ATOM      6  N   UNL d   1       1.518   0.329   0.026  0.00  0.00    -0.331 N 
ATOM      7  C   UNL d   1       0.154   0.603   0.005  0.00  0.00     0.118 A 
ATOM      8  HN  UNL d   1       2.293   0.993   0.040  1.00  0.00     0.168 HD
ATOM      9  C   UNL d   1      -0.597  -0.694  -0.047  0.00  0.00     0.275 A 
ATOM     10  C   UNL d   1      -0.341   1.849  -0.017  0.00  0.00     0.120 C 
ATOM     11  N   UNL d   1       0.399  -1.615   0.006  0.00  0.00    -0.302 N 
ATOM     12  O   UNL d   1      -1.784  -0.918  -0.167  0.00  0.00    -0.266 OA
ATOM     13  H   UNL d   1       0.268  -2.609  -0.046  0.00  0.00     0.171 HD
BRANCH  10  14
ATOM     14  N   UNL d   1      -1.616   2.400   0.019  0.00  0.00    -0.396 N 
ATOM     15  C   UNL d   1      -2.767   1.769   0.664  0.00  0.00     0.148 C 
ATOM     16  C   UNL d   1      -1.900   3.714  -0.557  0.00  0.00     0.148 C 
ENDBRANCH  10  14
ENDBRANCH   4   5
ENDBRANCH   3   4
TORSDOF 3
