REMARK  0 active torsions:
REMARK  status: ('A' for Active; 'I' for Inactive)
ROOT
ATOM      1  C   UNL d   1       3.948   0.092  -1.753  0.00  0.00     0.060 C 
ATOM      2  S   UNL d   1       2.567  -0.309  -2.918  0.00  0.00    -0.143 SA
ATOM      3  S   UNL d   1       3.489  -0.334  -0.000  0.00  0.00    -0.143 SA
ATOM      4  C   UNL d   1       0.536  -1.094  -1.207  0.00  0.00    -0.041 C 
ATOM      5  C   UNL d   1       0.652  -0.015  -0.314  0.00  0.00    -0.041 C 
ATOM      6  C   UNL d   1      -0.737  -1.662  -1.419  0.00  0.00     0.015 C 
ATOM      7  C   UNL d   1      -0.537   0.623   0.106  0.00  0.00     0.015 C 
ATOM      8  C   UNL d   1      -1.907  -1.076  -0.914  0.00  0.00    -0.056 C 
ATOM      9  C   UNL d   1      -1.808   0.147  -0.250  0.00  0.00    -0.056 C 
ATOM     10  C   UNL d   1       1.692  -1.650  -2.012  0.00  0.00     0.114 C 
ATOM     11  C   UNL d   1       1.942   0.598   0.194  0.00  0.00     0.114 C 
ATOM     12  C   UNL d   1       5.261  -0.620  -2.239  0.00  0.00     0.010 C 
ATOM     13  C   UNL d   1       4.256   1.613  -1.847  0.00  0.00     0.032 C 
ATOM     14  C   UNL d   1      -3.232  -1.731  -1.187  0.00  0.00     0.049 C 
ATOM     15  C   UNL d   1      -3.026   0.970   0.081  0.00  0.00     0.049 C 
ATOM     16  C   UNL d   1       5.192  -2.132  -2.476  0.00  0.00     0.012 C 
ATOM     17  C   UNL d   1       6.459  -0.281  -1.330  0.00  0.00     0.006 C 
ATOM     18  C   UNL d   1       5.440   2.039  -0.967  0.00  0.00     0.002 C 
ATOM     19  C   UNL d   1       6.702   1.225  -1.243  0.00  0.00     0.001 C 
ENDROOT
TORSDOF 0
