REMARK  1 active torsions:
REMARK  status: ('A' for Active; 'I' for Inactive)
REMARK    1  A    between atoms: C_9  and  C_3 
ROOT
ATOM      1  N   UNL d   1      -6.546   6.590   0.116  0.00  0.00    -0.191 NA
ATOM      2  C   UNL d   1      -2.901   2.620  -0.024  0.00  0.00     0.008 A 
ATOM      3  C   UNL d   1      -5.773   5.723   0.073  0.00  0.00     0.099 C 
ATOM      4  C   UNL d   1      -4.136   2.412   0.603  0.00  0.00     0.017 A 
ATOM      5  C   UNL d   1      -2.632   3.847  -0.645  0.00  0.00     0.017 A 
ATOM      6  C   UNL d   1      -4.809   4.666   0.027  0.00  0.00     0.044 A 
ATOM      7  C   UNL d   1      -3.584   4.867  -0.619  0.00  0.00     0.023 A 
ATOM      8  C   UNL d   1      -5.085   3.436   0.633  0.00  0.00     0.023 A 
ENDROOT
BRANCH   2   9
ATOM      9  C   UNL d   1      -1.873   1.534  -0.023  0.00  0.00     0.118 A 
ATOM     10  N   UNL d   1      -2.297   0.308   0.023  0.00  0.00    -0.308 N 
ATOM     11  C   UNL d   1      -1.384  -0.726   0.014  0.00  0.00     0.259 A 
ATOM     12  HN  UNL d   1      -3.297   0.111   0.066  1.00  0.00     0.170 HD
ATOM     13  C   UNL d   1       0.069  -0.420  -0.001  0.00  0.00     0.059 A 
ATOM     14  O   UNL d   1      -1.730  -1.903   0.028  0.00  0.00    -0.267 OA
ATOM     15  C   UNL d   1       0.443   0.925   0.004  0.00  0.00     0.049 A 
ATOM     16  C   UNL d   1       1.033  -1.432  -0.011  0.00  0.00     0.019 A 
ATOM     17  C   UNL d   1       1.800   1.258   0.002  0.00  0.00     0.030 A 
ATOM     18  N   UNL d   1      -0.549   1.902  -0.063  0.00  0.00    -0.341 N 
ATOM     19  C   UNL d   1       2.767   0.250   0.002  0.00  0.00     0.002 A 
ATOM     20  C   UNL d   1       2.385  -1.092  -0.012  0.00  0.00     0.001 A 
ATOM     21  H   UNL d   1      -0.272   2.862   0.086  0.00  0.00     0.167 HD
ENDBRANCH   2   9
TORSDOF 1
