REMARK  9 active torsions:
REMARK  status: ('A' for Active; 'I' for Inactive)
REMARK    1  A    between atoms: N_4  and  S_1 
REMARK    2  A    between atoms: C_5  and  S_1 
REMARK    3  A    between atoms: C_7  and  C_2 
REMARK    4  A    between atoms: C_3  and  N_4 
REMARK    5  A    between atoms: O_19  and  C_7 
REMARK    6  A    between atoms: O_20  and  C_10 
REMARK    7  A    between atoms: O_21  and  C_11 
REMARK    8  A    between atoms: O_22  and  C_14 
REMARK    9  A    between atoms: O_23  and  C_15 
ROOT
ATOM      1  N   UNL d   1       0.246  -1.455  -0.267  0.00  0.00    -0.180 NA
ATOM      2  H   UNL d   1       0.923  -1.320   0.491  0.00  0.00     0.146 HD
ENDROOT
BRANCH   1   3
ATOM      3  C   UNL d   1       0.670  -2.318  -1.337  0.00  0.00     0.042 A 
ATOM      4  C   UNL d   1       1.965  -2.329  -1.876  0.00  0.00     0.064 A 
ATOM      5  C   UNL d   1       2.270  -3.276  -2.870  0.00  0.00     0.059 A 
ATOM      6  C   UNL d   1       1.323  -4.189  -3.347  0.00  0.00     0.102 A 
ATOM      7  C   UNL d   1       0.028  -4.178  -2.818  0.00  0.00     0.103 A 
ATOM      8  C   UNL d   1      -0.288  -3.231  -1.829  0.00  0.00     0.065 A 
BRANCH   4   9
ATOM      9  C   UNL d   1       3.108  -1.455  -1.488  0.00  0.00     0.294 C 
ATOM     10  O   UNL d   1       4.187  -1.510  -2.062  0.00  0.00    -0.259 OA
BRANCH   9  11
ATOM     11  O   UNL d   1       2.823  -0.640  -0.445  0.00  0.00    -0.322 OA
ATOM     12  C   UNL d   1       3.877   0.269  -0.090  0.00  0.00     0.213 C 
ENDBRANCH   9  11
ENDBRANCH   4   9
BRANCH   6  13
ATOM     13  O   UNL d   1       1.847  -5.063  -4.262  0.00  0.00    -0.353 OA
ATOM     14  C   UNL d   1       0.972  -5.562  -5.264  0.00  0.00     0.210 C 
ENDBRANCH   6  13
BRANCH   7  15
ATOM     15  O   UNL d   1      -0.843  -5.131  -3.274  0.00  0.00    -0.353 OA
ATOM     16  C   UNL d   1      -2.127  -5.226  -2.675  0.00  0.00     0.210 C 
ENDBRANCH   7  15
ENDBRANCH   1   3
BRANCH   1  17
ATOM     17  S   UNL d   1      -0.474   0.037  -0.630  0.00  0.00     0.246 S 
ATOM     18  O   UNL d   1       0.177   0.597  -1.798  0.00  0.00    -0.206 OA
ATOM     19  O   UNL d   1      -0.561   0.769   0.607  0.00  0.00    -0.206 OA
BRANCH  17  20
ATOM     20  C   UNL d   1      -2.123  -0.447  -1.083  0.00  0.00     0.077 A 
ATOM     21  C   UNL d   1      -2.461  -0.515  -2.439  0.00  0.00     0.064 A 
ATOM     22  C   UNL d   1      -3.665  -1.103  -2.843  0.00  0.00     0.102 A 
ATOM     23  C   UNL d   1      -4.559  -1.561  -1.856  0.00  0.00     0.101 A 
ATOM     24  C   UNL d   1      -4.240  -1.399  -0.496  0.00  0.00     0.041 A 
ATOM     25  C   UNL d   1      -3.026  -0.841  -0.101  0.00  0.00     0.028 A 
BRANCH  22  26
ATOM     26  O   UNL d   1      -3.982  -1.301  -4.160  0.00  0.00    -0.353 OA
ATOM     27  C   UNL d   1      -3.025  -0.918  -5.144  0.00  0.00     0.210 C 
ENDBRANCH  22  26
BRANCH  23  28
ATOM     28  O   UNL d   1      -5.740  -2.235  -2.029  0.00  0.00    -0.353 OA
ATOM     29  C   UNL d   1      -6.387  -2.154  -3.291  0.00  0.00     0.210 C 
ENDBRANCH  23  28
ENDBRANCH  17  20
ENDBRANCH   1  17
TORSDOF 9
