REMARK  2 active torsions:
REMARK  status: ('A' for Active; 'I' for Inactive)
REMARK       I    between atoms: C_8  and  N_1 
REMARK    1  A    between atoms: C_6  and  C_4 
REMARK    2  A    between atoms: C_12  and  C_5 
ROOT
ATOM      1  N   UNL d   1       0.182  -1.097   0.053  0.00  0.00    -0.252 N 
ATOM      2  N   UNL d   1       1.167  -0.151  -0.016  0.00  0.00    -0.299 N 
ATOM      3  HN  UNL d   1       2.172  -0.325  -0.030  1.00  0.00     0.187 HD
ATOM      4  C   UNL d   1      -1.169  -0.529   0.051  0.00  0.00     0.151 A 
ATOM      5  C   UNL d   1       0.584   1.008  -0.059  0.00  0.00     0.038 A 
ATOM      6  C   UNL d   1      -0.921   0.975  -0.045  0.00  0.00     0.091 A 
ATOM      7  C   UNL d   1       0.440  -2.451  -0.061  0.00  0.00     0.234 C 
ATOM      8  O   UNL d   1      -0.453  -3.299  -0.104  0.00  0.00    -0.272 OA
ATOM      9  C   UNL d   1       1.890  -2.865  -0.148  0.00  0.00     0.119 C 
ENDROOT
BRANCH   4  10
ATOM     10  C   UNL d   1      -2.006  -0.873   1.274  0.00  0.00    -0.011 A 
ATOM     11  C   UNL d   1      -3.413  -0.901   1.214  0.00  0.00     0.044 A 
ATOM     12  C   UNL d   1      -4.176  -1.220   2.341  0.00  0.00     0.048 A 
ATOM     13 CL   UNL d   1      -4.272  -0.510  -0.236  0.00  0.00    -0.084 Cl
ATOM     14  C   UNL d   1      -3.543  -1.501   3.547  0.00  0.00     0.035 A 
ATOM     15  C   UNL d   1      -2.156  -1.454   3.641  0.00  0.00     0.024 A 
ATOM     16 CL   UNL d   1      -4.481  -1.894   4.934  0.00  0.00    -0.084 Cl
ATOM     17  C   UNL d   1      -1.393  -1.135   2.515  0.00  0.00     0.013 A 
ENDBRANCH   4  10
BRANCH   5  18
ATOM     18  C   UNL d   1       1.341   2.280  -0.133  0.00  0.00    -0.012 A 
ATOM     19  C   UNL d   1       2.737   2.231  -0.222  0.00  0.00     0.014 A 
ATOM     20  C   UNL d   1       3.479   3.411  -0.292  0.00  0.00     0.007 A 
ATOM     21  C   UNL d   1       2.838   4.655  -0.270  0.00  0.00    -0.062 A 
ATOM     22  C   UNL d   1       1.443   4.700  -0.181  0.00  0.00     0.007 A 
ATOM     23  C   UNL d   1       3.648   5.915  -0.353  0.00  0.00     0.048 C 
ATOM     24  C   UNL d   1       0.694   3.519  -0.113  0.00  0.00     0.014 A 
ENDBRANCH   5  18
TORSDOF 2
