REMARK  8 active torsions:
REMARK  status: ('A' for Active; 'I' for Inactive)
REMARK    1  A    between atoms: C_2  and  C_1 
REMARK    2  A    between atoms: C_3  and  C_1 
REMARK    3  A    between atoms: C_8  and  C_1 
REMARK    4  A    between atoms: N_4  and  C_2 
REMARK    5  A    between atoms: C_5  and  C_2 
REMARK    6  A    between atoms: O_11  and  C_3 
REMARK    7  A    between atoms: C_10  and  N_4 
REMARK    8  A    between atoms: C_22  and  O_11 
ROOT
ATOM      1  C   UNL d   1       0.481  -0.709   1.089  0.00  0.00     0.149 C 
ENDROOT
BRANCH   1   2
ATOM      2  C   UNL d   1       1.008   0.140  -0.108  0.00  0.00     0.147 C 
BRANCH   2   3
ATOM      3  C   UNL d   1       2.504   0.456  -0.012  0.00  0.00     0.269 C 
ATOM      4  O   UNL d   1       3.163   0.941  -0.929  0.00  0.00    -0.264 OA
BRANCH   3   5
ATOM      5  O   UNL d   1       3.019   0.234   1.230  0.00  0.00    -0.321 OA
BRANCH   5   6
ATOM      6  C   UNL d   1       4.436   0.430   1.353  0.00  0.00     0.174 C 
ATOM      7  C   UNL d   1       5.169  -0.850   0.997  0.00  0.00     0.034 C 
ENDBRANCH   5   6
ENDBRANCH   3   5
ENDBRANCH   2   3
BRANCH   2   8
ATOM      8  C   UNL d   1       0.595  -0.302  -1.522  0.00  0.00    -0.042 A 
ATOM      9  C   UNL d   1      -0.605   0.161  -2.084  0.00  0.00     0.008 A 
ATOM     10  C   UNL d   1      -0.929  -0.124  -3.416  0.00  0.00     0.001 A 
ATOM     11  C   UNL d   1      -0.066  -0.885  -4.202  0.00  0.00     0.000 A 
ATOM     12  C   UNL d   1       1.110  -1.381  -3.653  0.00  0.00     0.001 A 
ATOM     13  C   UNL d   1       1.433  -1.095  -2.325  0.00  0.00     0.008 A 
ENDBRANCH   2   8
ENDBRANCH   1   2
BRANCH   1  14
ATOM     14  N   UNL d   1      -1.009  -0.661   1.136  0.00  0.00    -0.379 N 
ATOM     15  H   UNL d   1      -1.430  -1.499   0.738  0.00  0.00     0.160 HD
BRANCH  14  16
ATOM     16  C   UNL d   1      -1.661  -0.158   2.266  0.00  0.00     0.028 A 
ATOM     17  C   UNL d   1      -1.176   0.940   2.993  0.00  0.00     0.032 A 
ATOM     18  C   UNL d   1      -1.850   1.419   4.122  0.00  0.00     0.044 A 
ATOM     19  C   UNL d   1      -3.034   0.818   4.517  0.00  0.00     0.116 A 
ATOM     20  C   UNL d   1      -3.566  -0.238   3.791  0.00  0.00     0.044 A 
ATOM     21  F   UNL d   1      -3.677   1.270   5.602  0.00  0.00    -0.206 F 
ATOM     22  C   UNL d   1      -2.887  -0.713   2.663  0.00  0.00     0.032 A 
ENDBRANCH  14  16
ENDBRANCH   1  14
BRANCH   1  23
ATOM     23  C   UNL d   1       0.990  -2.153   1.198  0.00  0.00     0.033 A 
ATOM     24  N   UNL d   1       1.889  -2.605   0.291  0.00  0.00    -0.367 N 
ATOM     25  C   UNL d   1       2.370  -3.859   0.436  0.00  0.00     0.088 A 
ATOM     26  HN  UNL d   1       2.195  -2.014  -0.481  1.00  0.00     0.165 HD
ATOM     27  C   UNL d   1       2.018  -4.702   1.473  0.00  0.00     0.017 A 
ATOM     28  C   UNL d   1       1.113  -4.233   2.414  0.00  0.00     0.003 A 
ATOM     29  C   UNL d   1       0.593  -2.948   2.279  0.00  0.00     0.027 A 
ENDBRANCH   1  23
TORSDOF 8
