REMARK  4 active torsions:
REMARK  status: ('A' for Active; 'I' for Inactive)
REMARK    1  A    between atoms: C_8  and  C_1 
REMARK    2  A    between atoms: C_13  and  C_7 
REMARK    3  A    between atoms: S_10  and  C_9 
REMARK    4  A    between atoms: C_14  and  S_10 
ROOT
ATOM      1  C   UNL d   1      -0.703  -2.408  -0.165  0.00  0.00     0.051 A 
ATOM      2  C   UNL d   1      -0.306  -3.224   0.904  0.00  0.00     0.089 A 
ATOM      3  N   UNL d   1      -0.715  -4.520   1.028  0.00  0.00    -0.359 N 
ATOM      4  HN  UNL d   1      -0.414  -5.090   1.819  1.00  0.00     0.166 HD
ATOM      5  C   UNL d   1      -1.568  -2.975  -1.118  0.00  0.00     0.020 A 
ATOM      6  C   UNL d   1      -1.525  -5.028   0.078  0.00  0.00     0.089 A 
ATOM      7  C   UNL d   1      -1.982  -4.299  -1.000  0.00  0.00     0.018 A 
ENDROOT
BRANCH   1   8
ATOM      8  C   UNL d   1      -0.235  -1.041  -0.347  0.00  0.00     0.177 A 
ATOM      9  O   UNL d   1      -1.126  -0.137  -0.880  0.00  0.00    -0.273 OA
ATOM     10  C   UNL d   1      -0.368   1.006  -0.933  0.00  0.00     0.174 A 
ATOM     11  N   UNL d   1       0.866   0.811  -0.505  0.00  0.00    -0.277 N 
ATOM     12  N   UNL d   1       0.947  -0.510  -0.125  0.00  0.00    -0.277 N 
ATOM     13  HN  UNL d   1       1.614   1.504  -0.463  1.00  0.00     0.189 HD
ATOM     14  HN  UNL d   1       1.766  -0.985   0.254  1.00  0.00     0.189 HD
BRANCH  10  15
ATOM     15  C   UNL d   1      -0.989   2.241  -1.395  0.00  0.00     0.017 A 
ATOM     16  C   UNL d   1      -2.338   2.317  -1.768  0.00  0.00     0.016 A 
ATOM     17  C   UNL d   1      -2.905   3.542  -2.142  0.00  0.00     0.001 A 
ATOM     18  C   UNL d   1      -2.129   4.701  -2.155  0.00  0.00     0.000 A 
ATOM     19  C   UNL d   1      -0.783   4.638  -1.810  0.00  0.00     0.001 A 
ATOM     20  C   UNL d   1      -0.219   3.416  -1.436  0.00  0.00     0.016 A 
ENDBRANCH  10  15
ENDBRANCH   1   8
BRANCH   2  21
ATOM     21  S   UNL d   1       0.664  -2.653   2.296  0.00  0.00    -0.072 SA
BRANCH  21  22
ATOM     22  C   UNL d   1       2.315  -3.100   1.791  0.00  0.00     0.007 A 
ATOM     23  C   UNL d   1       3.304  -2.112   1.755  0.00  0.00     0.019 A 
ATOM     24  C   UNL d   1       4.597  -2.417   1.322  0.00  0.00     0.008 A 
ATOM     25  C   UNL d   1       4.925  -3.719   0.930  0.00  0.00    -0.062 A 
ATOM     26  C   UNL d   1       3.947  -4.717   1.005  0.00  0.00     0.008 A 
ATOM     27  C   UNL d   1       6.280  -4.014   0.357  0.00  0.00     0.048 C 
ATOM     28  C   UNL d   1       2.654  -4.411   1.443  0.00  0.00     0.019 A 
ENDBRANCH  21  22
ENDBRANCH   2  21
TORSDOF 4
