REMARK  3 active torsions:
REMARK  status: ('A' for Active; 'I' for Inactive)
REMARK    1  A    between atoms: C_7  and  C_1 
REMARK    2  A    between atoms: O_15  and  C_7 
REMARK    3  A    between atoms: C_17  and  O_15 
ROOT
ATOM      1  C   UNL d   1      -2.420  -0.821   0.012  0.00  0.00     0.105 A 
ATOM      2  C   UNL d   1       0.126  -0.707   0.005  0.00  0.00     0.048 A 
ATOM      3  C   UNL d   1      -1.109  -1.528   0.072  0.00  0.00     0.202 A 
ATOM      4  C   UNL d   1       0.010   0.691  -0.032  0.00  0.00     0.085 A 
ATOM      5  N   UNL d   1      -1.257   1.284  -0.070  0.00  0.00    -0.362 N 
ATOM      6  C   UNL d   1      -2.396   0.523  -0.035  0.00  0.00     0.110 A 
ATOM      7  C   UNL d   1       1.183   1.450  -0.067  0.00  0.00     0.146 A 
ATOM      8  C   UNL d   1       2.437   0.848  -0.063  0.00  0.00     0.086 A 
ATOM      9  C   UNL d   1       1.379  -1.326   0.009  0.00  0.00     0.060 A 
ATOM     10  O   UNL d   1      -1.001  -2.741   0.217  0.00  0.00    -0.286 OA
ATOM     11  C   UNL d   1       2.522  -0.538  -0.028  0.00  0.00     0.120 A 
ATOM     12  F   UNL d   1       1.102   2.788  -0.101  0.00  0.00    -0.204 F 
ATOM     13  F   UNL d   1       3.724  -1.123  -0.029  0.00  0.00    -0.206 F 
ATOM     14  H   UNL d   1      -1.323   2.298  -0.017  0.00  0.00     0.165 HD
ENDROOT
BRANCH   1  15
ATOM     15  C   UNL d   1      -3.731  -1.499   0.093  0.00  0.00     0.298 C 
ATOM     16  O   UNL d   1      -4.761  -0.951   0.455  0.00  0.00    -0.259 OA
BRANCH  15  17
ATOM     17  O   UNL d   1      -3.604  -2.804  -0.241  0.00  0.00    -0.318 OA
BRANCH  17  18
ATOM     18  C   UNL d   1      -4.615  -3.685   0.260  0.00  0.00     0.174 C 
ATOM     19  C   UNL d   1      -4.245  -4.081   1.679  0.00  0.00     0.034 C 
ENDBRANCH  17  18
ENDBRANCH  15  17
ENDBRANCH   1  15
TORSDOF 3
