REMARK  1 active torsions:
REMARK  status: ('A' for Active; 'I' for Inactive)
REMARK    1  A    between atoms: C_5  and  C_1 
ROOT
ATOM      1  C   UNL d   1      -0.837  -1.028  -0.197  0.00  0.00     0.105 C 
ATOM      2  N   UNL d   1       0.579  -0.955   0.080  0.00  0.00    -0.338 N 
ATOM      3  S   UNL d   1      -1.432   0.639   0.277  0.00  0.00    -0.124 SA
ATOM      4  C   UNL d   1       1.182   0.281   0.023  0.00  0.00     0.228 C 
ATOM      5  C   UNL d   1       0.178   1.405  -0.051  0.00  0.00     0.179 C 
ATOM      6  O   UNL d   1       2.398   0.417   0.016  0.00  0.00    -0.273 OA
ATOM      7  C   UNL d   1      -1.475  -2.091   0.703  0.00  0.00     0.056 C 
ATOM      8  H   UNL d   1       1.171  -1.774   0.036  0.00  0.00     0.164 HD
ENDROOT
BRANCH   1   9
ATOM      9  C   UNL d   1      -1.137  -1.284  -1.681  0.00  0.00    -0.020 A 
ATOM     10  C   UNL d   1      -0.117  -1.428  -2.644  0.00  0.00     0.012 A 
ATOM     11  C   UNL d   1      -0.418  -1.635  -3.994  0.00  0.00     0.020 A 
ATOM     12  C   UNL d   1      -1.744  -1.704  -4.406  0.00  0.00     0.011 A 
ATOM     13  C   UNL d   1      -2.774  -1.569  -3.482  0.00  0.00     0.020 A 
ATOM     14 BR   UNL d   1      -2.149  -1.976  -6.231  0.00  0.00    -0.051 Br
ATOM     15  C   UNL d   1      -2.471  -1.360  -2.132  0.00  0.00     0.012 A 
ENDBRANCH   1   9
TORSDOF 1
