REMARK  6 active torsions:
REMARK  status: ('A' for Active; 'I' for Inactive)
REMARK    1  A    between atoms: N_4  and  S_1 
REMARK    2  A    between atoms: C_7  and  S_1 
REMARK    3  A    between atoms: C_5  and  C_2 
REMARK    4  A    between atoms: N_6  and  C_3 
REMARK    5  A    between atoms: C_12  and  N_4 
REMARK    6  A    between atoms: O_18  and  C_5 
ROOT
ATOM      1  C   UNL d   1       2.418   1.583  -4.065  0.00  0.00     0.068 A 
ATOM      2  C   UNL d   1       1.540   1.574  -5.180  0.00  0.00     0.046 A 
ATOM      3  C   UNL d   1       2.075   0.942  -2.854  0.00  0.00     0.050 A 
ATOM      4  C   UNL d   1       0.278   0.980  -4.961  0.00  0.00     0.033 A 
ATOM      5  C   UNL d   1       0.851   0.301  -2.720  0.00  0.00     0.043 A 
ATOM      6  C   UNL d   1      -0.068   0.356  -3.757  0.00  0.00     0.032 A 
ENDROOT
BRANCH   5   7
ATOM      7  N   UNL d   1       0.529  -0.411  -1.538  0.00  0.00    -0.281 N 
ATOM      8  H   UNL d   1       0.052  -1.306  -1.629  0.00  0.00     0.179 HD
BRANCH   7   9
ATOM      9  S   UNL d   1       0.119   0.409  -0.130  0.00  0.00     0.263 S 
ATOM     10  O   UNL d   1       1.135   1.395   0.166  0.00  0.00    -0.200 OA
ATOM     11  O   UNL d   1      -0.252  -0.604   0.835  0.00  0.00    -0.200 OA
BRANCH   9  12
ATOM     12  C   UNL d   1      -1.375   1.271  -0.581  0.00  0.00     0.080 A 
ATOM     13  C   UNL d   1      -2.608   0.616  -0.458  0.00  0.00     0.028 A 
ATOM     14  C   UNL d   1      -3.786   1.310  -0.745  0.00  0.00     0.044 A 
ATOM     15  C   UNL d   1      -3.719   2.643  -1.140  0.00  0.00     0.116 A 
ATOM     16  C   UNL d   1      -2.495   3.298  -1.257  0.00  0.00     0.044 A 
ATOM     17  F   UNL d   1      -4.849   3.308  -1.401  0.00  0.00    -0.206 F 
ATOM     18  C   UNL d   1      -1.313   2.612  -0.972  0.00  0.00     0.028 A 
ENDBRANCH   9  12
ENDBRANCH   7   9
ENDBRANCH   5   7
BRANCH   1  19
ATOM     19  C   UNL d   1       3.686   2.362  -4.061  0.00  0.00     0.295 C 
ATOM     20  O   UNL d   1       3.817   3.481  -4.533  0.00  0.00    -0.259 OA
BRANCH  19  21
ATOM     21  O   UNL d   1       4.668   1.627  -3.479  0.00  0.00    -0.322 OA
ATOM     22  C   UNL d   1       5.942   2.274  -3.409  0.00  0.00     0.213 C 
ENDBRANCH  19  21
ENDBRANCH   1  19
BRANCH   2  23
ATOM     23  N   UNL d   1       1.852   2.047  -6.443  0.00  0.00    -0.376 N 
ATOM     24  C   UNL d   1       3.200   1.928  -7.032  0.00  0.00     0.149 C 
ATOM     25  C   UNL d   1       3.120   1.194  -8.384  0.00  0.00     0.187 C 
ATOM     26  O   UNL d   1       2.187   1.813  -9.283  0.00  0.00    -0.388 OA
ATOM     27  C   UNL d   1       0.874   1.841  -8.697  0.00  0.00     0.187 C 
ATOM     28  C   UNL d   1       0.867   2.625  -7.375  0.00  0.00     0.149 C 
ENDBRANCH   2  23
TORSDOF 6
