REMARK  6 active torsions:
REMARK  status: ('A' for Active; 'I' for Inactive)
REMARK    1  A    between atoms: N_3  and  C_1 
REMARK    2  A    between atoms: C_5  and  C_2 
REMARK       I    between atoms: N_13  and  C_5 
REMARK       I    between atoms: C_9  and  N_14 
REMARK    3  A    between atoms: C_16  and  C_9 
REMARK    4  A    between atoms: O_19  and  C_12 
REMARK    5  A    between atoms: N_14  and  N_13 
REMARK    6  A    between atoms: O_20  and  C_15 
ROOT
ATOM      1  C   UNL d   1       1.275  -0.268   0.145  0.00  0.00     0.058 A 
ATOM      2  C   UNL d   1       0.376  -1.349   0.096  0.00  0.00     0.063 A 
ATOM      3  C   UNL d   1       0.745   1.037   0.196  0.00  0.00     0.070 A 
ATOM      4  C   UNL d   1      -1.016  -1.090   0.064  0.00  0.00     0.059 A 
ATOM      5  C   UNL d   1      -0.635   1.292   0.171  0.00  0.00     0.103 A 
ATOM      6  C   UNL d   1      -1.528   0.213   0.080  0.00  0.00     0.102 A 
ENDROOT
BRANCH   2   7
ATOM      7  C   UNL d   1       0.791  -2.778  -0.039  0.00  0.00     0.272 C 
ATOM      8  N   UNL d   1       0.081  -3.673   0.746  0.00  0.00    -0.263 N 
ATOM      9  H   UNL d   1      -0.722  -3.424   1.320  0.00  0.00     0.190 HD
ATOM     10  O   UNL d   1       1.701  -3.115  -0.786  0.00  0.00    -0.266 OA
BRANCH   8  11
ATOM     11  N   UNL d   1       0.400  -5.037   0.712  0.00  0.00    -0.267 N 
ATOM     12  C   UNL d   1      -0.599  -5.943   1.017  0.00  0.00     0.243 C 
ATOM     13  O   UNL d   1      -1.736  -5.559   1.301  0.00  0.00    -0.271 OA
ATOM     14  H   UNL d   1       1.339  -5.286   0.409  0.00  0.00     0.190 HD
BRANCH  12  15
ATOM     15  C   UNL d   1      -0.184  -7.428   1.049  0.00  0.00     0.032 C 
ATOM     16  C   UNL d   1       0.836  -7.652   2.176  0.00  0.00     0.025 C 
ATOM     17  C   UNL d   1      -1.424  -8.298   1.330  0.00  0.00     0.025 C 
ATOM     18  C   UNL d   1       0.421  -7.863  -0.293  0.00  0.00     0.025 C 
ENDBRANCH  12  15
ENDBRANCH   8  11
ENDBRANCH   2   7
BRANCH   1  19
ATOM     19  N   UNL d   1       2.703  -0.396   0.196  0.00  0.00    -0.319 N 
ATOM     20  C   UNL d   1       3.625   0.419  -0.484  0.00  0.00     0.013 A 
ATOM     21  C   UNL d   1       4.902   0.034  -0.120  0.00  0.00     0.027 A 
ATOM     22  C   UNL d   1       3.312   1.477  -1.492  0.00  0.00     0.068 C 
ATOM     23  C   UNL d   1       4.791  -1.015   0.798  0.00  0.00     0.027 A 
ATOM     24  C   UNL d   1       3.444  -1.241   1.028  0.00  0.00     0.013 A 
ATOM     25  C   UNL d   1       2.902  -2.177   2.051  0.00  0.00     0.068 C 
ENDBRANCH   1  19
BRANCH   6  26
ATOM     26  O   UNL d   1      -2.868   0.486   0.024  0.00  0.00    -0.353 OA
ATOM     27  C   UNL d   1      -3.705  -0.494  -0.581  0.00  0.00     0.210 C 
ENDBRANCH   6  26
BRANCH   5  28
ATOM     28  O   UNL d   1      -0.929   2.626   0.167  0.00  0.00    -0.353 OA
ATOM     29  C   UNL d   1      -2.175   3.027   0.722  0.00  0.00     0.210 C 
ENDBRANCH   5  28
TORSDOF 6
