REMARK  9 active torsions:
REMARK  status: ('A' for Active; 'I' for Inactive)
REMARK    1  A    between atoms: C_4  and  C_1 
REMARK    2  A    between atoms: C_2  and  C_10 
REMARK    3  A    between atoms: C_8  and  C_2 
REMARK    4  A    between atoms: C_9  and  C_2 
REMARK    5  A    between atoms: C_3  and  C_8 
REMARK       I    between atoms: N_11  and  C_3 
REMARK    6  A    between atoms: C_5  and  C_9 
REMARK    7  A    between atoms: O_25  and  C_5 
REMARK    8  A    between atoms: C_6  and  C_24 
REMARK    9  A    between atoms: C_24  and  N_11 
ROOT
ATOM      1  C   UNL d   1      -1.170   5.183  -0.182  0.00  0.00     0.037 C 
ENDROOT
BRANCH   1   2
ATOM      2  C   UNL d   1      -0.889   3.690  -0.295  0.00  0.00    -0.053 A 
ATOM      3  C   UNL d   1      -0.190   3.055   0.740  0.00  0.00     0.008 A 
ATOM      4  C   UNL d   1      -0.009   1.673   0.733  0.00  0.00     0.017 A 
ATOM      5  C   UNL d   1      -0.520   0.892  -0.311  0.00  0.00     0.047 A 
ATOM      6  C   UNL d   1      -1.184   1.529  -1.369  0.00  0.00     0.017 A 
ATOM      7  C   UNL d   1      -1.367   2.915  -1.363  0.00  0.00     0.008 A 
BRANCH   5   8
ATOM      8  C   UNL d   1      -0.365  -0.608  -0.262  0.00  0.00     0.417 C 
ATOM      9  F   UNL d   1      -0.881  -1.244  -1.351  0.00  0.00    -0.166 F 
ATOM     10  F   UNL d   1      -0.990  -1.156   0.818  0.00  0.00    -0.166 F 
ATOM     11  F   UNL d   1       0.937  -0.998  -0.182  0.00  0.00    -0.166 F 
ENDBRANCH   5   8
ENDBRANCH   1   2
BRANCH   1  12
ATOM     12  C   UNL d   1      -0.669   6.002  -1.385  0.00  0.00     0.112 C 
BRANCH  12  13
ATOM     13  C   UNL d   1       0.842   6.162  -1.473  0.00  0.00     0.218 C 
ATOM     14  N   UNL d   1       1.543   5.028  -1.792  0.00  0.00    -0.355 N 
ATOM     15  H   UNL d   1       1.106   4.117  -1.728  0.00  0.00     0.162 HD
ATOM     16  O   UNL d   1       1.384   7.254  -1.326  0.00  0.00    -0.274 OA
BRANCH  14  17
ATOM     17  C   UNL d   1       2.984   5.038  -1.911  0.00  0.00     0.187 C 
BRANCH  17  18
ATOM     18  C   UNL d   1       3.486   3.648  -2.086  0.00  0.00     0.070 A 
ATOM     19  O   UNL d   1       2.766   2.645  -1.495  0.00  0.00    -0.325 OA
ATOM     20  C   UNL d   1       3.418   1.482  -1.746  0.00  0.00     0.142 A 
ATOM     21  C   UNL d   1       4.547   1.715  -2.494  0.00  0.00     0.027 A 
ATOM     22  C   UNL d   1       4.590   3.113  -2.720  0.00  0.00     0.036 A 
ENDBRANCH  17  18
ENDBRANCH  14  17
ENDBRANCH  12  13
ENDBRANCH   1  12
BRANCH   1  23
ATOM     23  C   UNL d   1      -2.682   5.400   0.025  0.00  0.00     0.119 C 
BRANCH  23  24
ATOM     24  C   UNL d   1      -3.161   4.842   1.344  0.00  0.00     0.140 C 
ATOM     25  O   UNL d   1      -3.127   5.470   2.394  0.00  0.00    -0.650 OA
BRANCH  24  26
ATOM     26  O   UNL d   1      -3.625   3.577   1.278  0.00  0.00    -0.776 OA
ATOM     27  H   UNL d   1      -3.509   3.149   0.408  0.00  0.00     0.167 HD
ENDBRANCH  24  26
ENDBRANCH  23  24
ENDBRANCH   1  23
TORSDOF 9
