REMARK  5 active torsions:
REMARK  status: ('A' for Active; 'I' for Inactive)
REMARK    1  A    between atoms: C_4  and  C_1 
REMARK    2  A    between atoms: C_14  and  C_6 
REMARK    3  A    between atoms: C_7  and  C_12 
REMARK    4  A    between atoms: C_8  and  C_11 
REMARK    5  A    between atoms: C_13  and  C_10 
ROOT
ATOM      1  C   UNL d   1      -5.745   1.108   0.453  0.00  0.00     0.091 C 
ATOM      2  C   UNL d   1      -4.454   1.173   0.067  0.00  0.00     0.063 C 
ATOM      3  C   UNL d   1      -6.519   2.314   0.690  0.00  0.00     0.103 C 
ATOM      4  N   UNL d   1      -7.167   3.255   0.878  0.00  0.00    -0.191 NA
ENDROOT
BRANCH   1   5
ATOM      5  C   UNL d   1      -6.319  -0.207   0.586  0.00  0.00     0.127 A 
ATOM      6  N   UNL d   1      -5.787  -1.397   0.371  0.00  0.00    -0.339 N 
ATOM      7  C   UNL d   1      -6.759  -2.333   0.682  0.00  0.00     0.060 A 
ATOM      8  HN  UNL d   1      -4.841  -1.589   0.040  1.00  0.00     0.167 HD
ATOM      9  C   UNL d   1      -6.727  -3.736   0.645  0.00  0.00     0.032 A 
ATOM     10  C   UNL d   1      -7.922  -1.697   1.093  0.00  0.00     0.060 A 
ATOM     11  C   UNL d   1      -7.875  -4.452   1.026  0.00  0.00     0.002 A 
ATOM     12  C   UNL d   1      -9.030  -3.781   1.434  0.00  0.00     0.002 A 
ATOM     13  C   UNL d   1      -9.078  -2.383   1.478  0.00  0.00     0.032 A 
ATOM     14  N   UNL d   1      -7.620  -0.357   1.020  0.00  0.00    -0.339 N 
ATOM     15  H   UNL d   1      -8.258   0.388   1.264  0.00  0.00     0.167 HD
ENDBRANCH   1   5
BRANCH   2  16
ATOM     16  C   UNL d   1      -3.743   2.404  -0.057  0.00  0.00     0.077 A 
ATOM     17  O   UNL d   1      -3.994   3.515   0.722  0.00  0.00    -0.310 OA
ATOM     18  C   UNL d   1      -3.142   4.514   0.364  0.00  0.00     0.086 A 
ATOM     19  C   UNL d   1      -2.322   4.065  -0.647  0.00  0.00     0.041 A 
ATOM     20  C   UNL d   1      -2.697   2.727  -0.912  0.00  0.00     0.040 A 
BRANCH  18  21
ATOM     21  C   UNL d   1      -3.207   5.750   1.141  0.00  0.00    -0.001 A 
ATOM     22  C   UNL d   1      -2.052   6.538   1.257  0.00  0.00     0.030 A 
ATOM     23  C   UNL d   1      -2.016   7.682   2.069  0.00  0.00     0.049 A 
ATOM     24  C   UNL d   1      -3.176   8.059   2.755  0.00  0.00     0.032 A 
ATOM     25  C   UNL d   1      -4.350   7.293   2.662  0.00  0.00     0.049 A 
ATOM     26  C   UNL d   1      -4.360   6.150   1.835  0.00  0.00     0.030 A 
BRANCH  23  27
ATOM     27  C   UNL d   1      -0.717   8.431   2.248  0.00  0.00     0.417 C 
ATOM     28  F   UNL d   1      -0.806   9.473   3.120  0.00  0.00    -0.166 F 
ATOM     29  F   UNL d   1       0.273   7.627   2.727  0.00  0.00    -0.166 F 
ATOM     30  F   UNL d   1      -0.245   8.952   1.083  0.00  0.00    -0.166 F 
ENDBRANCH  23  27
BRANCH  25  31
ATOM     31  C   UNL d   1      -5.557   7.651   3.501  0.00  0.00     0.417 C 
ATOM     32  F   UNL d   1      -5.332   8.709   4.333  0.00  0.00    -0.166 F 
ATOM     33  F   UNL d   1      -6.645   7.989   2.760  0.00  0.00    -0.166 F 
ATOM     34  F   UNL d   1      -5.945   6.628   4.310  0.00  0.00    -0.166 F 
ENDBRANCH  25  31
ENDBRANCH  18  21
ENDBRANCH   2  16
TORSDOF 5
