REMARK  10 active torsions:
REMARK  status: ('A' for Active; 'I' for Inactive)
REMARK    1  A    between atoms: S_11  and  C_3 
REMARK    2  A    between atoms: O_20  and  C_4 
REMARK    3  A    between atoms: C_7  and  C_12 
REMARK    4  A    between atoms: O_21  and  C_7 
REMARK    5  A    between atoms: C_9  and  C_18 
REMARK       I    between atoms: N_13  and  C_9 
REMARK    6  A    between atoms: C_24  and  C_10 
REMARK    7  A    between atoms: C_18  and  S_11 
REMARK    8  A    between atoms: C_19  and  N_13 
REMARK    9  A    between atoms: C_25  and  O_21 
REMARK   10  A    between atoms: C_26  and  C_24 
ROOT
ATOM      1  C   UNL d   1       4.285  -3.686   0.136  0.00  0.00     0.231 C 
ATOM      2  N   UNL d   1       3.557  -4.847  -0.081  0.00  0.00    -0.327 N 
ATOM      3  O   UNL d   1       5.509  -3.632   0.265  0.00  0.00    -0.272 OA
ATOM      4  H   UNL d   1       2.572  -4.737  -0.296  0.00  0.00     0.169 HD
ENDROOT
BRANCH   1   5
ATOM      5  C   UNL d   1       3.492  -2.386   0.099  0.00  0.00     0.185 C 
BRANCH   5   6
ATOM      6  S   UNL d   1       1.839  -2.504   0.840  0.00  0.00    -0.085 SA
BRANCH   6   7
ATOM      7  C   UNL d   1       2.337  -3.081   2.441  0.00  0.00     0.146 A 
ATOM      8  N   UNL d   1       1.731  -4.188   2.885  0.00  0.00    -0.318 N 
ATOM      9  C   UNL d   1       2.266  -4.702   3.993  0.00  0.00     0.143 A 
ATOM     10  HN  UNL d   1       0.927  -4.605   2.415  1.00  0.00     0.170 HD
ATOM     11  C   UNL d   1       3.347  -4.201   4.668  0.00  0.00     0.081 A 
ATOM     12  C   UNL d   1       3.886  -3.048   4.141  0.00  0.00     0.015 A 
ATOM     13  N   UNL d   1       3.384  -2.475   3.026  0.00  0.00    -0.340 N 
ATOM     14  HN  UNL d   1       3.783  -1.617   2.645  1.00  0.00     0.167 HD
BRANCH   9  15
ATOM     15  O   UNL d   1       1.663  -5.840   4.421  0.00  0.00    -0.346 OA
ATOM     16  H   UNL d   1       0.968  -5.941   3.746  0.00  0.00     0.219 HD
ENDBRANCH   9  15
BRANCH  12  17
ATOM     17  C   UNL d   1       5.113  -2.418   4.748  0.00  0.00     0.057 C 
BRANCH  17  18
ATOM     18  C   UNL d   1       4.880  -1.010   5.303  0.00  0.00     0.002 C 
ATOM     19  C   UNL d   1       3.928  -0.985   6.490  0.00  0.00     0.005 C 
ENDBRANCH  17  18
ENDBRANCH  12  17
ENDBRANCH   6   7
ENDBRANCH   5   6
ENDBRANCH   1   5
BRANCH   2  20
ATOM     20  C   UNL d   1       4.040  -6.171   0.028  0.00  0.00     0.034 A 
ATOM     21  C   UNL d   1       5.305  -6.473   0.535  0.00  0.00     0.030 A 
ATOM     22  C   UNL d   1       5.722  -7.795   0.690  0.00  0.00     0.020 A 
ATOM     23  C   UNL d   1       4.874  -8.850   0.346  0.00  0.00     0.039 A 
ATOM     24  C   UNL d   1       3.613  -8.563  -0.190  0.00  0.00     0.020 A 
ATOM     25  C   UNL d   1       3.197  -7.229  -0.340  0.00  0.00     0.030 A 
BRANCH  23  26
ATOM     26  C   UNL d   1       5.239 -10.264   0.642  0.00  0.00     0.293 C 
ATOM     27  O   UNL d   1       4.496 -11.211   0.469  0.00  0.00    -0.259 OA
BRANCH  26  28
ATOM     28  O   UNL d   1       6.451 -10.288   1.254  0.00  0.00    -0.318 OA
BRANCH  28  29
ATOM     29  C   UNL d   1       6.729 -11.432   2.070  0.00  0.00     0.174 C 
ATOM     30  C   UNL d   1       6.175 -11.164   3.459  0.00  0.00     0.034 C 
ENDBRANCH  28  29
ENDBRANCH  26  28
ENDBRANCH  23  26
ENDBRANCH   2  20
TORSDOF 10
