REMARK  3 active torsions:
REMARK  status: ('A' for Active; 'I' for Inactive)
REMARK    1  A    between atoms: C_9  and  C_6 
REMARK    2  A    between atoms: C_8  and  C_7 
REMARK    3  A    between atoms: C_14  and  C_11 
ROOT
ATOM      1  C   UNL d   1       0.361  -0.740   0.024  0.00  0.00     0.111 A 
ATOM      2  N   UNL d   1       1.556  -0.063   0.004  0.00  0.00    -0.332 N 
ATOM      3  HN  UNL d   1       2.501  -0.443  -0.030  1.00  0.00     0.168 HD
ATOM      4  C   UNL d   1      -0.773   0.230   0.068  0.00  0.00     0.316 A 
ATOM      5  O   UNL d   1      -0.138   1.435   0.077  0.00  0.00    -0.256 OA
ATOM      6  C   UNL d   1       1.185   1.172   0.037  0.00  0.00     0.152 A 
ATOM      7  C   UNL d   1       0.276  -2.079   0.008  0.00  0.00     0.048 C 
ATOM      8  O   UNL d   1      -1.972   0.051   0.080  0.00  0.00    -0.257 OA
ENDROOT
BRANCH   7   9
ATOM      9  C   UNL d   1      -0.973  -2.855   0.045  0.00  0.00    -0.023 A 
ATOM     10  C   UNL d   1      -1.567  -3.273   1.267  0.00  0.00    -0.016 A 
ATOM     11  C   UNL d   1      -2.809  -3.956   1.217  0.00  0.00    -0.025 A 
ATOM     12  C   UNL d   1      -0.990  -3.051   2.540  0.00  0.00     0.013 A 
ATOM     13  C   UNL d   1      -3.429  -4.373   2.406  0.00  0.00     0.012 A 
ATOM     14  C   UNL d   1      -3.417  -4.214  -0.020  0.00  0.00     0.012 A 
ATOM     15  C   UNL d   1      -2.834  -4.142   3.646  0.00  0.00     0.001 A 
ATOM     16  C   UNL d   1      -1.613  -3.484   3.712  0.00  0.00     0.001 A 
ATOM     17  C   UNL d   1      -2.803  -3.835  -1.211  0.00  0.00     0.002 A 
ATOM     18  C   UNL d   1      -1.584  -3.165  -1.181  0.00  0.00     0.012 A 
ENDBRANCH   7   9
BRANCH   6  19
ATOM     19  C   UNL d   1       2.069   2.341   0.018  0.00  0.00     0.057 C 
ATOM     20  C   UNL d   1       1.631   3.608   0.046  0.00  0.00     0.015 C 
BRANCH  20  21
ATOM     21  C   UNL d   1       2.524   4.776  -0.034  0.00  0.00    -0.036 A 
ATOM     22  C   UNL d   1       3.738   4.733  -0.736  0.00  0.00     0.011 A 
ATOM     23  C   UNL d   1       4.544   5.867  -0.842  0.00  0.00     0.001 A 
ATOM     24  C   UNL d   1       4.139   7.065  -0.262  0.00  0.00     0.000 A 
ATOM     25  C   UNL d   1       2.930   7.129   0.428  0.00  0.00     0.001 A 
ATOM     26  C   UNL d   1       2.125   5.991   0.539  0.00  0.00     0.011 A 
ENDBRANCH  20  21
ENDBRANCH   6  19
TORSDOF 3
