REMARK  8 active torsions:
REMARK  status: ('A' for Active; 'I' for Inactive)
REMARK    1  A    between atoms: O_4  and  C_1 
REMARK    2  A    between atoms: C_3  and  C_2 
REMARK    3  A    between atoms: S_5  and  C_3 
REMARK    4  A    between atoms: C_12  and  O_4 
REMARK    5  A    between atoms: C_11  and  S_5 
REMARK    6  A    between atoms: C_8  and  C_11 
REMARK    7  A    between atoms: O_13  and  C_8 
REMARK    8  A    between atoms: C_16  and  O_13 
ROOT
ATOM      1  C   UNL d   1      -0.491   0.777  -0.108  0.00  0.00     0.162 A 
ATOM      2  C   UNL d   1       0.864   1.020  -0.320  0.00  0.00     0.072 A 
ATOM      3  N   UNL d   1      -0.985  -0.458   0.207  0.00  0.00    -0.346 N 
ATOM      4  HN  UNL d   1      -1.978  -0.587   0.399  1.00  0.00     0.167 HD
ATOM      5  C   UNL d   1       1.715  -0.102  -0.232  0.00  0.00     0.022 A 
ATOM      6  C   UNL d   1      -0.135  -1.500   0.259  0.00  0.00     0.090 A 
ATOM      7  C   UNL d   1       1.218  -1.373   0.044  0.00  0.00     0.018 A 
ENDROOT
BRANCH   2   8
ATOM      8  C   UNL d   1       1.542   2.304  -0.655  0.00  0.00     0.223 C 
ATOM      9  O   UNL d   1       2.762   2.306  -0.786  0.00  0.00    -0.280 OA
BRANCH   8  10
ATOM     10  S   UNL d   1       0.709   3.830  -0.772  0.00  0.00    -0.077 SA
BRANCH  10  11
ATOM     11  C   UNL d   1       0.143   3.841  -2.482  0.00  0.00     0.193 C 
BRANCH  11  12
ATOM     12  C   UNL d   1       1.087   3.475  -3.602  0.00  0.00     0.268 C 
ATOM     13  O   UNL d   1       0.649   3.158  -4.708  0.00  0.00    -0.264 OA
BRANCH  12  14
ATOM     14  O   UNL d   1       2.406   3.596  -3.327  0.00  0.00    -0.321 OA
BRANCH  14  15
ATOM     15  C   UNL d   1       3.299   3.332  -4.426  0.00  0.00     0.174 C 
ATOM     16  C   UNL d   1       3.435   1.841  -4.703  0.00  0.00     0.034 C 
ENDBRANCH  14  15
ENDBRANCH  12  14
ENDBRANCH  11  12
ENDBRANCH  10  11
ENDBRANCH   8  10
ENDBRANCH   2   8
BRANCH   1  17
ATOM     17  O   UNL d   1      -1.432   1.788  -0.221  0.00  0.00    -0.293 OA
BRANCH  17  18
ATOM     18  C   UNL d   1      -2.649   1.406  -0.753  0.00  0.00     0.077 A 
ATOM     19  C   UNL d   1      -3.815   1.739  -0.065  0.00  0.00     0.037 A 
ATOM     20  C   UNL d   1      -5.059   1.351  -0.582  0.00  0.00     0.003 A 
ATOM     21  C   UNL d   1      -5.128   0.646  -1.783  0.00  0.00     0.000 A 
ATOM     22  C   UNL d   1      -3.964   0.343  -2.486  0.00  0.00     0.003 A 
ATOM     23  C   UNL d   1      -2.726   0.736  -1.981  0.00  0.00     0.037 A 
ENDBRANCH  17  18
ENDBRANCH   1  17
TORSDOF 8
