REMARK  5 active torsions:
REMARK  status: ('A' for Active; 'I' for Inactive)
REMARK    1  A    between atoms: N_2  and  S_1 
REMARK    2  A    between atoms: C_5  and  S_1 
REMARK    3  A    between atoms: C_3  and  N_2 
REMARK       I    between atoms: C_4  and  N_6 
REMARK    4  A    between atoms: C_9  and  C_4 
REMARK    5  A    between atoms: N_6  and  C_24 
ROOT
ATOM      1  C   UNL d   1       0.437  -1.600  -0.787  0.00  0.00     0.079 A 
ATOM      2  C   UNL d   1       1.478  -2.482  -1.093  0.00  0.00     0.027 A 
ATOM      3  C   UNL d   1      -0.876  -1.925  -1.131  0.00  0.00     0.027 A 
ATOM      4  C   UNL d   1      -0.117  -4.046  -2.054  0.00  0.00     0.035 A 
ATOM      5  C   UNL d   1       1.200  -3.688  -1.742  0.00  0.00     0.031 A 
ATOM      6  C   UNL d   1      -1.148  -3.147  -1.763  0.00  0.00     0.031 A 
ENDROOT
BRANCH   1   7
ATOM      7  S   UNL d   1       0.756  -0.181   0.237  0.00  0.00     0.259 S 
ATOM      8  O   UNL d   1      -0.378  -0.045   1.124  0.00  0.00    -0.201 OA
ATOM      9  O   UNL d   1       2.093  -0.305   0.768  0.00  0.00    -0.201 OA
BRANCH   7  10
ATOM     10  N   UNL d   1       0.670   1.144  -0.785  0.00  0.00    -0.305 N 
ATOM     11  H   UNL d   1      -0.003   1.828  -0.432  0.00  0.00     0.173 HD
BRANCH  10  12
ATOM     12  C   UNL d   1       1.740   1.643  -1.669  0.00  0.00     0.041 C 
ATOM     13  C   UNL d   1       2.067   0.627  -2.778  0.00  0.00     0.036 C 
ATOM     14  C   UNL d   1       3.125   1.197  -3.738  0.00  0.00    -0.012 C 
ATOM     15  C   UNL d   1       2.586   2.477  -4.394  0.00  0.00     0.009 C 
ATOM     16  C   UNL d   1       4.396   1.528  -2.936  0.00  0.00     0.009 C 
ATOM     17  C   UNL d   1       2.260   3.521  -3.314  0.00  0.00    -0.012 C 
ATOM     18  C   UNL d   1       1.211   2.937  -2.351  0.00  0.00     0.036 C 
ATOM     19  C   UNL d   1       3.541   3.853  -2.533  0.00  0.00     0.009 C 
ATOM     20  C   UNL d   1       4.084   2.584  -1.860  0.00  0.00    -0.012 C 
ATOM     21  C   UNL d   1       3.022   2.023  -0.898  0.00  0.00     0.036 C 
ENDBRANCH  10  12
ENDBRANCH   7  10
ENDBRANCH   1   7
BRANCH   4  22
ATOM     22  N   UNL d   1      -0.315  -5.326  -2.616  0.00  0.00    -0.323 N 
ATOM     23  C   UNL d   1      -1.522  -5.945  -2.891  0.00  0.00     0.256 C 
ATOM     24  O   UNL d   1      -2.640  -5.465  -2.750  0.00  0.00    -0.267 OA
ATOM     25  H   UNL d   1       0.528  -5.842  -2.829  0.00  0.00     0.169 HD
BRANCH  23  26
ATOM     26  C   UNL d   1      -1.416  -7.327  -3.446  0.00  0.00     0.032 A 
ATOM     27  C   UNL d   1      -0.404  -8.218  -3.061  0.00  0.00     0.018 A 
ATOM     28  C   UNL d   1      -0.336  -9.490  -3.638  0.00  0.00     0.025 A 
ATOM     29  C   UNL d   1      -1.283  -9.877  -4.586  0.00  0.00     0.034 A 
ATOM     30  C   UNL d   1      -2.312  -9.010  -4.950  0.00  0.00     0.025 A 
ATOM     31 CL   UNL d   1      -1.182 -11.434  -5.310  0.00  0.00    -0.084 Cl
ATOM     32  C   UNL d   1      -2.382  -7.739  -4.375  0.00  0.00     0.018 A 
ENDBRANCH  23  26
ENDBRANCH   4  22
TORSDOF 5
