REMARK  10 active torsions:
REMARK  status: ('A' for Active; 'I' for Inactive)
REMARK    1  A    between atoms: C_7  and  C_1 
REMARK    2  A    between atoms: S_2  and  C_4 
REMARK    3  A    between atoms: C_6  and  S_2 
REMARK    4  A    between atoms: C_3  and  C_4 
REMARK    5  A    between atoms: C_5  and  C_3 
REMARK    6  A    between atoms: C_4  and  C_9 
REMARK    7  A    between atoms: C_8  and  C_5 
REMARK    8  A    between atoms: N_21  and  C_10 
REMARK    9  A    between atoms: C_25  and  C_22 
REMARK   10  A    between atoms: C_27  and  C_25 
ROOT
ATOM      1  C   UNL d   1      -0.981   5.280   0.395  0.00  0.00     0.092 C 
ENDROOT
BRANCH   1   2
ATOM      2  S   UNL d   1      -0.892   5.876  -1.384  0.00  0.00    -0.118 SA
BRANCH   2   3
ATOM      3  C   UNL d   1       0.778   5.431  -1.894  0.00  0.00     0.022 A 
ATOM      4  C   UNL d   1       0.985   4.842  -3.164  0.00  0.00     0.022 A 
ATOM      5  C   UNL d   1       2.264   4.397  -3.518  0.00  0.00     0.024 A 
ATOM      6  C   UNL d   1       3.345   4.592  -2.659  0.00  0.00     0.002 A 
ATOM      7  C   UNL d   1       3.155   5.232  -1.437  0.00  0.00     0.001 A 
ATOM      8  C   UNL d   1       1.879   5.657  -1.059  0.00  0.00     0.020 A 
BRANCH   4   9
ATOM      9  N   UNL d   1      -0.087   4.548  -4.041  0.00  0.00    -0.302 NA
ATOM     10  H   UNL d   1      -0.918   5.062  -3.749  0.00  0.00     0.124 HD
ATOM     11  H   UNL d   1      -0.280   3.548  -4.043  0.00  0.00     0.124 HD
ENDBRANCH   4   9
ENDBRANCH   2   3
ENDBRANCH   1   2
BRANCH   1  12
ATOM     12  C   UNL d   1      -2.453   5.396   0.833  0.00  0.00     0.104 C 
BRANCH  12  13
ATOM     13  C   UNL d   1      -2.660   5.422   2.344  0.00  0.00     0.161 C 
ATOM     14  O   UNL d   1      -1.753   5.186   3.142  0.00  0.00    -0.292 OA
BRANCH  13  15
ATOM     15  C   UNL d   1      -4.012   5.795   2.878  0.00  0.00     0.010 A 
ATOM     16  C   UNL d   1      -5.050   6.237   2.053  0.00  0.00     0.015 A 
ATOM     17  C   UNL d   1      -6.247   6.701   2.610  0.00  0.00     0.008 A 
ATOM     18  C   UNL d   1      -6.440   6.730   3.999  0.00  0.00    -0.058 A 
ATOM     19  C   UNL d   1      -5.437   6.196   4.815  0.00  0.00     0.008 A 
ATOM     20  C   UNL d   1      -4.228   5.750   4.262  0.00  0.00     0.015 A 
BRANCH  18  21
ATOM     21  C   UNL d   1      -7.735   7.301   4.543  0.00  0.00     0.042 C 
BRANCH  21  22
ATOM     22  C   UNL d   1      -7.692   7.999   5.920  0.00  0.00    -0.019 C 
ATOM     23  C   UNL d   1      -6.698   9.163   5.968  0.00  0.00     0.010 C 
ATOM     24  C   UNL d   1      -9.090   8.524   6.272  0.00  0.00     0.010 C 
ENDBRANCH  21  22
ENDBRANCH  18  21
ENDBRANCH  13  15
ENDBRANCH  12  13
ENDBRANCH   1  12
BRANCH   1  25
ATOM     25  C   UNL d   1      -0.370   3.896   0.590  0.00  0.00    -0.044 A 
ATOM     26  C   UNL d   1       0.489   3.687   1.682  0.00  0.00     0.009 A 
ATOM     27  C   UNL d   1       1.217   2.504   1.812  0.00  0.00     0.017 A 
ATOM     28  C   UNL d   1       1.114   1.500   0.844  0.00  0.00     0.047 A 
ATOM     29  C   UNL d   1       0.200   1.667  -0.205  0.00  0.00     0.017 A 
ATOM     30  C   UNL d   1      -0.552   2.842  -0.317  0.00  0.00     0.009 A 
BRANCH  28  31
ATOM     31  C   UNL d   1       2.001   0.283   0.932  0.00  0.00     0.417 C 
ATOM     32  F   UNL d   1       1.897  -0.547  -0.144  0.00  0.00    -0.166 F 
ATOM     33  F   UNL d   1       1.732  -0.486   2.023  0.00  0.00    -0.166 F 
ATOM     34  F   UNL d   1       3.321   0.607   1.021  0.00  0.00    -0.166 F 
ENDBRANCH  28  31
ENDBRANCH   1  25
TORSDOF 10
