REMARK  3 active torsions:
REMARK  status: ('A' for Active; 'I' for Inactive)
REMARK    1  A    between atoms: C_8  and  N_1 
REMARK    2  A    between atoms: C_7  and  C_2 
REMARK    3  A    between atoms: C_16  and  C_8 
ROOT
ATOM      1  N   UNL d   1      -0.079  -1.252  -0.034  0.00  0.00    -0.256 N 
ATOM      2  C   UNL d   1       1.118  -0.573  -0.106  0.00  0.00     0.144 A 
ATOM      3  N   UNL d   1      -0.547   0.816  -0.164  0.00  0.00    -0.007 NA
ATOM      4  N   UNL d   1      -1.105  -0.378  -0.083  0.00  0.00    -0.004 NA
ATOM      5  N   UNL d   1       0.815   0.714  -0.195  0.00  0.00    -0.270 N 
ATOM      6  HN  UNL d   1       1.477   1.486  -0.273  1.00  0.00     0.185 HD
ENDROOT
BRANCH   2   7
ATOM      7  C   UNL d   1       2.489  -1.092  -0.122  0.00  0.00     0.013 A 
ATOM      8  C   UNL d   1       3.473  -0.358  -0.809  0.00  0.00     0.039 A 
ATOM      9  C   UNL d   1       4.809  -0.765  -0.802  0.00  0.00     0.036 A 
ATOM     10 CL   UNL d   1       5.990   0.171  -1.633  0.00  0.00    -0.084 Cl
ATOM     11  C   UNL d   1       5.194  -1.912  -0.121  0.00  0.00     0.047 A 
ATOM     12  C   UNL d   1       4.230  -2.643   0.563  0.00  0.00     0.036 A 
ATOM     13  C   UNL d   1       2.892  -2.236   0.575  0.00  0.00     0.039 A 
ATOM     14 CL   UNL d   1       4.689  -4.062   1.423  0.00  0.00    -0.084 Cl
ENDBRANCH   2   7
BRANCH   1  15
ATOM     15  C   UNL d   1      -0.377  -2.673  -0.027  0.00  0.00     0.186 C 
BRANCH  15  16
ATOM     16  C   UNL d   1      -0.399  -3.283   1.359  0.00  0.00    -0.039 A 
ATOM     17  C   UNL d   1      -0.778  -2.560   2.502  0.00  0.00     0.009 A 
ATOM     18  C   UNL d   1      -0.763  -3.158   3.762  0.00  0.00     0.001 A 
ATOM     19  C   UNL d   1      -0.393  -4.494   3.899  0.00  0.00     0.000 A 
ATOM     20  C   UNL d   1      -0.053  -5.237   2.772  0.00  0.00     0.001 A 
ATOM     21  C   UNL d   1      -0.064  -4.640   1.510  0.00  0.00     0.009 A 
ENDBRANCH  15  16
ENDBRANCH   1  15
TORSDOF 3
