REMARK  6 active torsions:
REMARK  status: ('A' for Active; 'I' for Inactive)
REMARK    1  A    between atoms: C_6  and  C_1 
REMARK    2  A    between atoms: N_17  and  C_4 
REMARK       I    between atoms: C_5  and  N_16 
REMARK       I    between atoms: N_7  and  C_5 
REMARK    3  A    between atoms: C_8  and  N_7 
REMARK    4  A    between atoms: N_16  and  C_22 
REMARK    5  A    between atoms: C_24  and  N_17 
REMARK    6  A    between atoms: C_22  and  C_24 
ROOT
ATOM      1  C   UNL d   1      -0.136   4.631  -3.740  0.00  0.00     0.115 C 
ENDROOT
BRANCH   1   2
ATOM      2  C   UNL d   1       0.234   6.121  -3.578  0.00  0.00     0.139 C 
BRANCH   2   3
ATOM      3  N   UNL d   1       0.144   6.877  -4.819  0.00  0.00    -0.342 N 
ATOM      4  C   UNL d   1      -0.682   7.912  -5.142  0.00  0.00     0.320 C 
ATOM      5  N   UNL d   1      -1.345   8.498  -4.104  0.00  0.00    -0.307 N 
ATOM      6  O   UNL d   1      -0.751   8.259  -6.319  0.00  0.00    -0.247 OA
ATOM      7  H   UNL d   1      -0.824   8.561  -3.241  0.00  0.00     0.170 HD
ATOM      8  H   UNL d   1       0.666   6.544  -5.622  0.00  0.00     0.164 HD
BRANCH   5   9
ATOM      9  C   UNL d   1      -2.404   9.429  -4.237  0.00  0.00     0.058 A 
ATOM     10  C   UNL d   1      -2.584  10.419  -3.256  0.00  0.00     0.060 A 
ATOM     11 CL   UNL d   1      -1.444  10.613  -1.968  0.00  0.00    -0.082 Cl
ATOM     12  C   UNL d   1      -3.669  11.296  -3.318  0.00  0.00     0.026 A 
ATOM     13  C   UNL d   1      -4.600  11.178  -4.349  0.00  0.00     0.002 A 
ATOM     14  C   UNL d   1      -4.427  10.205  -5.332  0.00  0.00     0.002 A 
ATOM     15  C   UNL d   1      -3.328   9.342  -5.285  0.00  0.00     0.031 A 
ENDBRANCH   5   9
ENDBRANCH   2   3
ENDBRANCH   1   2
BRANCH   1  16
ATOM     16  N   UNL d   1      -0.027   3.976  -2.448  0.00  0.00    -0.263 NA
ATOM     17  H   UNL d   1       0.844   4.101  -1.945  0.00  0.00     0.130 HD
BRANCH  16  18
ATOM     18  C   UNL d   1      -0.329   2.630  -2.374  0.00  0.00     0.157 A 
ATOM     19  N   UNL d   1       0.290   1.976  -1.389  0.00  0.00    -0.329 N 
ATOM     20  C   UNL d   1       0.001   0.661  -1.205  0.00  0.00     0.120 A 
ATOM     21  HN  UNL d   1       0.964   2.452  -0.789  1.00  0.00     0.168 HD
ATOM     22  C   UNL d   1      -0.895   0.001  -2.023  0.00  0.00     0.051 A 
ATOM     23  C   UNL d   1      -1.463   0.752  -3.022  0.00  0.00     0.093 A 
ATOM     24  N   UNL d   1      -1.191   2.061  -3.215  0.00  0.00    -0.343 N 
ATOM     25  HN  UNL d   1      -1.627   2.589  -3.971  1.00  0.00     0.167 HD
BRANCH  20  26
ATOM     26  C   UNL d   1       0.665  -0.096  -0.069  0.00  0.00     0.432 C 
ATOM     27  F   UNL d   1       1.569   0.634   0.643  0.00  0.00    -0.165 F 
ATOM     28  F   UNL d   1       1.343  -1.199  -0.506  0.00  0.00    -0.165 F 
ATOM     29  F   UNL d   1      -0.238  -0.564   0.843  0.00  0.00    -0.165 F 
ENDBRANCH  20  26
ENDBRANCH  16  18
ENDBRANCH   1  16
TORSDOF 6
