REMARK  4 active torsions:
REMARK  status: ('A' for Active; 'I' for Inactive)
REMARK    1  A    between atoms: S_2  and  C_1 
REMARK    2  A    between atoms: C_9  and  S_2 
REMARK    3  A    between atoms: C_7  and  C_4 
REMARK       I    between atoms: N_8  and  C_7 
REMARK    4  A    between atoms: C_10  and  N_8 
ROOT
ATOM      1  C   UNL d   1       0.748   1.290   0.179  0.00  0.00     0.078 A 
ATOM      2  C   UNL d   1       1.317  -0.039   0.106  0.00  0.00    -0.017 A 
ATOM      3  C   UNL d   1       0.320  -1.022   0.209  0.00  0.00     0.080 A 
ATOM      4  S   UNL d   1      -1.221  -0.335   0.498  0.00  0.00    -0.094 SA
ATOM      5  C   UNL d   1      -0.615   1.253   0.398  0.00  0.00     0.075 A 
ATOM      6  C   UNL d   1       2.768  -0.389  -0.079  0.00  0.00     0.051 C 
ENDROOT
BRANCH   3   7
ATOM      7  C   UNL d   1       0.505  -2.475   0.079  0.00  0.00     0.263 C 
ATOM      8  N   UNL d   1      -0.628  -3.272   0.240  0.00  0.00    -0.320 N 
ATOM      9  H   UNL d   1      -1.514  -2.782   0.216  0.00  0.00     0.169 HD
ATOM     10  O   UNL d   1       1.593  -2.939  -0.241  0.00  0.00    -0.267 OA
BRANCH   8  11
ATOM     11  C   UNL d   1      -0.645  -4.686   0.132  0.00  0.00     0.074 A 
ATOM     12  C   UNL d   1       0.466  -5.513   0.375  0.00  0.00     0.146 A 
ATOM     13  C   UNL d   1       0.420  -6.885   0.140  0.00  0.00     0.086 A 
ATOM     14  F   UNL d   1       1.587  -5.036   0.934  0.00  0.00    -0.204 F 
ATOM     15  C   UNL d   1      -0.762  -7.452  -0.302  0.00  0.00     0.119 A 
ATOM     16  C   UNL d   1      -1.904  -6.675  -0.475  0.00  0.00     0.044 A 
ATOM     17  F   UNL d   1      -0.814  -8.768  -0.544  0.00  0.00    -0.206 F 
ATOM     18  C   UNL d   1      -1.849  -5.293  -0.248  0.00  0.00     0.036 A 
ENDBRANCH   8  11
ENDBRANCH   3   7
BRANCH   1  19
ATOM     19  S   UNL d   1       1.582   2.824   0.056  0.00  0.00     0.207 S 
ATOM     20  O   UNL d   1       2.834   2.581  -0.626  0.00  0.00    -0.217 OA
ATOM     21  O   UNL d   1       0.582   3.728  -0.481  0.00  0.00    -0.217 OA
BRANCH  19  22
ATOM     22  C   UNL d   1       1.921   3.292   1.734  0.00  0.00     0.064 A 
ATOM     23  C   UNL d   1       2.784   2.508   2.507  0.00  0.00     0.025 A 
ATOM     24  C   UNL d   1       2.997   2.839   3.847  0.00  0.00     0.025 A 
ATOM     25  C   UNL d   1       2.362   3.953   4.398  0.00  0.00     0.034 A 
ATOM     26  C   UNL d   1       1.528   4.753   3.616  0.00  0.00     0.025 A 
ATOM     27 CL   UNL d   1       2.604   4.338   6.057  0.00  0.00    -0.084 Cl
ATOM     28  C   UNL d   1       1.307   4.426   2.276  0.00  0.00     0.025 A 
ENDBRANCH  19  22
ENDBRANCH   1  19
TORSDOF 4
