REMARK  2 active torsions:
REMARK  status: ('A' for Active; 'I' for Inactive)
REMARK    1  A    between atoms: C_10  and  N_4 
REMARK    2  A    between atoms: O_14  and  C_7 
ROOT
ATOM      1  C   UNL d   1      -0.320  -1.206   0.061  0.00  0.00     0.147 C 
ATOM      2  N   UNL d   1       0.898  -0.702   0.161  0.00  0.00    -0.304 N 
ATOM      3  HN  UNL d   1       1.767  -1.174   0.412  1.00  0.00     0.171 HD
ATOM      4  N   UNL d   1      -1.228  -0.167  -0.145  0.00  0.00    -0.236 N 
ATOM      5  N   UNL d   1      -0.538   0.969  -0.429  0.00  0.00    -0.256 N 
ATOM      6  HN  UNL d   1      -0.882   1.869  -0.764  1.00  0.00     0.191 HD
ATOM      7  C   UNL d   1       0.700   0.595  -0.152  0.00  0.00     0.238 C 
ATOM      8  C   UNL d   1      -0.561  -2.624   0.031  0.00  0.00     0.050 A 
ATOM      9  S   UNL d   1      -1.766  -3.352  -0.953  0.00  0.00    -0.098 SA
ATOM     10  C   UNL d   1       0.207  -3.591   0.657  0.00  0.00     0.023 A 
ATOM     11  C   UNL d   1      -1.324  -4.927  -0.466  0.00  0.00     0.050 A 
ATOM     12  C   UNL d   1      -0.238  -4.917   0.380  0.00  0.00     0.009 A 
ENDROOT
BRANCH   4  13
ATOM     13  C   UNL d   1      -2.640  -0.128  -0.024  0.00  0.00     0.058 A 
ATOM     14  C   UNL d   1      -3.312  -0.961   0.879  0.00  0.00     0.031 A 
ATOM     15  C   UNL d   1      -4.704  -0.896   0.979  0.00  0.00     0.002 A 
ATOM     16  C   UNL d   1      -5.425  -0.011   0.178  0.00  0.00     0.000 A 
ATOM     17  C   UNL d   1      -4.756   0.834  -0.707  0.00  0.00     0.002 A 
ATOM     18  C   UNL d   1      -3.364   0.793  -0.795  0.00  0.00     0.031 A 
ENDBRANCH   4  13
BRANCH   7  19
ATOM     19  O   UNL d   1       1.655   1.516  -0.225  0.00  0.00    -0.331 OA
ATOM     20  H   UNL d   1       2.477   1.058  -0.002  0.00  0.00     0.221 HD
ENDBRANCH   7  19
TORSDOF 2
