REMARK  3 active torsions:
REMARK  status: ('A' for Active; 'I' for Inactive)
REMARK       I    between atoms: C_8  and  N_1 
REMARK    1  A    between atoms: C_7  and  C_4 
REMARK    2  A    between atoms: C_10  and  C_5 
REMARK    3  A    between atoms: O_21  and  C_18 
ROOT
ATOM      1  N   UNL d   1       0.160  -1.116   0.109  0.00  0.00    -0.252 N 
ATOM      2  N   UNL d   1       1.143  -0.164   0.119  0.00  0.00    -0.298 N 
ATOM      3  HN  UNL d   1       2.144  -0.327   0.227  1.00  0.00     0.187 HD
ATOM      4  C   UNL d   1       0.563   0.987  -0.035  0.00  0.00     0.039 A 
ATOM      5  C   UNL d   1      -1.184  -0.561  -0.017  0.00  0.00     0.150 A 
ATOM      6  C   UNL d   1      -0.938   0.943  -0.170  0.00  0.00     0.091 A 
ATOM      7  C   UNL d   1       0.440  -2.463  -0.003  0.00  0.00     0.234 C 
ATOM      8  O   UNL d   1      -0.435  -3.323  -0.147  0.00  0.00    -0.272 OA
ATOM      9  C   UNL d   1       1.898  -2.862   0.001  0.00  0.00     0.119 C 
ENDROOT
BRANCH   4  10
ATOM     10  C   UNL d   1       1.310   2.267  -0.110  0.00  0.00    -0.006 A 
ATOM     11  C   UNL d   1       2.583   2.361  -0.706  0.00  0.00    -0.049 A 
ATOM     12  C   UNL d   1       3.256   3.598  -0.666  0.00  0.00     0.014 A 
ATOM     13  C   UNL d   1       3.299   1.221  -1.379  0.00  0.00     0.049 C 
ATOM     14  C   UNL d   1       2.678   4.732  -0.085  0.00  0.00    -0.061 A 
ATOM     15  C   UNL d   1       1.401   4.630   0.469  0.00  0.00     0.007 A 
ATOM     16  C   UNL d   1       3.429   6.029  -0.068  0.00  0.00     0.048 C 
ATOM     17  C   UNL d   1       0.724   3.408   0.460  0.00  0.00     0.014 A 
ENDBRANCH   4  10
BRANCH   5  18
ATOM     18  C   UNL d   1      -2.076  -0.881   1.171  0.00  0.00    -0.033 A 
ATOM     19  C   UNL d   1      -1.708  -0.539   2.479  0.00  0.00     0.012 A 
ATOM     20  C   UNL d   1      -2.549  -0.824   3.559  0.00  0.00     0.037 A 
ATOM     21  C   UNL d   1      -3.767  -1.469   3.346  0.00  0.00     0.068 A 
ATOM     22  C   UNL d   1      -4.147  -1.805   2.048  0.00  0.00     0.037 A 
ATOM     23  C   UNL d   1      -3.307  -1.524   0.967  0.00  0.00     0.012 A 
BRANCH  21  24
ATOM     24  O   UNL d   1      -4.673  -1.783   4.322  0.00  0.00    -0.356 OA
ATOM     25  C   UNL d   1      -4.121  -2.025   5.611  0.00  0.00     0.210 C 
ENDBRANCH  21  24
ENDBRANCH   5  18
TORSDOF 3
