REMARK  3 active torsions:
REMARK  status: ('A' for Active; 'I' for Inactive)
REMARK    1  A    between atoms: C_2  and  S_1 
REMARK    2  A    between atoms: N_3  and  S_1 
REMARK       I    between atoms: C_7  and  N_3 
REMARK    3  A    between atoms: C_4  and  C_8 
REMARK       I    between atoms: N_20  and  C_7 
ROOT
ATOM      1  C   UNL d   1       0.588  -1.730  -0.506  0.00  0.00     0.123 A 
ATOM      2  C   UNL d   1       1.312  -2.884  -0.177  0.00  0.00     0.059 A 
ATOM      3  C   UNL d   1      -0.602  -1.869  -1.244  0.00  0.00     0.059 A 
ATOM      4  C   UNL d   1      -0.339  -4.292  -1.309  0.00  0.00     0.051 A 
ATOM      5  C   UNL d   1      -1.055  -3.138  -1.639  0.00  0.00     0.041 A 
ATOM      6  C   UNL d   1       0.845  -4.147  -0.579  0.00  0.00     0.041 A 
ATOM      7 CL   UNL d   1      -1.605  -0.546  -1.742  0.00  0.00    -0.083 Cl
ATOM      8 CL   UNL d   1       2.788  -2.932   0.718  0.00  0.00    -0.083 Cl
ENDROOT
BRANCH   1   9
ATOM      9  S   UNL d   1       1.087  -0.114   0.025  0.00  0.00     0.268 S 
ATOM     10  O   UNL d   1       2.406  -0.140   0.620  0.00  0.00    -0.200 OA
ATOM     11  O   UNL d   1      -0.022   0.472   0.745  0.00  0.00    -0.200 OA
BRANCH   9  12
ATOM     12  N   UNL d   1       1.260   0.741  -1.399  0.00  0.00    -0.256 N 
ATOM     13  C   UNL d   1       2.228   0.586  -2.365  0.00  0.00     0.158 C 
ATOM     14  N   UNL d   1       2.216   1.321  -3.411  0.00  0.00    -0.376 N 
ATOM     15  N   UNL d   1       3.162  -0.356  -2.160  0.00  0.00    -0.274 NA
ATOM     16  H   UNL d   1       1.437   1.979  -3.369  0.00  0.00     0.158 HD
ATOM     17  HN  UNL d   1       2.888   1.260  -4.176  1.00  0.00     0.158 HD
ATOM     18  H   UNL d   1       3.503  -0.392  -1.200  0.00  0.00     0.127 HD
ATOM     19  H   UNL d   1       3.933  -0.240  -2.812  0.00  0.00     0.127 HD
ATOM     20  H   UNL d   1       0.527   1.435  -1.509  0.00  0.00     0.181 HD
ENDBRANCH   9  12
ENDBRANCH   1   9
BRANCH   4  21
ATOM     21  C   UNL d   1      -0.814  -5.666  -1.712  0.00  0.00     0.417 C 
ATOM     22  F   UNL d   1      -1.962  -5.651  -2.442  0.00  0.00    -0.166 F 
ATOM     23  F   UNL d   1       0.104  -6.328  -2.467  0.00  0.00    -0.166 F 
ATOM     24  F   UNL d   1      -1.062  -6.461  -0.636  0.00  0.00    -0.166 F 
ENDBRANCH   4  21
TORSDOF 3
