REMARK  7 active torsions:
REMARK  status: ('A' for Active; 'I' for Inactive)
REMARK    1  A    between atoms: N_3  and  C_1 
REMARK    2  A    between atoms: N_6  and  C_1 
REMARK    3  A    between atoms: C_2  and  C_5 
REMARK    4  A    between atoms: O_11  and  C_2 
REMARK    5  A    between atoms: C_8  and  N_3 
REMARK    6  A    between atoms: C_5  and  C_9 
REMARK    7  A    between atoms: C_9  and  N_6 
ROOT
ATOM      1  C   UNL d   1       1.035  -0.128   0.022  0.00  0.00     0.172 C 
ATOM      2  S   UNL d   1       0.287  -0.071   1.514  0.00  0.00    -0.041 SA
ENDROOT
BRANCH   1   3
ATOM      3  N   UNL d   1       0.429  -0.191  -1.205  0.00  0.00    -0.333 N 
ATOM      4  H   UNL d   1       0.849  -0.855  -1.857  0.00  0.00     0.168 HD
BRANCH   3   5
ATOM      5  C   UNL d   1      -0.754   0.447  -1.627  0.00  0.00     0.034 A 
ATOM      6  C   UNL d   1      -1.166   1.672  -1.092  0.00  0.00     0.031 A 
ATOM      7  C   UNL d   1      -2.251   2.358  -1.646  0.00  0.00     0.026 A 
ATOM      8  C   UNL d   1      -2.939   1.809  -2.724  0.00  0.00     0.034 A 
ATOM      9  C   UNL d   1      -2.560   0.573  -3.244  0.00  0.00     0.026 A 
ATOM     10 CL   UNL d   1      -4.240   2.679  -3.439  0.00  0.00    -0.084 Cl
ATOM     11  C   UNL d   1      -1.457  -0.099  -2.706  0.00  0.00     0.031 A 
ENDBRANCH   3   5
ENDBRANCH   1   3
BRANCH   1  12
ATOM     12  N   UNL d   1       2.406  -0.169   0.001  0.00  0.00    -0.366 N 
ATOM     13  H   UNL d   1       2.802  -0.146   0.935  0.00  0.00     0.161 HD
BRANCH  12  14
ATOM     14  C   UNL d   1       3.227   0.390  -1.068  0.00  0.00     0.132 C 
BRANCH  14  15
ATOM     15  C   UNL d   1       4.255  -0.601  -1.592  0.00  0.00     0.129 C 
BRANCH  15  16
ATOM     16  C   UNL d   1       3.590  -1.700  -2.379  0.00  0.00     0.140 C 
ATOM     17  O   UNL d   1       2.483  -1.629  -2.884  0.00  0.00    -0.650 OA
BRANCH  16  18
ATOM     18  O   UNL d   1       4.378  -2.793  -2.515  0.00  0.00    -0.776 OA
ATOM     19  H   UNL d   1       5.238  -2.732  -2.059  0.00  0.00     0.167 HD
ENDBRANCH  16  18
ENDBRANCH  15  16
ENDBRANCH  14  15
ENDBRANCH  12  14
ENDBRANCH   1  12
TORSDOF 7
