REMARK  2 active torsions:
REMARK  status: ('A' for Active; 'I' for Inactive)
REMARK       I    between atoms: C_2  and  N_5 
REMARK    1  A    between atoms: C_7  and  C_2 
REMARK       I    between atoms: N_5  and  C_6 
REMARK       I    between atoms: C_6  and  N_8 
REMARK    2  A    between atoms: O_22  and  C_18 
ROOT
ATOM      1  C   UNL d   1      -1.632  -0.722  -0.341  0.00  0.00     0.153 C 
ATOM      2  C   UNL d   1      -5.612   0.523  -0.725  0.00  0.00     0.263 C 
ATOM      3  N   UNL d   1      -1.660   0.241  -1.232  0.00  0.00    -0.335 N 
ATOM      4  HN  UNL d   1      -2.373   0.967  -1.304  1.00  0.00     0.168 HD
ATOM      5  N   UNL d   1      -4.311   0.161  -0.391  0.00  0.00    -0.275 N 
ATOM      6  C   UNL d   1      -3.933  -0.817   0.481  0.00  0.00     0.329 C 
ATOM      7  N   UNL d   1      -2.603  -1.131   0.523  0.00  0.00    -0.288 N 
ATOM      8  S   UNL d   1      -0.220  -1.667  -0.267  0.00  0.00    -0.052 SA
ATOM      9  C   UNL d   1      -0.545   0.104  -2.065  0.00  0.00     0.054 A 
ATOM     10  C   UNL d   1       0.318  -0.944  -1.732  0.00  0.00     0.035 A 
ATOM     11  C   UNL d   1      -0.248   0.865  -3.218  0.00  0.00     0.067 A 
ATOM     12  O   UNL d   1      -6.627  -0.120  -0.543  0.00  0.00    -0.267 OA
ATOM     13  O   UNL d   1      -4.687  -1.422   1.241  0.00  0.00    -0.247 OA
ATOM     14  C   UNL d   1       1.413  -1.298  -2.536  0.00  0.00     0.024 A 
ATOM     15  C   UNL d   1       0.820   0.501  -4.055  0.00  0.00     0.070 A 
ATOM     16  C   UNL d   1       1.626  -0.585  -3.721  0.00  0.00     0.038 A 
ATOM     17  H   UNL d   1      -3.541   0.689  -0.786  0.00  0.00     0.173 HD
ATOM     18  H   UNL d   1      -2.382  -1.905   1.131  0.00  0.00     0.172 HD
ENDROOT
BRANCH   2  19
ATOM     19  C   UNL d   1      -5.666   1.837  -1.414  0.00  0.00     0.075 C 
ATOM     20  C   UNL d   1      -4.860   2.068  -2.535  0.00  0.00     0.051 C 
ATOM     21 CL   UNL d   1      -4.130   0.786  -3.438  0.00  0.00    -0.083 Cl
ATOM     22  C   UNL d   1      -4.621   3.371  -2.972  0.00  0.00     0.025 C 
ATOM     23  C   UNL d   1      -5.243   4.445  -2.336  0.00  0.00     0.003 C 
ATOM     24  C   UNL d   1      -6.151   4.205  -1.302  0.00  0.00     0.025 C 
ATOM     25  C   UNL d   1      -6.371   2.904  -0.839  0.00  0.00     0.051 C 
ATOM     26 CL   UNL d   1      -7.487   2.715   0.465  0.00  0.00    -0.083 Cl
ENDBRANCH   2  19
BRANCH  15  27
ATOM     27  O   UNL d   1       0.945   1.266  -5.185  0.00  0.00    -0.356 OA
ATOM     28  C   UNL d   1       2.059   1.002  -6.031  0.00  0.00     0.210 C 
ENDBRANCH  15  27
TORSDOF 2
