REMARK  5 active torsions:
REMARK  status: ('A' for Active; 'I' for Inactive)
REMARK    1  A    between atoms: C_3  and  C_1 
REMARK    2  A    between atoms: C_2  and  C_4 
REMARK    3  A    between atoms: N_7  and  C_5 
REMARK    4  A    between atoms: C_10  and  N_7 
REMARK    5  A    between atoms: C_19  and  C_10 
ROOT
ATOM      1  N   UNL d   1      -2.933   5.105  -3.170  0.00  0.00    -0.195 NA
ATOM      2  C   UNL d   1      -1.938   4.720  -3.632  0.00  0.00     0.089 C 
ATOM      3  C   UNL d   1      -0.674   4.198  -4.216  0.00  0.00     0.223 C 
ENDROOT
BRANCH   3   4
ATOM      4  N   UNL d   1       0.224   3.574  -3.228  0.00  0.00    -0.369 N 
ATOM      5  H   UNL d   1       0.374   4.166  -2.414  0.00  0.00     0.161 HD
BRANCH   4   6
ATOM      6  C   UNL d   1       0.095   2.234  -2.871  0.00  0.00     0.030 A 
ATOM      7  C   UNL d   1       1.213   1.593  -2.319  0.00  0.00     0.045 A 
ATOM      8  C   UNL d   1       1.177   0.240  -1.935  0.00  0.00     0.050 A 
ATOM      9  C   UNL d   1      -0.023  -0.467  -2.068  0.00  0.00     0.032 A 
ATOM     10  C   UNL d   1      -1.167   0.159  -2.583  0.00  0.00     0.050 A 
ATOM     11  C   UNL d   1      -1.088   1.503  -2.990  0.00  0.00     0.045 A 
BRANCH   8  12
ATOM     12  C   UNL d   1       2.425  -0.424  -1.400  0.00  0.00     0.417 C 
ATOM     13  F   UNL d   1       2.232  -1.725  -1.046  0.00  0.00    -0.166 F 
ATOM     14  F   UNL d   1       2.912   0.196  -0.290  0.00  0.00    -0.166 F 
ATOM     15  F   UNL d   1       3.440  -0.430  -2.304  0.00  0.00    -0.166 F 
ENDBRANCH   8  12
BRANCH  10  16
ATOM     16  C   UNL d   1      -2.484  -0.568  -2.699  0.00  0.00     0.417 C 
ATOM     17  F   UNL d   1      -2.446  -1.844  -2.228  0.00  0.00    -0.166 F 
ATOM     18  F   UNL d   1      -3.479   0.057  -2.011  0.00  0.00    -0.166 F 
ATOM     19  F   UNL d   1      -2.915  -0.653  -3.987  0.00  0.00    -0.166 F 
ENDBRANCH  10  16
ENDBRANCH   4   6
ENDBRANCH   3   4
BRANCH   3  20
ATOM     20  C   UNL d   1       0.120   5.286  -4.930  0.00  0.00    -0.022 A 
ATOM     21  C   UNL d   1       0.437   6.505  -4.305  0.00  0.00     0.010 A 
ATOM     22  C   UNL d   1       1.184   7.475  -4.977  0.00  0.00     0.001 A 
ATOM     23  C   UNL d   1       1.629   7.238  -6.276  0.00  0.00     0.000 A 
ATOM     24  C   UNL d   1       1.333   6.032  -6.904  0.00  0.00     0.001 A 
ATOM     25  C   UNL d   1       0.589   5.059  -6.237  0.00  0.00     0.010 A 
ENDBRANCH   3  20
TORSDOF 5
