REMARK  5 active torsions:
REMARK  status: ('A' for Active; 'I' for Inactive)
REMARK    1  A    between atoms: N_2  and  S_1 
REMARK    2  A    between atoms: C_10  and  S_1 
REMARK    3  A    between atoms: C_3  and  N_2 
REMARK       I    between atoms: C_7  and  N_11 
REMARK    4  A    between atoms: C_8  and  C_7 
REMARK    5  A    between atoms: N_11  and  C_23 
ROOT
ATOM      1  C   UNL d   1       0.672  -0.325  -1.542  0.00  0.00     0.075 A 
ATOM      2  C   UNL d   1       1.048  -1.598  -1.976  0.00  0.00     0.027 A 
ATOM      3  C   UNL d   1      -0.143   0.478  -2.339  0.00  0.00     0.027 A 
ATOM      4  C   UNL d   1      -0.240  -1.283  -4.019  0.00  0.00     0.035 A 
ATOM      5  C   UNL d   1       0.601  -2.067  -3.214  0.00  0.00     0.031 A 
ATOM      6  C   UNL d   1      -0.592  -0.003  -3.574  0.00  0.00     0.031 A 
ENDROOT
BRANCH   1   7
ATOM      7  S   UNL d   1       1.090   0.184   0.110  0.00  0.00     0.247 S 
ATOM      8  O   UNL d   1       0.189   1.256   0.480  0.00  0.00    -0.205 OA
ATOM      9  O   UNL d   1       1.206  -1.016   0.905  0.00  0.00    -0.205 OA
BRANCH   7  10
ATOM     10  N   UNL d   1       2.609   0.910  -0.111  0.00  0.00    -0.165 NA
ATOM     11  H   UNL d   1       2.481   1.876   0.197  0.00  0.00     0.147 HD
BRANCH  10  12
ATOM     12  C   UNL d   1       3.670   0.319   0.571  0.00  0.00     0.117 A 
ATOM     13  N   UNL d   1       4.096   0.789   1.742  0.00  0.00    -0.249 N 
ATOM     14  O   UNL d   1       5.120  -0.064   2.128  0.00  0.00    -0.241 OA
ATOM     15  HN  UNL d   1       3.745   1.602   2.248  1.00  0.00     0.196 HD
ATOM     16  C   UNL d   1       5.336  -0.981   1.146  0.00  0.00     0.075 A 
ATOM     17  C   UNL d   1       4.452  -0.758   0.118  0.00  0.00     0.079 A 
ATOM     18  C   UNL d   1       6.409  -1.961   1.387  0.00  0.00     0.079 C 
ENDBRANCH  10  12
ENDBRANCH   7  10
ENDBRANCH   1   7
BRANCH   4  19
ATOM     19  N   UNL d   1      -0.695  -1.855  -5.225  0.00  0.00    -0.323 N 
ATOM     20  C   UNL d   1      -1.573  -1.290  -6.133  0.00  0.00     0.256 C 
ATOM     21  O   UNL d   1      -2.109  -0.190  -6.050  0.00  0.00    -0.267 OA
ATOM     22  H   UNL d   1      -0.312  -2.765  -5.446  0.00  0.00     0.169 HD
BRANCH  20  23
ATOM     23  C   UNL d   1      -1.858  -2.101  -7.351  0.00  0.00     0.035 A 
ATOM     24  C   UNL d   1      -1.911  -3.499  -7.332  0.00  0.00     0.041 A 
ATOM     25  C   UNL d   1      -2.143  -4.192  -8.523  0.00  0.00     0.036 A 
ATOM     26 CL   UNL d   1      -2.179  -5.913  -8.508  0.00  0.00    -0.084 Cl
ATOM     27  C   UNL d   1      -2.337  -3.511  -9.723  0.00  0.00     0.047 A 
ATOM     28  C   UNL d   1      -2.317  -2.120  -9.727  0.00  0.00     0.036 A 
ATOM     29  C   UNL d   1      -2.086  -1.412  -8.550  0.00  0.00     0.041 A 
ATOM     30 CL   UNL d   1      -2.569  -1.267 -11.199  0.00  0.00    -0.084 Cl
ENDBRANCH  20  23
ENDBRANCH   4  19
TORSDOF 5
