REMARK  4 active torsions:
REMARK  status: ('A' for Active; 'I' for Inactive)
REMARK    1  A    between atoms: C_3  and  C_1 
REMARK    2  A    between atoms: C_2  and  N_4 
REMARK    3  A    between atoms: N_14  and  C_2 
REMARK    4  A    between atoms: N_4  and  C_5 
ROOT
ATOM      1  C   UNL d   1       0.670  -0.551   1.337  0.00  0.00     0.049 A 
ATOM      2  C   UNL d   1      -0.145  -1.321   3.955  0.00  0.00     0.056 A 
ATOM      3  C   UNL d   1      -0.188   0.028   3.536  0.00  0.00     0.061 A 
ATOM      4  C   UNL d   1       0.213   0.409   2.247  0.00  0.00     0.042 A 
ATOM      5  C   UNL d   1       0.710  -1.888   1.747  0.00  0.00     0.018 A 
ATOM      6  C   UNL d   1       0.310  -2.264   3.036  0.00  0.00     0.032 A 
ATOM      7 CL   UNL d   1      -0.730   1.278   4.608  0.00  0.00    -0.082 Cl
ENDROOT
BRANCH   2   8
ATOM      8  N   UNL d   1      -0.566  -1.623   5.277  0.00  0.00    -0.332 N 
ATOM      9  H   UNL d   1      -0.896  -0.807   5.783  0.00  0.00     0.168 HD
BRANCH   8  10
ATOM     10  C   UNL d   1      -0.661  -2.792   5.992  0.00  0.00     0.170 C 
ATOM     11  S   UNL d   1      -0.360  -4.372   5.577  0.00  0.00    -0.041 SA
BRANCH  10  12
ATOM     12  N   UNL d   1      -1.116  -2.576   7.264  0.00  0.00    -0.376 N 
ATOM     13  H   UNL d   1      -0.976  -1.692   7.731  0.00  0.00     0.158 HD
ATOM     14  H   UNL d   1      -1.137  -3.393   7.866  0.00  0.00     0.158 HD
ENDBRANCH  10  12
ENDBRANCH   8  10
ENDBRANCH   2   8
BRANCH   1  15
ATOM     15  C   UNL d   1       1.118  -0.185  -0.056  0.00  0.00     0.417 C 
ATOM     16  F   UNL d   1       1.037   1.147  -0.322  0.00  0.00    -0.166 F 
ATOM     17  F   UNL d   1       0.381  -0.806  -1.018  0.00  0.00    -0.166 F 
ATOM     18  F   UNL d   1       2.412  -0.537  -0.291  0.00  0.00    -0.166 F 
ENDBRANCH   1  15
TORSDOF 4
