REMARK  4 active torsions:
REMARK  status: ('A' for Active; 'I' for Inactive)
REMARK       I    between atoms: C_2  and  N_1 
REMARK    1  A    between atoms: C_4  and  N_1 
REMARK    2  A    between atoms: C_9  and  N_1 
REMARK    3  A    between atoms: C_7  and  C_2 
REMARK    4  A    between atoms: C_3  and  C_4 
ROOT
ATOM      1  N   UNL d   1       1.023   0.007   0.012  0.00  0.00    -0.309 N 
ATOM      2  C   UNL d   1       0.358  -1.220  -0.193  0.00  0.00     0.258 C 
ATOM      3  O   UNL d   1      -0.834  -1.280  -0.501  0.00  0.00    -0.267 OA
ENDROOT
BRANCH   1   4
ATOM      4  C   UNL d   1       0.263   1.286  -0.076  0.00  0.00     0.093 C 
ATOM      5  C   UNL d   1      -1.017   1.314   0.767  0.00  0.00     0.033 C 
BRANCH   4   6
ATOM      6  C   UNL d   1      -0.031   1.646  -1.520  0.00  0.00     0.009 A 
ATOM      7  C   UNL d   1       1.061   2.075  -2.476  0.00  0.00     0.007 A 
ATOM      8  C   UNL d   1       0.072   3.086  -1.977  0.00  0.00     0.007 A 
ENDBRANCH   4   6
ENDBRANCH   1   4
BRANCH   1   9
ATOM      9  C   UNL d   1       2.439   0.158  -0.087  0.00  0.00     0.037 A 
ATOM     10  C   UNL d   1       3.164  -0.437  -1.128  0.00  0.00     0.030 A 
ATOM     11  C   UNL d   1       4.553  -0.291  -1.187  0.00  0.00     0.002 A 
ATOM     12  C   UNL d   1       5.221   0.441  -0.210  0.00  0.00     0.000 A 
ATOM     13  C   UNL d   1       4.507   1.046   0.822  0.00  0.00     0.002 A 
ATOM     14  C   UNL d   1       3.119   0.914   0.877  0.00  0.00     0.030 A 
ENDBRANCH   1   9
BRANCH   2  15
ATOM     15  C   UNL d   1       1.065  -2.537  -0.002  0.00  0.00     0.032 A 
ATOM     16  C   UNL d   1       2.200  -2.717   0.797  0.00  0.00     0.017 A 
ATOM     17  C   UNL d   1       2.879  -3.941   0.811  0.00  0.00     0.007 A 
ATOM     18  C   UNL d   1       2.387  -5.035   0.095  0.00  0.00    -0.062 A 
ATOM     19  C   UNL d   1       1.192  -4.894  -0.616  0.00  0.00     0.007 A 
ATOM     20  C   UNL d   1       3.161  -6.319   0.058  0.00  0.00     0.048 C 
ATOM     21  C   UNL d   1       0.539  -3.657  -0.665  0.00  0.00     0.017 A 
ENDBRANCH   2  15
TORSDOF 4
