REMARK  5 active torsions:
REMARK  status: ('A' for Active; 'I' for Inactive)
REMARK    1  A    between atoms: N_3  and  C_1 
REMARK       I    between atoms: C_9  and  N_3 
REMARK    2  A    between atoms: S_11  and  C_4 
REMARK    3  A    between atoms: C_10  and  C_9 
REMARK    4  A    between atoms: C_15  and  S_11 
REMARK    5  A    between atoms: C_18  and  C_15 
ROOT
ATOM      1  C   UNL d   1       0.004   1.128   0.005  0.00  0.00     0.168 A 
ATOM      2  S   UNL d   1       1.058  -0.109   0.526  0.00  0.00    -0.026 SA
ATOM      3  C   UNL d   1      -0.162  -1.230   0.105  0.00  0.00     0.130 A 
ATOM      4  N   UNL d   1      -1.186   0.702  -0.362  0.00  0.00    -0.278 N 
ATOM      5  HN  UNL d   1      -1.951   1.317  -0.638  1.00  0.00     0.189 HD
ATOM      6  N   UNL d   1      -1.276  -0.679  -0.328  0.00  0.00    -0.286 N 
ATOM      7  HN  UNL d   1      -2.105  -1.206  -0.604  1.00  0.00     0.188 HD
ENDROOT
BRANCH   1   8
ATOM      8  N   UNL d   1       0.347   2.463   0.004  0.00  0.00    -0.302 N 
ATOM      9  C   UNL d   1       1.622   2.960   0.146  0.00  0.00     0.257 C 
ATOM     10  O   UNL d   1       2.653   2.301   0.245  0.00  0.00    -0.267 OA
ATOM     11  H   UNL d   1      -0.410   3.072  -0.275  0.00  0.00     0.171 HD
BRANCH   9  12
ATOM     12  C   UNL d   1       1.758   4.446   0.130  0.00  0.00     0.032 A 
ATOM     13  C   UNL d   1       0.750   5.306   0.586  0.00  0.00     0.018 A 
ATOM     14  C   UNL d   1       0.977   6.688   0.625  0.00  0.00     0.025 A 
ATOM     15  C   UNL d   1       2.203   7.210   0.212  0.00  0.00     0.034 A 
ATOM     16  C   UNL d   1       3.206   6.365  -0.255  0.00  0.00     0.025 A 
ATOM     17 CL   UNL d   1       2.489   8.903   0.303  0.00  0.00    -0.084 Cl
ATOM     18  C   UNL d   1       2.984   4.987  -0.294  0.00  0.00     0.018 A 
ENDBRANCH   9  12
ENDBRANCH   1   8
BRANCH   3  19
ATOM     19  S   UNL d   1       0.052  -2.960   0.232  0.00  0.00    -0.099 SA
BRANCH  19  20
ATOM     20  C   UNL d   1      -0.787  -3.481  -1.291  0.00  0.00     0.120 C 
BRANCH  20  21
ATOM     21  C   UNL d   1      -0.714  -4.977  -1.491  0.00  0.00    -0.048 A 
ATOM     22  C   UNL d   1      -1.706  -5.814  -0.958  0.00  0.00     0.009 A 
ATOM     23  C   UNL d   1      -1.649  -7.196  -1.152  0.00  0.00     0.024 A 
ATOM     24  C   UNL d   1      -0.597  -7.752  -1.875  0.00  0.00     0.034 A 
ATOM     25  C   UNL d   1       0.405  -6.937  -2.399  0.00  0.00     0.024 A 
ATOM     26 CL   UNL d   1      -0.534  -9.453  -2.125  0.00  0.00    -0.084 Cl
ATOM     27  C   UNL d   1       0.349  -5.554  -2.204  0.00  0.00     0.009 A 
ENDBRANCH  20  21
ENDBRANCH  19  20
ENDBRANCH   3  19
TORSDOF 5
