REMARK  8 active torsions:
REMARK  status: ('A' for Active; 'I' for Inactive)
REMARK    1  A    between atoms: S_9  and  C_3 
REMARK       I    between atoms: C_4  and  N_5 
REMARK    2  A    between atoms: C_10  and  C_4 
REMARK    3  A    between atoms: N_5  and  C_7 
REMARK    4  A    between atoms: C_6  and  O_12 
REMARK    5  A    between atoms: S_11  and  C_8 
REMARK    6  A    between atoms: C_21  and  S_9 
REMARK    7  A    between atoms: C_22  and  S_11 
REMARK    8  A    between atoms: O_12  and  C_15 
ROOT
ATOM      1  N   UNL d   1      -1.302   0.003  -0.023  0.00  0.00    -0.343 N 
ATOM      2  HN  UNL d   1      -2.310   0.012  -0.178  1.00  0.00     0.167 HD
ATOM      3  C   UNL d   1      -0.601   1.158   0.113  0.00  0.00     0.102 A 
ATOM      4  C   UNL d   1       0.788   1.196   0.307  0.00  0.00     0.069 A 
ATOM      5  C   UNL d   1      -0.619  -1.161   0.054  0.00  0.00     0.075 A 
ATOM      6  C   UNL d   1       1.459  -0.022   0.408  0.00  0.00     0.035 A 
ATOM      7  C   UNL d   1       0.749  -1.216   0.290  0.00  0.00     0.039 A 
ENDROOT
BRANCH   4   8
ATOM      8  N   UNL d   1       1.485   2.426   0.421  0.00  0.00    -0.320 N 
ATOM      9  C   UNL d   1       2.715   2.650  -0.177  0.00  0.00     0.256 C 
ATOM     10  O   UNL d   1       3.347   1.844  -0.852  0.00  0.00    -0.267 OA
ATOM     11  H   UNL d   1       0.912   3.244   0.609  0.00  0.00     0.169 HD
BRANCH   9  12
ATOM     12  C   UNL d   1       3.216   4.041  -0.055  0.00  0.00     0.035 A 
ATOM     13  C   UNL d   1       3.198   4.692   1.183  0.00  0.00     0.054 A 
ATOM     14  C   UNL d   1       3.606   6.021   1.277  0.00  0.00     0.079 A 
ATOM     15  C   UNL d   1       4.111   6.666   0.141  0.00  0.00     0.037 A 
ATOM     16  C   UNL d   1       4.175   6.001  -1.085  0.00  0.00     0.004 A 
ATOM     17  C   UNL d   1       3.725   4.686  -1.186  0.00  0.00     0.017 A 
BRANCH  14  18
ATOM     18  O   UNL d   1       3.645   6.745   2.429  0.00  0.00    -0.255 OA
BRANCH  18  19
ATOM     19  C   UNL d   1       2.573   6.618   3.356  0.00  0.00     0.530 C 
ATOM     20  F   UNL d   1       1.681   5.651   3.050  0.00  0.00    -0.144 F 
ATOM     21  F   UNL d   1       3.082   6.356   4.579  0.00  0.00    -0.144 F 
ATOM     22  F   UNL d   1       1.906   7.792   3.418  0.00  0.00    -0.144 F 
ENDBRANCH  18  19
ENDBRANCH  14  18
ENDBRANCH   9  12
ENDBRANCH   4   8
BRANCH   3  23
ATOM     23  S   UNL d   1      -1.578   2.653   0.016  0.00  0.00    -0.070 SA
BRANCH  23  24
ATOM     24  C   UNL d   1      -1.588   3.057  -1.727  0.00  0.00     0.007 A 
ATOM     25  C   UNL d   1      -1.411   2.118  -2.750  0.00  0.00     0.019 A 
ATOM     26  C   UNL d   1      -1.425   2.513  -4.092  0.00  0.00     0.001 A 
ATOM     27  C   UNL d   1      -1.629   3.850  -4.428  0.00  0.00     0.000 A 
ATOM     28  C   UNL d   1      -1.835   4.790  -3.422  0.00  0.00     0.001 A 
ATOM     29  C   UNL d   1      -1.820   4.394  -2.082  0.00  0.00     0.019 A 
ENDBRANCH  23  24
ENDBRANCH   3  23
BRANCH   5  30
ATOM     30  S   UNL d   1      -1.563  -2.668  -0.065  0.00  0.00    -0.073 SA
BRANCH  30  31
ATOM     31  C   UNL d   1      -1.517  -2.999  -1.819  0.00  0.00     0.007 A 
ATOM     32  C   UNL d   1      -0.960  -4.199  -2.278  0.00  0.00     0.019 A 
ATOM     33  C   UNL d   1      -0.960  -4.505  -3.643  0.00  0.00     0.001 A 
ATOM     34  C   UNL d   1      -1.519  -3.620  -4.556  0.00  0.00     0.000 A 
ATOM     35  C   UNL d   1      -2.091  -2.425  -4.108  0.00  0.00     0.001 A 
ATOM     36  C   UNL d   1      -2.092  -2.120  -2.741  0.00  0.00     0.019 A 
ENDBRANCH  30  31
ENDBRANCH   5  30
TORSDOF 8
