REMARK  3 active torsions:
REMARK  status: ('A' for Active; 'I' for Inactive)
REMARK    1  A    between atoms: C_2  and  S_1 
REMARK    2  A    between atoms: C_9  and  S_1 
REMARK    3  A    between atoms: N_4  and  C_3 
ROOT
ATOM      1  C   UNL d   1       0.412  -0.772  -1.463  0.00  0.00     0.097 A 
ATOM      2  C   UNL d   1       0.422  -0.053  -2.661  0.00  0.00     0.126 A 
ATOM      3  C   UNL d   1      -0.260  -0.514  -3.798  0.00  0.00     0.061 A 
ATOM      4  C   UNL d   1      -0.326  -1.965  -1.401  0.00  0.00     0.028 A 
ATOM      5  C   UNL d   1      -0.978  -1.704  -3.719  0.00  0.00     0.036 A 
ATOM      6  C   UNL d   1      -1.014  -2.428  -2.528  0.00  0.00     0.025 A 
ATOM      7 CL   UNL d   1      -1.834  -2.277  -5.095  0.00  0.00    -0.084 Cl
ENDROOT
BRANCH   1   8
ATOM      8  S   UNL d   1       1.083  -0.113   0.046  0.00  0.00     0.209 S 
ATOM      9  O   UNL d   1       0.734  -1.048   1.100  0.00  0.00    -0.217 OA
ATOM     10  O   UNL d   1       0.598   1.254   0.105  0.00  0.00    -0.217 OA
BRANCH   8  11
ATOM     11  C   UNL d   1       2.855  -0.076   0.015  0.00  0.00     0.064 A 
ATOM     12  C   UNL d   1       3.520   1.138   0.228  0.00  0.00     0.024 A 
ATOM     13  C   UNL d   1       4.913   1.163   0.270  0.00  0.00     0.002 A 
ATOM     14  C   UNL d   1       5.635  -0.020   0.113  0.00  0.00     0.000 A 
ATOM     15  C   UNL d   1       4.968  -1.230  -0.093  0.00  0.00     0.002 A 
ATOM     16  C   UNL d   1       3.572  -1.264  -0.141  0.00  0.00     0.024 A 
ENDBRANCH   8  11
ENDBRANCH   1   8
BRANCH   2  17
ATOM     17  N   UNL d   1       1.155   1.184  -2.804  0.00  0.00    -0.114 N 
ATOM     18  O   UNL d   1       2.383   1.109  -2.708  0.00  0.00    -0.532 OA
ATOM     19  O   UNL d   1       0.505   2.196  -3.096  0.00  0.00    -0.532 OA
ENDBRANCH   2  17
TORSDOF 3
