REMARK  6 active torsions:
REMARK  status: ('A' for Active; 'I' for Inactive)
REMARK    1  A    between atoms: S_12  and  C_2 
REMARK    2  A    between atoms: C_19  and  C_3 
REMARK    3  A    between atoms: C_9  and  C_20 
REMARK       I    between atoms: N_10  and  C_9 
REMARK    4  A    between atoms: C_20  and  S_12 
REMARK    5  A    between atoms: S_14  and  C_19 
REMARK    6  A    between atoms: C_18  and  S_14 
ROOT
ATOM      1  N   UNL d   1       1.043   0.137  -0.164  0.00  0.00    -0.319 N 
ATOM      2  C   UNL d   1       0.149   1.159  -0.348  0.00  0.00     0.162 A 
ATOM      3  C   UNL d   1       0.279  -1.010  -0.052  0.00  0.00     0.109 A 
ATOM      4  N   UNL d   1      -1.075   0.698  -0.256  0.00  0.00    -0.278 N 
ATOM      5  HN  UNL d   1      -1.931   1.249  -0.316  1.00  0.00     0.189 HD
ATOM      6  N   UNL d   1      -0.996  -0.659  -0.064  0.00  0.00    -0.286 N 
ATOM      7  HN  UNL d   1      -1.788  -1.291   0.050  1.00  0.00     0.188 HD
ATOM      8  C   UNL d   1       2.479   0.226  -0.109  0.00  0.00     0.159 C 
ENDROOT
BRANCH   3   9
ATOM      9  C   UNL d   1       0.761  -2.427  -0.080  0.00  0.00     0.157 C 
BRANCH   9  10
ATOM     10  S   UNL d   1       2.055  -2.820   1.137  0.00  0.00    -0.121 SA
BRANCH  10  11
ATOM     11  C   UNL d   1       2.460  -4.493   0.612  0.00  0.00     0.014 A 
ATOM     12  C   UNL d   1       1.767  -5.638   1.081  0.00  0.00     0.007 A 
ATOM     13  C   UNL d   1       2.236  -6.896   0.638  0.00  0.00     0.045 A 
ATOM     14  C   UNL d   1       0.658  -5.601   1.961  0.00  0.00     0.017 A 
ATOM     15  C   UNL d   1       1.613  -8.050   1.083  0.00  0.00     0.054 A 
ATOM     16  N   UNL d   1       3.277  -7.033  -0.199  0.00  0.00    -0.365 N 
ATOM     17  C   UNL d   1       0.527  -7.996   1.956  0.00  0.00     0.036 A 
ATOM     18  C   UNL d   1       0.040  -6.773   2.392  0.00  0.00     0.025 A 
ATOM     19 CL   UNL d   1      -0.213  -9.451   2.497  0.00  0.00    -0.084 Cl
ATOM     20  C   UNL d   1       3.912  -5.922  -0.621  0.00  0.00     0.089 A 
ATOM     21  HN  UNL d   1       3.581  -7.956  -0.508  1.00  0.00     0.165 HD
ATOM     22  C   UNL d   1       3.551  -4.645  -0.247  0.00  0.00     0.036 A 
ENDBRANCH  10  11
ENDBRANCH   9  10
ENDBRANCH   3   9
BRANCH   2  23
ATOM     23  S   UNL d   1       0.601   2.781  -0.737  0.00  0.00    -0.083 SA
BRANCH  23  24
ATOM     24  C   UNL d   1      -1.017   3.606  -0.753  0.00  0.00     0.185 C 
BRANCH  24  25
ATOM     25  C   UNL d   1      -0.836   5.043  -1.225  0.00  0.00     0.229 C 
ATOM     26  N   UNL d   1      -0.928   5.321  -2.580  0.00  0.00    -0.347 N 
ATOM     27  C   UNL d   1      -0.782   6.702  -3.050  0.00  0.00     0.152 C 
ATOM     28  C   UNL d   1      -1.051   4.348  -3.671  0.00  0.00     0.152 C 
ATOM     29  C   UNL d   1       0.360   6.801  -4.067  0.00  0.00     0.187 C 
ATOM     30  O   UNL d   1       0.159   5.882  -5.155  0.00  0.00    -0.388 OA
ATOM     31  C   UNL d   1       0.094   4.530  -4.676  0.00  0.00     0.187 C 
ATOM     32  O   UNL d   1      -0.604   5.932  -0.400  0.00  0.00    -0.273 OA
ENDBRANCH  24  25
ENDBRANCH  23  24
ENDBRANCH   2  23
TORSDOF 6
