REMARK  4 active torsions:
REMARK  status: ('A' for Active; 'I' for Inactive)
REMARK    1  A    between atoms: S_9  and  C_1 
REMARK    2  A    between atoms: C_15  and  N_2 
REMARK    3  A    between atoms: C_10  and  S_9 
REMARK    4  A    between atoms: O_22  and  C_19 
ROOT
ATOM      1  C   UNL d   1      -0.163  -1.070  -0.075  0.00  0.00     0.184 A 
ATOM      2  N   UNL d   1      -0.739   0.147   0.293  0.00  0.00    -0.217 N 
ATOM      3  N   UNL d   1       0.725  -0.848  -1.019  0.00  0.00    -0.263 N 
ATOM      4  HN  UNL d   1       1.305  -1.548  -1.482  1.00  0.00     0.190 HD
ATOM      5  N   UNL d   1       0.725   0.485  -1.261  0.00  0.00    -0.226 N 
ATOM      6  HN  UNL d   1       1.325   0.950  -1.942  1.00  0.00     0.210 HD
ATOM      7  N   UNL d   1      -0.157   1.100  -0.497  0.00  0.00    -0.219 N 
ATOM      8  HN  UNL d   1      -0.365   2.098  -0.495  1.00  0.00     0.210 HD
ENDROOT
BRANCH   1   9
ATOM      9  S   UNL d   1      -0.574  -2.659   0.478  0.00  0.00    -0.077 SA
BRANCH   9  10
ATOM     10  C   UNL d   1       0.858  -3.689  -0.013  0.00  0.00     0.134 A 
ATOM     11  C   UNL d   1       2.131  -3.230   0.672  0.00  0.00     0.174 A 
ATOM     12  C   UNL d   1       3.127  -2.900  -0.341  0.00  0.00     0.017 A 
ATOM     13  O   UNL d   1       2.328  -3.135   1.872  0.00  0.00    -0.291 OA
ATOM     14  C   UNL d   1       4.389  -2.364  -0.159  0.00  0.00     0.016 A 
ATOM     15  C   UNL d   1       2.580  -3.143  -1.598  0.00  0.00    -0.043 A 
ATOM     16  C   UNL d   1       5.120  -2.041  -1.301  0.00  0.00     0.001 A 
ATOM     17  C   UNL d   1       4.577  -2.259  -2.579  0.00  0.00     0.001 A 
ATOM     18  C   UNL d   1       3.303  -2.820  -2.735  0.00  0.00     0.008 A 
ATOM     19  C   UNL d   1       1.200  -3.725  -1.521  0.00  0.00     0.063 A 
ENDBRANCH   9  10
ENDBRANCH   1   9
BRANCH   2  20
ATOM     20  C   UNL d   1      -1.720   0.556   1.246  0.00  0.00     0.060 A 
ATOM     21  C   UNL d   1      -2.332  -0.316   2.152  0.00  0.00     0.034 A 
ATOM     22  C   UNL d   1      -3.267   0.173   3.078  0.00  0.00     0.039 A 
ATOM     23  C   UNL d   1      -3.591   1.526   3.107  0.00  0.00     0.065 A 
ATOM     24  C   UNL d   1      -3.002   2.407   2.213  0.00  0.00     0.039 A 
ATOM     25  C   UNL d   1      -2.073   1.923   1.287  0.00  0.00     0.034 A 
BRANCH  23  26
ATOM     26  O   UNL d   1      -4.491   1.953   4.033  0.00  0.00    -0.361 OA
ATOM     27  H   UNL d   1      -4.574   2.919   3.965  0.00  0.00     0.217 HD
ENDBRANCH  23  26
ENDBRANCH   2  20
TORSDOF 4
