REMARK  5 active torsions:
REMARK  status: ('A' for Active; 'I' for Inactive)
REMARK       I    between atoms: C_6  and  N_1 
REMARK    1  A    between atoms: C_8  and  C_5 
REMARK    2  A    between atoms: C_10  and  C_6 
REMARK    3  A    between atoms: C_17  and  C_7 
REMARK    4  A    between atoms: C_9  and  C_8 
REMARK    5  A    between atoms: C_24  and  C_17 
ROOT
ATOM      1  N   UNL d   1       0.050  -0.879  -0.041  0.00  0.00    -0.190 N 
ATOM      2  N   UNL d   1      -1.321  -0.605  -0.118  0.00  0.00    -0.296 N 
ATOM      3  HN  UNL d   1      -2.066  -1.297  -0.196  1.00  0.00     0.187 HD
ATOM      4  C   UNL d   1       0.806   0.322  -0.002  0.00  0.00     0.255 A 
ATOM      5  C   UNL d   1      -0.205   1.446   0.106  0.00  0.00     0.131 A 
ATOM      6  C   UNL d   1       0.388  -2.252  -0.033  0.00  0.00     0.253 C 
ATOM      7  C   UNL d   1      -1.477   0.676  -0.074  0.00  0.00     0.018 A 
ATOM      8  O   UNL d   1       2.013   0.501  -0.010  0.00  0.00    -0.270 OA
ATOM      9  O   UNL d   1      -0.495  -3.116  -0.153  0.00  0.00    -0.270 OA
ENDROOT
BRANCH   5  10
ATOM     10  C   UNL d   1      -0.033   2.068   1.494  0.00  0.00     0.063 C 
BRANCH  10  11
ATOM     11  C   UNL d   1      -0.890   3.261   1.852  0.00  0.00     0.003 A 
ATOM     12  C   UNL d   1      -0.852   4.409   1.048  0.00  0.00     0.124 A 
ATOM     13  F   UNL d   1      -0.126   4.406  -0.079  0.00  0.00    -0.205 F 
ATOM     14  C   UNL d   1      -1.533   5.577   1.386  0.00  0.00     0.043 A 
ATOM     15  C   UNL d   1      -2.271   5.629   2.564  0.00  0.00     0.005 A 
ATOM     16  C   UNL d   1      -2.334   4.504   3.382  0.00  0.00     0.024 A 
ATOM     17  C   UNL d   1      -1.653   3.331   3.031  0.00  0.00     0.043 A 
ATOM     18 CL   UNL d   1      -1.800   1.994   4.117  0.00  0.00    -0.084 Cl
ENDBRANCH  10  11
ENDBRANCH   5  10
BRANCH   7  19
ATOM     19  C   UNL d   1      -2.828   1.312  -0.254  0.00  0.00     0.054 C 
BRANCH  19  20
ATOM     20  C   UNL d   1      -2.920   2.171  -1.512  0.00  0.00     0.001 C 
ATOM     21  C   UNL d   1      -2.572   1.417  -2.788  0.00  0.00     0.005 C 
ENDBRANCH  19  20
ENDBRANCH   7  19
BRANCH   6  22
ATOM     22  C   UNL d   1       1.861  -2.708   0.131  0.00  0.00     0.032 C 
ATOM     23  C   UNL d   1       2.465  -2.227   1.458  0.00  0.00     0.025 C 
ATOM     24  C   UNL d   1       1.877  -4.261   0.187  0.00  0.00     0.025 C 
ATOM     25  C   UNL d   1       2.718  -2.317  -1.079  0.00  0.00     0.025 C 
ENDBRANCH   6  22
TORSDOF 5
