REMARK  4 active torsions:
REMARK  status: ('A' for Active; 'I' for Inactive)
REMARK    1  A    between atoms: C_11  and  N_7 
REMARK    2  A    between atoms: N_15  and  C_10 
REMARK    3  A    between atoms: C_14  and  C_11 
REMARK    4  A    between atoms: O_19  and  C_14 
ROOT
ATOM      1  C   UNL d   1      -0.249  -0.797   0.007  0.00  0.00     0.146 A 
ATOM      2  C   UNL d   1      -0.534   0.532   0.028  0.00  0.00     0.151 A 
ATOM      3  N   UNL d   1      -1.373  -1.549  -0.058  0.00  0.00    -0.317 N 
ATOM      4  HN  UNL d   1      -1.437  -2.567  -0.078  1.00  0.00     0.170 HD
ATOM      5  N   UNL d   1       1.041  -1.267   0.021  0.00  0.00    -0.287 N 
ATOM      6  N   UNL d   1       1.776   1.009   0.034  0.00  0.00    -0.269 N 
ATOM      7  N   UNL d   1      -1.915   0.611   0.007  0.00  0.00    -0.306 N 
ATOM      8  C   UNL d   1       2.102  -0.360   0.034  0.00  0.00     0.332 A 
ATOM      9  C   UNL d   1       0.478   1.534   0.035  0.00  0.00     0.282 A 
ATOM     10  C   UNL d   1      -2.365  -0.689  -0.089  0.00  0.00     0.159 A 
ATOM     11  O   UNL d   1       3.272  -0.751   0.038  0.00  0.00    -0.246 OA
ATOM     12  O   UNL d   1       0.221   2.735   0.026  0.00  0.00    -0.265 OA
ATOM     13  C   UNL d   1       1.334  -2.686   0.003  0.00  0.00     0.163 C 
ATOM     14  C   UNL d   1       2.864   1.969   0.019  0.00  0.00     0.164 C 
ENDROOT
BRANCH   7  15
ATOM     15  C   UNL d   1      -2.622   1.889  -0.022  0.00  0.00     0.242 C 
BRANCH  15  16
ATOM     16  C   UNL d   1      -4.129   1.897   0.042  0.00  0.00     0.158 C 
ATOM     17  O   UNL d   1      -4.826   1.109   0.666  0.00  0.00    -0.649 OA
BRANCH  16  18
ATOM     18  O   UNL d   1      -4.687   2.959  -0.594  0.00  0.00    -0.775 OA
ATOM     19  H   UNL d   1      -4.063   3.578  -1.023  0.00  0.00     0.167 HD
ENDBRANCH  16  18
ENDBRANCH  15  16
ENDBRANCH   7  15
BRANCH  10  20
ATOM     20  N   UNL d   1      -3.649  -1.042  -0.223  0.00  0.00    -0.274 NA
ATOM     21  H   UNL d   1      -3.827  -2.033  -0.079  0.00  0.00     0.127 HD
ATOM     22  H   UNL d   1      -4.381  -0.481   0.224  0.00  0.00     0.127 HD
ENDBRANCH  10  20
TORSDOF 4
