REMARK  1 active torsions:
REMARK  status: ('A' for Active; 'I' for Inactive)
REMARK    1  A    between atoms: C_6  and  N_1 
ROOT
ATOM      1  C   UNL d   1      -0.387  -2.710  -0.055  0.00  0.00     0.062 A 
ATOM      2  C   UNL d   1      -1.097  -3.345  -1.121  0.00  0.00     0.002 A 
ATOM      3  C   UNL d   1      -1.260  -4.754  -1.072  0.00  0.00    -0.024 A 
ATOM      4  C   UNL d   1       0.114  -3.477   1.012  0.00  0.00     0.031 A 
ATOM      5  C   UNL d   1      -1.709  -2.666  -2.207  0.00  0.00     0.014 A 
ATOM      6  C   UNL d   1      -0.036  -4.859   1.027  0.00  0.00     0.003 A 
ATOM      7  C   UNL d   1      -0.720  -5.489  -0.007  0.00  0.00     0.012 A 
ATOM      8  C   UNL d   1      -1.976  -5.420  -2.082  0.00  0.00     0.012 A 
ATOM      9  C   UNL d   1      -2.409  -3.343  -3.208  0.00  0.00     0.001 A 
ATOM     10  C   UNL d   1      -2.542  -4.721  -3.145  0.00  0.00     0.001 A 
ENDROOT
BRANCH   1  11
ATOM     11  N   UNL d   1      -0.164  -1.313  -0.030  0.00  0.00    -0.227 N 
ATOM     12  C   UNL d   1       0.437  -0.579  -1.058  0.00  0.00     0.343 A 
ATOM     13  N   UNL d   1       0.483   0.766  -0.727  0.00  0.00    -0.263 N 
ATOM     14  O   UNL d   1       0.896  -1.035  -2.102  0.00  0.00    -0.245 OA
ATOM     15  C   UNL d   1       1.030   1.763  -1.613  0.00  0.00     0.165 C 
ATOM     16  C   UNL d   1       0.002   1.105   0.507  0.00  0.00     0.310 A 
ATOM     17  S   UNL d   1      -0.515  -0.357   1.334  0.00  0.00     0.060 SA
ATOM     18  O   UNL d   1      -0.075   2.219   0.997  0.00  0.00    -0.258 OA
ENDBRANCH   1  11
TORSDOF 1
