REMARK  3 active torsions:
REMARK  status: ('A' for Active; 'I' for Inactive)
REMARK    1  A    between atoms: C_7  and  C_1 
REMARK    2  A    between atoms: C_8  and  C_2 
REMARK    3  A    between atoms: C_6  and  C_4 
ROOT
ATOM      1  C   UNL d   1      -0.087   1.103  -0.061  0.00  0.00     0.097 A 
ATOM      2  C   UNL d   1       1.213   0.628   0.071  0.00  0.00     0.012 A 
ATOM      3  O   UNL d   1      -0.964   0.048  -0.085  0.00  0.00    -0.308 OA
ATOM      4  C   UNL d   1      -0.235  -1.107  -0.008  0.00  0.00     0.087 A 
ATOM      5  C   UNL d   1       1.101  -0.791   0.096  0.00  0.00     0.053 A 
ENDROOT
BRANCH   4   6
ATOM      6  C   UNL d   1      -0.953  -2.380  -0.063  0.00  0.00    -0.002 A 
ATOM      7  C   UNL d   1      -2.352  -2.448  -0.042  0.00  0.00     0.015 A 
ATOM      8  C   UNL d   1      -3.012  -3.684  -0.108  0.00  0.00     0.020 A 
ATOM      9  C   UNL d   1      -2.275  -4.862  -0.199  0.00  0.00     0.011 A 
ATOM     10  C   UNL d   1      -0.886  -4.820  -0.217  0.00  0.00     0.020 A 
ATOM     11 BR   UNL d   1      -3.161  -6.528  -0.306  0.00  0.00    -0.051 Br
ATOM     12  C   UNL d   1      -0.232  -3.586  -0.148  0.00  0.00     0.015 A 
ENDBRANCH   4   6
BRANCH   1  13
ATOM     13  C   UNL d   1      -0.690   2.432  -0.180  0.00  0.00    -0.001 A 
ATOM     14  C   UNL d   1      -0.072   3.429  -0.953  0.00  0.00     0.014 A 
ATOM     15  C   UNL d   1      -0.545   4.743  -0.942  0.00  0.00     0.001 A 
ATOM     16  C   UNL d   1      -1.667   5.070  -0.187  0.00  0.00     0.000 A 
ATOM     17  C   UNL d   1      -2.328   4.080   0.539  0.00  0.00     0.001 A 
ATOM     18  C   UNL d   1      -1.842   2.767   0.542  0.00  0.00     0.014 A 
ENDBRANCH   1  13
BRANCH   2  19
ATOM     19  C   UNL d   1       2.433   1.423   0.149  0.00  0.00    -0.023 A 
ATOM     20  C   UNL d   1       2.485   2.634   0.852  0.00  0.00     0.012 A 
ATOM     21  C   UNL d   1       3.656   3.396   0.873  0.00  0.00     0.001 A 
ATOM     22  C   UNL d   1       4.801   2.934   0.230  0.00  0.00     0.000 A 
ATOM     23  C   UNL d   1       4.776   1.711  -0.437  0.00  0.00     0.001 A 
ATOM     24  C   UNL d   1       3.598   0.963  -0.482  0.00  0.00     0.012 A 
ENDBRANCH   2  19
TORSDOF 3
