REMARK  3 active torsions:
REMARK  status: ('A' for Active; 'I' for Inactive)
REMARK    1  A    between atoms: C_2  and  C_1 
REMARK       I    between atoms: N_3  and  C_2 
REMARK    2  A    between atoms: C_8  and  C_4 
REMARK    3  A    between atoms: S_15  and  C_7 
ROOT
ATOM      1  C   UNL d   1      -0.194  -1.249   0.021  0.00  0.00     0.093 A 
ATOM      2  C   UNL d   1      -1.466  -0.650   0.300  0.00  0.00     0.085 A 
ATOM      3  N   UNL d   1      -1.340   0.683   0.412  0.00  0.00    -0.259 N 
ATOM      4  HN  UNL d   1      -2.087   1.351   0.601  1.00  0.00     0.195 HD
ATOM      5  O   UNL d   1      -0.013   0.974   0.222  0.00  0.00    -0.241 OA
ATOM      6  C   UNL d   1       0.675  -0.171   0.014  0.00  0.00     0.090 A 
ATOM      7  C   UNL d   1       2.137  -0.033  -0.143  0.00  0.00     0.080 C 
ENDROOT
BRANCH   1   8
ATOM      8  C   UNL d   1       0.270  -2.628  -0.099  0.00  0.00     0.264 C 
ATOM      9  N   UNL d   1      -0.427  -3.553  -0.915  0.00  0.00    -0.294 N 
ATOM     10  C   UNL d   1      -0.198  -4.950  -0.959  0.00  0.00     0.144 C 
ATOM     11  C   UNL d   1      -1.341  -3.091  -1.956  0.00  0.00     0.136 C 
ATOM     12  N   UNL d   1      -0.891  -5.780  -1.653  0.00  0.00    -0.370 N 
ATOM     13  C   UNL d   1      -2.021  -5.368  -2.468  0.00  0.00     0.123 C 
ATOM     14  HN  UNL d   1      -0.637  -6.767  -1.632  1.00  0.00     0.161 HD
ATOM     15  C   UNL d   1      -2.537  -4.011  -2.056  0.00  0.00     0.040 C 
ATOM     16  O   UNL d   1       1.310  -2.901   0.496  0.00  0.00    -0.267 OA
BRANCH  10  17
ATOM     17  S   UNL d   1       1.084  -5.665   0.004  0.00  0.00    -0.098 SA
ATOM     18  C   UNL d   1       1.422  -7.177  -0.923  0.00  0.00     0.099 C 
ENDBRANCH  10  17
ENDBRANCH   1   8
BRANCH   2  19
ATOM     19  C   UNL d   1      -2.773  -1.272   0.518  0.00  0.00     0.015 A 
ATOM     20  C   UNL d   1      -3.945  -0.814  -0.120  0.00  0.00     0.046 A 
ATOM     21 CL   UNL d   1      -3.951   0.462  -1.291  0.00  0.00    -0.083 Cl
ATOM     22  C   UNL d   1      -5.175  -1.435   0.127  0.00  0.00     0.025 A 
ATOM     23  C   UNL d   1      -5.251  -2.522   0.994  0.00  0.00     0.002 A 
ATOM     24  C   UNL d   1      -4.101  -2.989   1.624  0.00  0.00     0.001 A 
ATOM     25  C   UNL d   1      -2.870  -2.365   1.396  0.00  0.00     0.015 A 
ENDBRANCH   2  19
TORSDOF 3
