REMARK  3 active torsions:
REMARK  status: ('A' for Active; 'I' for Inactive)
REMARK    1  A    between atoms: C_15  and  C_3 
REMARK    2  A    between atoms: C_11  and  C_7 
REMARK    3  A    between atoms: C_10  and  C_8 
ROOT
ATOM      1  N   UNL d   1       1.533  -0.113   0.061  0.00  0.00    -0.331 N 
ATOM      2  HN  UNL d   1       2.473  -0.509   0.074  1.00  0.00     0.168 HD
ATOM      3  C   UNL d   1       1.182   1.132   0.031  0.00  0.00     0.162 A 
ATOM      4  C   UNL d   1       0.325  -0.769   0.070  0.00  0.00     0.112 A 
ATOM      5  O   UNL d   1      -0.141   1.412   0.036  0.00  0.00    -0.256 OA
ATOM      6  C   UNL d   1      -0.792   0.220   0.065  0.00  0.00     0.316 A 
ATOM      7  C   UNL d   1       0.214  -2.105   0.055  0.00  0.00     0.054 C 
ATOM      8  O   UNL d   1      -1.996   0.063   0.087  0.00  0.00    -0.257 OA
ENDROOT
BRANCH   7   9
ATOM      9  C   UNL d   1      -1.032  -2.780   0.032  0.00  0.00     0.008 A 
ATOM     10  S   UNL d   1      -1.696  -3.319  -1.458  0.00  0.00    -0.089 SA
ATOM     11  C   UNL d   1      -3.098  -3.958  -0.705  0.00  0.00     0.022 A 
ATOM     12  C   UNL d   1      -3.031  -3.803   0.667  0.00  0.00     0.021 A 
ATOM     13  C   UNL d   1      -1.852  -3.121   1.088  0.00  0.00     0.020 A 
BRANCH  11  14
ATOM     14  C   UNL d   1      -4.173  -4.552  -1.465  0.00  0.00     0.021 A 
ATOM     15  S   UNL d   1      -5.116  -5.840  -0.826  0.00  0.00    -0.101 SA
ATOM     16  C   UNL d   1      -6.135  -5.875  -2.196  0.00  0.00     0.050 A 
ATOM     17  C   UNL d   1      -5.757  -4.950  -3.142  0.00  0.00     0.008 A 
ATOM     18  C   UNL d   1      -4.617  -4.199  -2.727  0.00  0.00     0.021 A 
ENDBRANCH  11  14
ENDBRANCH   7   9
BRANCH   3  19
ATOM     19  C   UNL d   1       2.065   2.307  -0.034  0.00  0.00     0.015 A 
ATOM     20  C   UNL d   1       3.450   2.117  -0.100  0.00  0.00     0.016 A 
ATOM     21  C   UNL d   1       4.300   3.219  -0.219  0.00  0.00     0.001 A 
ATOM     22  C   UNL d   1       3.770   4.508  -0.269  0.00  0.00     0.000 A 
ATOM     23  C   UNL d   1       2.392   4.702  -0.185  0.00  0.00     0.001 A 
ATOM     24  C   UNL d   1       1.538   3.605  -0.067  0.00  0.00     0.016 A 
ENDBRANCH   3  19
TORSDOF 3
