REMARK  6 active torsions:
REMARK  status: ('A' for Active; 'I' for Inactive)
REMARK    1  A    between atoms: C_3  and  C_1 
REMARK    2  A    between atoms: N_4  and  C_2 
REMARK       I    between atoms: C_6  and  N_5 
REMARK    3  A    between atoms: C_15  and  C_6 
REMARK    4  A    between atoms: C_9  and  C_20 
REMARK    5  A    between atoms: O_22  and  C_9 
REMARK    6  A    between atoms: C_20  and  C_15 
ROOT
ATOM      1  N   UNL d   1      -1.335   2.473   0.357  0.00  0.00    -0.266 NA
ATOM      2  N   UNL d   1      -2.945   4.827   0.621  0.00  0.00    -0.350 N 
ATOM      3  C   UNL d   1      -3.659   5.986   0.900  0.00  0.00     0.220 C 
ATOM      4  C   UNL d   1      -1.492   3.345  -0.822  0.00  0.00     0.117 C 
ATOM      5  C   UNL d   1      -2.596   2.398   1.124  0.00  0.00     0.117 C 
ATOM      6  C   UNL d   1      -2.914   3.798   1.673  0.00  0.00     0.140 C 
ATOM      7  C   UNL d   1      -1.828   4.775  -0.344  0.00  0.00     0.140 C 
ATOM      8  O   UNL d   1      -4.365   6.096   1.904  0.00  0.00    -0.273 OA
ENDROOT
BRANCH   1   9
ATOM      9  C   UNL d   1      -0.752   1.232   0.108  0.00  0.00     0.097 A 
ATOM     10  C   UNL d   1      -0.051   0.555   1.109  0.00  0.00     0.086 A 
ATOM     11  C   UNL d   1       0.520  -0.696   0.798  0.00  0.00     0.021 A 
ATOM     12  C   UNL d   1       0.408  -1.218  -0.480  0.00  0.00     0.018 A 
ATOM     13  C   UNL d   1      -0.279  -0.472  -1.413  0.00  0.00     0.089 A 
ATOM     14  N   UNL d   1      -0.850   0.723  -1.144  0.00  0.00    -0.356 N 
ATOM     15  HN  UNL d   1      -1.347   1.235  -1.873  1.00  0.00     0.166 HD
BRANCH  10  16
ATOM     16  C   UNL d   1       0.153   1.090   2.497  0.00  0.00     0.420 C 
ATOM     17  F   UNL d   1      -0.224   2.377   2.733  0.00  0.00    -0.166 F 
ATOM     18  F   UNL d   1      -0.520   0.344   3.424  0.00  0.00    -0.166 F 
ATOM     19  F   UNL d   1       1.464   1.031   2.879  0.00  0.00    -0.166 F 
ENDBRANCH  10  16
ENDBRANCH   1   9
BRANCH   3  20
ATOM     20  C   UNL d   1      -3.579   7.107  -0.116  0.00  0.00     0.113 C 
BRANCH  20  21
ATOM     21  C   UNL d   1      -4.262   8.370   0.410  0.00  0.00     0.119 C 
BRANCH  21  22
ATOM     22  C   UNL d   1      -4.201   9.482  -0.597  0.00  0.00     0.139 C 
ATOM     23  O   UNL d   1      -3.768   9.378  -1.736  0.00  0.00    -0.650 OA
BRANCH  22  24
ATOM     24  O   UNL d   1      -4.690  10.647  -0.114  0.00  0.00    -0.776 OA
ATOM     25  H   UNL d   1      -5.008  10.586   0.808  0.00  0.00     0.167 HD
ENDBRANCH  22  24
ENDBRANCH  21  22
ENDBRANCH  20  21
ENDBRANCH   3  20
TORSDOF 6
