REMARK  3 active torsions:
REMARK  status: ('A' for Active; 'I' for Inactive)
REMARK    1  A    between atoms: N_2  and  C_1 
REMARK       I    between atoms: C_3  and  N_2 
REMARK    2  A    between atoms: C_7  and  N_2 
REMARK       I    between atoms: N_8  and  C_3 
REMARK    3  A    between atoms: C_13  and  N_8 
ROOT
ATOM      1  N   UNL d   1       2.114   1.419  -0.303  0.00  0.00    -0.243 N 
ATOM      2  C   UNL d   1       3.464   1.014  -0.508  0.00  0.00     0.333 C 
ATOM      3  N   UNL d   1       3.584  -0.188  -1.187  0.00  0.00    -0.308 N 
ATOM      4  O   UNL d   1       4.420   1.702  -0.147  0.00  0.00    -0.246 OA
ATOM      5  H   UNL d   1       2.715  -0.642  -1.429  0.00  0.00     0.170 HD
ENDROOT
BRANCH   1   6
ATOM      6  C   UNL d   1       0.988   0.606  -0.114  0.00  0.00     0.151 C 
ATOM      7  N   UNL d   1      -0.232   1.007  -0.279  0.00  0.00    -0.369 N 
ATOM      8  C   UNL d   1      -1.166  -0.126  -0.151  0.00  0.00     0.137 C 
ATOM      9  HN  UNL d   1      -0.507   1.970  -0.471  1.00  0.00     0.161 HD
ATOM     10  C   UNL d   1      -0.574  -1.194   0.759  0.00  0.00     0.069 C 
ATOM     11  S   UNL d   1       1.190  -1.063   0.381  0.00  0.00    -0.087 SA
ATOM     12  C   UNL d   1      -0.843  -0.917   2.232  0.00  0.00     0.023 C 
ENDBRANCH   1   6
BRANCH   1  13
ATOM     13  C   UNL d   1       1.907   2.841  -0.271  0.00  0.00     0.052 A 
ATOM     14  C   UNL d   1       1.406   3.513   0.862  0.00  0.00    -0.035 A 
ATOM     15  C   UNL d   1       1.167   2.850   2.189  0.00  0.00     0.050 C 
ATOM     16  C   UNL d   1       1.173   4.899   0.782  0.00  0.00     0.009 A 
ATOM     17  C   UNL d   1       1.450   5.610  -0.386  0.00  0.00     0.001 A 
ATOM     18  C   UNL d   1       1.976   4.949  -1.491  0.00  0.00     0.002 A 
ATOM     19  C   UNL d   1       2.211   3.576  -1.432  0.00  0.00     0.031 A 
ENDBRANCH   1  13
BRANCH   3  20
ATOM     20  C   UNL d   1       4.754  -0.856  -1.595  0.00  0.00     0.036 A 
ATOM     21  C   UNL d   1       6.048  -0.433  -1.293  0.00  0.00     0.029 A 
ATOM     22  C   UNL d   1       7.153  -1.148  -1.766  0.00  0.00     0.002 A 
ATOM     23  C   UNL d   1       6.973  -2.289  -2.545  0.00  0.00     0.000 A 
ATOM     24  C   UNL d   1       5.686  -2.727  -2.841  0.00  0.00     0.002 A 
ATOM     25  C   UNL d   1       4.582  -2.017  -2.362  0.00  0.00     0.029 A 
ENDBRANCH   3  20
TORSDOF 3
