REMARK  6 active torsions:
REMARK  status: ('A' for Active; 'I' for Inactive)
REMARK    1  A    between atoms: C_4  and  S_1 
REMARK    2  A    between atoms: C_5  and  S_1 
REMARK    3  A    between atoms: C_2  and  O_9 
REMARK    4  A    between atoms: C_3  and  O_8 
REMARK    5  A    between atoms: O_8  and  C_16 
REMARK    6  A    between atoms: O_9  and  C_17 
ROOT
ATOM      1  S   UNL d   1       1.142  -0.039  -0.058  0.00  0.00     0.206 S 
ATOM      2  O   UNL d   1       0.557  -1.016  -0.963  0.00  0.00    -0.217 OA
ATOM      3  O   UNL d   1       2.581   0.102   0.047  0.00  0.00    -0.217 OA
ENDROOT
BRANCH   1   4
ATOM      4  C   UNL d   1       0.527  -0.431   1.570  0.00  0.00     0.064 A 
ATOM      5  C   UNL d   1      -0.664  -1.148   1.707  0.00  0.00     0.026 A 
ATOM      6  C   UNL d   1      -1.114  -1.500   2.983  0.00  0.00     0.039 A 
ATOM      7  C   UNL d   1      -0.399  -1.098   4.117  0.00  0.00     0.076 A 
ATOM      8  C   UNL d   1       0.813  -0.419   3.968  0.00  0.00     0.039 A 
ATOM      9  C   UNL d   1       1.287  -0.092   2.695  0.00  0.00     0.026 A 
BRANCH   7  10
ATOM     10  O   UNL d   1      -0.772  -1.395   5.409  0.00  0.00    -0.310 OA
BRANCH  10  11
ATOM     11  C   UNL d   1      -2.111  -1.396   5.761  0.00  0.00     0.087 A 
ATOM     12  C   UNL d   1      -2.518  -2.292   6.782  0.00  0.00     0.008 A 
ATOM     13  C   UNL d   1      -3.877  -2.297   7.180  0.00  0.00    -0.023 A 
ATOM     14  C   UNL d   1      -1.634  -3.182   7.434  0.00  0.00     0.015 A 
ATOM     15  C   UNL d   1      -4.307  -3.162   8.198  0.00  0.00     0.012 A 
ATOM     16  C   UNL d   1      -4.787  -1.426   6.559  0.00  0.00     0.012 A 
ATOM     17  C   UNL d   1      -3.412  -4.025   8.831  0.00  0.00     0.001 A 
ATOM     18  C   UNL d   1      -2.076  -4.035   8.447  0.00  0.00     0.001 A 
ATOM     19  C   UNL d   1      -4.366  -0.530   5.581  0.00  0.00     0.004 A 
ATOM     20  C   UNL d   1      -3.028  -0.494   5.202  0.00  0.00     0.038 A 
ENDBRANCH  10  11
ENDBRANCH   7  10
ENDBRANCH   1   4
BRANCH   1  21
ATOM     21  C   UNL d   1       0.519   1.556  -0.540  0.00  0.00     0.064 A 
ATOM     22  C   UNL d   1       0.398   2.581   0.402  0.00  0.00     0.026 A 
ATOM     23  C   UNL d   1      -0.080   3.832   0.001  0.00  0.00     0.039 A 
ATOM     24  C   UNL d   1      -0.484   4.042  -1.322  0.00  0.00     0.076 A 
ATOM     25  C   UNL d   1      -0.330   3.021  -2.264  0.00  0.00     0.039 A 
ATOM     26  C   UNL d   1       0.167   1.774  -1.876  0.00  0.00     0.026 A 
BRANCH  24  27
ATOM     27  O   UNL d   1      -0.980   5.236  -1.796  0.00  0.00    -0.310 OA
BRANCH  27  28
ATOM     28  C   UNL d   1      -1.805   6.008  -0.995  0.00  0.00     0.087 A 
ATOM     29  C   UNL d   1      -1.760   7.414  -1.175  0.00  0.00     0.008 A 
ATOM     30  C   UNL d   1      -2.600   8.228  -0.374  0.00  0.00    -0.023 A 
ATOM     31  C   UNL d   1      -0.926   8.051  -2.121  0.00  0.00     0.015 A 
ATOM     32  C   UNL d   1      -2.585   9.622  -0.537  0.00  0.00     0.012 A 
ATOM     33  C   UNL d   1      -3.449   7.634   0.572  0.00  0.00     0.012 A 
ATOM     34  C   UNL d   1      -1.758  10.224  -1.484  0.00  0.00     0.001 A 
ATOM     35  C   UNL d   1      -0.928   9.440  -2.276  0.00  0.00     0.001 A 
ATOM     36  C   UNL d   1      -3.511   6.249   0.708  0.00  0.00     0.004 A 
ATOM     37  C   UNL d   1      -2.713   5.438  -0.092  0.00  0.00     0.038 A 
ENDBRANCH  27  28
ENDBRANCH  24  27
ENDBRANCH   1  21
TORSDOF 6
