REMARK  4 active torsions:
REMARK  status: ('A' for Active; 'I' for Inactive)
REMARK    1  A    between atoms: C_2  and  C_1 
REMARK       I    between atoms: N_3  and  C_2 
REMARK    2  A    between atoms: N_4  and  N_3 
REMARK    3  A    between atoms: C_7  and  N_4 
REMARK    4  A    between atoms: N_8  and  C_5 
ROOT
ATOM      1  C   UNL d   1       0.869   2.455  -0.128  0.00  0.00     0.267 C 
ATOM      2  N   UNL d   1       0.362   3.746  -0.038  0.00  0.00    -0.287 N 
ATOM      3  O   UNL d   1       0.160   1.456  -0.032  0.00  0.00    -0.266 OA
ATOM      4  H   UNL d   1       0.915   4.533  -0.356  0.00  0.00     0.184 HD
ENDROOT
BRANCH   1   5
ATOM      5  C   UNL d   1       2.338   2.319  -0.357  0.00  0.00     0.054 A 
ATOM      6  C   UNL d   1       2.844   1.204  -1.056  0.00  0.00     0.021 A 
ATOM      7  C   UNL d   1       4.229   1.109  -1.256  0.00  0.00     0.024 A 
ATOM      8  C   UNL d   1       5.101   2.045  -0.695  0.00  0.00     0.002 A 
ATOM      9  C   UNL d   1       4.600   3.111   0.042  0.00  0.00     0.001 A 
ATOM     10  C   UNL d   1       3.220   3.253   0.211  0.00  0.00     0.019 A 
BRANCH   6  11
ATOM     11  N   UNL d   1       2.009   0.312  -1.759  0.00  0.00    -0.302 NA
ATOM     12  H   UNL d   1       1.071   0.274  -1.341  0.00  0.00     0.124 HD
ATOM     13  H   UNL d   1       2.402  -0.616  -1.872  0.00  0.00     0.124 HD
ENDBRANCH   6  11
ENDBRANCH   1   5
BRANCH   2  14
ATOM     14  N   UNL d   1      -1.040   3.921   0.114  0.00  0.00    -0.229 NA
ATOM     15  H   UNL d   1      -1.456   2.979   0.111  0.00  0.00     0.147 HD
BRANCH  14  16
ATOM     16  C   UNL d   1      -1.405   4.602   1.377  0.00  0.00     0.019 C 
ATOM     17  C   UNL d   1      -0.858   6.038   1.380  0.00  0.00     0.033 C 
ATOM     18  C   UNL d   1      -2.942   4.669   1.442  0.00  0.00     0.033 C 
ATOM     19  C   UNL d   1      -0.902   3.826   2.606  0.00  0.00     0.033 C 
ENDBRANCH  14  16
ENDBRANCH   2  14
TORSDOF 4
