REMARK  3 active torsions:
REMARK  status: ('A' for Active; 'I' for Inactive)
REMARK       I    between atoms: N_2  and  C_1 
REMARK    1  A    between atoms: C_5  and  C_1 
REMARK    2  A    between atoms: C_3  and  N_2 
REMARK    3  A    between atoms: C_6  and  C_7 
ROOT
ATOM      1  C   UNL d   1       0.994   0.264   0.133  0.00  0.00     0.256 C 
ATOM      2  N   UNL d   1       2.358   0.051   0.227  0.00  0.00    -0.322 N 
ATOM      3  O   UNL d   1       0.391   0.711  -0.835  0.00  0.00    -0.267 OA
ATOM      4  H   UNL d   1       2.662  -0.607   0.932  0.00  0.00     0.169 HD
ENDROOT
BRANCH   1   5
ATOM      5  C   UNL d   1       0.221  -0.188   1.315  0.00  0.00     0.032 A 
ATOM      6  C   UNL d   1       0.631   0.147   2.604  0.00  0.00     0.017 A 
ATOM      7  C   UNL d   1      -0.134  -0.259   3.701  0.00  0.00     0.009 A 
ATOM      8  C   UNL d   1      -1.317  -1.012   3.538  0.00  0.00    -0.051 A 
ATOM      9  C   UNL d   1      -1.704  -1.333   2.227  0.00  0.00     0.009 A 
ATOM     10  C   UNL d   1      -0.949  -0.922   1.123  0.00  0.00     0.017 A 
BRANCH   8  11
ATOM     11  C   UNL d   1      -2.136  -1.429   4.774  0.00  0.00    -0.024 C 
ATOM     12  C   UNL d   1      -3.395  -2.259   4.439  0.00  0.00     0.019 C 
ATOM     13  C   UNL d   1      -1.258  -2.283   5.712  0.00  0.00     0.019 C 
ATOM     14  C   UNL d   1      -2.611  -0.167   5.530  0.00  0.00     0.019 C 
ENDBRANCH   8  11
ENDBRANCH   1   5
BRANCH   2  15
ATOM     15  C   UNL d   1       3.290   0.429  -0.761  0.00  0.00     0.041 A 
ATOM     16  C   UNL d   1       4.424  -0.369  -1.008  0.00  0.00    -0.032 A 
ATOM     17  C   UNL d   1       5.354   0.058  -1.974  0.00  0.00     0.051 A 
ATOM     18  C   UNL d   1       4.682  -1.693  -0.342  0.00  0.00     0.050 C 
ATOM     19  C   UNL d   1       5.158   1.247  -2.669  0.00  0.00     0.117 A 
ATOM     20  C   UNL d   1       4.047   2.037  -2.425  0.00  0.00     0.044 A 
ATOM     21  F   UNL d   1       6.053   1.629  -3.588  0.00  0.00    -0.206 F 
ATOM     22  C   UNL d   1       3.111   1.625  -1.476  0.00  0.00     0.033 A 
ENDBRANCH   2  15
TORSDOF 3
