REMARK  6 active torsions:
REMARK  status: ('A' for Active; 'I' for Inactive)
REMARK    1  A    between atoms: C_9  and  C_1 
REMARK    2  A    between atoms: C_11  and  C_4 
REMARK    3  A    between atoms: O_16  and  C_5 
REMARK    4  A    between atoms: C_8  and  C_9 
REMARK    5  A    between atoms: C_19  and  C_10 
REMARK    6  A    between atoms: C_25  and  C_19 
ROOT
ATOM      1  C   UNL d   1      -0.294   1.204   0.034  0.00  0.00     0.020 A 
ATOM      2  N   UNL d   1      -0.243  -1.212  -0.078  0.00  0.00    -0.321 N 
ATOM      3  HN  UNL d   1      -0.742  -2.099  -0.153  1.00  0.00     0.169 HD
ATOM      4  C   UNL d   1       1.095  -1.149   0.017  0.00  0.00     0.134 A 
ATOM      5  C   UNL d   1      -0.877  -0.040  -0.068  0.00  0.00     0.150 A 
ATOM      6  N   UNL d   1       1.791   0.009   0.086  0.00  0.00    -0.343 N 
ATOM      7  HN  UNL d   1       2.809   0.007   0.146  1.00  0.00     0.167 HD
ATOM      8  C   UNL d   1       1.094   1.176   0.074  0.00  0.00     0.021 A 
ENDROOT
BRANCH   1   9
ATOM      9  C   UNL d   1      -1.131   2.451   0.083  0.00  0.00     0.088 C 
BRANCH   9  10
ATOM     10  C   UNL d   1      -1.438   3.200  -1.198  0.00  0.00     0.007 A 
ATOM     11  C   UNL d   1      -2.232   4.365  -1.150  0.00  0.00     0.043 A 
ATOM     12 CL   UNL d   1      -2.899   4.955   0.336  0.00  0.00    -0.084 Cl
ATOM     13  C   UNL d   1      -2.512   5.107  -2.306  0.00  0.00     0.024 A 
ATOM     14  C   UNL d   1      -2.010   4.701  -3.538  0.00  0.00     0.005 A 
ATOM     15  C   UNL d   1      -1.236   3.549  -3.611  0.00  0.00     0.043 A 
ATOM     16  C   UNL d   1      -0.962   2.813  -2.457  0.00  0.00     0.124 A 
ATOM     17  F   UNL d   1      -0.201   1.721  -2.602  0.00  0.00    -0.205 F 
ENDBRANCH   9  10
ENDBRANCH   1   9
BRANCH   5  18
ATOM     18  O   UNL d   1      -2.224  -0.181  -0.181  0.00  0.00    -0.346 OA
ATOM     19  H   UNL d   1      -2.278  -1.150  -0.277  0.00  0.00     0.219 HD
ENDBRANCH   5  18
BRANCH   8  20
ATOM     20  C   UNL d   1       1.946   2.422   0.060  0.00  0.00     0.057 C 
BRANCH  20  21
ATOM     21  C   UNL d   1       2.248   3.022   1.435  0.00  0.00     0.002 C 
ATOM     22  C   UNL d   1       3.089   2.120   2.326  0.00  0.00     0.005 C 
ENDBRANCH  20  21
ENDBRANCH   8  20
BRANCH   4  23
ATOM     23  C   UNL d   1       1.854  -2.425   0.072  0.00  0.00     0.076 A 
ATOM     24  N   UNL d   1       1.145  -3.584  -0.076  0.00  0.00    -0.363 N 
ATOM     25  C   UNL d   1       1.813  -4.756  -0.010  0.00  0.00     0.088 A 
ATOM     26  HN  UNL d   1       0.138  -3.565  -0.233  1.00  0.00     0.165 HD
ATOM     27  C   UNL d   1       3.176  -4.854   0.202  0.00  0.00     0.017 A 
ATOM     28  C   UNL d   1       3.899  -3.679   0.352  0.00  0.00     0.004 A 
ATOM     29  C   UNL d   1       3.235  -2.454   0.285  0.00  0.00     0.033 A 
ENDBRANCH   4  23
TORSDOF 6
