REMARK  6 active torsions:
REMARK  status: ('A' for Active; 'I' for Inactive)
REMARK    1  A    between atoms: C_3  and  C_1 
REMARK    2  A    between atoms: C_5  and  CA_2 
REMARK       I    between atoms: N_4  and  C_3 
REMARK    3  A    between atoms: OXT_17  and  C_5 
REMARK    4  A    between atoms: C_18  and  N_10 
REMARK    5  A    between atoms: C_22  and  C_18 
REMARK    6  A    between atoms: O_19  and  C_22 
ROOT
ATOM      1  C   UNL d   1      -2.464  -1.802  -0.917  0.00  0.00     0.134 A 
ATOM      2  CA  UNL d   1      -3.520  -0.960  -0.585  0.00  0.00     0.139 A 
ATOM      3  N   UNL d   1      -2.158  -2.093  -2.225  0.00  0.00    -0.358 N 
ATOM      4  HN  UNL d   1      -1.347  -2.659  -2.474  1.00  0.00     0.165 HD
ATOM      5  N   UNL d   1      -4.358  -0.477  -1.561  0.00  0.00    -0.357 N 
ATOM      6  HN  UNL d   1      -5.159   0.110  -1.331  1.00  0.00     0.165 HD
ATOM      7  C   UNL d   1      -2.988  -1.591  -3.164  0.00  0.00     0.105 A 
ATOM      8  C   UNL d   1      -4.075  -0.812  -2.837  0.00  0.00     0.105 A 
ENDROOT
BRANCH   1   9
ATOM      9  C   UNL d   1      -1.549  -2.415   0.096  0.00  0.00     0.273 C 
ATOM     10  N   UNL d   1      -1.074  -3.715  -0.069  0.00  0.00    -0.343 N 
ATOM     11  C   UNL d   1      -0.119  -4.259   0.902  0.00  0.00     0.156 C 
ATOM     12  C   UNL d   1      -1.624  -4.719  -0.987  0.00  0.00     0.156 C 
ATOM     13  C   UNL d   1       0.940  -5.175   0.240  0.00  0.00     0.292 C 
ATOM     14  N   UNL d   1       0.418  -6.186  -0.713  0.00  0.00     0.093 N 
ATOM     15  C   UNL d   1      -0.492  -5.513  -1.663  0.00  0.00     0.292 C 
ATOM     16  O   UNL d   1      -1.204  -1.692   1.031  0.00  0.00    -0.266 OA
BRANCH  14  17
ATOM     17  C   UNL d   1      -0.205  -7.319  -0.003  0.00  0.00     0.298 C 
BRANCH  17  18
ATOM     18  C   UNL d   1      -0.644  -8.470  -0.924  0.00  0.00     0.194 C 
BRANCH  18  19
ATOM     19  O   UNL d   1      -1.187  -9.532  -0.144  0.00  0.00    -0.399 OA
ATOM     20  H   UNL d   1      -1.423 -10.243  -0.765  0.00  0.00     0.209 HD
ENDBRANCH  18  19
ENDBRANCH  17  18
ENDBRANCH  14  17
ENDBRANCH   1   9
BRANCH   2  21
ATOM     21  C   UNL d   1      -3.919  -0.539   0.793  0.00  0.00     0.196 C 
ATOM     22  O   UNL d   1      -5.098  -0.455   1.115  0.00  0.00    -0.645 OA
BRANCH  21  23
ATOM     23  OXT UNL d   1      -2.943  -0.105   1.619  0.00  0.00    -0.772 OA
ATOM     24  HXT UNL d   1      -2.031  -0.440   1.436  0.00  0.00     0.167 HD
ENDBRANCH  21  23
ENDBRANCH   2  21
TORSDOF 6
