REMARK  3 active torsions:
REMARK  status: ('A' for Active; 'I' for Inactive)
REMARK    1  A    between atoms: C_11  and  N_2 
REMARK    2  A    between atoms: C_15  and  C_4 
REMARK    3  A    between atoms: N_6  and  C_13 
ROOT
ATOM      1  C   UNL d   1       0.262   0.730  -0.028  0.00  0.00     0.070 A 
ATOM      2  N   UNL d   1       2.406   0.052   0.013  0.00  0.00    -0.313 N 
ATOM      3  C   UNL d   1       0.282  -0.671  -0.076  0.00  0.00     0.027 A 
ATOM      4  C   UNL d   1       1.597  -1.110  -0.021  0.00  0.00     0.062 A 
ATOM      5  C   UNL d   1       1.566   1.176   0.034  0.00  0.00     0.030 A 
ATOM      6  C   UNL d   1      -0.995   1.456  -0.027  0.00  0.00     0.273 A 
ATOM      7  N   UNL d   1      -2.100  -0.768  -0.157  0.00  0.00    -0.308 N 
ATOM      8  HN  UNL d   1      -2.978  -1.283  -0.210  1.00  0.00     0.186 HD
ATOM      9  N   UNL d   1      -2.104   0.619  -0.069  0.00  0.00    -0.266 N 
ATOM     10  C   UNL d   1      -0.962  -1.401  -0.170  0.00  0.00     0.122 A 
ATOM     11  O   UNL d   1      -1.087   2.676   0.016  0.00  0.00    -0.266 OA
ATOM     12  C   UNL d   1       2.005   2.597   0.193  0.00  0.00     0.070 C 
ATOM     13  H   UNL d   1      -3.013   1.066  -0.062  0.00  0.00     0.190 HD
ENDROOT
BRANCH   2  14
ATOM     14  C   UNL d   1       3.837   0.095   0.034  0.00  0.00     0.040 A 
ATOM     15  C   UNL d   1       4.568  -0.807   0.821  0.00  0.00     0.032 A 
ATOM     16  C   UNL d   1       5.966  -0.810   0.783  0.00  0.00     0.038 A 
ATOM     17  C   UNL d   1       6.638   0.113  -0.028  0.00  0.00     0.103 A 
ATOM     18  C   UNL d   1       5.921   1.037  -0.796  0.00  0.00     0.038 A 
ATOM     19  C   UNL d   1       4.522   1.020  -0.771  0.00  0.00     0.032 A 
BRANCH  17  20
ATOM     20  N   UNL d   1       8.104   0.102  -0.085  0.00  0.00    -0.116 N 
ATOM     21  O   UNL d   1       8.694  -0.841   0.461  0.00  0.00    -0.532 OA
ATOM     22  O   UNL d   1       8.664   1.032  -0.681  0.00  0.00    -0.532 OA
ENDBRANCH  17  20
ENDBRANCH   2  14
BRANCH   4  23
ATOM     23  C   UNL d   1       2.071  -2.509  -0.069  0.00  0.00    -0.008 A 
ATOM     24  C   UNL d   1       3.081  -2.921  -0.951  0.00  0.00     0.014 A 
ATOM     25  C   UNL d   1       3.550  -4.238  -0.938  0.00  0.00     0.001 A 
ATOM     26  C   UNL d   1       2.974  -5.177  -0.086  0.00  0.00     0.000 A 
ATOM     27  C   UNL d   1       1.936  -4.798   0.760  0.00  0.00     0.001 A 
ATOM     28  C   UNL d   1       1.499  -3.471   0.779  0.00  0.00     0.014 A 
ENDBRANCH   4  23
TORSDOF 3
