REMARK  0 active torsions:
REMARK  status: ('A' for Active; 'I' for Inactive)
ROOT
ATOM      1  C   UNL d   1      -0.170  -0.701   0.003  0.00  0.00     0.099 A 
ATOM      2  C   UNL d   1       1.080  -1.435   0.007  0.00  0.00     0.265 A 
ATOM      3  N   UNL d   1       2.206  -0.622   0.012  0.00  0.00    -0.319 N 
ATOM      4  HN  UNL d   1       3.140  -1.030   0.019  1.00  0.00     0.169 HD
ATOM      5  C   UNL d   1      -0.248   0.668  -0.001  0.00  0.00     0.056 A 
ATOM      6  S   UNL d   1      -1.704  -1.428   0.002  0.00  0.00    -0.094 SA
ATOM      7  C   UNL d   1       2.049   0.662   0.009  0.00  0.00     0.183 A 
ATOM      8  N   UNL d   1       0.887   1.391   0.000  0.00  0.00    -0.351 N 
ATOM      9  C   UNL d   1      -1.578   1.151  -0.003  0.00  0.00     0.038 A 
ATOM     10  C   UNL d   1      -2.482   0.105  -0.001  0.00  0.00     0.053 A 
ATOM     11  O   UNL d   1       1.162  -2.657   0.007  0.00  0.00    -0.267 OA
ATOM     12  H   UNL d   1       0.920   2.404  -0.002  0.00  0.00     0.166 HD
ENDROOT
TORSDOF 0
