REMARK  4 active torsions:
REMARK  status: ('A' for Active; 'I' for Inactive)
REMARK    1  A    between atoms: C_8  and  C_1 
REMARK    2  A    between atoms: C_9  and  C_7 
REMARK    3  A    between atoms: O_10  and  C_8 
REMARK    4  A    between atoms: C_11  and  O_10 
ROOT
ATOM      1  C   UNL d   1      -1.181   0.992  -0.279  0.00  0.00    -0.021 C 
ATOM      2  C   UNL d   1       0.051   1.680  -0.086  0.00  0.00    -0.047 C 
ATOM      3  C   UNL d   1      -1.199  -0.434  -0.227  0.00  0.00    -0.047 C 
ATOM      4  C   UNL d   1       1.269   0.949  -0.052  0.00  0.00    -0.049 C 
ATOM      5  C   UNL d   1       0.015  -1.160  -0.070  0.00  0.00    -0.049 C 
ATOM      6  C   UNL d   1       1.250  -0.469  -0.040  0.00  0.00    -0.049 C 
ATOM      7  C   UNL d   1       0.102   3.181   0.089  0.00  0.00     0.049 C 
ATOM      8  C   UNL d   1       2.567  -1.216   0.011  0.00  0.00     0.049 C 
ATOM      9  C   UNL d   1      -2.491  -1.227  -0.300  0.00  0.00     0.049 C 
ATOM     10  C   UNL d   1       2.612   1.654  -0.049  0.00  0.00     0.049 C 
ATOM     11  C   UNL d   1       0.016  -2.671   0.037  0.00  0.00     0.049 C 
ENDROOT
BRANCH   1  12
ATOM     12  C   UNL d   1      -2.463   1.764  -0.616  0.00  0.00     0.215 C 
BRANCH  12  13
ATOM     13  O   UNL d   1      -2.589   1.844  -2.030  0.00  0.00    -0.346 OA
BRANCH  13  14
ATOM     14  C   UNL d   1      -3.635   2.463  -2.660  0.00  0.00     0.083 A 
ATOM     15  C   UNL d   1      -4.809   3.077  -2.190  0.00  0.00     0.043 A 
ATOM     16  C   UNL d   1      -5.718   3.599  -3.148  0.00  0.00     0.018 A 
ATOM     17  C   UNL d   1      -5.462   3.577  -4.518  0.00  0.00     0.001 A 
ATOM     18  C   UNL d   1      -4.296   3.005  -4.978  0.00  0.00     0.003 A 
ATOM     19  C   UNL d   1      -3.402   2.446  -4.059  0.00  0.00     0.038 A 
BRANCH  15  20
ATOM     20  C   UNL d   1      -5.253   3.207  -0.761  0.00  0.00     0.158 C 
ATOM     21  O   UNL d   1      -5.059   2.317   0.060  0.00  0.00    -0.293 OA
ATOM     22  C   UNL d   1      -5.985   4.453  -0.306  0.00  0.00     0.097 C 
ENDBRANCH  15  20
ENDBRANCH  13  14
ENDBRANCH  12  13
ENDBRANCH   1  12
TORSDOF 4
