REMARK  4 active torsions:
REMARK  status: ('A' for Active; 'I' for Inactive)
REMARK    1  A    between atoms: C_2  and  C_1 
REMARK       I    between atoms: N_4  and  C_1 
REMARK    2  A    between atoms: C_5  and  C_3 
REMARK    3  A    between atoms: C_6  and  N_4 
REMARK    4  A    between atoms: O_18  and  C_5 
ROOT
ATOM      1  C   UNL d   1       0.994   0.026   0.066  0.00  0.00     0.227 C 
ATOM      2  N   UNL d   1       0.939   1.205   0.788  0.00  0.00    -0.327 N 
ATOM      3  O   UNL d   1       1.672  -0.140  -0.943  0.00  0.00    -0.273 OA
ATOM      4  H   UNL d   1       0.645   1.116   1.765  0.00  0.00     0.169 HD
ENDROOT
BRANCH   1   5
ATOM      5  C   UNL d   1       0.104  -1.091   0.641  0.00  0.00     0.096 C 
ATOM      6  C   UNL d   1       0.785  -1.964   1.716  0.00  0.00     0.100 C 
ATOM      7  C   UNL d   1       1.951  -2.768   1.129  0.00  0.00     0.043 C 
ATOM      8  C   UNL d   1       1.597  -3.438  -0.167  0.00  0.00    -0.023 C 
ATOM      9  C   UNL d   1       0.525  -3.103  -0.907  0.00  0.00    -0.087 C 
ATOM     10  C   UNL d   1      -0.408  -1.980  -0.514  0.00  0.00     0.048 C 
ATOM     11  C   UNL d   1       0.208  -3.790  -2.203  0.00  0.00     0.043 C 
BRANCH   6  12
ATOM     12  C   UNL d   1       1.177  -1.177   2.949  0.00  0.00     0.144 C 
ATOM     13  O   UNL d   1       0.914   0.007   3.120  0.00  0.00    -0.650 OA
BRANCH  12  14
ATOM     14  O   UNL d   1       1.759  -1.909   3.922  0.00  0.00    -0.776 OA
ATOM     15  H   UNL d   1       1.839  -2.865   3.745  0.00  0.00     0.167 HD
ENDBRANCH  12  14
ENDBRANCH   6  12
ENDBRANCH   1   5
BRANCH   2  16
ATOM     16  C   UNL d   1       1.446   2.460   0.397  0.00  0.00     0.037 A 
ATOM     17  C   UNL d   1       1.822   2.760  -0.915  0.00  0.00     0.053 A 
ATOM     18  C   UNL d   1       2.314   4.029  -1.232  0.00  0.00     0.037 A 
ATOM     19 CL   UNL d   1       2.774   4.387  -2.852  0.00  0.00    -0.084 Cl
ATOM     20  C   UNL d   1       2.435   5.010  -0.253  0.00  0.00     0.048 A 
ATOM     21  C   UNL d   1       2.040   4.718   1.048  0.00  0.00     0.037 A 
ATOM     22  C   UNL d   1       1.540   3.456   1.375  0.00  0.00     0.053 A 
ATOM     23 CL   UNL d   1       2.175   5.925   2.268  0.00  0.00    -0.084 Cl
ENDBRANCH   2  16
TORSDOF 4
