REMARK  3 active torsions:
REMARK  status: ('A' for Active; 'I' for Inactive)
REMARK    1  A    between atoms: C_9  and  N_6 
REMARK    2  A    between atoms: C_10  and  C_9 
REMARK    3  A    between atoms: C_11  and  C_10 
ROOT
ATOM      1  C   UNL d   1      -0.315  -1.342   0.122  0.00  0.00     0.709 A 
ATOM      2  N   UNL d   1       0.820  -0.863   0.644  0.00  0.00    -0.116 N 
ATOM      3  HN  UNL d   1       1.545  -1.347   1.175  1.00  0.00     0.207 HD
ATOM      4  N   UNL d   1      -1.034  -0.371  -0.537  0.00  0.00    -0.113 N 
ATOM      5  HN  UNL d   1      -1.928  -0.497  -1.011  1.00  0.00     0.203 HD
ATOM      6  N   UNL d   1       0.745   0.432   0.277  0.00  0.00    -0.196 N 
ATOM      7  N   UNL d   1      -0.348   0.758  -0.441  0.00  0.00     0.011 NA
ATOM      8  N   UNL d   1      -0.727  -2.638   0.145  0.00  0.00    -0.215 N 
ATOM      9  C   UNL d   1      -0.293  -3.465   1.273  0.00  0.00     0.141 C 
ATOM     10  C   UNL d   1      -2.047  -2.958  -0.402  0.00  0.00     0.141 C 
ATOM     11  C   UNL d   1      -0.340  -4.945   0.898  0.00  0.00     0.020 C 
ATOM     12  C   UNL d   1      -2.118  -4.435  -0.791  0.00  0.00     0.020 C 
ATOM     13  C   UNL d   1      -1.713  -5.342   0.366  0.00  0.00     0.003 C 
ENDROOT
BRANCH   6  14
ATOM     14  C   UNL d   1       1.948   1.227   0.154  0.00  0.00     0.251 C 
BRANCH  14  15
ATOM     15  C   UNL d   1       2.176   2.168   1.305  0.00  0.00     0.180 C 
ATOM     16  O   UNL d   1       1.471   2.204   2.313  0.00  0.00    -0.290 OA
BRANCH  15  17
ATOM     17  C   UNL d   1       3.330   3.121   1.191  0.00  0.00     0.012 A 
ATOM     18  C   UNL d   1       4.212   3.097   0.099  0.00  0.00     0.017 A 
ATOM     19  C   UNL d   1       5.228   4.053  -0.012  0.00  0.00     0.025 A 
ATOM     20  C   UNL d   1       5.375   5.028   0.970  0.00  0.00     0.034 A 
ATOM     21  C   UNL d   1       4.533   5.040   2.079  0.00  0.00     0.025 A 
ATOM     22 CL   UNL d   1       6.593   6.229   0.801  0.00  0.00    -0.084 Cl
ATOM     23  C   UNL d   1       3.513   4.087   2.191  0.00  0.00     0.017 A 
ENDBRANCH  15  17
ENDBRANCH  14  15
ENDBRANCH   6  14
TORSDOF 3
