REMARK  2 active torsions:
REMARK  status: ('A' for Active; 'I' for Inactive)
REMARK    1  A    between atoms: C_3  and  S_1 
REMARK    2  A    between atoms: N_5  and  S_1 
ROOT
ATOM      1  S   UNL d   1       1.110  -0.015  -0.060  0.00  0.00     0.216 S 
ATOM      2  O   UNL d   1       0.511  -1.094   0.698  0.00  0.00    -0.211 OA
ATOM      3  O   UNL d   1       2.546   0.103  -0.175  0.00  0.00    -0.211 OA
ENDROOT
BRANCH   1   4
ATOM      4  C   UNL d   1       0.477   1.509   0.605  0.00  0.00     0.139 C 
ATOM      5  C   UNL d   1       0.869   2.721  -0.214  0.00  0.00     0.161 C 
ATOM      6  S   UNL d   1       0.468   4.080   0.862  0.00  0.00     0.145 S 
ATOM      7  O   UNL d   1      -0.930   4.399   0.664  0.00  0.00    -0.228 OA
ATOM      8  O   UNL d   1       1.513   5.075   0.776  0.00  0.00    -0.228 OA
ATOM      9  C   UNL d   1       0.622   3.185   2.401  0.00  0.00     0.142 C 
ATOM     10  C   UNL d   1       1.021   1.765   2.018  0.00  0.00     0.037 C 
ENDBRANCH   1   4
BRANCH   1  11
ATOM     11  N   UNL d   1       0.471  -0.106  -1.648  0.00  0.00    -0.210 NA
ATOM     12  C   UNL d   1       0.945  -1.371  -2.324  0.00  0.00     0.107 C 
ATOM     13  C   UNL d   1       0.486  -1.437  -3.778  0.00  0.00     0.015 C 
ATOM     14  C   UNL d   1      -1.023  -1.275  -3.894  0.00  0.00     0.002 C 
ATOM     15  C   UNL d   1      -1.457   0.009  -3.205  0.00  0.00     0.015 C 
ATOM     16  C   UNL d   1      -1.014   0.021  -1.746  0.00  0.00     0.107 C 
ENDBRANCH   1  11
TORSDOF 2
