REMARK  8 active torsions:
REMARK  status: ('A' for Active; 'I' for Inactive)
REMARK    1  A    between atoms: C_7  and  C_1 
REMARK    2  A    between atoms: C_21  and  C_1 
REMARK    3  A    between atoms: C_8  and  C_2 
REMARK    4  A    between atoms: C_11  and  C_4 
REMARK    5  A    between atoms: O_22  and  C_7 
REMARK    6  A    between atoms: C_27  and  C_21 
REMARK    7  A    between atoms: C_30  and  O_22 
REMARK    8  A    between atoms: O_26  and  C_23 
ROOT
ATOM      1  N   UNL d   1       1.811   5.647  -1.239  0.00  0.00    -0.197 NA
ATOM      2  C   UNL d   1       1.182   4.817  -0.735  0.00  0.00     0.059 C 
ATOM      3  C   UNL d   1       0.347   3.787  -0.097  0.00  0.00     0.125 C 
ENDROOT
BRANCH   3   4
ATOM      4  C   UNL d   1       0.996   2.401  -0.184  0.00  0.00     0.043 C 
BRANCH   4   5
ATOM      5  C   UNL d   1       0.115   1.238   0.370  0.00  0.00     0.121 C 
ATOM      6  C   UNL d   1      -1.224   1.087  -0.434  0.00  0.00     0.049 C 
ATOM      7  C   UNL d   1      -2.046  -0.147   0.009  0.00  0.00     0.050 C 
ATOM      8  C   UNL d   1      -1.206  -1.374   0.223  0.00  0.00    -0.044 C 
ATOM      9  C   UNL d   1       0.127  -1.365   0.373  0.00  0.00     0.059 C 
ATOM     10  C   UNL d   1       0.889  -0.086   0.297  0.00  0.00     0.169 C 
ATOM     11  O   UNL d   1       2.111  -0.150   0.187  0.00  0.00    -0.292 OA
BRANCH   6  12
ATOM     12  C   UNL d   1      -1.072   1.075  -1.964  0.00  0.00    -0.051 A 
ATOM     13  C   UNL d   1      -1.710   2.066  -2.732  0.00  0.00     0.020 A 
ATOM     14  C   UNL d   1      -1.621   2.079  -4.138  0.00  0.00    -0.025 A 
ATOM     15  C   UNL d   1      -2.242   3.072  -4.911  0.00  0.00     0.012 A 
ATOM     16  C   UNL d   1      -0.888   1.066  -4.794  0.00  0.00    -0.026 A 
ATOM     17  C   UNL d   1      -2.145   3.056  -6.304  0.00  0.00     0.001 A 
ATOM     18  C   UNL d   1      -1.429   2.048  -6.944  0.00  0.00     0.001 A 
ATOM     19  C   UNL d   1      -0.801   1.058  -6.193  0.00  0.00     0.012 A 
ATOM     20  C   UNL d   1      -0.255   0.082  -4.038  0.00  0.00     0.013 A 
ATOM     21  C   UNL d   1      -0.344   0.090  -2.647  0.00  0.00     0.008 A 
ENDBRANCH   6  12
BRANCH   8  22
ATOM     22  C   UNL d   1      -1.915  -2.652   0.099  0.00  0.00    -0.030 A 
ATOM     23  C   UNL d   1      -2.289  -3.382   1.229  0.00  0.00     0.014 A 
ATOM     24  C   UNL d   1      -2.994  -4.583   1.086  0.00  0.00     0.037 A 
ATOM     25  C   UNL d   1      -3.318  -5.060  -0.185  0.00  0.00     0.068 A 
ATOM     26  C   UNL d   1      -2.959  -4.321  -1.312  0.00  0.00     0.037 A 
ATOM     27  C   UNL d   1      -2.253  -3.127  -1.174  0.00  0.00     0.014 A 
BRANCH  25  28
ATOM     28  O   UNL d   1      -4.021  -6.204  -0.443  0.00  0.00    -0.356 OA
ATOM     29  C   UNL d   1      -3.874  -7.240   0.521  0.00  0.00     0.210 C 
ENDBRANCH  25  28
ENDBRANCH   8  22
BRANCH   5  30
ATOM     30  C   UNL d   1      -0.089   1.501   1.871  0.00  0.00     0.276 C 
ATOM     31  O   UNL d   1       0.822   1.543   2.686  0.00  0.00    -0.264 OA
BRANCH  30  32
ATOM     32  O   UNL d   1      -1.398   1.646   2.197  0.00  0.00    -0.321 OA
BRANCH  32  33
ATOM     33  C   UNL d   1      -1.752   1.389   3.565  0.00  0.00     0.174 C 
ATOM     34  C   UNL d   1      -2.372   2.627   4.172  0.00  0.00     0.034 C 
ENDBRANCH  32  33
ENDBRANCH  30  32
ENDBRANCH   5  30
ENDBRANCH   4   5
ENDBRANCH   3   4
TORSDOF 8
