REMARK  4 active torsions:
REMARK  status: ('A' for Active; 'I' for Inactive)
REMARK    1  A    between atoms: N_7  and  C_1 
REMARK    2  A    between atoms: C_13  and  N_3 
REMARK    3  A    between atoms: C_10  and  C_6 
REMARK       I    between atoms: C_8  and  N_7 
REMARK    4  A    between atoms: C_9  and  C_8 
ROOT
ATOM      1  C   UNL d   1      -0.233  -1.159  -0.040  0.00  0.00     0.149 A 
ATOM      2  C   UNL d   1       1.024  -0.595  -0.121  0.00  0.00     0.081 A 
ATOM      3  N   UNL d   1      -1.122  -0.086   0.012  0.00  0.00    -0.238 N 
ATOM      4  N   UNL d   1      -0.481   1.100   0.104  0.00  0.00    -0.294 N 
ATOM      5  HN  UNL d   1      -0.894   2.022   0.246  1.00  0.00     0.187 HD
ATOM      6  C   UNL d   1       0.813   0.797  -0.034  0.00  0.00     0.051 A 
ATOM      7 BR   UNL d   1       2.703  -1.433  -0.102  0.00  0.00    -0.045 Br
ENDROOT
BRANCH   1   8
ATOM      8  N   UNL d   1      -0.576  -2.500   0.147  0.00  0.00    -0.307 N 
ATOM      9  C   UNL d   1      -0.054  -3.583  -0.668  0.00  0.00     0.278 C 
ATOM     10  O   UNL d   1       0.655  -3.295  -1.624  0.00  0.00    -0.268 OA
ATOM     11  H   UNL d   1      -1.339  -2.698   0.793  0.00  0.00     0.170 HD
BRANCH   9  12
ATOM     12  C   UNL d   1      -0.610  -4.991  -0.369  0.00  0.00     0.269 C 
ATOM     13 CL   UNL d   1      -1.179  -5.052   1.327  0.00  0.00    -0.073 Cl
ATOM     14 CL   UNL d   1      -2.006  -5.241  -1.448  0.00  0.00    -0.073 Cl
ATOM     15 CL   UNL d   1       0.638  -6.214  -0.633  0.00  0.00    -0.073 Cl
ENDBRANCH   9  12
ENDBRANCH   1   8
BRANCH   3  16
ATOM     16  C   UNL d   1      -2.542  -0.143  -0.016  0.00  0.00     0.058 A 
ATOM     17  C   UNL d   1      -3.284   0.922   0.509  0.00  0.00     0.031 A 
ATOM     18  C   UNL d   1      -4.679   0.863   0.517  0.00  0.00     0.002 A 
ATOM     19  C   UNL d   1      -5.337  -0.243  -0.021  0.00  0.00     0.000 A 
ATOM     20  C   UNL d   1      -4.606  -1.286  -0.581  0.00  0.00     0.002 A 
ATOM     21  C   UNL d   1      -3.212  -1.238  -0.586  0.00  0.00     0.031 A 
ENDBRANCH   3  16
BRANCH   6  22
ATOM     22  C   UNL d   1       1.901   1.870  -0.023  0.00  0.00     0.038 A 
ATOM     23  C   UNL d   1       1.660   3.132   0.787  0.00  0.00     0.011 A 
ATOM     24  C   UNL d   1       1.615   3.197  -0.700  0.00  0.00     0.011 A 
ENDBRANCH   6  22
TORSDOF 4
