REMARK  8 active torsions:
REMARK  status: ('A' for Active; 'I' for Inactive)
REMARK    1  A    between atoms: C_4  and  C_1 
REMARK    2  A    between atoms: N_6  and  C_2 
REMARK    3  A    between atoms: O_15  and  C_4 
REMARK       I    between atoms: C_9  and  N_6 
REMARK    4  A    between atoms: O_17  and  C_7 
REMARK    5  A    between atoms: O_18  and  C_8 
REMARK    6  A    between atoms: C_13  and  C_9 
REMARK    7  A    between atoms: S_11  and  C_13 
REMARK    8  A    between atoms: C_14  and  S_11 
ROOT
ATOM      1  C   UNL d   1       1.446  -0.234   0.094  0.00  0.00     0.069 A 
ATOM      2  C   UNL d   1       0.621  -1.369   0.045  0.00  0.00     0.053 A 
ATOM      3  C   UNL d   1       0.850   1.037   0.108  0.00  0.00     0.059 A 
ATOM      4  C   UNL d   1      -0.776  -1.205   0.071  0.00  0.00     0.070 A 
ATOM      5  C   UNL d   1      -0.542   1.197   0.105  0.00  0.00     0.102 A 
ATOM      6  C   UNL d   1      -1.370   0.065   0.063  0.00  0.00     0.103 A 
ENDROOT
BRANCH   2   7
ATOM      7  N   UNL d   1       1.071  -2.705  -0.053  0.00  0.00    -0.325 N 
ATOM      8  C   UNL d   1       2.039  -3.124  -0.950  0.00  0.00     0.231 C 
ATOM      9  O   UNL d   1       2.643  -2.378  -1.717  0.00  0.00    -0.272 OA
ATOM     10  H   UNL d   1       0.421  -3.438   0.214  0.00  0.00     0.169 HD
BRANCH   8  11
ATOM     11  C   UNL d   1       2.339  -4.620  -0.928  0.00  0.00     0.182 C 
BRANCH  11  12
ATOM     12  S   UNL d   1       0.921  -5.618  -0.335  0.00  0.00    -0.121 SA
BRANCH  12  13
ATOM     13  C   UNL d   1       1.651  -7.237  -0.152  0.00  0.00     0.001 A 
ATOM     14  C   UNL d   1       1.183  -8.051   0.891  0.00  0.00     0.020 A 
ATOM     15  C   UNL d   1       1.686  -9.343   1.072  0.00  0.00     0.025 A 
ATOM     16  C   UNL d   1       2.661  -9.831   0.206  0.00  0.00     0.034 A 
ATOM     17  C   UNL d   1       3.126  -9.041  -0.839  0.00  0.00     0.025 A 
ATOM     18 CL   UNL d   1       3.280 -11.421   0.421  0.00  0.00    -0.084 Cl
ATOM     19  C   UNL d   1       2.619  -7.750  -1.022  0.00  0.00     0.020 A 
ENDBRANCH  12  13
ENDBRANCH  11  12
ENDBRANCH   8  11
ENDBRANCH   2   7
BRANCH   1  20
ATOM     20  C   UNL d   1       2.925  -0.240   0.252  0.00  0.00     0.295 C 
ATOM     21  O   UNL d   1       3.645   0.664  -0.149  0.00  0.00    -0.259 OA
BRANCH  20  22
ATOM     22  O   UNL d   1       3.317  -1.273   1.044  0.00  0.00    -0.322 OA
ATOM     23  C   UNL d   1       4.715  -1.276   1.340  0.00  0.00     0.213 C 
ENDBRANCH  20  22
ENDBRANCH   1  20
BRANCH   6  24
ATOM     24  O   UNL d   1      -2.722   0.265  -0.016  0.00  0.00    -0.353 OA
ATOM     25  C   UNL d   1      -3.562  -0.860  -0.240  0.00  0.00     0.210 C 
ENDBRANCH   6  24
BRANCH   5  26
ATOM     26  O   UNL d   1      -0.929   2.512   0.107  0.00  0.00    -0.353 OA
ATOM     27  C   UNL d   1      -2.187   2.819   0.693  0.00  0.00     0.210 C 
ENDBRANCH   5  26
TORSDOF 8
