REMARK  7 active torsions:
REMARK  status: ('A' for Active; 'I' for Inactive)
REMARK    1  A    between atoms: S_2  and  C_1 
REMARK    2  A    between atoms: N_5  and  S_2 
REMARK    3  A    between atoms: C_4  and  C_3 
REMARK    4  A    between atoms: O_15  and  C_4 
REMARK    5  A    between atoms: C_8  and  N_5 
REMARK    6  A    between atoms: C_12  and  C_8 
REMARK    7  A    between atoms: O_16  and  C_12 
ROOT
ATOM      1  S   UNL d   1       3.070   1.577   0.017  0.00  0.00     0.243 S 
ATOM      2  O   UNL d   1       3.768   0.916  -1.058  0.00  0.00    -0.206 OA
ATOM      3  O   UNL d   1       2.899   3.013   0.035  0.00  0.00    -0.206 OA
ENDROOT
BRANCH   1   4
ATOM      4  C   UNL d   1       1.456   0.936  -0.040  0.00  0.00     0.098 A 
ATOM      5  C   UNL d   1       1.093  -0.406  -0.001  0.00  0.00     0.102 A 
ATOM      6  S   UNL d   1      -0.629  -0.564  -0.118  0.00  0.00    -0.094 SA
ATOM      7  C   UNL d   1      -0.869   1.116  -0.220  0.00  0.00     0.052 A 
ATOM      8  C   UNL d   1       0.318   1.804  -0.160  0.00  0.00     0.033 A 
BRANCH   5   9
ATOM      9  C   UNL d   1       1.843  -1.650   0.104  0.00  0.00     0.301 C 
ATOM     10  O   UNL d   1       1.358  -2.777   0.101  0.00  0.00    -0.259 OA
BRANCH   9  11
ATOM     11  O   UNL d   1       3.175  -1.419   0.226  0.00  0.00    -0.322 OA
ATOM     12  C   UNL d   1       3.982  -2.598   0.268  0.00  0.00     0.213 C 
ENDBRANCH   9  11
ENDBRANCH   5   9
ENDBRANCH   1   4
BRANCH   1  13
ATOM     13  N   UNL d   1       3.782   1.140   1.468  0.00  0.00    -0.206 NA
ATOM     14  H   UNL d   1       4.779   0.939   1.351  0.00  0.00     0.140 HD
BRANCH  13  15
ATOM     15  C   UNL d   1       3.478   1.992   2.638  0.00  0.00     0.215 C 
BRANCH  15  16
ATOM     16  C   UNL d   1       4.197   1.458   3.861  0.00  0.00     0.272 C 
ATOM     17  O   UNL d   1       5.230   0.798   3.824  0.00  0.00    -0.264 OA
BRANCH  16  18
ATOM     18  O   UNL d   1       3.557   1.851   4.997  0.00  0.00    -0.326 OA
ATOM     19  C   UNL d   1       4.163   1.379   6.202  0.00  0.00     0.213 C 
ENDBRANCH  16  18
ENDBRANCH  15  16
ENDBRANCH  13  15
ENDBRANCH   1  13
TORSDOF 7
