REMARK  5 active torsions:
REMARK  status: ('A' for Active; 'I' for Inactive)
REMARK    1  A    between atoms: C_7  and  C_1 
REMARK    2  A    between atoms: S_9  and  C_4 
REMARK    3  A    between atoms: C_8  and  C_7 
REMARK    4  A    between atoms: C_18  and  S_9 
REMARK    5  A    between atoms: C_20  and  C_18 
ROOT
ATOM      1  C   UNL d   1      -1.557   1.083  -0.069  0.00  0.00     0.117 A 
ATOM      2  N   UNL d   1      -2.358  -0.044  -0.105  0.00  0.00    -0.331 N 
ATOM      3  HN  UNL d   1      -3.377  -0.071  -0.144  1.00  0.00     0.168 HD
ATOM      4  C   UNL d   1      -1.540  -1.074  -0.078  0.00  0.00     0.152 A 
ATOM      5  C   UNL d   1      -0.223   0.703  -0.043  0.00  0.00     0.071 A 
ATOM      6  N   UNL d   1      -0.215  -0.690  -0.044  0.00  0.00    -0.300 N 
ATOM      7  C   UNL d   1       0.966  -1.438  -0.018  0.00  0.00     0.099 A 
ATOM      8  C   UNL d   1       1.037   1.370  -0.010  0.00  0.00     0.032 A 
ATOM      9  C   UNL d   1       2.151  -0.806   0.008  0.00  0.00     0.018 A 
ATOM     10  C   UNL d   1       2.173   0.647   0.013  0.00  0.00     0.004 A 
ENDROOT
BRANCH   4  11
ATOM     11  S   UNL d   1      -2.026  -2.740  -0.052  0.00  0.00    -0.089 SA
BRANCH  11  12
ATOM     12  C   UNL d   1      -3.684  -2.637  -0.784  0.00  0.00     0.121 C 
BRANCH  12  13
ATOM     13  C   UNL d   1      -4.335  -4.001  -0.854  0.00  0.00    -0.048 A 
ATOM     14  C   UNL d   1      -5.180  -4.438   0.179  0.00  0.00     0.009 A 
ATOM     15  C   UNL d   1      -5.776  -5.701   0.123  0.00  0.00     0.024 A 
ATOM     16  C   UNL d   1      -5.524  -6.539  -0.961  0.00  0.00     0.034 A 
ATOM     17  C   UNL d   1      -4.679  -6.126  -1.988  0.00  0.00     0.024 A 
ATOM     18 CL   UNL d   1      -6.260  -8.093  -1.029  0.00  0.00    -0.084 Cl
ATOM     19  C   UNL d   1      -4.085  -4.862  -1.934  0.00  0.00     0.009 A 
ENDBRANCH  12  13
ENDBRANCH  11  12
ENDBRANCH   4  11
BRANCH   1  20
ATOM     20  C   UNL d   1      -2.066   2.459  -0.062  0.00  0.00     0.283 C 
ATOM     21  O   UNL d   1      -1.282   3.415  -0.078  0.00  0.00    -0.281 OA
BRANCH  20  22
ATOM     22  C   UNL d   1      -3.574   2.687  -0.018  0.00  0.00     0.457 C 
ATOM     23  F   UNL d   1      -4.356   1.574  -0.057  0.00  0.00    -0.163 F 
ATOM     24  F   UNL d   1      -3.945   3.360   1.112  0.00  0.00    -0.163 F 
ATOM     25  F   UNL d   1      -3.992   3.466  -1.060  0.00  0.00    -0.163 F 
ENDBRANCH  20  22
ENDBRANCH   1  20
TORSDOF 5
