REMARK  3 active torsions:
REMARK  status: ('A' for Active; 'I' for Inactive)
REMARK    1  A    between atoms: C_10  and  N_1 
REMARK    2  A    between atoms: N_7  and  C_9 
REMARK    3  A    between atoms: C_13  and  C_10 
ROOT
ATOM      1  N   UNL d   1       2.236  -0.133   0.153  0.00  0.00    -0.274 N 
ATOM      2  C   UNL d   1       1.651   1.126   0.071  0.00  0.00     0.262 A 
ATOM      3  C   UNL d   1       1.536  -1.334   0.170  0.00  0.00     0.262 A 
ATOM      4  C   UNL d   1       0.170   1.181   0.044  0.00  0.00     0.044 A 
ATOM      5  C   UNL d   1      -0.582  -0.004   0.069  0.00  0.00     0.008 A 
ATOM      6  C   UNL d   1       0.055  -1.253   0.119  0.00  0.00     0.044 A 
ATOM      7  C   UNL d   1      -2.003   0.062   0.035  0.00  0.00     0.009 A 
ATOM      8  C   UNL d   1      -2.594   1.354  -0.019  0.00  0.00     0.114 A 
ATOM      9  C   UNL d   1      -0.452   2.438  -0.023  0.00  0.00     0.020 A 
ATOM     10  C   UNL d   1      -1.837   2.530  -0.057  0.00  0.00     0.038 A 
ATOM     11  O   UNL d   1       2.073  -2.439   0.218  0.00  0.00    -0.267 OA
ATOM     12  O   UNL d   1       2.280   2.178  -0.001  0.00  0.00    -0.267 OA
ATOM     13  C   UNL d   1      -0.687  -2.441   0.124  0.00  0.00     0.018 A 
ATOM     14  C   UNL d   1      -2.724  -1.161   0.040  0.00  0.00     0.015 A 
ATOM     15  C   UNL d   1      -2.074  -2.394   0.083  0.00  0.00     0.002 A 
ENDROOT
BRANCH   1  16
ATOM     16  C   UNL d   1       3.690  -0.195   0.247  0.00  0.00     0.200 C 
BRANCH  16  17
ATOM     17  C   UNL d   1       4.086  -0.215   1.683  0.00  0.00     0.070 A 
ATOM     18  O   UNL d   1       4.304   0.993   2.276  0.00  0.00    -0.325 OA
ATOM     19  C   UNL d   1       4.609   0.750   3.576  0.00  0.00     0.142 A 
ATOM     20  C   UNL d   1       4.595  -0.602   3.828  0.00  0.00     0.027 A 
ATOM     21  C   UNL d   1       4.272  -1.229   2.600  0.00  0.00     0.036 A 
ENDBRANCH  16  17
ENDBRANCH   1  16
BRANCH   8  22
ATOM     22  N   UNL d   1      -4.040   1.514  -0.042  0.00  0.00    -0.115 N 
ATOM     23  O   UNL d   1      -4.677   1.066   0.919  0.00  0.00    -0.532 OA
ATOM     24  O   UNL d   1      -4.522   2.113  -1.012  0.00  0.00    -0.532 OA
ENDBRANCH   8  22
TORSDOF 3
