REMARK  6 active torsions:
REMARK  status: ('A' for Active; 'I' for Inactive)
REMARK    1  A    between atoms: N_2  and  S_1 
REMARK    2  A    between atoms: C_8  and  S_1 
REMARK    3  A    between atoms: C_3  and  C_4 
REMARK       I    between atoms: C_4  and  N_6 
REMARK    4  A    between atoms: C_5  and  O_11 
REMARK    5  A    between atoms: N_6  and  C_7 
REMARK    6  A    between atoms: O_11  and  C_22 
ROOT
ATOM      1  O   UNL d   1      -1.000  -2.719  -4.898  0.00  0.00    -0.307 OA
ENDROOT
BRANCH   1   2
ATOM      2  C   UNL d   1      -0.823  -2.072  -6.104  0.00  0.00     0.124 C 
ATOM      3  C   UNL d   1      -1.928  -1.853  -6.950  0.00  0.00     0.070 C 
ATOM      4  C   UNL d   1      -1.786  -0.947  -8.019  0.00  0.00     0.032 C 
ATOM      5  C   UNL d   1      -0.558  -0.359  -8.317  0.00  0.00     0.004 C 
ATOM      6  C   UNL d   1       0.564  -0.704  -7.577  0.00  0.00     0.027 C 
ATOM      7  C   UNL d   1       0.442  -1.571  -6.489  0.00  0.00     0.070 C 
ATOM      8 CL   UNL d   1       1.917  -2.010  -5.691  0.00  0.00    -0.081 Cl
BRANCH   3   9
ATOM      9  N   UNL d   1      -3.198  -2.479  -6.896  0.00  0.00    -0.317 N 
ATOM     10  C   UNL d   1      -3.540  -3.712  -6.330  0.00  0.00     0.330 C 
ATOM     11  O   UNL d   1      -2.836  -4.389  -5.587  0.00  0.00    -0.263 OA
ATOM     12  H   UNL d   1      -3.877  -2.143  -7.577  0.00  0.00     0.169 HD
BRANCH  10  13
ATOM     13  C   UNL d   1      -4.937  -4.185  -6.802  0.00  0.00     0.472 C 
ATOM     14  F   UNL d   1      -5.333  -3.499  -7.920  0.00  0.00    -0.162 F 
ATOM     15  F   UNL d   1      -4.976  -5.502  -7.137  0.00  0.00    -0.162 F 
ATOM     16  F   UNL d   1      -5.909  -3.977  -5.875  0.00  0.00    -0.162 F 
ENDBRANCH  10  13
ENDBRANCH   3   9
ENDBRANCH   1   2
BRANCH   1  17
ATOM     17  C   UNL d   1      -0.549  -2.074  -3.758  0.00  0.00     0.076 A 
ATOM     18  C   UNL d   1      -0.639  -0.690  -3.568  0.00  0.00     0.039 A 
ATOM     19  C   UNL d   1      -0.057  -0.100  -2.442  0.00  0.00     0.027 A 
ATOM     20  C   UNL d   1       0.591  -0.900  -1.494  0.00  0.00     0.074 A 
ATOM     21  C   UNL d   1       0.624  -2.288  -1.643  0.00  0.00     0.027 A 
ATOM     22  C   UNL d   1       0.047  -2.874  -2.777  0.00  0.00     0.039 A 
BRANCH  20  23
ATOM     23  S   UNL d   1       1.247  -0.122  -0.030  0.00  0.00     0.243 S 
ATOM     24  O   UNL d   1       0.272   0.859   0.386  0.00  0.00    -0.206 OA
ATOM     25  O   UNL d   1       1.697  -1.161   0.873  0.00  0.00    -0.206 OA
BRANCH  23  26
ATOM     26  N   UNL d   1       2.620   0.702  -0.622  0.00  0.00    -0.202 NA
ATOM     27  C   UNL d   1       3.881  -0.097  -0.752  0.00  0.00     0.134 C 
ATOM     28  C   UNL d   1       4.643  -0.171   0.585  0.00  0.00     0.183 C 
ATOM     29  O   UNL d   1       4.877   1.131   1.144  0.00  0.00    -0.389 OA
ATOM     30  C   UNL d   1       3.636   1.822   1.355  0.00  0.00     0.183 C 
ATOM     31  C   UNL d   1       2.913   2.020   0.023  0.00  0.00     0.134 C 
ENDBRANCH  23  26
ENDBRANCH  20  23
ENDBRANCH   1  17
TORSDOF 6
