REMARK  2 active torsions:
REMARK  status: ('A' for Active; 'I' for Inactive)
REMARK    1  A    between atoms: C_9  and  N_5 
REMARK    2  A    between atoms: C_13  and  C_7 
ROOT
ATOM      1  C   UNL d   1       0.398   1.392   0.313  0.00  0.00     0.161 C 
ATOM      2  N   UNL d   1      -1.366  -0.373   0.181  0.00  0.00    -0.299 N 
ATOM      3  HN  UNL d   1      -2.366  -0.576   0.175  1.00  0.00     0.187 HD
ATOM      4  N   UNL d   1      -0.912   0.936   0.160  0.00  0.00    -0.275 N 
ATOM      5  N   UNL d   1       0.825   2.509  -0.205  0.00  0.00    -0.335 N 
ATOM      6  HN  UNL d   1       0.140   3.103  -0.673  1.00  0.00     0.168 HD
ATOM      7  C   UNL d   1      -0.493  -1.343   0.207  0.00  0.00     0.046 C 
ATOM      8  S   UNL d   1       1.399   0.293   1.270  0.00  0.00    -0.086 SA
ATOM      9  C   UNL d   1       1.006  -1.139   0.251  0.00  0.00     0.142 C 
ATOM     10  C   UNL d   1      -1.963   1.917  -0.092  0.00  0.00     0.180 C 
ENDROOT
BRANCH   5  11
ATOM     11  C   UNL d   1       2.159   2.960  -0.170  0.00  0.00     0.041 A 
ATOM     12  C   UNL d   1       3.224   2.130  -0.558  0.00  0.00     0.053 A 
ATOM     13  C   UNL d   1       4.541   2.581  -0.530  0.00  0.00     0.036 A 
ATOM     14 CL   UNL d   1       5.819   1.495  -0.915  0.00  0.00    -0.084 Cl
ATOM     15  C   UNL d   1       4.825   3.897  -0.199  0.00  0.00     0.024 A 
ATOM     16  C   UNL d   1       3.775   4.764   0.103  0.00  0.00     0.011 A 
ATOM     17  C   UNL d   1       2.443   4.308   0.124  0.00  0.00    -0.035 A 
ATOM     18  C   UNL d   1       1.363   5.321   0.389  0.00  0.00     0.050 C 
ENDBRANCH   5  11
BRANCH   7  19
ATOM     19  C   UNL d   1      -0.984  -2.753   0.146  0.00  0.00    -0.011 A 
ATOM     20  C   UNL d   1      -2.220  -3.072   0.717  0.00  0.00     0.013 A 
ATOM     21  C   UNL d   1      -2.687  -4.386   0.690  0.00  0.00     0.001 A 
ATOM     22  C   UNL d   1      -1.924  -5.386   0.086  0.00  0.00     0.000 A 
ATOM     23  C   UNL d   1      -0.703  -5.073  -0.503  0.00  0.00     0.001 A 
ATOM     24  C   UNL d   1      -0.231  -3.758  -0.478  0.00  0.00     0.013 A 
ENDBRANCH   7  19
TORSDOF 2
