REMARK  1 active torsions:
REMARK  status: ('A' for Active; 'I' for Inactive)
REMARK    1  A    between atoms: C_7  and  C_6 
ROOT
ATOM      1  N   UNL d   1       1.020   0.429   0.084  0.00  0.00    -0.298 N 
ATOM      2  C   UNL d   1       0.349  -0.766   0.110  0.00  0.00     0.179 A 
ATOM      3  C   UNL d   1      -1.206   0.849   0.015  0.00  0.00     0.104 A 
ATOM      4  C   UNL d   1       0.149   1.485   0.018  0.00  0.00     0.274 A 
ATOM      5  N   UNL d   1      -1.008  -0.504   0.060  0.00  0.00    -0.329 N 
ATOM      6  C   UNL d   1      -2.363   1.514  -0.009  0.00  0.00     0.048 C 
ATOM      7  S   UNL d   1       1.038  -2.261   0.188  0.00  0.00    -0.040 SA
ATOM      8  O   UNL d   1       0.410   2.670  -0.029  0.00  0.00    -0.266 OA
ATOM      9  H   UNL d   1       2.020   0.533   0.114  0.00  0.00     0.171 HD
ATOM     10  H   UNL d   1      -1.734  -1.207   0.078  0.00  0.00     0.168 HD
ENDROOT
BRANCH   6  11
ATOM     11  C   UNL d   1      -3.680   0.869   0.037  0.00  0.00    -0.012 A 
ATOM     12  C   UNL d   1      -4.338   0.579   1.244  0.00  0.00     0.044 A 
ATOM     13 CL   UNL d   1      -3.643   0.976   2.777  0.00  0.00    -0.083 Cl
ATOM     14  C   UNL d   1      -5.590  -0.043   1.236  0.00  0.00     0.024 A 
ATOM     15  C   UNL d   1      -6.196  -0.379   0.025  0.00  0.00     0.002 A 
ATOM     16  C   UNL d   1      -5.552  -0.094  -1.178  0.00  0.00     0.001 A 
ATOM     17  C   UNL d   1      -4.300   0.525  -1.173  0.00  0.00     0.013 A 
ENDBRANCH   6  11
TORSDOF 1
