REMARK  4 active torsions:
REMARK  status: ('A' for Active; 'I' for Inactive)
REMARK    1  A    between atoms: C_4  and  C_1 
REMARK    2  A    between atoms: C_10  and  C_3 
REMARK    3  A    between atoms: C_5  and  O_9 
REMARK    4  A    between atoms: O_9  and  C_8 
ROOT
ATOM      1  C   UNL d   1      -0.523   2.438   0.108  0.00  0.00     0.031 A 
ATOM      2  C   UNL d   1      -0.100   3.167  -1.021  0.00  0.00     0.091 A 
ATOM      3  C   UNL d   1      -1.466   3.031   0.966  0.00  0.00     0.017 A 
ATOM      4  C   UNL d   1      -0.576   4.466  -1.244  0.00  0.00     0.038 A 
ATOM      5  C   UNL d   1      -1.948   4.322   0.731  0.00  0.00     0.001 A 
ATOM      6  C   UNL d   1      -1.500   5.040  -0.373  0.00  0.00     0.003 A 
ENDROOT
BRANCH   1   7
ATOM      7  C   UNL d   1      -0.028   1.106   0.438  0.00  0.00     0.089 A 
ATOM      8  O   UNL d   1       1.276   0.850   0.134  0.00  0.00    -0.306 OA
ATOM      9  C   UNL d   1       1.541  -0.444   0.488  0.00  0.00     0.121 A 
ATOM     10  C   UNL d   1       0.407  -1.007   1.042  0.00  0.00     0.044 A 
ATOM     11  C   UNL d   1      -0.596  -0.010   1.019  0.00  0.00     0.041 A 
BRANCH   9  12
ATOM     12  C   UNL d   1       2.853  -1.004   0.246  0.00  0.00     0.179 C 
ATOM     13  O   UNL d   1       3.130  -2.178   0.512  0.00  0.00    -0.291 OA
ATOM     14  C   UNL d   1       3.922  -0.093  -0.304  0.00  0.00     0.099 C 
ENDBRANCH   9  12
ENDBRANCH   1   7
BRANCH   2  15
ATOM     15  O   UNL d   1       0.870   2.738  -1.885  0.00  0.00    -0.254 OA
BRANCH  15  16
ATOM     16  C   UNL d   1       0.496   1.643  -2.717  0.00  0.00     0.530 C 
ATOM     17  F   UNL d   1      -0.657   1.042  -2.357  0.00  0.00    -0.144 F 
ATOM     18  F   UNL d   1       0.360   2.087  -3.987  0.00  0.00    -0.144 F 
ATOM     19  F   UNL d   1       1.488   0.724  -2.706  0.00  0.00    -0.144 F 
ENDBRANCH  15  16
ENDBRANCH   2  15
TORSDOF 4
