REMARK  2 active torsions:
REMARK  status: ('A' for Active; 'I' for Inactive)
REMARK    1  A    between atoms: N_6  and  C_1 
REMARK    2  A    between atoms: N_3  and  C_9 
ROOT
ATOM      1  C   UNL d   1      -1.800  -1.294  -0.119  0.00  0.00     0.115 A 
ATOM      2  C   UNL d   1      -2.051   0.183  -0.220  0.00  0.00     0.315 A 
ATOM      3  C   UNL d   1      -0.531  -1.718   0.056  0.00  0.00     0.050 A 
ATOM      4  O   UNL d   1      -0.947   1.032  -0.189  0.00  0.00    -0.273 OA
ATOM      5  C   UNL d   1       0.605  -0.806   0.068  0.00  0.00     0.003 A 
ATOM      6  C   UNL d   1       0.363   0.555  -0.056  0.00  0.00     0.090 A 
ATOM      7  C   UNL d   1       2.975  -0.320   0.137  0.00  0.00     0.103 A 
ATOM      8  C   UNL d   1       1.924  -1.255   0.160  0.00  0.00     0.050 A 
ATOM      9  O   UNL d   1      -3.176   0.667  -0.283  0.00  0.00    -0.257 OA
ATOM     10  C   UNL d   1       1.394   1.493  -0.065  0.00  0.00     0.041 A 
ATOM     11  C   UNL d   1       2.714   1.054   0.032  0.00  0.00     0.039 A 
ENDROOT
BRANCH   1  12
ATOM     12  N   UNL d   1      -2.877  -2.209  -0.212  0.00  0.00    -0.328 N 
ATOM     13  C   UNL d   1      -4.093  -2.025  -0.855  0.00  0.00     0.097 A 
ATOM     14  C   UNL d   1      -4.854  -3.168  -0.769  0.00  0.00     0.019 A 
ATOM     15  C   UNL d   1      -4.114  -4.102  -0.024  0.00  0.00     0.019 A 
ATOM     16  C   UNL d   1      -2.913  -3.508   0.290  0.00  0.00     0.097 A 
ENDBRANCH   1  12
BRANCH   7  17
ATOM     17  N   UNL d   1       4.365  -0.789   0.211  0.00  0.00    -0.116 N 
ATOM     18  O   UNL d   1       4.556  -2.010   0.283  0.00  0.00    -0.532 OA
ATOM     19  O   UNL d   1       5.263   0.065   0.191  0.00  0.00    -0.532 OA
ENDBRANCH   7  17
TORSDOF 2
