REMARK  5 active torsions:
REMARK  status: ('A' for Active; 'I' for Inactive)
REMARK    1  A    between atoms: N_2  and  C_1 
REMARK    2  A    between atoms: C_3  and  C_11 
REMARK    3  A    between atoms: C_6  and  C_16 
REMARK    4  A    between atoms: O_15  and  C_8 
REMARK    5  A    between atoms: C_25  and  O_15 
ROOT
ATOM      1  O   UNL d   1       1.836   2.066  -0.087  0.00  0.00    -0.308 OA
ENDROOT
BRANCH   1   2
ATOM      2  C   UNL d   1       1.181   0.870   0.106  0.00  0.00     0.109 A 
ATOM      3  C   UNL d   1      -0.185   0.767  -0.163  0.00  0.00     0.137 A 
ATOM      4  C   UNL d   1      -0.881  -0.440   0.013  0.00  0.00     0.055 A 
ATOM      5  C   UNL d   1      -0.199  -1.574   0.478  0.00  0.00     0.050 A 
ATOM      6  C   UNL d   1       1.165  -1.460   0.795  0.00  0.00     0.019 A 
ATOM      7  C   UNL d   1       1.841  -0.247   0.633  0.00  0.00     0.040 A 
BRANCH   3   8
ATOM      8  N   UNL d   1      -0.926   1.917  -0.648  0.00  0.00    -0.113 N 
ATOM      9  O   UNL d   1      -1.940   2.234  -0.011  0.00  0.00    -0.532 OA
ATOM     10  O   UNL d   1      -0.527   2.457  -1.688  0.00  0.00    -0.532 OA
ENDBRANCH   3   8
BRANCH   5  11
ATOM     11  C   UNL d   1      -0.892  -2.909   0.625  0.00  0.00     0.417 C 
ATOM     12  F   UNL d   1      -2.235  -2.846   0.412  0.00  0.00    -0.166 F 
ATOM     13  F   UNL d   1      -0.415  -3.833  -0.253  0.00  0.00    -0.166 F 
ATOM     14  F   UNL d   1      -0.731  -3.447   1.864  0.00  0.00    -0.166 F 
ENDBRANCH   5  11
ENDBRANCH   1   2
BRANCH   1  15
ATOM     15  C   UNL d   1       3.083   2.029  -0.676  0.00  0.00     0.076 A 
ATOM     16  C   UNL d   1       3.423   1.145  -1.703  0.00  0.00     0.038 A 
ATOM     17  C   UNL d   1       4.723   1.135  -2.215  0.00  0.00     0.018 A 
ATOM     18  C   UNL d   1       5.687   2.037  -1.742  0.00  0.00     0.010 A 
ATOM     19  C   UNL d   1       5.316   2.958  -0.750  0.00  0.00     0.018 A 
ATOM     20  C   UNL d   1       4.020   2.956  -0.221  0.00  0.00     0.038 A 
BRANCH  18  21
ATOM     21  C   UNL d   1       7.044   2.026  -2.278  0.00  0.00     0.137 A 
ATOM     22  N   UNL d   1       7.980   2.983  -1.946  0.00  0.00    -0.329 N 
ATOM     23  C   UNL d   1       9.019   2.609  -2.649  0.00  0.00     0.261 A 
ATOM     24  HN  UNL d   1       7.887   3.779  -1.315  1.00  0.00     0.168 HD
ATOM     25  O   UNL d   1       8.815   1.488  -3.382  0.00  0.00    -0.231 OA
ATOM     26  N   UNL d   1       7.501   1.095  -3.135  0.00  0.00    -0.243 N 
ATOM     27  HN  UNL d   1       7.003   0.290  -3.516  1.00  0.00     0.196 HD
ENDBRANCH  18  21
ENDBRANCH   1  15
TORSDOF 5
