REMARK  5 active torsions:
REMARK  status: ('A' for Active; 'I' for Inactive)
REMARK    1  A    between atoms: C_9  and  N_3 
REMARK    2  A    between atoms: C_13  and  C_6 
REMARK       I    between atoms: C_8  and  N_12 
REMARK    3  A    between atoms: C_10  and  C_8 
REMARK    4  A    between atoms: C_11  and  C_9 
REMARK       I    between atoms: N_14  and  C_11 
REMARK    5  A    between atoms: N_12  and  N_14 
ROOT
ATOM      1  N   UNL d   1       0.759   0.871  -0.325  0.00  0.00    -0.268 N 
ATOM      2  HN  UNL d   1       1.392   1.308  -0.995  1.00  0.00     0.190 HD
ATOM      3  N   UNL d   1       0.738  -0.400   0.132  0.00  0.00    -0.207 N 
ATOM      4  N   UNL d   1      -0.924   0.469   1.122  0.00  0.00    -0.266 N 
ATOM      5  HN  UNL d   1      -1.758   0.625   1.689  1.00  0.00     0.186 HD
ATOM      6  C   UNL d   1      -0.279   1.405   0.343  0.00  0.00     0.144 A 
ATOM      7  N   UNL d   1      -0.257  -0.673   0.997  0.00  0.00    -0.002 NA
ENDROOT
BRANCH   3   8
ATOM      8  C   UNL d   1       1.959  -1.175   0.089  0.00  0.00     0.271 C 
BRANCH   8   9
ATOM      9  C   UNL d   1       1.874  -2.675   0.032  0.00  0.00     0.257 C 
ATOM     10  N   UNL d   1       0.670  -3.324   0.156  0.00  0.00    -0.266 N 
ATOM     11  H   UNL d   1      -0.206  -2.872   0.427  0.00  0.00     0.190 HD
ATOM     12  O   UNL d   1       2.918  -3.330  -0.099  0.00  0.00    -0.270 OA
BRANCH  10  13
ATOM     13  N   UNL d   1       0.727  -4.730   0.278  0.00  0.00    -0.262 N 
ATOM     14  C   UNL d   1      -0.302  -5.521  -0.200  0.00  0.00     0.293 C 
ATOM     15  O   UNL d   1      -1.378  -5.047  -0.567  0.00  0.00    -0.264 OA
ATOM     16  H   UNL d   1       1.660  -5.141   0.363  0.00  0.00     0.190 HD
BRANCH  14  17
ATOM     17  C   UNL d   1       0.008  -6.939  -0.221  0.00  0.00     0.144 A 
ATOM     18  O   UNL d   1       1.218  -7.373   0.264  0.00  0.00    -0.317 OA
ATOM     19  C   UNL d   1       1.236  -8.728   0.151  0.00  0.00     0.143 A 
ATOM     20  C   UNL d   1       0.065  -9.180  -0.406  0.00  0.00     0.027 A 
ATOM     21  C   UNL d   1      -0.726  -8.030  -0.650  0.00  0.00     0.045 A 
ENDBRANCH  14  17
ENDBRANCH  10  13
ENDBRANCH   8   9
ENDBRANCH   3   8
BRANCH   6  22
ATOM     22  C   UNL d   1      -0.612   2.828   0.328  0.00  0.00     0.010 A 
ATOM     23  C   UNL d   1      -1.634   3.344   1.135  0.00  0.00     0.016 A 
ATOM     24  C   UNL d   1      -1.898   4.721   1.162  0.00  0.00     0.007 A 
ATOM     25  C   UNL d   1      -1.146   5.609   0.382  0.00  0.00    -0.062 A 
ATOM     26  C   UNL d   1      -0.135   5.098  -0.435  0.00  0.00     0.007 A 
ATOM     27  C   UNL d   1      -1.419   7.084   0.438  0.00  0.00     0.048 C 
ATOM     28  C   UNL d   1       0.128   3.723  -0.461  0.00  0.00     0.016 A 
ENDBRANCH   6  22
TORSDOF 5
