REMARK  5 active torsions:
REMARK  status: ('A' for Active; 'I' for Inactive)
REMARK    1  A    between atoms: N_2  and  C_1 
REMARK    2  A    between atoms: N_3  and  C_1 
REMARK    3  A    between atoms: C_6  and  N_2 
REMARK    4  A    between atoms: N_5  and  N_3 
REMARK    5  A    between atoms: C_8  and  N_5 
ROOT
ATOM      1  C   UNL d   1       1.179  -0.153  -0.131  0.00  0.00     0.186 C 
ATOM      2  S   UNL d   1       2.830  -0.264  -0.365  0.00  0.00    -0.040 SA
ENDROOT
BRANCH   1   3
ATOM      3  N   UNL d   1       0.497   0.181   1.018  0.00  0.00    -0.332 N 
ATOM      4  H   UNL d   1      -0.415   0.573   0.816  0.00  0.00     0.168 HD
BRANCH   3   5
ATOM      5  C   UNL d   1       0.938   0.178   2.352  0.00  0.00     0.035 A 
ATOM      6  C   UNL d   1       1.851  -0.764   2.834  0.00  0.00     0.053 A 
ATOM      7  C   UNL d   1       2.209  -0.763   4.181  0.00  0.00     0.036 A 
ATOM      8 CL   UNL d   1       3.297  -1.961   4.773  0.00  0.00    -0.084 Cl
ATOM      9  C   UNL d   1       1.678   0.180   5.056  0.00  0.00     0.024 A 
ATOM     10  C   UNL d   1       0.759   1.115   4.584  0.00  0.00     0.004 A 
ATOM     11  C   UNL d   1       0.373   1.101   3.240  0.00  0.00     0.029 A 
ENDBRANCH   3   5
ENDBRANCH   1   3
BRANCH   1  12
ATOM     12  N   UNL d   1       0.366  -0.367  -1.225  0.00  0.00    -0.297 N 
ATOM     13  H   UNL d   1       0.848  -0.614  -2.091  0.00  0.00     0.183 HD
BRANCH  12  14
ATOM     14  N   UNL d   1      -1.038  -0.499  -1.128  0.00  0.00    -0.230 NA
ATOM     15  H   UNL d   1      -1.456   0.110  -1.837  0.00  0.00     0.147 HD
BRANCH  14  16
ATOM     16  C   UNL d   1      -1.502  -1.892  -1.354  0.00  0.00     0.019 C 
ATOM     17  C   UNL d   1      -1.065  -2.809  -0.200  0.00  0.00     0.033 C 
ATOM     18  C   UNL d   1      -3.042  -1.850  -1.390  0.00  0.00     0.033 C 
ATOM     19  C   UNL d   1      -1.005  -2.461  -2.697  0.00  0.00     0.033 C 
ENDBRANCH  14  16
ENDBRANCH  12  14
ENDBRANCH   1  12
TORSDOF 5
