REMARK  2 active torsions:
REMARK  status: ('A' for Active; 'I' for Inactive)
REMARK    1  A    between atoms: C_8  and  N_1 
REMARK    2  A    between atoms: S_11  and  C_3 
ROOT
ATOM      1  N   UNL d   1       2.462  -0.661   0.017  0.00  0.00    -0.258 N 
ATOM      2  C   UNL d   1       1.310  -1.450   0.067  0.00  0.00     0.266 A 
ATOM      3  C   UNL d   1       2.377   0.727  -0.029  0.00  0.00     0.154 A 
ATOM      4  C   UNL d   1       0.027  -0.735   0.042  0.00  0.00     0.060 A 
ATOM      5  N   UNL d   1       1.256   1.375  -0.045  0.00  0.00    -0.335 N 
ATOM      6  HN  UNL d   1       1.247   2.395  -0.080  1.00  0.00     0.168 HD
ATOM      7  C   UNL d   1       0.060   0.653  -0.016  0.00  0.00     0.050 A 
ATOM      8  O   UNL d   1       1.293  -2.681   0.122  0.00  0.00    -0.267 OA
ATOM      9  C   UNL d   1      -1.187  -1.436   0.064  0.00  0.00     0.026 A 
ATOM     10  C   UNL d   1      -1.150   1.347  -0.046  0.00  0.00     0.031 A 
ATOM     11  C   UNL d   1      -2.398  -0.738   0.032  0.00  0.00    -0.061 A 
ATOM     12  C   UNL d   1      -2.369   0.661  -0.026  0.00  0.00     0.009 A 
ATOM     13  C   UNL d   1      -3.710  -1.465   0.026  0.00  0.00     0.048 C 
ENDROOT
BRANCH   1  14
ATOM     14  C   UNL d   1       3.692  -1.375  -0.014  0.00  0.00     0.044 A 
ATOM     15  C   UNL d   1       4.202  -1.818  -1.242  0.00  0.00     0.031 A 
ATOM     16  C   UNL d   1       5.274  -2.714  -1.271  0.00  0.00     0.021 A 
ATOM     17  C   UNL d   1       5.830  -3.165  -0.074  0.00  0.00     0.011 A 
ATOM     18  C   UNL d   1       5.346  -2.706   1.151  0.00  0.00     0.021 A 
ATOM     19 BR   UNL d   1       7.215  -4.452  -0.113  0.00  0.00    -0.051 Br
ATOM     20  C   UNL d   1       4.273  -1.813   1.183  0.00  0.00     0.031 A 
ENDBRANCH   1  14
BRANCH   3  21
ATOM     21  S   UNL d   1       3.870   1.662  -0.040  0.00  0.00    -0.098 SA
ATOM     22  C   UNL d   1       3.236   3.357  -0.102  0.00  0.00     0.099 C 
ENDBRANCH   3  21
TORSDOF 2
