REMARK  4 active torsions:
REMARK  status: ('A' for Active; 'I' for Inactive)
REMARK    1  A    between atoms: C_5  and  N_1 
REMARK    2  A    between atoms: C_10  and  C_4 
REMARK       I    between atoms: N_17  and  C_10 
REMARK    3  A    between atoms: N_13  and  N_17 
REMARK    4  A    between atoms: N_21  and  C_16 
ROOT
ATOM      1  N   UNL d   1       0.894  -0.685  -0.072  0.00  0.00    -0.257 N 
ATOM      2  N   UNL d   1       0.964   0.681  -0.111  0.00  0.00    -0.288 N 
ATOM      3  HN  UNL d   1       1.806   1.256  -0.148  1.00  0.00     0.188 HD
ATOM      4  C   UNL d   1      -0.310   1.108  -0.090  0.00  0.00     0.119 A 
ATOM      5  C   UNL d   1      -0.426  -1.115   0.037  0.00  0.00     0.033 A 
ATOM      6  C   UNL d   1      -1.202   0.019  -0.039  0.00  0.00     0.063 A 
ATOM      7  C   UNL d   1      -0.916  -2.497   0.286  0.00  0.00     0.070 C 
ENDROOT
BRANCH   4   8
ATOM      8  C   UNL d   1      -0.727   2.520  -0.089  0.00  0.00     0.288 C 
ATOM      9  N   UNL d   1       0.307   3.442  -0.009  0.00  0.00    -0.264 N 
ATOM     10  H   UNL d   1       1.268   3.123   0.054  0.00  0.00     0.190 HD
ATOM     11  O   UNL d   1      -1.919   2.816  -0.135  0.00  0.00    -0.264 OA
BRANCH   9  12
ATOM     12  N   UNL d   1      -0.021   4.767   0.027  0.00  0.00    -0.293 N 
ATOM     13  C   UNL d   1       0.927   5.638   0.114  0.00  0.00     0.194 C 
ATOM     14  HN  UNL d   1      -0.996   5.063  -0.014  1.00  0.00     0.187 HD
BRANCH  13  15
ATOM     15  N   UNL d   1       0.732   7.000   0.162  0.00  0.00    -0.385 N 
ATOM     16  C   UNL d   1      -0.609   7.570   0.080  0.00  0.00     0.149 C 
ATOM     17  C   UNL d   1       1.818   7.959   0.189  0.00  0.00     0.149 C 
ENDBRANCH  13  15
ENDBRANCH   9  12
ENDBRANCH   4   8
BRANCH   1  18
ATOM     18  C   UNL d   1       2.096  -1.454  -0.113  0.00  0.00     0.100 A 
ATOM     19  C   UNL d   1       3.236  -1.039   0.612  0.00  0.00     0.066 A 
ATOM     20  C   UNL d   1       4.412  -1.805   0.594  0.00  0.00     0.050 A 
ATOM     21 CL   UNL d   1       3.293   0.342   1.661  0.00  0.00    -0.082 Cl
ATOM     22  C   UNL d   1       4.462  -2.995  -0.117  0.00  0.00     0.037 A 
ATOM     23  C   UNL d   1       3.362  -3.412  -0.853  0.00  0.00     0.050 A 
ATOM     24 CL   UNL d   1       5.899  -3.939  -0.113  0.00  0.00    -0.084 Cl
ATOM     25  C   UNL d   1       2.199  -2.628  -0.887  0.00  0.00     0.066 A 
ATOM     26 CL   UNL d   1       1.044  -3.110  -2.087  0.00  0.00    -0.082 Cl
ENDBRANCH   1  18
TORSDOF 4
