REMARK  2 active torsions:
REMARK  status: ('A' for Active; 'I' for Inactive)
REMARK    1  A    between atoms: N_8  and  C_4 
REMARK    2  A    between atoms: C_7  and  C_6 
ROOT
ATOM      1  N   UNL d   1       1.285   0.683   0.048  0.00  0.00    -0.296 N 
ATOM      2  HN  UNL d   1       1.909   1.486   0.131  1.00  0.00     0.187 HD
ATOM      3  C   UNL d   1       0.459  -1.429  -0.085  0.00  0.00     0.081 A 
ATOM      4  C   UNL d   1      -0.610  -0.569  -0.063  0.00  0.00     0.117 A 
ATOM      5  N   UNL d   1      -0.062   0.689  -0.007  0.00  0.00    -0.281 N 
ATOM      6  C   UNL d   1       1.623  -0.615  -0.032  0.00  0.00     0.062 A 
ATOM      7  C   UNL d   1      -0.734   1.965  -0.028  0.00  0.00     0.179 C 
ENDROOT
BRANCH   6   8
ATOM      8  C   UNL d   1       3.022  -1.046  -0.069  0.00  0.00    -0.008 A 
ATOM      9  C   UNL d   1       3.386  -2.240  -0.710  0.00  0.00     0.014 A 
ATOM     10  C   UNL d   1       4.725  -2.635  -0.771  0.00  0.00     0.001 A 
ATOM     11  C   UNL d   1       5.713  -1.845  -0.188  0.00  0.00     0.000 A 
ATOM     12  C   UNL d   1       5.364  -0.661   0.460  0.00  0.00     0.001 A 
ATOM     13  C   UNL d   1       4.026  -0.263   0.517  0.00  0.00     0.014 A 
ENDBRANCH   6   8
BRANCH   4  14
ATOM     14  N   UNL d   1      -1.931  -0.835  -0.104  0.00  0.00    -0.384 N 
ATOM     15  H   UNL d   1      -2.646  -0.145   0.104  0.00  0.00     0.157 HD
ATOM     16  H   UNL d   1      -2.261  -1.793  -0.005  0.00  0.00     0.157 HD
ENDBRANCH   4  14
TORSDOF 2
