REMARK  3 active torsions:
REMARK  status: ('A' for Active; 'I' for Inactive)
REMARK    1  A    between atoms: C_12  and  C_5 
REMARK    2  A    between atoms: C_10  and  C_7 
REMARK    3  A    between atoms: C_11  and  C_8 
ROOT
ATOM      1  N   UNL d   1      -0.281   1.524   0.021  0.00  0.00    -0.300 N 
ATOM      2  HN  UNL d   1      -0.458   2.524  -0.067  1.00  0.00     0.187 HD
ATOM      3  N   UNL d   1       1.035   1.175   0.074  0.00  0.00    -0.303 N 
ATOM      4  HN  UNL d   1       1.687   1.947   0.212  1.00  0.00     0.186 HD
ATOM      5  C   UNL d   1      -0.524  -1.579   0.058  0.00  0.00    -0.040 C 
ATOM      6  C   UNL d   1      -1.499  -0.681   0.180  0.00  0.00     0.040 C 
ATOM      7  C   UNL d   1      -1.335   0.787   0.063  0.00  0.00     0.059 C 
ATOM      8  C   UNL d   1       1.577   0.001  -0.025  0.00  0.00     0.040 C 
ATOM      9  C   UNL d   1       0.926  -1.358  -0.132  0.00  0.00     0.099 C 
ENDROOT
BRANCH   7  10
ATOM     10  C   UNL d   1      -2.652   1.535   0.009  0.00  0.00    -0.008 A 
ATOM     11  C   UNL d   1      -2.728   2.821   0.569  0.00  0.00     0.015 A 
ATOM     12  C   UNL d   1      -3.930   3.535   0.548  0.00  0.00     0.024 A 
ATOM     13  C   UNL d   1      -5.062   2.969  -0.033  0.00  0.00     0.034 A 
ATOM     14  C   UNL d   1      -5.000   1.702  -0.607  0.00  0.00     0.024 A 
ATOM     15 CL   UNL d   1      -6.545   3.841  -0.054  0.00  0.00    -0.084 Cl
ATOM     16  C   UNL d   1      -3.795   0.993  -0.601  0.00  0.00     0.015 A 
ENDBRANCH   7  10
BRANCH   5  17
ATOM     17  C   UNL d   1      -0.897  -3.007   0.051  0.00  0.00    -0.029 A 
ATOM     18  C   UNL d   1      -1.140  -3.656  -1.169  0.00  0.00     0.012 A 
ATOM     19  C   UNL d   1      -1.404  -5.025  -1.194  0.00  0.00     0.001 A 
ATOM     20  C   UNL d   1      -1.431  -5.749  -0.003  0.00  0.00     0.000 A 
ATOM     21  C   UNL d   1      -1.208  -5.104   1.214  0.00  0.00     0.001 A 
ATOM     22  C   UNL d   1      -0.945  -3.734   1.243  0.00  0.00     0.012 A 
ENDBRANCH   5  17
BRANCH   8  23
ATOM     23  C   UNL d   1       3.090  -0.032  -0.040  0.00  0.00    -0.012 A 
ATOM     24  C   UNL d   1       3.816   0.970   0.610  0.00  0.00     0.015 A 
ATOM     25  C   UNL d   1       5.216   0.946   0.601  0.00  0.00     0.024 A 
ATOM     26  C   UNL d   1       5.891  -0.076  -0.066  0.00  0.00     0.034 A 
ATOM     27  C   UNL d   1       5.180  -1.074  -0.726  0.00  0.00     0.024 A 
ATOM     28 CL   UNL d   1       7.610  -0.107  -0.084  0.00  0.00    -0.084 Cl
ATOM     29  C   UNL d   1       3.784  -1.052  -0.715  0.00  0.00     0.015 A 
ENDBRANCH   8  23
TORSDOF 3
