REMARK  5 active torsions:
REMARK  status: ('A' for Active; 'I' for Inactive)
REMARK    1  A    between atoms: C_3  and  C_1 
REMARK    2  A    between atoms: N_2  and  C_4 
REMARK    3  A    between atoms: C_10  and  N_7 
REMARK    4  A    between atoms: C_8  and  C_10 
REMARK    5  A    between atoms: C_16  and  C_8 
ROOT
ATOM      1  N   UNL d   1      -0.372   5.070  -1.833  0.00  0.00    -0.364 N 
ATOM      2  N   UNL d   1      -1.115   6.980  -3.946  0.00  0.00     0.099 N 
ATOM      3  C   UNL d   1      -1.753   5.558  -1.917  0.00  0.00     0.154 C 
ATOM      4  C   UNL d   1       0.670   5.851  -2.504  0.00  0.00     0.154 C 
ATOM      5  C   UNL d   1       0.210   6.323  -3.903  0.00  0.00     0.292 C 
ATOM      6  C   UNL d   1      -2.099   6.048  -3.338  0.00  0.00     0.292 C 
ENDROOT
BRANCH   1   7
ATOM      7  C   UNL d   1      -0.129   3.785  -1.398  0.00  0.00     0.103 A 
ATOM      8  C   UNL d   1       1.089   3.451  -0.806  0.00  0.00     0.049 A 
ATOM      9  C   UNL d   1       1.318   2.156  -0.344  0.00  0.00     0.021 A 
ATOM     10  C   UNL d   1       0.323   1.193  -0.485  0.00  0.00     0.063 A 
ATOM     11  C   UNL d   1      -0.858   1.594  -1.084  0.00  0.00     0.106 A 
ATOM     12  N   UNL d   1      -1.097   2.853  -1.525  0.00  0.00    -0.352 N 
ATOM     13  HN  UNL d   1      -1.995   3.092  -1.946  1.00  0.00     0.166 HD
BRANCH  10  14
ATOM     14  C   UNL d   1       0.512  -0.207   0.004  0.00  0.00     0.418 C 
ATOM     15  F   UNL d   1      -0.552  -1.022  -0.234  0.00  0.00    -0.166 F 
ATOM     16  F   UNL d   1       0.730  -0.262   1.347  0.00  0.00    -0.166 F 
ATOM     17  F   UNL d   1       1.585  -0.819  -0.571  0.00  0.00    -0.166 F 
ENDBRANCH  10  14
ENDBRANCH   1   7
BRANCH   2  18
ATOM     18  C   UNL d   1      -1.066   8.291  -3.266  0.00  0.00     0.356 C 
BRANCH  18  19
ATOM     19  C   UNL d   1      -2.397   9.035  -3.334  0.00  0.00     0.187 C 
ATOM     20  O   UNL d   1      -2.982   9.366  -2.303  0.00  0.00    -0.290 OA
BRANCH  19  21
ATOM     21  C   UNL d   1      -2.992   9.383  -4.663  0.00  0.00     0.011 A 
ATOM     22  C   UNL d   1      -2.352   9.100  -5.875  0.00  0.00     0.015 A 
ATOM     23  C   UNL d   1      -2.980   9.387  -7.087  0.00  0.00     0.001 A 
ATOM     24  C   UNL d   1      -4.243   9.976  -7.097  0.00  0.00     0.000 A 
ATOM     25  C   UNL d   1      -4.876  10.287  -5.896  0.00  0.00     0.001 A 
ATOM     26  C   UNL d   1      -4.253   9.993  -4.682  0.00  0.00     0.015 A 
ENDBRANCH  19  21
ENDBRANCH  18  19
ENDBRANCH   2  18
TORSDOF 5
