REMARK  2 active torsions:
REMARK  status: ('A' for Active; 'I' for Inactive)
REMARK    1  A    between atoms: C_8  and  C_4 
REMARK    2  A    between atoms: N_10  and  C_7 
ROOT
ATOM      1  C   UNL d   1       0.236  -0.618  -0.080  0.00  0.00     0.126 A 
ATOM      2  N   UNL d   1       1.494  -0.048  -0.120  0.00  0.00    -0.330 N 
ATOM      3  HN  UNL d   1       2.399  -0.512  -0.195  1.00  0.00     0.168 HD
ATOM      4  C   UNL d   1       1.242   1.218  -0.041  0.00  0.00     0.162 A 
ATOM      5  O   UNL d   1      -0.051   1.597   0.025  0.00  0.00    -0.255 OA
ATOM      6  C   UNL d   1      -0.798   0.457   0.009  0.00  0.00     0.318 A 
ATOM      7  C   UNL d   1       0.061  -1.946  -0.022  0.00  0.00     0.120 C 
ATOM      8  O   UNL d   1      -2.006   0.413   0.081  0.00  0.00    -0.257 OA
ENDROOT
BRANCH   4   9
ATOM      9  C   UNL d   1       2.211   2.327  -0.002  0.00  0.00     0.015 A 
ATOM     10  C   UNL d   1       3.577   2.057  -0.144  0.00  0.00     0.016 A 
ATOM     11  C   UNL d   1       4.504   3.102  -0.101  0.00  0.00     0.001 A 
ATOM     12  C   UNL d   1       4.072   4.415   0.088  0.00  0.00     0.000 A 
ATOM     13  C   UNL d   1       2.713   4.688   0.237  0.00  0.00     0.001 A 
ATOM     14  C   UNL d   1       1.783   3.648   0.193  0.00  0.00     0.016 A 
ENDBRANCH   4   9
BRANCH   7  15
ATOM     15  N   UNL d   1      -1.020  -2.816   0.063  0.00  0.00    -0.396 N 
ATOM     16  C   UNL d   1      -2.360  -2.548  -0.454  0.00  0.00     0.148 C 
ATOM     17  C   UNL d   1      -0.850  -4.180   0.569  0.00  0.00     0.148 C 
ENDBRANCH   7  15
TORSDOF 2
