REMARK  5 active torsions:
REMARK  status: ('A' for Active; 'I' for Inactive)
REMARK    1  A    between atoms: C_7  and  C_1 
REMARK    2  A    between atoms: O_19  and  C_7 
REMARK    3  A    between atoms: N_8  and  N_11 
REMARK    4  A    between atoms: C_17  and  C_16 
REMARK    5  A    between atoms: C_23  and  O_19 
ROOT
ATOM      1  C   UNL d   1      -0.088   1.356   0.047  0.00  0.00     0.109 A 
ATOM      2  C   UNL d   1      -1.381   0.873   0.062  0.00  0.00     0.153 A 
ATOM      3  N   UNL d   1      -0.019  -0.944   0.028  0.00  0.00    -0.302 N 
ATOM      4  HN  UNL d   1       0.301  -1.912   0.023  1.00  0.00     0.186 HD
ATOM      5  N   UNL d   1      -1.278  -0.486   0.027  0.00  0.00    -0.283 N 
ATOM      6  C   UNL d   1       0.720   0.174   0.037  0.00  0.00     0.042 A 
ATOM      7  N   UNL d   1      -2.604   1.453   0.093  0.00  0.00    -0.284 N 
ATOM      8  C   UNL d   1       2.201   0.057   0.015  0.00  0.00     0.071 C 
ATOM      9  H   UNL d   1      -2.056  -1.133  -0.004  0.00  0.00     0.188 HD
ATOM     10  H   UNL d   1      -2.667   2.477   0.045  0.00  0.00     0.188 HD
ENDROOT
BRANCH   1  11
ATOM     11  C   UNL d   1       0.297   2.748  -0.010  0.00  0.00     0.299 C 
ATOM     12  O   UNL d   1      -0.513   3.671  -0.081  0.00  0.00    -0.259 OA
BRANCH  11  13
ATOM     13  O   UNL d   1       1.650   2.907  -0.066  0.00  0.00    -0.318 OA
BRANCH  13  14
ATOM     14  C   UNL d   1       2.119   4.164  -0.566  0.00  0.00     0.174 C 
ATOM     15  C   UNL d   1       2.208   4.064  -2.079  0.00  0.00     0.034 C 
ENDBRANCH  13  14
ENDBRANCH  11  13
ENDBRANCH   1  11
BRANCH   7  16
ATOM     16  N   UNL d   1      -3.712   0.695  -0.099  0.00  0.00    -0.309 N 
ATOM     17  C   UNL d   1      -4.830   1.195   0.315  0.00  0.00     0.118 C 
ATOM     18  HN  UNL d   1      -3.665  -0.221  -0.545  1.00  0.00     0.186 HD
BRANCH  17  19
ATOM     19  C   UNL d   1      -6.084   0.435   0.137  0.00  0.00    -0.016 A 
ATOM     20  C   UNL d   1      -6.070  -0.788  -0.547  0.00  0.00     0.058 A 
ATOM     21  C   UNL d   1      -7.257  -1.486  -0.723  0.00  0.00     0.155 A 
ATOM     22  F   UNL d   1      -7.241  -2.652  -1.383  0.00  0.00    -0.203 F 
ATOM     23  C   UNL d   1      -8.450  -0.982  -0.222  0.00  0.00     0.154 A 
ATOM     24  C   UNL d   1      -8.470   0.229   0.469  0.00  0.00     0.046 A 
ATOM     25  F   UNL d   1      -9.595  -1.655  -0.400  0.00  0.00    -0.203 F 
ATOM     26  C   UNL d   1      -7.282   0.943   0.653  0.00  0.00     0.016 A 
ENDBRANCH  17  19
ENDBRANCH   7  16
TORSDOF 5
