REMARK  4 active torsions:
REMARK  status: ('A' for Active; 'I' for Inactive)
REMARK    1  A    between atoms: C_7  and  C_4 
REMARK    2  A    between atoms: N_12  and  C_7 
REMARK       I    between atoms: C_13  and  N_12 
REMARK    3  A    between atoms: C_16  and  C_13 
REMARK    4  A    between atoms: C_17  and  C_14 
ROOT
ATOM      1  C   UNL d   1      -3.787   0.101   0.075  0.00  0.00     0.080 C 
ATOM      2  C   UNL d   1      -4.552  -1.001  -0.028  0.00  0.00     0.044 C 
ENDROOT
BRANCH   1   3
ATOM      3  C   UNL d   1      -2.371  -0.066   0.100  0.00  0.00     0.133 A 
ATOM      4  N   UNL d   1      -1.606  -1.007  -0.428  0.00  0.00    -0.338 N 
ATOM      5  C   UNL d   1      -0.304  -0.664  -0.121  0.00  0.00     0.068 A 
ATOM      6  HN  UNL d   1      -1.916  -1.823  -0.956  1.00  0.00     0.167 HD
ATOM      7  C   UNL d   1      -0.271   0.509   0.616  0.00  0.00     0.068 A 
ATOM      8  C   UNL d   1       0.894  -1.333  -0.452  0.00  0.00    -0.026 A 
ATOM      9  C   UNL d   1       0.904   1.116   1.077  0.00  0.00    -0.026 A 
ATOM     10  N   UNL d   1      -1.595   0.853   0.754  0.00  0.00    -0.338 N 
ATOM     11  C   UNL d   1       0.889   2.397   1.866  0.00  0.00     0.051 C 
ATOM     12  C   UNL d   1       2.119   0.444   0.761  0.00  0.00    -0.047 A 
ATOM     13  C   UNL d   1       2.119  -0.764   0.007  0.00  0.00    -0.047 A 
ATOM     14  C   UNL d   1       3.412   1.055   1.264  0.00  0.00     0.049 C 
ATOM     15  C   UNL d   1       3.434  -1.450  -0.301  0.00  0.00     0.049 C 
ATOM     16  H   UNL d   1      -1.962   1.632   1.281  0.00  0.00     0.167 HD
ATOM     17  C   UNL d   1       0.862  -2.606  -1.252  0.00  0.00     0.051 C 
ENDBRANCH   1   3
BRANCH   1  18
ATOM     18  N   UNL d   1      -4.329   1.374   0.014  0.00  0.00    -0.320 N 
ATOM     19  C   UNL d   1      -4.605   2.115   1.144  0.00  0.00     0.256 C 
ATOM     20  O   UNL d   1      -4.166   1.819   2.256  0.00  0.00    -0.267 OA
ATOM     21  H   UNL d   1      -4.955   1.503  -0.773  0.00  0.00     0.169 HD
BRANCH  19  22
ATOM     22  C   UNL d   1      -5.448   3.349   0.980  0.00  0.00     0.032 A 
ATOM     23  C   UNL d   1      -6.202   3.632  -0.163  0.00  0.00     0.017 A 
ATOM     24  C   UNL d   1      -6.924   4.832  -0.255  0.00  0.00     0.001 A 
ATOM     25  C   UNL d   1      -6.909   5.742   0.799  0.00  0.00     0.000 A 
ATOM     26  C   UNL d   1      -6.185   5.461   1.949  0.00  0.00     0.001 A 
ATOM     27  C   UNL d   1      -5.459   4.268   2.045  0.00  0.00     0.017 A 
ENDBRANCH  19  22
ENDBRANCH   1  18
BRANCH   2  28
ATOM     28  C   UNL d   1      -6.017  -1.023  -0.027  0.00  0.00    -0.034 A 
ATOM     29  C   UNL d   1      -6.723  -1.015  -1.233  0.00  0.00     0.013 A 
ATOM     30  C   UNL d   1      -8.119  -1.080  -1.228  0.00  0.00     0.024 A 
ATOM     31  C   UNL d   1      -8.808  -1.149  -0.015  0.00  0.00     0.034 A 
ATOM     32  C   UNL d   1      -8.111  -1.153   1.192  0.00  0.00     0.024 A 
ATOM     33 CL   UNL d   1     -10.526  -1.242  -0.013  0.00  0.00    -0.084 Cl
ATOM     34  C   UNL d   1      -6.715  -1.083   1.188  0.00  0.00     0.013 A 
ENDBRANCH   2  28
TORSDOF 4
