REMARK  4 active torsions:
REMARK  status: ('A' for Active; 'I' for Inactive)
REMARK    1  A    between atoms: C_2  and  S_1 
REMARK    2  A    between atoms: C_7  and  S_1 
REMARK    3  A    between atoms: N_6  and  C_3 
REMARK    4  A    between atoms: C_4  and  C_5 
REMARK       I    between atoms: C_5  and  N_6 
ROOT
ATOM      1  C   UNL d   1       0.770  -0.057  -1.429  0.00  0.00     0.098 A 
ATOM      2  C   UNL d   1       1.107  -1.141  -2.314  0.00  0.00     0.064 A 
ATOM      3  S   UNL d   1       0.612   0.896  -3.827  0.00  0.00    -0.110 SA
ATOM      4  C   UNL d   1       0.538   1.111  -2.139  0.00  0.00     0.075 A 
ATOM      5  C   UNL d   1       0.951  -0.763  -3.638  0.00  0.00     0.080 A 
ENDROOT
BRANCH   1   6
ATOM      6  S   UNL d   1       0.298  -0.131   0.243  0.00  0.00     0.209 S 
ATOM      7  O   UNL d   1      -0.829  -1.048   0.206  0.00  0.00    -0.217 OA
ATOM      8  O   UNL d   1       0.101   1.255   0.627  0.00  0.00    -0.217 OA
BRANCH   6   9
ATOM      9  C   UNL d   1       1.501  -0.789   1.358  0.00  0.00     0.064 A 
ATOM     10  C   UNL d   1       2.598  -0.007   1.742  0.00  0.00     0.025 A 
ATOM     11  C   UNL d   1       3.396  -0.413   2.819  0.00  0.00     0.025 A 
ATOM     12  C   UNL d   1       3.084  -1.580   3.518  0.00  0.00     0.034 A 
ATOM     13  C   UNL d   1       1.996  -2.363   3.135  0.00  0.00     0.025 A 
ATOM     14 CL   UNL d   1       4.016  -2.032   4.892  0.00  0.00    -0.084 Cl
ATOM     15  C   UNL d   1       1.204  -1.970   2.054  0.00  0.00     0.025 A 
ENDBRANCH   6   9
ENDBRANCH   1   6
BRANCH   2  16
ATOM     16  N   UNL d   1       1.509  -2.452  -2.048  0.00  0.00    -0.322 N 
ATOM     17  C   UNL d   1       2.719  -2.672  -1.371  0.00  0.00     0.277 C 
ATOM     18  O   UNL d   1       3.274  -1.782  -0.726  0.00  0.00    -0.268 OA
ATOM     19  H   UNL d   1       1.360  -3.097  -2.824  0.00  0.00     0.169 HD
BRANCH  17  20
ATOM     20  C   UNL d   1       3.322  -4.086  -1.586  0.00  0.00     0.269 C 
ATOM     21 CL   UNL d   1       3.502  -4.336  -3.353  0.00  0.00    -0.073 Cl
ATOM     22 CL   UNL d   1       4.910  -4.233  -0.806  0.00  0.00    -0.073 Cl
ATOM     23 CL   UNL d   1       2.194  -5.295  -0.928  0.00  0.00    -0.073 Cl
ENDBRANCH  17  20
ENDBRANCH   2  16
TORSDOF 4
