REMARK  3 active torsions:
REMARK  status: ('A' for Active; 'I' for Inactive)
REMARK    1  A    between atoms: C_6  and  C_1 
REMARK    2  A    between atoms: N_10  and  C_2 
REMARK       I    between atoms: C_8  and  N_10 
REMARK       I    between atoms: N_11  and  C_8 
REMARK    3  A    between atoms: C_9  and  N_11 
ROOT
ATOM      1  C   UNL d   1      -1.675  -0.919  -0.112  0.00  0.00     0.096 C 
ATOM      2  C   UNL d   1      -0.267  -1.172  -0.227  0.00  0.00     0.097 C 
ATOM      3  N   UNL d   1      -1.910   0.400  -0.195  0.00  0.00    -0.258 N 
ATOM      4  HN  UNL d   1      -2.803   0.872  -0.053  1.00  0.00     0.195 HD
ATOM      5  C   UNL d   1       0.270   0.044  -0.574  0.00  0.00     0.101 C 
ATOM      6  O   UNL d   1      -0.705   0.990  -0.509  0.00  0.00    -0.240 OA
ATOM      7  C   UNL d   1       1.546   0.504  -1.153  0.00  0.00     0.081 C 
ENDROOT
BRANCH   2   8
ATOM      8  N   UNL d   1       0.352  -2.410  -0.183  0.00  0.00    -0.304 N 
ATOM      9  C   UNL d   1       1.461  -2.843   0.474  0.00  0.00     0.325 C 
ATOM     10  N   UNL d   1       2.086  -1.974   1.327  0.00  0.00    -0.303 N 
ATOM     11  O   UNL d   1       1.713  -4.042   0.363  0.00  0.00    -0.247 OA
ATOM     12  H   UNL d   1       1.538  -1.171   1.610  0.00  0.00     0.171 HD
ATOM     13  H   UNL d   1      -0.221  -3.203  -0.451  0.00  0.00     0.171 HD
BRANCH  10  14
ATOM     14  C   UNL d   1       3.055  -2.408   2.281  0.00  0.00     0.114 A 
ATOM     15  C   UNL d   1       3.962  -3.454   2.080  0.00  0.00     0.146 A 
ATOM     16  F   UNL d   1       4.128  -4.016   0.876  0.00  0.00    -0.204 F 
ATOM     17  C   UNL d   1       4.778  -3.921   3.118  0.00  0.00     0.045 A 
ATOM     18  C   UNL d   1       4.737  -3.309   4.368  0.00  0.00     0.006 A 
ATOM     19  C   UNL d   1       3.893  -2.220   4.570  0.00  0.00     0.045 A 
ATOM     20  C   UNL d   1       3.072  -1.773   3.530  0.00  0.00     0.146 A 
ATOM     21  F   UNL d   1       2.245  -0.741   3.758  0.00  0.00    -0.204 F 
ENDBRANCH  10  14
ENDBRANCH   2   8
BRANCH   1  22
ATOM     22  C   UNL d   1      -2.768  -1.859   0.153  0.00  0.00     0.017 A 
ATOM     23  C   UNL d   1      -2.962  -3.050  -0.568  0.00  0.00     0.046 A 
ATOM     24 CL   UNL d   1      -1.990  -3.508  -1.925  0.00  0.00    -0.083 Cl
ATOM     25  C   UNL d   1      -4.009  -3.920  -0.237  0.00  0.00     0.025 A 
ATOM     26  C   UNL d   1      -4.898  -3.597   0.786  0.00  0.00     0.002 A 
ATOM     27  C   UNL d   1      -4.742  -2.405   1.486  0.00  0.00     0.001 A 
ATOM     28  C   UNL d   1      -3.684  -1.546   1.176  0.00  0.00     0.015 A 
ENDBRANCH   1  22
TORSDOF 3
