REMARK  6 active torsions:
REMARK  status: ('A' for Active; 'I' for Inactive)
REMARK    1  A    between atoms: C_3  and  C_1 
REMARK    2  A    between atoms: C_8  and  C_1 
REMARK    3  A    between atoms: C_11  and  C_2 
REMARK    4  A    between atoms: N_4  and  C_3 
REMARK       I    between atoms: C_7  and  N_9 
REMARK    5  A    between atoms: N_9  and  C_14 
REMARK    6  A    between atoms: O_22  and  C_15 
ROOT
ATOM      1  C   UNL d   1       0.967  -0.087   0.035  0.00  0.00     0.037 C 
ATOM      2  C   UNL d   1       0.319  -1.275   0.052  0.00  0.00     0.033 C 
ENDROOT
BRANCH   1   3
ATOM      3  C   UNL d   1       2.487  -0.087   0.035  0.00  0.00    -0.036 C 
BRANCH   3   4
ATOM      4  N   UNL d   1       3.748  -0.087   0.035  0.00  0.00    -0.365 N 
ATOM      5  HN2 UNL d   1       2.728  -0.087   0.035  1.00  0.00     0.165 HD
ATOM      6  HN1 UNL d   1       4.768  -0.087   0.035  1.00  0.00     0.165 HD
ENDBRANCH   3   4
ENDBRANCH   1   3
BRANCH   1   7
ATOM      7  C   UNL d   1       0.244   1.209   0.016  0.00  0.00    -0.017 A 
ATOM      8  C   UNL d   1       0.789   2.334   0.656  0.00  0.00     0.015 A 
ATOM      9  C   UNL d   1       0.132   3.573   0.639  0.00  0.00     0.037 A 
ATOM     10  C   UNL d   1      -1.087   3.713  -0.018  0.00  0.00     0.068 A 
ATOM     11  C   UNL d   1      -1.637   2.605  -0.663  0.00  0.00     0.037 A 
ATOM     12  C   UNL d   1      -0.979   1.368  -0.652  0.00  0.00     0.015 A 
BRANCH  10  13
ATOM     13  O   UNL d   1      -1.831   4.856  -0.103  0.00  0.00    -0.356 OA
ATOM     14  C   UNL d   1      -1.297   6.019   0.518  0.00  0.00     0.210 C 
ENDBRANCH  10  13
ENDBRANCH   1   7
BRANCH   2  15
ATOM     15  C   UNL d   1       0.988  -2.584   0.112  0.00  0.00    -0.035 A 
ATOM     16  C   UNL d   1       1.246  -3.185   1.347  0.00  0.00     0.013 A 
ATOM     17  C   UNL d   1       1.935  -4.405   1.415  0.00  0.00     0.030 A 
ATOM     18  C   UNL d   1       2.376  -5.047   0.252  0.00  0.00     0.034 A 
ATOM     19  C   UNL d   1       2.089  -4.454  -0.981  0.00  0.00     0.030 A 
ATOM     20  C   UNL d   1       1.404  -3.233  -1.053  0.00  0.00     0.013 A 
BRANCH  18  21
ATOM     21  N   UNL d   1       3.104  -6.254   0.394  0.00  0.00    -0.328 N 
ATOM     22  C   UNL d   1       3.647  -7.020  -0.624  0.00  0.00     0.218 C 
ATOM     23  O   UNL d   1       3.559  -6.808  -1.828  0.00  0.00    -0.274 OA
ATOM     24  C   UNL d   1       4.413  -8.226  -0.137  0.00  0.00     0.117 C 
ATOM     25  H   UNL d   1       3.262  -6.564   1.344  0.00  0.00     0.169 HD
ENDBRANCH  18  21
ENDBRANCH   2  15
TORSDOF 6
