REMARK  7 active torsions:
REMARK  status: ('A' for Active; 'I' for Inactive)
REMARK    1  A    between atoms: N_7  and  S_1 
REMARK    2  A    between atoms: C_10  and  S_1 
REMARK    3  A    between atoms: C_12  and  C_2 
REMARK    4  A    between atoms: C_3  and  N_8 
REMARK    5  A    between atoms: C_17  and  C_5 
REMARK       I    between atoms: N_8  and  C_9 
REMARK    6  A    between atoms: C_9  and  C_18 
REMARK    7  A    between atoms: C_18  and  N_11 
ROOT
ATOM      1  N   UNL d   1      -4.396   3.300   0.182  0.00  0.00    -0.324 N 
ATOM      2  C   UNL d   1      -3.889   3.635  -1.062  0.00  0.00     0.250 C 
ATOM      3  O   UNL d   1      -4.566   4.188  -1.938  0.00  0.00    -0.271 OA
ATOM      4  H   UNL d   1      -3.968   2.500   0.644  0.00  0.00     0.169 HD
ENDROOT
BRANCH   2   5
ATOM      5  C   UNL d   1      -2.409   3.358  -1.366  0.00  0.00     0.375 C 
BRANCH   5   6
ATOM      6  N   UNL d   1      -1.667   2.459  -0.463  0.00  0.00     0.099 N 
ATOM      7  C   UNL d   1      -2.081   1.037  -0.504  0.00  0.00     0.288 C 
ATOM      8  C   UNL d   1      -1.399   0.120  -1.539  0.00  0.00     0.138 C 
ATOM      9  N   UNL d   1       0.083   0.231  -1.478  0.00  0.00    -0.203 NA
ATOM     10  C   UNL d   1       0.475   1.643  -1.729  0.00  0.00     0.138 C 
ATOM     11  C   UNL d   1      -0.197   2.604  -0.710  0.00  0.00     0.288 C 
BRANCH   9  12
ATOM     12  S   UNL d   1       0.837  -0.549  -0.155  0.00  0.00     0.243 S 
ATOM     13  O   UNL d   1       0.063  -1.732   0.177  0.00  0.00    -0.206 OA
ATOM     14  O   UNL d   1       1.168   0.430   0.853  0.00  0.00    -0.206 OA
BRANCH  12  15
ATOM     15  C   UNL d   1       2.373  -1.140  -0.842  0.00  0.00     0.074 A 
ATOM     16  C   UNL d   1       3.596  -0.632  -0.383  0.00  0.00     0.025 A 
ATOM     17  C   UNL d   1       4.788  -1.252  -0.773  0.00  0.00     0.008 A 
ATOM     18  C   UNL d   1       4.767  -2.374  -1.614  0.00  0.00    -0.062 A 
ATOM     19  C   UNL d   1       3.538  -2.854  -2.086  0.00  0.00     0.008 A 
ATOM     20  C   UNL d   1       6.043  -3.097  -1.932  0.00  0.00     0.048 C 
ATOM     21  C   UNL d   1       2.344  -2.241  -1.701  0.00  0.00     0.025 A 
ENDBRANCH  12  15
ENDBRANCH   9  12
ENDBRANCH   5   6
ENDBRANCH   2   5
BRANCH   1  22
ATOM     22  C   UNL d   1      -5.734   3.590   0.499  0.00  0.00     0.057 A 
ATOM     23  C   UNL d   1      -6.625   2.672   1.029  0.00  0.00     0.077 A 
ATOM     24  S   UNL d   1      -8.175   3.362   1.246  0.00  0.00    -0.084 SA
ATOM     25  C   UNL d   1      -7.714   4.888   0.619  0.00  0.00     0.018 A 
ATOM     26  C   UNL d   1      -6.369   4.862   0.286  0.00  0.00     0.051 A 
BRANCH  23  27
ATOM     27  C   UNL d   1      -6.389   1.260   1.309  0.00  0.00     0.164 C 
ATOM     28  O   UNL d   1      -5.256   0.776   1.273  0.00  0.00    -0.292 OA
ATOM     29  C   UNL d   1      -7.561   0.361   1.652  0.00  0.00     0.097 C 
ENDBRANCH  23  27
BRANCH  25  30
ATOM     30  C   UNL d   1      -8.702   5.984   0.473  0.00  0.00    -0.019 A 
ATOM     31  C   UNL d   1      -8.472   7.025  -0.443  0.00  0.00     0.013 A 
ATOM     32  C   UNL d   1      -9.389   8.068  -0.608  0.00  0.00     0.001 A 
ATOM     33  C   UNL d   1     -10.564   8.093   0.141  0.00  0.00     0.000 A 
ATOM     34  C   UNL d   1     -10.819   7.072   1.050  0.00  0.00     0.001 A 
ATOM     35  C   UNL d   1      -9.897   6.032   1.216  0.00  0.00     0.013 A 
ENDBRANCH  25  30
ENDBRANCH   1  22
TORSDOF 7
