REMARK  7 active torsions:
REMARK  status: ('A' for Active; 'I' for Inactive)
REMARK    1  A    between atoms: N_7  and  S_1 
REMARK    2  A    between atoms: C_8  and  S_1 
REMARK    3  A    between atoms: C_9  and  C_2 
REMARK    4  A    between atoms: C_3  and  N_7 
REMARK    5  A    between atoms: C_12  and  C_5 
REMARK    6  A    between atoms: O_21  and  C_9 
REMARK    7  A    between atoms: C_14  and  C_15 
ROOT
ATOM      1  C   UNL d   1       2.128   2.991  -0.226  0.00  0.00     0.103 A 
ATOM      2  C   UNL d   1       0.882   2.510  -0.594  0.00  0.00     0.047 A 
ATOM      3  S   UNL d   1       2.022   4.629   0.287  0.00  0.00    -0.082 SA
ATOM      4  C   UNL d   1       0.350   4.740  -0.057  0.00  0.00     0.018 A 
ATOM      5  C   UNL d   1      -0.113   3.539  -0.560  0.00  0.00     0.045 A 
ENDROOT
BRANCH   2   6
ATOM      6  N   UNL d   1       0.554   1.206  -1.015  0.00  0.00    -0.180 NA
ATOM      7  H   UNL d   1      -0.167   1.113  -1.733  0.00  0.00     0.146 HD
BRANCH   6   8
ATOM      8  S   UNL d   1       0.278  -0.006   0.158  0.00  0.00     0.248 S 
ATOM      9  O   UNL d   1       1.384  -0.019   1.089  0.00  0.00    -0.205 OA
ATOM     10  O   UNL d   1      -0.126  -1.203  -0.547  0.00  0.00    -0.205 OA
BRANCH   8  11
ATOM     11  C   UNL d   1      -1.142   0.589   1.024  0.00  0.00     0.113 A 
ATOM     12  C   UNL d   1      -2.317   0.810   0.317  0.00  0.00     0.139 A 
ATOM     13  F   UNL d   1      -2.364   0.637  -1.011  0.00  0.00    -0.204 F 
ATOM     14  C   UNL d   1      -3.456   1.270   0.972  0.00  0.00     0.044 A 
ATOM     15  C   UNL d   1      -3.416   1.506   2.347  0.00  0.00     0.003 A 
ATOM     16  C   UNL d   1      -2.236   1.285   3.060  0.00  0.00     0.002 A 
ATOM     17  C   UNL d   1      -1.092   0.823   2.401  0.00  0.00     0.028 A 
ENDBRANCH   8  11
ENDBRANCH   6   8
ENDBRANCH   2   6
BRANCH   1  18
ATOM     18  C   UNL d   1       3.450   2.379  -0.222  0.00  0.00     0.301 C 
ATOM     19  O   UNL d   1       4.485   2.918   0.157  0.00  0.00    -0.259 OA
BRANCH  18  20
ATOM     20  O   UNL d   1       3.404   1.125  -0.751  0.00  0.00    -0.322 OA
ATOM     21  C   UNL d   1       4.637   0.401  -0.749  0.00  0.00     0.213 C 
ENDBRANCH  18  20
ENDBRANCH   1  18
BRANCH   4  22
ATOM     22  C   UNL d   1      -0.399   5.980   0.209  0.00  0.00    -0.019 A 
ATOM     23  C   UNL d   1      -1.728   5.927   0.647  0.00  0.00     0.013 A 
ATOM     24  C   UNL d   1      -2.458   7.101   0.893  0.00  0.00     0.009 A 
ATOM     25  C   UNL d   1      -1.890   8.374   0.707  0.00  0.00    -0.051 A 
ATOM     26  C   UNL d   1      -0.555   8.416   0.280  0.00  0.00     0.009 A 
ATOM     27  C   UNL d   1       0.174   7.244   0.032  0.00  0.00     0.013 A 
BRANCH  25  28
ATOM     28  C   UNL d   1      -2.725   9.647   0.939  0.00  0.00    -0.024 C 
ATOM     29  C   UNL d   1      -1.945  10.954   0.669  0.00  0.00     0.019 C 
ATOM     30  C   UNL d   1      -3.945   9.641  -0.007  0.00  0.00     0.019 C 
ATOM     31  C   UNL d   1      -3.223   9.708   2.399  0.00  0.00     0.019 C 
ENDBRANCH  25  28
ENDBRANCH   4  22
TORSDOF 7
