REMARK  6 active torsions:
REMARK  status: ('A' for Active; 'I' for Inactive)
REMARK    1  A    between atoms: N_2  and  S_1 
REMARK    2  A    between atoms: C_4  and  S_1 
REMARK    3  A    between atoms: C_3  and  N_7 
REMARK    4  A    between atoms: N_9  and  C_3 
REMARK    5  A    between atoms: N_7  and  C_12 
REMARK    6  A    between atoms: N_13  and  N_9 
ROOT
ATOM      1  C   UNL d   1       0.607  -0.886  -1.605  0.00  0.00     0.079 A 
ATOM      2  C   UNL d   1       0.842  -2.264  -1.596  0.00  0.00     0.027 A 
ATOM      3  C   UNL d   1      -0.021  -0.297  -2.707  0.00  0.00     0.027 A 
ATOM      4  C   UNL d   1      -0.102  -2.459  -3.827  0.00  0.00     0.034 A 
ATOM      5  C   UNL d   1       0.492  -3.042  -2.706  0.00  0.00     0.031 A 
ATOM      6  C   UNL d   1      -0.385  -1.086  -3.808  0.00  0.00     0.031 A 
ENDROOT
BRANCH   1   7
ATOM      7  S   UNL d   1       0.910   0.064  -0.122  0.00  0.00     0.260 S 
ATOM      8  O   UNL d   1       0.085   1.253  -0.202  0.00  0.00    -0.200 OA
ATOM      9  O   UNL d   1       0.784  -0.850   0.993  0.00  0.00    -0.200 OA
BRANCH   7  10
ATOM     10  N   UNL d   1       2.543   0.543  -0.231  0.00  0.00    -0.307 N 
ATOM     11  C   UNL d   1       3.557  -0.538  -0.160  0.00  0.00     0.135 C 
ATOM     12  C   UNL d   1       4.941   0.045   0.129  0.00  0.00     0.021 C 
ATOM     13  C   UNL d   1       5.309   1.131  -0.876  0.00  0.00     0.003 C 
ATOM     14  C   UNL d   1       4.232   2.208  -0.892  0.00  0.00     0.021 C 
ATOM     15  C   UNL d   1       2.862   1.609  -1.208  0.00  0.00     0.135 C 
ENDBRANCH   7  10
ENDBRANCH   1   7
BRANCH   4  16
ATOM     16  N   UNL d   1      -0.523  -3.212  -4.947  0.00  0.00    -0.332 N 
ATOM     17  H   UNL d   1      -1.160  -2.743  -5.580  0.00  0.00     0.168 HD
BRANCH  16  18
ATOM     18  C   UNL d   1       0.032  -4.376  -5.475  0.00  0.00     0.186 C 
ATOM     19  S   UNL d   1       1.605  -4.922  -5.265  0.00  0.00    -0.040 SA
BRANCH  18  20
ATOM     20  N   UNL d   1      -0.895  -5.011  -6.317  0.00  0.00    -0.300 N 
ATOM     21  H   UNL d   1      -1.880  -4.824  -6.133  0.00  0.00     0.183 HD
BRANCH  20  22
ATOM     22  N   UNL d   1      -0.604  -6.243  -6.951  0.00  0.00    -0.248 NA
ATOM     23  H   UNL d   1       0.199  -6.662  -6.463  0.00  0.00     0.143 HD
ATOM     24  H   UNL d   1      -0.241  -6.035  -7.886  0.00  0.00     0.143 HD
ENDBRANCH  20  22
ENDBRANCH  18  20
ENDBRANCH  16  18
ENDBRANCH   4  16
TORSDOF 6
