REMARK  3 active torsions:
REMARK  status: ('A' for Active; 'I' for Inactive)
REMARK    1  A    between atoms: S_8  and  C_2 
REMARK    2  A    between atoms: C_10  and  S_8 
REMARK    3  A    between atoms: C_12  and  C_10 
ROOT
ATOM      1  S   UNL d   1      -1.393   0.288   0.060  0.00  0.00    -0.027 SA
ATOM      2  C   UNL d   1       0.060   1.191   0.018  0.00  0.00     0.130 A 
ATOM      3  C   UNL d   1      -0.427  -1.141   0.064  0.00  0.00     0.161 A 
ATOM      4  N   UNL d   1       1.151   0.460  -0.003  0.00  0.00    -0.286 N 
ATOM      5  HN  UNL d   1       2.096   0.844  -0.034  1.00  0.00     0.188 HD
ATOM      6  N   UNL d   1       0.866  -0.891   0.024  0.00  0.00    -0.279 N 
ATOM      7  HN  UNL d   1       1.581  -1.619   0.014  1.00  0.00     0.189 HD
ATOM      8  N   UNL d   1      -1.012  -2.357   0.114  0.00  0.00    -0.374 N 
ATOM      9  C   UNL d   1      -0.242  -3.573   0.040  0.00  0.00     0.148 C 
ATOM     10  H   UNL d   1      -2.021  -2.438   0.069  0.00  0.00     0.161 HD
ENDROOT
BRANCH   2  11
ATOM     11  S   UNL d   1       0.089   2.939   0.002  0.00  0.00    -0.099 SA
BRANCH  11  12
ATOM     12  C   UNL d   1       1.880   3.234  -0.042  0.00  0.00     0.120 C 
BRANCH  12  13
ATOM     13  C   UNL d   1       2.200   4.710  -0.089  0.00  0.00    -0.048 A 
ATOM     14  C   UNL d   1       2.392   5.438   1.095  0.00  0.00     0.009 A 
ATOM     15  C   UNL d   1       2.695   6.801   1.049  0.00  0.00     0.024 A 
ATOM     16  C   UNL d   1       2.799   7.446  -0.181  0.00  0.00     0.034 A 
ATOM     17  C   UNL d   1       2.599   6.742  -1.366  0.00  0.00     0.024 A 
ATOM     18 CL   UNL d   1       3.180   9.123  -0.238  0.00  0.00    -0.084 Cl
ATOM     19  C   UNL d   1       2.297   5.378  -1.320  0.00  0.00     0.009 A 
ENDBRANCH  12  13
ENDBRANCH  11  12
ENDBRANCH   2  11
TORSDOF 3
