REMARK  2 active torsions:
REMARK  status: ('A' for Active; 'I' for Inactive)
REMARK    1  A    between atoms: C_5  and  C_1 
REMARK    2  A    between atoms: S_11  and  C_4 
ROOT
ATOM      1  N   UNL d   1       0.609   2.546   0.471  0.00  0.00    -0.333 N 
ATOM      2  HN  UNL d   1       0.861   2.743  -0.497  1.00  0.00     0.168 HD
ATOM      3  C   UNL d   1       0.330   3.532   1.337  0.00  0.00     0.141 A 
ATOM      4  C   UNL d   1       0.539   1.273   0.943  0.00  0.00     0.119 A 
ATOM      5  N   UNL d   1      -0.010   3.356   2.622  0.00  0.00    -0.347 N 
ATOM      6  HN  UNL d   1      -0.209   4.144   3.237  1.00  0.00     0.167 HD
ATOM      7  C   UNL d   1       0.190   1.000   2.256  0.00  0.00     0.051 A 
ATOM      8  C   UNL d   1      -0.074   2.087   3.055  0.00  0.00     0.092 A 
ENDROOT
BRANCH   4   9
ATOM      9  C   UNL d   1       0.850   0.111   0.013  0.00  0.00     0.432 C 
ATOM     10  F   UNL d   1       1.223   0.482  -1.244  0.00  0.00    -0.165 F 
ATOM     11  F   UNL d   1      -0.216  -0.725  -0.144  0.00  0.00    -0.165 F 
ATOM     12  F   UNL d   1       1.862  -0.673   0.486  0.00  0.00    -0.165 F 
ENDBRANCH   4   9
BRANCH   3  13
ATOM     13  S   UNL d   1       0.417   5.184   0.720  0.00  0.00    -0.107 SA
ATOM     14  H   UNL d   1       0.703   4.797  -0.528  0.00  0.00     0.110 HD
ENDBRANCH   3  13
TORSDOF 2
