REMARK  3 active torsions:
REMARK  status: ('A' for Active; 'I' for Inactive)
REMARK    1  A    between atoms: C_15  and  N_3 
REMARK    2  A    between atoms: C_19  and  N_5 
REMARK    3  A    between atoms: O_16  and  N_11 
ROOT
ATOM      1  C   UNL d   1       1.065  -0.886   0.017  0.00  0.00     0.139 A 
ATOM      2  C   UNL d   1       0.480   0.347   0.019  0.00  0.00     0.109 A 
ATOM      3  N   UNL d   1       2.482  -0.960  -0.048  0.00  0.00    -0.248 N 
ATOM      4  C   UNL d   1       3.311   0.197  -0.103  0.00  0.00     0.342 A 
ATOM      5  N   UNL d   1       2.673   1.428   0.013  0.00  0.00    -0.229 N 
ATOM      6  C   UNL d   1      -0.951   0.482  -0.005  0.00  0.00     0.113 A 
ATOM      7  C   UNL d   1      -1.732  -0.665  -0.044  0.00  0.00     0.187 A 
ATOM      8  N   UNL d   1       0.197  -2.039   0.112  0.00  0.00    -0.301 N 
ATOM      9  C   UNL d   1       1.304   1.587   0.096  0.00  0.00     0.272 A 
ATOM     10  C   UNL d   1      -1.222  -1.978  -0.015  0.00  0.00     0.282 C 
ATOM     11  N   UNL d   1      -3.008  -0.306  -0.066  0.00  0.00    -0.094 N 
ATOM     12  N   UNL d   1      -1.717   1.575  -0.019  0.00  0.00    -0.236 N 
ATOM     13  HN  UNL d   1      -1.399   2.544  -0.012  1.00  0.00     0.197 HD
ATOM     14  O   UNL d   1      -3.037   1.129  -0.046  0.00  0.00    -0.127 OA
ATOM     15  O   UNL d   1       4.537   0.115  -0.230  0.00  0.00    -0.245 OA
ATOM     16  O   UNL d   1       0.760   2.685   0.204  0.00  0.00    -0.266 OA
ATOM     17  O   UNL d   1      -1.946  -2.960  -0.068  0.00  0.00    -0.265 OA
ATOM     18  C   UNL d   1       0.632  -3.392   0.435  0.00  0.00     0.161 C 
ENDROOT
BRANCH   3  19
ATOM     19  C   UNL d   1       3.233  -2.181  -0.151  0.00  0.00     0.045 A 
ATOM     20  C   UNL d   1       4.159  -2.506   0.857  0.00  0.00     0.030 A 
ATOM     21  C   UNL d   1       4.808  -3.740   0.852  0.00  0.00     0.002 A 
ATOM     22  C   UNL d   1       4.549  -4.654  -0.167  0.00  0.00     0.000 A 
ATOM     23  C   UNL d   1       3.685  -4.314  -1.208  0.00  0.00     0.002 A 
ATOM     24  C   UNL d   1       3.045  -3.070  -1.216  0.00  0.00     0.030 A 
ENDBRANCH   3  19
BRANCH   5  25
ATOM     25  C   UNL d   1       3.483   2.616   0.025  0.00  0.00     0.047 A 
ATOM     26  C   UNL d   1       4.378   2.880  -1.021  0.00  0.00     0.030 A 
ATOM     27  C   UNL d   1       5.146   4.048  -1.018  0.00  0.00     0.002 A 
ATOM     28  C   UNL d   1       5.050   4.946   0.043  0.00  0.00     0.000 A 
ATOM     29  C   UNL d   1       4.172   4.688   1.094  0.00  0.00     0.002 A 
ATOM     30  C   UNL d   1       3.380   3.537   1.078  0.00  0.00     0.030 A 
ENDBRANCH   5  25
BRANCH  11  31
ATOM     31  O   UNL d   1      -4.116  -0.881  -0.069  0.00  0.00    -0.261 OA
ATOM     32  HO  UNL d   1      -5.031  -0.624  -0.085  1.00  0.00     0.247 HD
ENDBRANCH  11  31
TORSDOF 3
