REMARK  2 active torsions:
REMARK  status: ('A' for Active; 'I' for Inactive)
REMARK    1  A    between atoms: N_7  and  C_1 
REMARK    2  A    between atoms: N_8  and  C_2 
ROOT
ATOM      1  C   UNL d   1      -0.699  -1.284   0.028  0.00  0.00     0.171 A 
ATOM      2  C   UNL d   1       0.693  -1.327  -0.003  0.00  0.00     0.155 A 
ATOM      3  N   UNL d   1       1.053   0.016  -0.024  0.00  0.00    -0.279 N 
ATOM      4  N   UNL d   1       0.003   0.868   0.013  0.00  0.00    -0.299 N 
ATOM      5  HN  UNL d   1       0.028   1.888   0.032  1.00  0.00     0.187 HD
ATOM      6  C   UNL d   1      -1.073   0.076   0.017  0.00  0.00     0.059 A 
ATOM      7  C   UNL d   1       2.350   0.633  -0.166  0.00  0.00     0.179 C 
ATOM      8  C   UNL d   1      -2.432   0.673   0.034  0.00  0.00     0.072 C 
ENDROOT
BRANCH   2   9
ATOM      9  N   UNL d   1       1.577  -2.378  -0.051  0.00  0.00    -0.360 N 
ATOM     10  C   UNL d   1       2.913  -2.378   0.567  0.00  0.00     0.151 C 
ATOM     11  C   UNL d   1       3.160  -3.686   1.340  0.00  0.00     0.187 C 
ATOM     12  O   UNL d   1       2.932  -4.844   0.523  0.00  0.00    -0.388 OA
ATOM     13  C   UNL d   1       1.572  -4.850   0.056  0.00  0.00     0.187 C 
ATOM     14  C   UNL d   1       1.288  -3.615  -0.810  0.00  0.00     0.151 C 
ENDBRANCH   2   9
BRANCH   1  15
ATOM     15  N   UNL d   1      -1.607  -2.381   0.091  0.00  0.00    -0.110 N 
ATOM     16  O   UNL d   1      -1.401  -3.247   0.951  0.00  0.00    -0.532 OA
ATOM     17  O   UNL d   1      -2.544  -2.374  -0.720  0.00  0.00    -0.532 OA
ENDBRANCH   1  15
TORSDOF 2
