REMARK  3 active torsions:
REMARK  status: ('A' for Active; 'I' for Inactive)
REMARK    1  A    between atoms: C_8  and  N_1 
REMARK    2  A    between atoms: C_5  and  C_4 
REMARK    3  A    between atoms: C_11  and  C_6 
ROOT
ATOM      1  N   UNL d   1       0.149  -1.114   0.029  0.00  0.00    -0.283 N 
ATOM      2  N   UNL d   1       1.155  -0.194  -0.050  0.00  0.00    -0.301 N 
ATOM      3  HN  UNL d   1       2.155  -0.392  -0.096  1.00  0.00     0.187 HD
ATOM      4  C   UNL d   1      -1.185  -0.517   0.043  0.00  0.00     0.150 A 
ATOM      5  C   UNL d   1       0.598   0.983  -0.054  0.00  0.00     0.038 A 
ATOM      6  C   UNL d   1      -0.904   0.982   0.043  0.00  0.00     0.091 A 
ENDROOT
BRANCH   4   7
ATOM      7  C   UNL d   1      -2.077  -0.952   1.202  0.00  0.00     0.010 A 
ATOM      8  C   UNL d   1      -1.613  -1.200   2.512  0.00  0.00     0.044 A 
ATOM      9 CL   UNL d   1      -0.008  -0.848   3.058  0.00  0.00    -0.084 Cl
ATOM     10  C   UNL d   1      -2.470  -1.704   3.503  0.00  0.00     0.024 A 
ATOM     11  C   UNL d   1      -3.818  -1.911   3.239  0.00  0.00     0.003 A 
ATOM     12  C   UNL d   1      -4.318  -1.594   1.983  0.00  0.00     0.024 A 
ATOM     13  C   UNL d   1      -3.463  -1.121   0.979  0.00  0.00     0.044 A 
ATOM     14 CL   UNL d   1      -4.215  -0.724  -0.531  0.00  0.00    -0.084 Cl
ENDBRANCH   4   7
BRANCH   1  15
ATOM     15  C   UNL d   1       0.415  -2.480  -0.007  0.00  0.00     0.051 A 
ATOM     16  C   UNL d   1       1.636  -2.981   0.471  0.00  0.00     0.031 A 
ATOM     17  C   UNL d   1       1.892  -4.354   0.534  0.00  0.00     0.002 A 
ATOM     18  C   UNL d   1       0.937  -5.260   0.082  0.00  0.00     0.000 A 
ATOM     19  C   UNL d   1      -0.268  -4.790  -0.430  0.00  0.00     0.002 A 
ATOM     20  C   UNL d   1      -0.524  -3.416  -0.469  0.00  0.00     0.031 A 
ENDBRANCH   1  15
BRANCH   5  21
ATOM     21  C   UNL d   1       1.363   2.247  -0.160  0.00  0.00    -0.012 A 
ATOM     22  C   UNL d   1       2.762   2.197  -0.181  0.00  0.00     0.013 A 
ATOM     23  C   UNL d   1       3.506   3.372  -0.312  0.00  0.00     0.001 A 
ATOM     24  C   UNL d   1       2.857   4.601  -0.425  0.00  0.00     0.000 A 
ATOM     25  C   UNL d   1       1.464   4.659  -0.397  0.00  0.00     0.001 A 
ATOM     26  C   UNL d   1       0.717   3.486  -0.263  0.00  0.00     0.013 A 
ENDBRANCH   5  21
TORSDOF 3
