REMARK  5 active torsions:
REMARK  status: ('A' for Active; 'I' for Inactive)
REMARK       I    between atoms: C_3  and  N_1 
REMARK    1  A    between atoms: C_10  and  C_2 
REMARK       I    between atoms: N_11  and  C_3 
REMARK    2  A    between atoms: S_9  and  C_6 
REMARK    3  A    between atoms: C_19  and  S_9 
REMARK    4  A    between atoms: C_13  and  C_14 
REMARK    5  A    between atoms: C_20  and  C_19 
ROOT
ATOM      1  N   UNL d   1      -0.308  -1.278   0.202  0.00  0.00    -0.225 N 
ATOM      2  C   UNL d   1       0.941  -0.671   0.292  0.00  0.00     0.143 C 
ATOM      3  C   UNL d   1      -0.560  -2.641   0.127  0.00  0.00     0.331 C 
ATOM      4  N   UNL d   1       0.747   0.616   0.555  0.00  0.00    -0.282 N 
ATOM      5  HN  UNL d   1       1.469   1.286   0.819  1.00  0.00     0.188 HD
ATOM      6  C   UNL d   1      -1.197  -0.230   0.103  0.00  0.00     0.171 C 
ATOM      7  N   UNL d   1      -0.588   0.892   0.412  0.00  0.00    -0.278 N 
ATOM      8  HN  UNL d   1      -1.029   1.804   0.526  1.00  0.00     0.189 HD
ATOM      9  N   UNL d   1      -0.305  -3.336   1.310  0.00  0.00    -0.342 N 
ATOM     10  O   UNL d   1      -0.886  -3.108  -0.951  0.00  0.00    -0.246 OA
ATOM     11  C   UNL d   1      -0.371  -4.788   1.271  0.00  0.00     0.154 C 
ATOM     12  C   UNL d   1       0.034  -2.759   2.608  0.00  0.00     0.154 C 
ENDROOT
BRANCH   2  13
ATOM     13  C   UNL d   1       2.263  -1.301   0.149  0.00  0.00     0.010 A 
ATOM     14  C   UNL d   1       2.495  -2.497  -0.540  0.00  0.00     0.016 A 
ATOM     15  C   UNL d   1       3.783  -3.051  -0.613  0.00  0.00     0.009 A 
ATOM     16  C   UNL d   1       4.892  -2.419  -0.023  0.00  0.00    -0.051 A 
ATOM     17  C   UNL d   1       4.660  -1.187   0.602  0.00  0.00     0.009 A 
ATOM     18  C   UNL d   1       3.373  -0.642   0.687  0.00  0.00     0.016 A 
BRANCH  16  19
ATOM     19  C   UNL d   1       6.280  -3.083  -0.049  0.00  0.00    -0.024 C 
ATOM     20  C   UNL d   1       7.377  -2.247   0.649  0.00  0.00     0.019 C 
ATOM     21  C   UNL d   1       6.202  -4.438   0.688  0.00  0.00     0.019 C 
ATOM     22  C   UNL d   1       6.742  -3.322  -1.501  0.00  0.00     0.019 C 
ENDBRANCH  16  19
ENDBRANCH   2  13
BRANCH   6  23
ATOM     23  S   UNL d   1      -2.826  -0.290  -0.472  0.00  0.00    -0.087 SA
BRANCH  23  24
ATOM     24  C   UNL d   1      -3.769  -0.975   0.914  0.00  0.00     0.121 C 
BRANCH  24  25
ATOM     25  C   UNL d   1      -4.199  -2.424   0.789  0.00  0.00    -0.049 A 
ATOM     26  C   UNL d   1      -3.857  -3.249  -0.292  0.00  0.00     0.008 A 
ATOM     27  C   UNL d   1      -4.206  -4.599  -0.320  0.00  0.00     0.001 A 
ATOM     28  C   UNL d   1      -4.959  -5.143   0.712  0.00  0.00     0.000 A 
ATOM     29  C   UNL d   1      -5.368  -4.330   1.766  0.00  0.00     0.001 A 
ATOM     30  C   UNL d   1      -4.987  -2.985   1.809  0.00  0.00     0.008 A 
ENDBRANCH  24  25
ENDBRANCH  23  24
ENDBRANCH   6  23
TORSDOF 5
