REMARK  3 active torsions:
REMARK  status: ('A' for Active; 'I' for Inactive)
REMARK    1  A    between atoms: C_8  and  N_1 
REMARK    2  A    between atoms: C_10  and  C_4 
REMARK    3  A    between atoms: C_13  and  C_8 
ROOT
ATOM      1  N   UNL d   1       1.140  -1.410  -0.075  0.00  0.00    -0.330 N 
ATOM      2  N   UNL d   1       2.504   0.531   0.093  0.00  0.00    -0.332 N 
ATOM      3  HN  UNL d   1       3.439   0.934   0.152  1.00  0.00     0.168 HD
ATOM      4  C   UNL d   1       2.390  -0.765   0.027  0.00  0.00     0.119 A 
ATOM      5  C   UNL d   1       0.061   0.749   0.054  0.00  0.00     0.003 A 
ATOM      6  C   UNL d   1       1.428   1.377   0.088  0.00  0.00     0.110 A 
ATOM      7  C   UNL d   1      -0.019  -0.599   0.011  0.00  0.00     0.023 A 
ATOM      8  S   UNL d   1       1.709   3.049   0.155  0.00  0.00    -0.060 SA
ATOM      9  C   UNL d   1      -1.149   1.659   0.067  0.00  0.00     0.044 C 
ATOM     10  C   UNL d   1      -1.388  -1.270   0.078  0.00  0.00     0.058 C 
ATOM     11  C   UNL d   1      -2.455   0.956  -0.288  0.00  0.00     0.005 C 
ATOM     12  C   UNL d   1      -2.551  -0.357   0.463  0.00  0.00     0.006 C 
ENDROOT
BRANCH   1  13
ATOM     13  C   UNL d   1       1.008  -2.877  -0.283  0.00  0.00     0.187 C 
BRANCH  13  14
ATOM     14  C   UNL d   1       1.801  -3.458  -1.433  0.00  0.00     0.027 A 
ATOM     15  N   UNL d   1       2.390  -4.665  -1.212  0.00  0.00    -0.368 N 
ATOM     16  C   UNL d   1       3.141  -5.184  -2.206  0.00  0.00     0.088 A 
ATOM     17  HN  UNL d   1       2.269  -5.158  -0.327  1.00  0.00     0.165 HD
ATOM     18  C   UNL d   1       3.307  -4.578  -3.439  0.00  0.00     0.017 A 
ATOM     19  C   UNL d   1       2.656  -3.378  -3.670  0.00  0.00     0.003 A 
ATOM     20  C   UNL d   1       1.880  -2.808  -2.665  0.00  0.00     0.027 A 
ENDBRANCH  13  14
ENDBRANCH   1  13
BRANCH   4  21
ATOM     21  C   UNL d   1       3.737  -1.464   0.049  0.00  0.00     0.008 A 
ATOM     22  C   UNL d   1       3.969  -2.668   0.716  0.00  0.00     0.015 A 
ATOM     23  C   UNL d   1       5.223  -3.286   0.653  0.00  0.00     0.001 A 
ATOM     24  C   UNL d   1       6.282  -2.665  -0.003  0.00  0.00     0.000 A 
ATOM     25  C   UNL d   1       6.090  -1.424  -0.601  0.00  0.00     0.001 A 
ATOM     26  C   UNL d   1       4.823  -0.833  -0.585  0.00  0.00     0.015 A 
ENDBRANCH   4  21
TORSDOF 3
