REMARK  6 active torsions:
REMARK  status: ('A' for Active; 'I' for Inactive)
REMARK    1  A    between atoms: C_3  and  C_1 
REMARK    2  A    between atoms: N_5  and  C_2 
REMARK       I    between atoms: N_11  and  C_3 
REMARK       I    between atoms: C_8  and  N_5 
REMARK    3  A    between atoms: C_18  and  C_8 
REMARK    4  A    between atoms: S_12  and  C_18 
REMARK    5  A    between atoms: C_21  and  S_12 
REMARK    6  A    between atoms: C_14  and  C_21 
ROOT
ATOM      1  N   UNL d   1       2.086   3.288   1.621  0.00  0.00    -0.325 N 
ATOM      2  C   UNL d   1       3.030   2.791   0.744  0.00  0.00     0.231 C 
ATOM      3  O   UNL d   1       3.168   1.599   0.467  0.00  0.00    -0.272 OA
ATOM      4  H   UNL d   1       1.793   4.259   1.488  0.00  0.00     0.169 HD
ENDROOT
BRANCH   1   5
ATOM      5  C   UNL d   1       1.258   2.470   2.393  0.00  0.00     0.058 A 
ATOM      6  C   UNL d   1      -0.020   2.843   2.785  0.00  0.00     0.099 A 
ATOM      7  S   UNL d   1      -0.772   1.619   3.730  0.00  0.00    -0.094 SA
ATOM      8  C   UNL d   1       0.587   0.599   3.624  0.00  0.00     0.053 A 
ATOM      9  C   UNL d   1       1.597   1.170   2.885  0.00  0.00     0.038 A 
BRANCH   6  10
ATOM     10  C   UNL d   1      -0.731   4.059   2.433  0.00  0.00     0.258 C 
ATOM     11  O   UNL d   1      -0.207   5.009   1.846  0.00  0.00    -0.267 OA
ATOM     12  N   UNL d   1      -2.062   4.122   2.745  0.00  0.00    -0.365 N 
ATOM     13  H   UNL d   1      -2.545   3.323   3.134  0.00  0.00     0.159 HD
ATOM     14  H   UNL d   1      -2.592   4.909   2.404  0.00  0.00     0.159 HD
ENDBRANCH   6  10
ENDBRANCH   1   5
BRANCH   2  15
ATOM     15  C   UNL d   1       4.003   3.812   0.174  0.00  0.00     0.177 C 
BRANCH  15  16
ATOM     16  S   UNL d   1       3.261   5.426  -0.198  0.00  0.00    -0.155 SA
BRANCH  16  17
ATOM     17  C   UNL d   1       4.754   6.243  -0.848  0.00  0.00     0.112 C 
BRANCH  17  18
ATOM     18  C   UNL d   1       4.472   7.649  -1.317  0.00  0.00    -0.049 A 
ATOM     19  C   UNL d   1       4.527   8.726  -0.420  0.00  0.00     0.009 A 
ATOM     20  C   UNL d   1       4.269  10.029  -0.857  0.00  0.00     0.024 A 
ATOM     21  C   UNL d   1       3.951  10.260  -2.194  0.00  0.00     0.034 A 
ATOM     22  C   UNL d   1       3.885   9.203  -3.093  0.00  0.00     0.024 A 
ATOM     23 CL   UNL d   1       3.639  11.865  -2.732  0.00  0.00    -0.084 Cl
ATOM     24  C   UNL d   1       4.140   7.899  -2.658  0.00  0.00     0.009 A 
ENDBRANCH  17  18
ENDBRANCH  16  17
ENDBRANCH  15  16
ENDBRANCH   2  15
TORSDOF 6
