REMARK  6 active torsions:
REMARK  status: ('A' for Active; 'I' for Inactive)
REMARK    1  A    between atoms: N_2  and  C_1 
REMARK    2  A    between atoms: N_8  and  C_1 
REMARK    3  A    between atoms: C_3  and  N_2 
REMARK    4  A    between atoms: N_5  and  N_8 
REMARK    5  A    between atoms: C_14  and  C_13 
REMARK    6  A    between atoms: O_21  and  C_16 
ROOT
ATOM      1  N   UNL d   1      -0.715   5.646   1.986  0.00  0.00    -0.277 N 
ATOM      2  H   UNL d   1      -1.089   6.463   1.514  0.00  0.00     0.189 HD
ENDROOT
BRANCH   1   3
ATOM      3  N   UNL d   1      -0.888   5.484   3.334  0.00  0.00    -0.309 N 
ATOM      4  C   UNL d   1      -1.534   6.462   3.897  0.00  0.00     0.118 C 
ATOM      5  HN  UNL d   1      -0.543   4.674   3.848  1.00  0.00     0.186 HD
BRANCH   4   6
ATOM      6  C   UNL d   1      -1.829   6.495   5.343  0.00  0.00    -0.019 A 
ATOM      7  C   UNL d   1      -1.413   5.464   6.186  0.00  0.00     0.015 A 
ATOM      8  C   UNL d   1      -1.702   5.520   7.555  0.00  0.00     0.037 A 
ATOM      9  C   UNL d   1      -2.407   6.604   8.082  0.00  0.00     0.068 A 
ATOM     10  C   UNL d   1      -2.820   7.632   7.229  0.00  0.00     0.037 A 
ATOM     11  C   UNL d   1      -2.535   7.583   5.862  0.00  0.00     0.015 A 
BRANCH   9  12
ATOM     12  O   UNL d   1      -2.754   6.775   9.393  0.00  0.00    -0.356 OA
ATOM     13  C   UNL d   1      -2.348   5.759  10.303  0.00  0.00     0.210 C 
ENDBRANCH   9  12
ENDBRANCH   4   6
ENDBRANCH   1   3
BRANCH   1  14
ATOM     14  C   UNL d   1      -0.156   4.674   1.188  0.00  0.00     0.186 C 
ATOM     15  S   UNL d   1      -0.110   4.919  -0.462  0.00  0.00    -0.040 SA
BRANCH  14  16
ATOM     16  N   UNL d   1       0.312   3.585   1.873  0.00  0.00    -0.361 N 
ATOM     17  H   UNL d   1       0.095   3.661   2.864  0.00  0.00     0.162 HD
BRANCH  16  18
ATOM     18  C   UNL d   1       0.576   2.262   1.315  0.00  0.00     0.088 C 
ATOM     19  C   UNL d   1      -0.659   1.344   1.484  0.00  0.00     0.009 C 
ATOM     20  C   UNL d   1      -0.444   0.759   2.884  0.00  0.00     0.011 C 
ATOM     21  C   UNL d   1      -0.470   0.099   0.601  0.00  0.00     0.007 C 
ATOM     22  C   UNL d   1       0.944   0.220   2.547  0.00  0.00    -0.012 C 
ATOM     23  C   UNL d   1       1.671   1.498   2.086  0.00  0.00     0.030 C 
ATOM     24  C   UNL d   1       0.646  -0.668   1.325  0.00  0.00     0.005 C 
ENDBRANCH  16  18
ENDBRANCH  14  16
ENDBRANCH   1  14
TORSDOF 6
