REMARK  4 active torsions:
REMARK  status: ('A' for Active; 'I' for Inactive)
REMARK    1  A    between atoms: C_5  and  C_1 
REMARK    2  A    between atoms: C_12  and  N_2 
REMARK    3  A    between atoms: C_13  and  N_3 
REMARK    4  A    between atoms: N_4  and  C_8 
ROOT
ATOM      1  C   UNL d   1      -0.188  -1.184  -0.099  0.00  0.00     0.221 C 
ATOM      2  N   UNL d   1      -1.211  -0.129  -0.219  0.00  0.00    -0.354 N 
ATOM      3  N   UNL d   1       1.058  -0.470   0.234  0.00  0.00    -0.354 N 
ATOM      4  C   UNL d   1       0.874   0.965   0.052  0.00  0.00     0.145 C 
ATOM      5  C   UNL d   1      -0.634   1.166   0.138  0.00  0.00     0.145 C 
ENDROOT
BRANCH   1   6
ATOM      6  C   UNL d   1      -0.069  -1.915  -1.438  0.00  0.00    -0.014 A 
ATOM      7  C   UNL d   1       0.277  -1.216  -2.611  0.00  0.00     0.047 A 
ATOM      8  C   UNL d   1       0.377  -1.884  -3.834  0.00  0.00     0.103 A 
ATOM      9  C   UNL d   1       0.124  -3.256  -3.919  0.00  0.00     0.036 A 
ATOM     10  C   UNL d   1      -0.236  -3.958  -2.767  0.00  0.00     0.003 A 
ATOM     11  C   UNL d   1      -0.329  -3.294  -1.538  0.00  0.00     0.011 A 
BRANCH   8  12
ATOM     12  N   UNL d   1       0.750  -1.128  -5.036  0.00  0.00    -0.116 N 
ATOM     13  O   UNL d   1       0.959   0.088  -4.918  0.00  0.00    -0.532 OA
ATOM     14  O   UNL d   1       0.839  -1.753  -6.103  0.00  0.00    -0.532 OA
ENDBRANCH   8  12
ENDBRANCH   1   6
BRANCH   2  15
ATOM     15  C   UNL d   1      -2.579  -0.319  -0.136  0.00  0.00     0.032 A 
ATOM     16  C   UNL d   1      -3.169  -1.576   0.061  0.00  0.00     0.029 A 
ATOM     17  C   UNL d   1      -4.562  -1.743   0.116  0.00  0.00     0.002 A 
ATOM     18  C   UNL d   1      -5.406  -0.654  -0.033  0.00  0.00     0.000 A 
ATOM     19  C   UNL d   1      -4.860   0.605  -0.240  0.00  0.00     0.002 A 
ATOM     20  C   UNL d   1      -3.469   0.761  -0.290  0.00  0.00     0.029 A 
ENDBRANCH   2  15
BRANCH   3  21
ATOM     21  C   UNL d   1       2.264  -1.024   0.599  0.00  0.00     0.032 A 
ATOM     22  C   UNL d   1       2.439  -2.402   0.791  0.00  0.00     0.029 A 
ATOM     23  C   UNL d   1       3.674  -2.955   1.165  0.00  0.00     0.002 A 
ATOM     24  C   UNL d   1       4.776  -2.136   1.373  0.00  0.00     0.000 A 
ATOM     25  C   UNL d   1       4.640  -0.767   1.205  0.00  0.00     0.002 A 
ATOM     26  C   UNL d   1       3.406  -0.229   0.819  0.00  0.00     0.029 A 
ENDBRANCH   3  21
TORSDOF 4
