REMARK  3 active torsions:
REMARK  status: ('A' for Active; 'I' for Inactive)
REMARK    1  A    between atoms: C_6  and  C_1 
REMARK    2  A    between atoms: O_13  and  C_6 
REMARK    3  A    between atoms: N_9  and  O_13 
ROOT
ATOM      1  C   UNL d   1      -3.742   4.699   0.192  0.00  0.00     0.008 A 
ATOM      2  N   UNL d   1      -2.465   2.637   0.249  0.00  0.00    -0.261 N 
ATOM      3  HN  UNL d   1      -1.602   3.169   0.360  1.00  0.00     0.194 HD
ATOM      4  C   UNL d   1      -3.640   3.196   0.165  0.00  0.00     0.045 C 
ATOM      5  C   UNL d   1      -4.897   5.379  -0.244  0.00  0.00     0.013 A 
ATOM      6  S   UNL d   1      -6.396   4.583  -0.800  0.00  0.00    -0.129 SA
ATOM      7  C   UNL d   1      -2.643   5.447   0.647  0.00  0.00     0.057 A 
ATOM      8  C   UNL d   1      -4.917   6.785  -0.253  0.00  0.00     0.022 A 
ATOM      9  C   UNL d   1      -2.691   6.837   0.634  0.00  0.00     0.117 A 
ATOM     10  C   UNL d   1      -4.944   2.426   0.048  0.00  0.00     0.070 C 
ATOM     11  C   UNL d   1      -5.758   2.924  -1.128  0.00  0.00     0.085 C 
ATOM     12  C   UNL d   1      -3.811   7.515   0.177  0.00  0.00     0.043 A 
ATOM     13  F   UNL d   1      -1.636   7.540   1.069  0.00  0.00    -0.206 F 
ENDROOT
BRANCH   2  14
ATOM     14  O   UNL d   1      -2.496   1.218   0.172  0.00  0.00    -0.195 OA
BRANCH  14  15
ATOM     15  C   UNL d   1      -1.213   0.691   0.248  0.00  0.00     0.319 C 
ATOM     16  O   UNL d   1      -0.194   1.345   0.420  0.00  0.00    -0.257 OA
BRANCH  15  17
ATOM     17  C   UNL d   1      -1.173  -0.762   0.098  0.00  0.00     0.096 A 
ATOM     18  C   UNL d   1      -2.208  -1.644  -0.149  0.00  0.00     0.090 A 
ATOM     19  O   UNL d   1      -1.725  -2.910  -0.232  0.00  0.00    -0.242 OA
ATOM     20  C   UNL d   1      -3.667  -1.533  -0.340  0.00  0.00     0.080 C 
ATOM     21  N   UNL d   1      -0.365  -2.904  -0.034  0.00  0.00    -0.265 N 
ATOM     22  C   UNL d   1      -0.032  -1.623   0.169  0.00  0.00     0.047 A 
ATOM     23  HN  UNL d   1       0.261  -3.709  -0.041  1.00  0.00     0.194 HD
ATOM     24  C   UNL d   1       1.393  -1.297   0.435  0.00  0.00     0.071 C 
ENDBRANCH  15  17
ENDBRANCH  14  15
ENDBRANCH   2  14
TORSDOF 3
