REMARK  1 active torsions:
REMARK  status: ('A' for Active; 'I' for Inactive)
REMARK    1  A    between atoms: C_7  and  C_3 
ROOT
ATOM      1  N   UNL d   1       1.634  -1.194   0.005  0.00  0.00    -0.334 N 
ATOM      2  HN  UNL d   1       1.974  -2.155  -0.022  1.00  0.00     0.168 HD
ATOM      3  C   UNL d   1       2.342  -0.078   0.041  0.00  0.00     0.159 A 
ATOM      4  O   UNL d   1       1.592   1.072   0.074  0.00  0.00    -0.291 OA
ATOM      5  C   UNL d   1       0.335  -0.756   0.013  0.00  0.00     0.069 A 
ATOM      6  C   UNL d   1       0.304   0.627   0.051  0.00  0.00     0.104 A 
ATOM      7  C   UNL d   1      -0.875  -1.462  -0.013  0.00  0.00     0.039 A 
ATOM      8  C   UNL d   1      -0.852   1.394   0.059  0.00  0.00     0.040 A 
ATOM      9  C   UNL d   1      -2.080  -0.732   0.003  0.00  0.00    -0.060 A 
ATOM     10  C   UNL d   1      -2.055   0.676   0.033  0.00  0.00     0.009 A 
ATOM     11  C   UNL d   1      -3.398  -1.451  -0.010  0.00  0.00     0.048 C 
ENDROOT
BRANCH   3  12
ATOM     12  C   UNL d   1       3.792   0.086   0.034  0.00  0.00     0.017 A 
ATOM     13  C   UNL d   1       4.395   1.348   0.136  0.00  0.00     0.039 A 
ATOM     14  C   UNL d   1       5.784   1.467   0.114  0.00  0.00     0.035 A 
ATOM     15 CL   UNL d   1       6.508   3.023   0.239  0.00  0.00    -0.084 Cl
ATOM     16  C   UNL d   1       6.592   0.338  -0.010  0.00  0.00     0.024 A 
ATOM     17  C   UNL d   1       6.006  -0.922  -0.108  0.00  0.00     0.003 A 
ATOM     18  C   UNL d   1       4.615  -1.046  -0.085  0.00  0.00     0.016 A 
ENDBRANCH   3  12
TORSDOF 1
