REMARK  2 active torsions:
REMARK  status: ('A' for Active; 'I' for Inactive)
REMARK    1  A    between atoms: C_6  and  N_1 
REMARK    2  A    between atoms: C_14  and  C_7 
ROOT
ATOM      1  C   UNL d   1       0.039   2.275  -0.022  0.00  0.00     0.045 A 
ATOM      2  C   UNL d   1       0.111   5.146   0.038  0.00  0.00    -0.026 A 
ATOM      3  C   UNL d   1      -0.698   3.005   0.918  0.00  0.00     0.031 A 
ATOM      4  C   UNL d   1       0.800   3.007  -0.941  0.00  0.00     0.031 A 
ATOM      5  C   UNL d   1      -0.660   4.408   0.948  0.00  0.00     0.014 A 
ATOM      6  C   UNL d   1       0.834   4.410  -0.912  0.00  0.00     0.014 A 
ENDROOT
BRANCH   1   7
ATOM      7  N   UNL d   1       0.024   0.852  -0.036  0.00  0.00    -0.245 N 
ATOM      8  C   UNL d   1       0.956   0.058  -0.647  0.00  0.00     0.255 A 
ATOM      9  C   UNL d   1       0.578  -1.338  -0.398  0.00  0.00     0.080 A 
ATOM     10  O   UNL d   1       1.972   0.331  -1.263  0.00  0.00    -0.268 OA
ATOM     11  C   UNL d   1      -0.534  -1.336   0.330  0.00  0.00     0.080 A 
ATOM     12  C   UNL d   1      -0.909   0.061   0.576  0.00  0.00     0.255 A 
ATOM     13  O   UNL d   1      -1.923   0.338   1.197  0.00  0.00    -0.268 OA
ENDBRANCH   1   7
BRANCH   2  14
ATOM     14  C   UNL d   1       0.161   6.628   0.079  0.00  0.00    -0.026 A 
ATOM     15  C   UNL d   1       0.293   7.393  -1.094  0.00  0.00     0.012 A 
ATOM     16  C   UNL d   1       0.346   8.791  -1.056  0.00  0.00     0.001 A 
ATOM     17  C   UNL d   1       0.253   9.459   0.161  0.00  0.00     0.000 A 
ATOM     18  C   UNL d   1       0.117   8.730   1.337  0.00  0.00     0.001 A 
ATOM     19  C   UNL d   1       0.079   7.332   1.296  0.00  0.00     0.012 A 
ENDBRANCH   2  14
TORSDOF 2
