REMARK  4 active torsions:
REMARK  status: ('A' for Active; 'I' for Inactive)
REMARK    1  A    between atoms: C_6  and  C_1 
REMARK    2  A    between atoms: C_2  and  C_7 
REMARK    3  A    between atoms: C_10  and  C_3 
REMARK    4  A    between atoms: C_11  and  C_4 
ROOT
ATOM      1  S   UNL d   1       3.076  -1.692   0.146  0.00  0.00    -0.072 SA
ATOM      2  C   UNL d   1       2.290  -0.176   0.113  0.00  0.00     0.059 A 
ATOM      3  C   UNL d   1       4.624  -0.968   0.125  0.00  0.00     0.059 A 
ATOM      4  C   UNL d   1       3.189   0.867   0.073  0.00  0.00     0.030 A 
ATOM      5  C   UNL d   1       4.545   0.407   0.080  0.00  0.00     0.030 A 
ENDROOT
BRANCH   2   6
ATOM      6  C   UNL d   1       0.869  -0.055   0.117  0.00  0.00    -0.054 C 
ATOM      7  C   UNL d   1      -0.331  -0.026   0.094  0.00  0.00    -0.061 C 
BRANCH   7   8
ATOM      8  C   UNL d   1      -1.760  -0.060   0.014  0.00  0.00     0.018 A 
ATOM      9  C   UNL d   1      -2.422  -1.288  -0.046  0.00  0.00     0.021 A 
ATOM     10  C   UNL d   1      -3.810  -1.331  -0.200  0.00  0.00     0.008 A 
ATOM     11  C   UNL d   1      -4.549  -0.145  -0.294  0.00  0.00    -0.062 A 
ATOM     12  C   UNL d   1      -3.881   1.083  -0.203  0.00  0.00     0.008 A 
ATOM     13  C   UNL d   1      -6.030  -0.204  -0.528  0.00  0.00     0.048 C 
ATOM     14  C   UNL d   1      -2.492   1.125  -0.049  0.00  0.00     0.021 A 
ENDBRANCH   7   8
ENDBRANCH   2   6
BRANCH   3  15
ATOM     15  C   UNL d   1       5.824  -1.735   0.141  0.00  0.00    -0.054 C 
ATOM     16  C   UNL d   1       6.798  -2.439   0.130  0.00  0.00    -0.061 C 
BRANCH  16  17
ATOM     17  C   UNL d   1       7.919  -3.325   0.059  0.00  0.00     0.018 A 
ATOM     18  C   UNL d   1       9.209  -2.819  -0.095  0.00  0.00     0.021 A 
ATOM     19  C   UNL d   1      10.290  -3.692  -0.242  0.00  0.00     0.008 A 
ATOM     20  C   UNL d   1      10.091  -5.079  -0.237  0.00  0.00    -0.062 A 
ATOM     21  C   UNL d   1       8.797  -5.580  -0.053  0.00  0.00     0.008 A 
ATOM     22  C   UNL d   1      11.250  -6.003  -0.466  0.00  0.00     0.048 C 
ATOM     23  C   UNL d   1       7.716  -4.707   0.095  0.00  0.00     0.021 A 
ENDBRANCH  16  17
ENDBRANCH   3  15
TORSDOF 4
