REMARK  4 active torsions:
REMARK  status: ('A' for Active; 'I' for Inactive)
REMARK    1  A    between atoms: C_5  and  C_1 
REMARK    2  A    between atoms: N_4  and  C_11 
REMARK    3  A    between atoms: O_10  and  C_5 
REMARK    4  A    between atoms: C_17  and  O_10 
ROOT
ATOM      1  C   UNL d   1      -0.262  -3.467   0.800  0.00  0.00     0.309 C 
ATOM      2  O   UNL d   1      -0.074  -3.312   1.999  0.00  0.00    -0.258 OA
ENDROOT
BRANCH   1   3
ATOM      3  C   UNL d   1      -1.544  -3.722   0.186  0.00  0.00     0.122 A 
ATOM      4  C   UNL d   1      -2.803  -3.882   0.756  0.00  0.00     0.047 A 
ATOM      5  N   UNL d   1      -3.830  -4.095  -0.162  0.00  0.00    -0.298 N 
ATOM      6  C   UNL d   1      -3.190  -3.860   2.190  0.00  0.00     0.071 C 
ATOM      7  N   UNL d   1      -3.392  -4.111  -1.406  0.00  0.00    -0.269 N 
ATOM      8  HN  UNL d   1      -4.808  -4.223   0.098  1.00  0.00     0.187 HD
ATOM      9  S   UNL d   1      -1.747  -3.872  -1.513  0.00  0.00     0.010 SA
ATOM     10  HN  UNL d   1      -3.995  -4.254  -2.216  1.00  0.00     0.195 HD
ENDBRANCH   1   3
BRANCH   1  11
ATOM     11  O   UNL d   1       0.750  -3.427  -0.168  0.00  0.00    -0.275 OA
BRANCH  11  12
ATOM     12  C   UNL d   1       2.097  -3.074   0.085  0.00  0.00     0.079 A 
ATOM     13  C   UNL d   1       3.028  -3.594  -0.820  0.00  0.00     0.040 A 
ATOM     14  C   UNL d   1       4.369  -3.214  -0.734  0.00  0.00     0.039 A 
ATOM     15  C   UNL d   1       4.765  -2.304   0.256  0.00  0.00     0.103 A 
ATOM     16  C   UNL d   1       3.832  -1.798   1.173  0.00  0.00     0.039 A 
ATOM     17  C   UNL d   1       2.488  -2.181   1.082  0.00  0.00     0.040 A 
BRANCH  15  18
ATOM     18  N   UNL d   1       6.162  -1.853   0.309  0.00  0.00    -0.116 N 
ATOM     19  O   UNL d   1       6.461  -1.004   1.161  0.00  0.00    -0.532 OA
ATOM     20  O   UNL d   1       6.956  -2.338  -0.509  0.00  0.00    -0.532 OA
ENDBRANCH  15  18
ENDBRANCH  11  12
ENDBRANCH   1  11
TORSDOF 4
