REMARK  3 active torsions:
REMARK  status: ('A' for Active; 'I' for Inactive)
REMARK    1  A    between atoms: N_3  and  S_1 
REMARK    2  A    between atoms: C_8  and  S_1 
REMARK    3  A    between atoms: C_2  and  N_3 
ROOT
ATOM      1  S   UNL d   1       1.095   0.029  -0.048  0.00  0.00     0.247 S 
ATOM      2  O   UNL d   1       0.268  -0.652  -1.020  0.00  0.00    -0.205 OA
ATOM      3  O   UNL d   1       2.537   0.095  -0.168  0.00  0.00    -0.205 OA
ENDROOT
BRANCH   1   4
ATOM      4  N   UNL d   1       0.670  -0.632   1.484  0.00  0.00    -0.165 NA
ATOM      5  H   UNL d   1      -0.279  -0.988   1.329  0.00  0.00     0.147 HD
BRANCH   4   6
ATOM      6  C   UNL d   1       1.533  -1.728   1.851  0.00  0.00     0.111 A 
ATOM      7  N   UNL d   1       2.722  -1.688   2.533  0.00  0.00    -0.285 N 
ATOM      8  N   UNL d   1       3.256  -2.914   2.730  0.00  0.00    -0.309 N 
ATOM      9  C   UNL d   1       3.362  -0.543   3.131  0.00  0.00     0.179 C 
ATOM     10  C   UNL d   1       2.385  -3.737   2.143  0.00  0.00     0.110 A 
ATOM     11  HN  UNL d   1       4.122  -3.153   3.214  1.00  0.00     0.186 HD
ATOM     12  C   UNL d   1       1.282  -3.055   1.594  0.00  0.00     0.063 A 
ENDBRANCH   4   6
ENDBRANCH   1   4
BRANCH   1  13
ATOM     13  C   UNL d   1       0.496   1.696   0.107  0.00  0.00     0.074 A 
ATOM     14  C   UNL d   1       1.351   2.687   0.594  0.00  0.00     0.025 A 
ATOM     15  C   UNL d   1       0.919   4.014   0.634  0.00  0.00     0.008 A 
ATOM     16  C   UNL d   1      -0.362   4.360   0.182  0.00  0.00    -0.062 A 
ATOM     17  C   UNL d   1      -1.210   3.357  -0.309  0.00  0.00     0.008 A 
ATOM     18  C   UNL d   1      -0.793   5.798   0.196  0.00  0.00     0.048 C 
ATOM     19  C   UNL d   1      -0.782   2.026  -0.353  0.00  0.00     0.025 A 
ENDBRANCH   1  13
TORSDOF 3
