REMARK  5 active torsions:
REMARK  status: ('A' for Active; 'I' for Inactive)
REMARK    1  A    between atoms: C_2  and  C_1 
REMARK    2  A    between atoms: C_4  and  C_1 
REMARK    3  A    between atoms: C_5  and  C_1 
REMARK    4  A    between atoms: C_6  and  C_1 
REMARK    5  A    between atoms: O_7  and  C_2 
ROOT
ATOM      1  C   UNL d   1       1.089   0.094  -0.052  0.00  0.00     0.126 C 
ENDROOT
BRANCH   1   2
ATOM      2  C   UNL d   1       0.594  -0.752  -1.299  0.00  0.00     0.163 C 
ATOM      3  O   UNL d   1       0.113  -1.875  -1.263  0.00  0.00    -0.649 OA
BRANCH   2   4
ATOM      4  O   UNL d   1       0.769  -0.124  -2.503  0.00  0.00    -0.775 OA
ATOM      5  H   UNL d   1       1.154   0.773  -2.425  0.00  0.00     0.167 HD
ENDBRANCH   2   4
ENDBRANCH   1   2
BRANCH   1   6
ATOM      6  C   UNL d   1       0.624  -0.643   1.268  0.00  0.00    -0.030 A 
ATOM      7  C   UNL d   1       1.369  -1.745   1.754  0.00  0.00     0.009 A 
ATOM      8  C   UNL d   1       1.052  -2.380   2.958  0.00  0.00     0.001 A 
ATOM      9  C   UNL d   1      -0.058  -1.972   3.686  0.00  0.00     0.000 A 
ATOM     10  C   UNL d   1      -0.848  -0.936   3.205  0.00  0.00     0.001 A 
ATOM     11  C   UNL d   1      -0.508  -0.274   2.018  0.00  0.00     0.009 A 
ENDBRANCH   1   6
BRANCH   1  12
ATOM     12  C   UNL d   1       0.461   1.537  -0.219  0.00  0.00    -0.030 A 
ATOM     13  C   UNL d   1      -0.923   1.681  -0.481  0.00  0.00     0.009 A 
ATOM     14  C   UNL d   1      -1.525   2.939  -0.603  0.00  0.00     0.001 A 
ATOM     15  C   UNL d   1      -0.757   4.090  -0.502  0.00  0.00     0.000 A 
ATOM     16  C   UNL d   1       0.614   3.984  -0.307  0.00  0.00     0.001 A 
ATOM     17  C   UNL d   1       1.214   2.727  -0.174  0.00  0.00     0.009 A 
ENDBRANCH   1  12
BRANCH   1  18
ATOM     18  C   UNL d   1       2.669   0.149  -0.041  0.00  0.00    -0.030 A 
ATOM     19  C   UNL d   1       3.470  -0.429  -1.045  0.00  0.00     0.009 A 
ATOM     20  C   UNL d   1       4.866  -0.386  -0.965  0.00  0.00     0.001 A 
ATOM     21  C   UNL d   1       5.493   0.224   0.117  0.00  0.00     0.000 A 
ATOM     22  C   UNL d   1       4.727   0.780   1.135  0.00  0.00     0.001 A 
ATOM     23  C   UNL d   1       3.335   0.731   1.064  0.00  0.00     0.009 A 
ENDBRANCH   1  18
TORSDOF 5
