REMARK  1 active torsions:
REMARK  status: ('A' for Active; 'I' for Inactive)
REMARK    1  A    between atoms: C_10  and  C_2 
ROOT
ATOM      1  N   UNL d   1       0.231  -0.568   0.020  0.00  0.00    -0.220 N 
ATOM      2  C   UNL d   1      -0.913  -1.353  -0.011  0.00  0.00     0.155 A 
ATOM      3  C   UNL d   1      -0.092   0.735   0.019  0.00  0.00     0.145 A 
ATOM      4  N   UNL d   1      -1.954  -0.538  -0.030  0.00  0.00    -0.282 N 
ATOM      5  HN  UNL d   1      -2.939  -0.802  -0.060  1.00  0.00     0.188 HD
ATOM      6  N   UNL d   1       1.542  -0.831   0.030  0.00  0.00    -0.295 N 
ATOM      7  HN  UNL d   1       2.018  -1.733   0.038  1.00  0.00     0.187 HD
ATOM      8  C   UNL d   1       1.067   1.442   0.026  0.00  0.00     0.077 A 
ATOM      9  N   UNL d   1      -1.429   0.765   0.001  0.00  0.00    -0.282 N 
ATOM     10  C   UNL d   1       2.071   0.413   0.028  0.00  0.00     0.026 A 
ATOM     11  C   UNL d   1       3.543   0.597   0.016  0.00  0.00     0.070 C 
ATOM     12  H   UNL d   1      -2.042   1.579  -0.027  0.00  0.00     0.188 HD
ENDROOT
BRANCH   2  13
ATOM     13  C   UNL d   1      -0.980  -2.825  -0.055  0.00  0.00     0.033 A 
ATOM     14  C   UNL d   1      -2.030  -3.557   0.515  0.00  0.00     0.048 A 
ATOM     15 CL   UNL d   1      -3.323  -2.841   1.411  0.00  0.00    -0.083 Cl
ATOM     16  C   UNL d   1      -2.041  -4.955   0.416  0.00  0.00     0.025 A 
ATOM     17  C   UNL d   1      -1.011  -5.630  -0.240  0.00  0.00     0.002 A 
ATOM     18  C   UNL d   1       0.036  -4.910  -0.803  0.00  0.00     0.001 A 
ATOM     19  C   UNL d   1       0.052  -3.517  -0.715  0.00  0.00     0.017 A 
ENDBRANCH   2  13
TORSDOF 1
