REMARK  5 active torsions:
REMARK  status: ('A' for Active; 'I' for Inactive)
REMARK    1  A    between atoms: C_13  and  C_3 
REMARK    2  A    between atoms: C_18  and  C_6 
REMARK    3  A    between atoms: C_7  and  C_14 
REMARK       I    between atoms: C_9  and  N_16 
REMARK       I    between atoms: N_10  and  C_9 
REMARK    4  A    between atoms: C_11  and  N_10 
REMARK    5  A    between atoms: N_16  and  C_18 
ROOT
ATOM      1  N   UNL d   1       0.312  -0.025  -0.530  0.00  0.00    -0.321 N 
ATOM      2  HN  UNL d   1       0.321  -0.137  -1.543  1.00  0.00     0.169 HD
ATOM      3  C   UNL d   1      -0.098   1.064   0.217  0.00  0.00     0.137 A 
ATOM      4  N   UNL d   1       0.043   0.890   1.543  0.00  0.00    -0.242 N 
ATOM      5  HN  UNL d   1      -0.181   1.548   2.289  1.00  0.00     0.196 HD
ATOM      6  C   UNL d   1       0.688  -0.881   0.398  0.00  0.00     0.166 A 
ATOM      7  O   UNL d   1       0.562  -0.393   1.663  0.00  0.00    -0.221 OA
ENDROOT
BRANCH   6   8
ATOM      8  C   UNL d   1       1.143  -2.289   0.275  0.00  0.00     0.211 C 
BRANCH   8   9
ATOM      9  N   UNL d   1       2.558  -2.357  -0.022  0.00  0.00    -0.335 N 
ATOM     10  C   UNL d   1       3.463  -2.961   0.787  0.00  0.00     0.321 C 
ATOM     11  N   UNL d   1       4.730  -3.149   0.316  0.00  0.00    -0.306 N 
ATOM     12  O   UNL d   1       3.155  -3.456   1.867  0.00  0.00    -0.247 OA
ATOM     13  H   UNL d   1       5.223  -3.812   0.907  0.00  0.00     0.171 HD
ATOM     14  H   UNL d   1       2.890  -1.736  -0.741  0.00  0.00     0.164 HD
BRANCH  11  15
ATOM     15  C   UNL d   1       5.344  -2.815  -0.911  0.00  0.00     0.075 A 
ATOM     16  C   UNL d   1       4.974  -1.739  -1.728  0.00  0.00     0.146 A 
ATOM     17  C   UNL d   1       5.524  -1.552  -2.989  0.00  0.00     0.086 A 
ATOM     18  F   UNL d   1       4.088  -0.825  -1.305  0.00  0.00    -0.204 F 
ATOM     19  C   UNL d   1       6.494  -2.433  -3.433  0.00  0.00     0.119 A 
ATOM     20  C   UNL d   1       6.952  -3.460  -2.615  0.00  0.00     0.044 A 
ATOM     21  F   UNL d   1       6.998  -2.294  -4.665  0.00  0.00    -0.206 F 
ATOM     22  C   UNL d   1       6.391  -3.642  -1.346  0.00  0.00     0.036 A 
ENDBRANCH  11  15
ENDBRANCH   8   9
ENDBRANCH   6   8
BRANCH   3  23
ATOM     23  C   UNL d   1      -0.638   2.284  -0.382  0.00  0.00     0.010 A 
ATOM     24  C   UNL d   1      -0.724   2.425  -1.774  0.00  0.00     0.016 A 
ATOM     25  C   UNL d   1      -1.207   3.611  -2.346  0.00  0.00     0.017 A 
ATOM     26  C   UNL d   1      -1.617   4.680  -1.536  0.00  0.00     0.048 A 
ATOM     27  C   UNL d   1      -1.560   4.529  -0.144  0.00  0.00     0.017 A 
ATOM     28  C   UNL d   1      -1.077   3.346   0.425  0.00  0.00     0.016 A 
BRANCH  26  29
ATOM     29  C   UNL d   1      -2.098   5.983  -2.131  0.00  0.00     0.417 C 
ATOM     30  F   UNL d   1      -2.076   6.003  -3.493  0.00  0.00    -0.166 F 
ATOM     31  F   UNL d   1      -3.378   6.280  -1.774  0.00  0.00    -0.166 F 
ATOM     32  F   UNL d   1      -1.344   7.045  -1.732  0.00  0.00    -0.166 F 
ENDBRANCH  26  29
ENDBRANCH   3  23
TORSDOF 5
