REMARK  1 active torsions:
REMARK  status: ('A' for Active; 'I' for Inactive)
REMARK    1  A    between atoms: C_2  and  N_1 
ROOT
ATOM      1  C   UNL d   1      -0.752  -2.460   0.020  0.00  0.00     0.041 A 
ATOM      2  C   UNL d   1      -1.615  -2.950  -0.972  0.00  0.00     0.053 A 
ATOM      3  C   UNL d   1      -0.306  -3.337   1.021  0.00  0.00     0.053 A 
ATOM      4  C   UNL d   1      -0.722  -4.671   1.023  0.00  0.00     0.037 A 
ATOM      5  C   UNL d   1      -2.011  -4.290  -0.959  0.00  0.00     0.037 A 
ATOM      6  C   UNL d   1      -1.572  -5.156   0.035  0.00  0.00     0.048 A 
ATOM      7 CL   UNL d   1      -3.053  -4.879  -2.198  0.00  0.00    -0.084 Cl
ATOM      8 CL   UNL d   1      -0.176  -5.728   2.268  0.00  0.00    -0.084 Cl
ENDROOT
BRANCH   1   9
ATOM      9  N   UNL d   1      -0.333  -1.092   0.011  0.00  0.00    -0.333 N 
ATOM     10  C   UNL d   1      -0.735  -0.110  -0.877  0.00  0.00     0.096 A 
ATOM     11  C   UNL d   1      -0.113   1.078  -0.561  0.00  0.00     0.019 A 
ATOM     12  C   UNL d   1       0.708   0.834   0.554  0.00  0.00     0.019 A 
ATOM     13  C   UNL d   1       0.556  -0.495   0.888  0.00  0.00     0.096 A 
ENDBRANCH   1   9
TORSDOF 1
