REMARK  5 active torsions:
REMARK  status: ('A' for Active; 'I' for Inactive)
REMARK    1  A    between atoms: C_4  and  C_2 
REMARK    2  A    between atoms: C_12  and  C_3 
REMARK       I    between atoms: N_6  and  C_4 
REMARK    3  A    between atoms: C_5  and  O_9 
REMARK    4  A    between atoms: C_10  and  N_6 
REMARK    5  A    between atoms: O_9  and  C_11 
ROOT
ATOM      1  C   UNL d   1      -0.217   2.512  -1.086  0.00  0.00     0.263 C 
ATOM      2  N   UNL d   1      -1.452   2.881  -0.566  0.00  0.00    -0.320 N 
ATOM      3  O   UNL d   1       0.536   3.275  -1.680  0.00  0.00    -0.267 OA
ATOM      4  H   UNL d   1      -1.847   2.246   0.117  0.00  0.00     0.169 HD
ENDROOT
BRANCH   2   5
ATOM      5  C   UNL d   1      -2.015   4.163  -0.695  0.00  0.00     0.069 A 
ATOM      6  C   UNL d   1      -2.770   4.736   0.343  0.00  0.00     0.105 A 
ATOM      7  C   UNL d   1      -3.425   5.959   0.135  0.00  0.00     0.039 A 
ATOM      8  C   UNL d   1      -3.311   6.633  -1.079  0.00  0.00     0.003 A 
ATOM      9  C   UNL d   1      -2.542   6.087  -2.100  0.00  0.00     0.002 A 
ATOM     10  C   UNL d   1      -1.895   4.864  -1.907  0.00  0.00     0.032 A 
BRANCH   6  11
ATOM     11  O   UNL d   1      -2.972   4.219   1.592  0.00  0.00    -0.253 OA
BRANCH  11  12
ATOM     12  C   UNL d   1      -1.861   3.638   2.259  0.00  0.00     0.530 C 
ATOM     13  F   UNL d   1      -0.665   4.016   1.764  0.00  0.00    -0.144 F 
ATOM     14  F   UNL d   1      -1.903   3.987   3.563  0.00  0.00    -0.144 F 
ATOM     15  F   UNL d   1      -1.965   2.292   2.176  0.00  0.00    -0.144 F 
ENDBRANCH  11  12
ENDBRANCH   6  11
ENDBRANCH   2   5
BRANCH   1  16
ATOM     16  C   UNL d   1       0.173   1.149  -0.755  0.00  0.00     0.073 A 
ATOM     17  S   UNL d   1      -0.955  -0.126  -0.771  0.00  0.00    -0.088 SA
ATOM     18  C   UNL d   1       0.224  -1.298  -0.318  0.00  0.00    -0.009 A 
ATOM     19  C   UNL d   1       1.464  -0.700  -0.182  0.00  0.00     0.017 A 
ATOM     20  C   UNL d   1       1.440   0.701  -0.441  0.00  0.00     0.025 A 
BRANCH  18  21
ATOM     21  C   UNL d   1      -0.165  -2.772  -0.139  0.00  0.00    -0.018 C 
ATOM     22  C   UNL d   1      -0.453  -3.417  -1.507  0.00  0.00     0.020 C 
ATOM     23  C   UNL d   1       0.977  -3.567   0.532  0.00  0.00     0.020 C 
ATOM     24  C   UNL d   1      -1.410  -2.905   0.764  0.00  0.00     0.020 C 
ENDBRANCH  18  21
ENDBRANCH   1  16
TORSDOF 5
