REMARK  8 active torsions:
REMARK  status: ('A' for Active; 'I' for Inactive)
REMARK    1  A    between atoms: C_3  and  C_1 
REMARK    2  A    between atoms: C_4  and  C_1 
REMARK    3  A    between atoms: N_2  and  C_6 
REMARK    4  A    between atoms: C_9  and  C_3 
REMARK    5  A    between atoms: C_8  and  C_4 
REMARK    6  A    between atoms: C_11  and  C_5 
REMARK    7  A    between atoms: C_22  and  C_15 
REMARK    8  A    between atoms: N_24  and  C_23 
ROOT
ATOM      1  C   UNL d   1       0.862   0.171   0.045  0.00  0.00     0.067 C 
ATOM      2  C   UNL d   1       2.191  -0.075  -0.041  0.00  0.00     0.031 C 
ENDROOT
BRANCH   1   3
ATOM      3  C   UNL d   1       0.069  -0.365   1.209  0.00  0.00     0.196 C 
ATOM      4  O   UNL d   1       0.602  -0.540   2.306  0.00  0.00    -0.287 OA
BRANCH   3   5
ATOM      5  C   UNL d   1      -1.390  -0.647   1.119  0.00  0.00     0.015 C 
ATOM      6  C   UNL d   1      -2.023  -1.148  -0.021  0.00  0.00     0.017 C 
ATOM      7  C   UNL d   1      -3.415  -1.317  -0.040  0.00  0.00     0.024 C 
ATOM      8  C   UNL d   1      -4.190  -1.018   1.082  0.00  0.00     0.005 C 
ATOM      9  C   UNL d   1      -3.537  -0.678   2.266  0.00  0.00     0.024 C 
ATOM     10  C   UNL d   1      -2.155  -0.469   2.280  0.00  0.00     0.017 C 
BRANCH   8  11
ATOM     11  N   UNL d   1      -5.565  -1.280   1.084  0.00  0.00    -0.303 NA
ATOM     12  H   UNL d   1      -6.071  -0.772   1.804  0.00  0.00     0.124 HD
ATOM     13  H   UNL d   1      -5.996  -1.166   0.171  0.00  0.00     0.124 HD
ENDBRANCH   8  11
ENDBRANCH   3   5
ENDBRANCH   1   3
BRANCH   1  14
ATOM     14  C   UNL d   1       0.255   1.028  -1.037  0.00  0.00     0.196 C 
ATOM     15  O   UNL d   1      -0.883   0.865  -1.462  0.00  0.00    -0.287 OA
BRANCH  14  16
ATOM     16  C   UNL d   1       1.049   2.120  -1.666  0.00  0.00     0.015 A 
ATOM     17  C   UNL d   1       0.870   2.372  -3.031  0.00  0.00     0.016 A 
ATOM     18  C   UNL d   1       1.648   3.340  -3.678  0.00  0.00     0.013 A 
ATOM     19  C   UNL d   1       2.612   4.086  -2.980  0.00  0.00    -0.026 A 
ATOM     20  C   UNL d   1       2.725   3.861  -1.594  0.00  0.00     0.013 A 
ATOM     21  C   UNL d   1       1.950   2.898  -0.939  0.00  0.00     0.016 A 
BRANCH  19  22
ATOM     22  C   UNL d   1       3.492   5.059  -3.667  0.00  0.00    -0.026 A 
ATOM     23  C   UNL d   1       4.840   5.208  -3.288  0.00  0.00     0.012 A 
ATOM     24  C   UNL d   1       5.681   6.128  -3.919  0.00  0.00     0.001 A 
ATOM     25  C   UNL d   1       5.196   6.914  -4.958  0.00  0.00     0.000 A 
ATOM     26  C   UNL d   1       3.872   6.778  -5.364  0.00  0.00     0.001 A 
ATOM     27  C   UNL d   1       3.029   5.864  -4.723  0.00  0.00     0.012 A 
ENDBRANCH  19  22
ENDBRANCH  14  16
ENDBRANCH   1  14
BRANCH   2  28
ATOM     28  C   UNL d   1       3.085  -0.733   0.925  0.00  0.00    -0.033 A 
ATOM     29  C   UNL d   1       3.582  -0.017   2.028  0.00  0.00     0.047 A 
ATOM     30  C   UNL d   1       4.509  -0.624   2.889  0.00  0.00     0.103 A 
ATOM     31  C   UNL d   1       4.942  -1.936   2.662  0.00  0.00     0.036 A 
ATOM     32  C   UNL d   1       4.441  -2.642   1.568  0.00  0.00     0.003 A 
ATOM     33  C   UNL d   1       3.519  -2.043   0.702  0.00  0.00     0.011 A 
BRANCH  30  34
ATOM     34  N   UNL d   1       5.052   0.131   4.024  0.00  0.00    -0.116 N 
ATOM     35  O   UNL d   1       4.676   1.305   4.171  0.00  0.00    -0.532 OA
ATOM     36  O   UNL d   1       5.878  -0.436   4.753  0.00  0.00    -0.532 OA
ENDBRANCH  30  34
ENDBRANCH   2  28
TORSDOF 8
