REMARK  5 active torsions:
REMARK  status: ('A' for Active; 'I' for Inactive)
REMARK    1  A    between atoms: C_5  and  C_1 
REMARK    2  A    between atoms: C_7  and  C_2 
REMARK       I    between atoms: N_9  and  C_7 
REMARK    3  A    between atoms: C_14  and  N_9 
REMARK    4  A    between atoms: C_12  and  C_14 
REMARK    5  A    between atoms: C_13  and  C_12 
ROOT
ATOM      1  C   UNL d   1       0.307   0.008  -0.158  0.00  0.00     0.088 A 
ATOM      2  C   UNL d   1      -0.244  -1.305   0.073  0.00  0.00     0.092 A 
ATOM      3  N   UNL d   1      -0.670   0.928  -0.106  0.00  0.00    -0.259 N 
ATOM      4  HN  UNL d   1      -0.578   1.924  -0.309  1.00  0.00     0.195 HD
ATOM      5  O   UNL d   1      -1.812   0.277   0.271  0.00  0.00    -0.241 OA
ATOM      6  C   UNL d   1      -1.567  -1.050   0.396  0.00  0.00     0.090 A 
ATOM      7  C   UNL d   1      -2.728  -1.835   0.862  0.00  0.00     0.080 C 
ENDROOT
BRANCH   2   8
ATOM      8  C   UNL d   1       0.419  -2.600   0.024  0.00  0.00     0.256 C 
ATOM      9  N   UNL d   1      -0.371  -3.630  -0.443  0.00  0.00    -0.349 N 
ATOM     10  H   UNL d   1      -1.308  -3.422  -0.753  0.00  0.00     0.163 HD
ATOM     11  O   UNL d   1       1.605  -2.748   0.297  0.00  0.00    -0.267 OA
BRANCH   9  12
ATOM     12  C   UNL d   1       0.160  -4.944  -0.767  0.00  0.00     0.206 C 
BRANCH  12  13
ATOM     13  C   UNL d   1       0.204  -5.927   0.405  0.00  0.00     0.177 C 
ATOM     14  O   UNL d   1      -0.129  -5.631   1.549  0.00  0.00    -0.291 OA
BRANCH  13  15
ATOM     15  C   UNL d   1       0.671  -7.322   0.116  0.00  0.00     0.011 A 
ATOM     16  C   UNL d   1       1.257  -8.068   1.150  0.00  0.00     0.016 A 
ATOM     17  C   UNL d   1       1.687  -9.382   0.920  0.00  0.00     0.020 A 
ATOM     18  C   UNL d   1       1.519  -9.955  -0.336  0.00  0.00     0.011 A 
ATOM     19  C   UNL d   1       0.932  -9.228  -1.371  0.00  0.00     0.020 A 
ATOM     20 BR   UNL d   1       2.078 -11.735  -0.647  0.00  0.00    -0.051 Br
ATOM     21  C   UNL d   1       0.512  -7.911  -1.146  0.00  0.00     0.016 A 
ENDBRANCH  13  15
ENDBRANCH  12  13
ENDBRANCH   9  12
ENDBRANCH   2   8
BRANCH   1  22
ATOM     22  C   UNL d   1       1.676   0.428  -0.476  0.00  0.00     0.054 A 
ATOM     23  C   UNL d   1       2.419  -0.276  -1.433  0.00  0.00     0.130 A 
ATOM     24  F   UNL d   1       1.870  -1.300  -2.107  0.00  0.00    -0.205 F 
ATOM     25  C   UNL d   1       3.733   0.075  -1.755  0.00  0.00     0.043 A 
ATOM     26  C   UNL d   1       4.328   1.177  -1.150  0.00  0.00     0.005 A 
ATOM     27  C   UNL d   1       3.601   1.922  -0.227  0.00  0.00     0.025 A 
ATOM     28  C   UNL d   1       2.290   1.550   0.118  0.00  0.00     0.049 A 
ATOM     29 CL   UNL d   1       1.524   2.540   1.319  0.00  0.00    -0.083 Cl
ENDBRANCH   1  22
TORSDOF 5
