REMARK  4 active torsions:
REMARK  status: ('A' for Active; 'I' for Inactive)
REMARK    1  A    between atoms: N_6  and  S_1 
REMARK    2  A    between atoms: C_11  and  S_1 
REMARK    3  A    between atoms: C_4  and  N_10 
REMARK    4  A    between atoms: C_18  and  C_5 
ROOT
ATOM      1  N   UNL d   1       0.144   1.041   0.080  0.00  0.00    -0.203 NA
ATOM      2  N   UNL d   1      -0.210   1.663   2.874  0.00  0.00    -0.358 N 
ATOM      3  C   UNL d   1       0.334   2.459   0.554  0.00  0.00     0.127 C 
ATOM      4  C   UNL d   1      -0.809   0.310   0.969  0.00  0.00     0.127 C 
ATOM      5  C   UNL d   1       0.621   2.581   2.084  0.00  0.00     0.140 C 
ATOM      6  C   UNL d   1      -0.258   0.279   2.396  0.00  0.00     0.140 C 
ENDROOT
BRANCH   2   7
ATOM      7  C   UNL d   1      -0.769   1.940   4.082  0.00  0.00     0.165 A 
ATOM      8  N   UNL d   1      -1.449   1.051   4.776  0.00  0.00    -0.321 N 
ATOM      9  C   UNL d   1      -1.909   1.599   5.967  0.00  0.00     0.123 A 
ATOM     10  HN  UNL d   1      -1.616   0.089   4.479  1.00  0.00     0.169 HD
ATOM     11  N   UNL d   1      -1.645   2.890   6.204  0.00  0.00    -0.309 N 
ATOM     12  S   UNL d   1      -0.753   3.452   4.916  0.00  0.00     0.024 SA
ATOM     13  HN  UNL d   1      -1.937   3.429   7.019  1.00  0.00     0.176 HD
BRANCH   9  14
ATOM     14  C   UNL d   1      -2.622   0.749   6.928  0.00  0.00     0.009 A 
ATOM     15  C   UNL d   1      -2.940  -0.584   6.612  0.00  0.00     0.015 A 
ATOM     16  C   UNL d   1      -3.571  -1.409   7.550  0.00  0.00     0.001 A 
ATOM     17  C   UNL d   1      -3.892  -0.911   8.811  0.00  0.00     0.000 A 
ATOM     18  C   UNL d   1      -3.597   0.412   9.132  0.00  0.00     0.001 A 
ATOM     19  C   UNL d   1      -2.970   1.237   8.196  0.00  0.00     0.015 A 
ENDBRANCH   9  14
ENDBRANCH   2   7
BRANCH   1  20
ATOM     20  S   UNL d   1       1.563   0.159  -0.269  0.00  0.00     0.243 S 
ATOM     21  O   UNL d   1       1.251  -1.251  -0.226  0.00  0.00    -0.206 OA
ATOM     22  O   UNL d   1       2.636   0.721   0.527  0.00  0.00    -0.206 OA
BRANCH  20  23
ATOM     23  C   UNL d   1       1.866   0.546  -1.970  0.00  0.00     0.074 A 
ATOM     24  C   UNL d   1       3.139   0.940  -2.373  0.00  0.00     0.025 A 
ATOM     25  C   UNL d   1       3.408   1.082  -3.734  0.00  0.00     0.008 A 
ATOM     26  C   UNL d   1       2.409   0.832  -4.687  0.00  0.00    -0.062 A 
ATOM     27  C   UNL d   1       1.123   0.475  -4.263  0.00  0.00     0.008 A 
ATOM     28  C   UNL d   1       2.744   0.904  -6.148  0.00  0.00     0.048 C 
ATOM     29  C   UNL d   1       0.847   0.328  -2.903  0.00  0.00     0.025 A 
ENDBRANCH  20  23
ENDBRANCH   1  20
TORSDOF 4
