REMARK  4 active torsions:
REMARK  status: ('A' for Active; 'I' for Inactive)
REMARK    1  A    between atoms: C_4  and  C_1 
REMARK       I    between atoms: N_5  and  C_1 
REMARK    2  A    between atoms: C_3  and  C_2 
REMARK       I    between atoms: N_7  and  C_3 
REMARK    3  A    between atoms: C_6  and  N_5 
REMARK    4  A    between atoms: C_14  and  N_7 
ROOT
ATOM      1  C   UNL d   1       1.560  -2.777  -1.087  0.00  0.00     0.059 A 
ATOM      2  C   UNL d   1       2.569  -2.494  -0.143  0.00  0.00     0.050 A 
ATOM      3  C   UNL d   1       1.029  -4.081  -1.144  0.00  0.00     0.026 A 
ATOM      4  C   UNL d   1       3.073  -3.521   0.666  0.00  0.00     0.031 A 
ATOM      5  C   UNL d   1       1.460  -5.073  -0.250  0.00  0.00    -0.061 A 
ATOM      6  C   UNL d   1       2.502  -4.788   0.637  0.00  0.00     0.009 A 
ATOM      7  C   UNL d   1       0.771  -6.405  -0.212  0.00  0.00     0.048 C 
ENDROOT
BRANCH   2   8
ATOM      8  N   UNL d   1       3.103  -1.212   0.100  0.00  0.00    -0.322 N 
ATOM      9  C   UNL d   1       2.296  -0.117   0.377  0.00  0.00     0.261 C 
ATOM     10  O   UNL d   1       1.074  -0.203   0.431  0.00  0.00    -0.267 OA
ATOM     11  H   UNL d   1       4.072  -1.163   0.391  0.00  0.00     0.169 HD
BRANCH   9  12
ATOM     12  C   UNL d   1       2.998   1.179   0.669  0.00  0.00     0.092 A 
ATOM     13  C   UNL d   1       4.365   1.323   0.382  0.00  0.00     0.133 A 
ATOM     14  F   UNL d   1       5.110   0.272   0.001  0.00  0.00    -0.205 F 
ATOM     15  C   UNL d   1       5.026   2.546   0.503  0.00  0.00     0.043 A 
ATOM     16  C   UNL d   1       4.331   3.669   0.929  0.00  0.00     0.005 A 
ATOM     17  C   UNL d   1       2.990   3.542   1.284  0.00  0.00     0.025 A 
ATOM     18  C   UNL d   1       2.326   2.307   1.174  0.00  0.00     0.052 A 
ATOM     19 CL   UNL d   1       0.700   2.295   1.767  0.00  0.00    -0.083 Cl
ENDBRANCH   9  12
ENDBRANCH   2   8
BRANCH   1  20
ATOM     20  C   UNL d   1       1.186  -1.799  -2.158  0.00  0.00     0.258 C 
ATOM     21  N   UNL d   1      -0.142  -1.826  -2.567  0.00  0.00    -0.323 N 
ATOM     22  H   UNL d   1      -0.782  -2.365  -1.998  0.00  0.00     0.169 HD
ATOM     23  O   UNL d   1       2.072  -1.091  -2.633  0.00  0.00    -0.267 OA
BRANCH  21  24
ATOM     24  C   UNL d   1      -0.718  -1.113  -3.647  0.00  0.00     0.035 A 
ATOM     25  C   UNL d   1       0.020  -0.315  -4.530  0.00  0.00     0.032 A 
ATOM     26  C   UNL d   1      -0.607   0.355  -5.588  0.00  0.00     0.044 A 
ATOM     27  C   UNL d   1      -1.977   0.224  -5.769  0.00  0.00     0.116 A 
ATOM     28  C   UNL d   1      -2.729  -0.565  -4.911  0.00  0.00     0.044 A 
ATOM     29  F   UNL d   1      -2.580   0.861  -6.783  0.00  0.00    -0.206 F 
ATOM     30  C   UNL d   1      -2.102  -1.234  -3.851  0.00  0.00     0.032 A 
ENDBRANCH  21  24
ENDBRANCH   1  20
TORSDOF 4
