REMARK  4 active torsions:
REMARK  status: ('A' for Active; 'I' for Inactive)
REMARK    1  A    between atoms: C_2  and  S_1 
REMARK    2  A    between atoms: C_3  and  S_1 
REMARK    3  A    between atoms: N_8  and  C_4 
REMARK    4  A    between atoms: C_13  and  N_8 
ROOT
ATOM      1  C   UNL d   1       0.503  -0.960   1.301  0.00  0.00     0.159 C 
ATOM      2  C   UNL d   1      -0.324  -0.457   2.233  0.00  0.00     0.123 C 
ATOM      3  C   UNL d   1       1.031  -0.192   0.240  0.00  0.00     0.113 C 
ATOM      4  N   UNL d   1       1.446   0.488  -0.603  0.00  0.00    -0.191 NA
ENDROOT
BRANCH   1   5
ATOM      5  S   UNL d   1       0.908  -2.640   1.331  0.00  0.00     0.224 S 
ATOM      6  O   UNL d   1       0.685  -3.216   0.019  0.00  0.00    -0.216 OA
ATOM      7  O   UNL d   1       0.389  -3.299   2.515  0.00  0.00    -0.216 OA
BRANCH   5   8
ATOM      8  C   UNL d   1       2.681  -2.697   1.529  0.00  0.00     0.105 A 
ATOM      9  S   UNL d   1       3.319  -1.957   2.934  0.00  0.00    -0.090 SA
ATOM     10  C   UNL d   1       4.921  -2.380   2.506  0.00  0.00     0.051 A 
ATOM     11  C   UNL d   1       4.973  -3.071   1.315  0.00  0.00     0.009 A 
ATOM     12  C   UNL d   1       3.678  -3.255   0.750  0.00  0.00     0.032 A 
ENDBRANCH   5   8
ENDBRANCH   1   5
BRANCH   2  13
ATOM     13  N   UNL d   1      -0.828   0.824   2.323  0.00  0.00    -0.361 N 
ATOM     14  H   UNL d   1      -0.629   1.459   1.553  0.00  0.00     0.165 HD
BRANCH  13  15
ATOM     15  C   UNL d   1      -1.714   1.334   3.294  0.00  0.00     0.071 A 
ATOM     16  C   UNL d   1      -1.819   0.843   4.608  0.00  0.00     0.145 A 
ATOM     17  C   UNL d   1      -2.764   1.339   5.502  0.00  0.00     0.086 A 
ATOM     18  F   UNL d   1      -0.973  -0.100   5.052  0.00  0.00    -0.204 F 
ATOM     19  C   UNL d   1      -3.639   2.327   5.080  0.00  0.00     0.119 A 
ATOM     20  C   UNL d   1      -3.575   2.832   3.787  0.00  0.00     0.044 A 
ATOM     21  F   UNL d   1      -4.561   2.802   5.926  0.00  0.00    -0.206 F 
ATOM     22  C   UNL d   1      -2.615   2.338   2.899  0.00  0.00     0.036 A 
ENDBRANCH  13  15
ENDBRANCH   2  13
TORSDOF 4
