REMARK  10 active torsions:
REMARK  status: ('A' for Active; 'I' for Inactive)
REMARK    1  A    between atoms: C_1  and  O_6 
REMARK    2  A    between atoms: C_2  and  O_7 
REMARK    3  A    between atoms: C_5  and  C_14 
REMARK    4  A    between atoms: C_9  and  O_6 
REMARK    5  A    between atoms: C_8  and  O_7 
REMARK    6  A    between atoms: C_17  and  C_8 
REMARK    7  A    between atoms: C_18  and  C_9 
REMARK    8  A    between atoms: C_10  and  O_13 
REMARK    9  A    between atoms: C_20  and  C_10 
REMARK   10  A    between atoms: O_13  and  C_14 
ROOT
ATOM      1  C   UNL d   1      -0.743  -1.159  -0.355  0.00  0.00     0.207 C 
ATOM      2  C   UNL d   1       0.738  -1.154   0.030  0.00  0.00     0.196 C 
ATOM      3  C   UNL d   1      -1.133   0.277  -0.048  0.00  0.00     0.260 C 
ATOM      4  O   UNL d   1      -0.021   1.052  -0.548  0.00  0.00    -0.359 OA
ATOM      5  C   UNL d   1       1.175   0.290  -0.259  0.00  0.00     0.180 C 
ATOM      6  C   UNL d   1      -2.392   0.655  -0.704  0.00  0.00     0.094 C 
ATOM      7  N   UNL d   1      -3.402   0.941  -1.202  0.00  0.00    -0.194 NA
ENDROOT
BRANCH   1   8
ATOM      8  O   UNL d   1      -1.513  -2.100   0.407  0.00  0.00    -0.306 OA
BRANCH   8   9
ATOM      9  C   UNL d   1      -1.469  -3.376  -0.058  0.00  0.00     0.293 C 
ATOM     10  O   UNL d   1      -0.905  -3.728  -1.080  0.00  0.00    -0.259 OA
BRANCH   9  11
ATOM     11  C   UNL d   1      -2.176  -4.306   0.865  0.00  0.00     0.039 A 
ATOM     12  C   UNL d   1      -2.207  -5.668   0.535  0.00  0.00     0.017 A 
ATOM     13  C   UNL d   1      -2.813  -6.588   1.394  0.00  0.00     0.001 A 
ATOM     14  C   UNL d   1      -3.393  -6.152   2.585  0.00  0.00     0.000 A 
ATOM     15  C   UNL d   1      -3.381  -4.797   2.912  0.00  0.00     0.001 A 
ATOM     16  C   UNL d   1      -2.778  -3.873   2.054  0.00  0.00     0.017 A 
ENDBRANCH   9  11
ENDBRANCH   8   9
ENDBRANCH   1   8
BRANCH   2  17
ATOM     17  O   UNL d   1       0.859  -1.369   1.461  0.00  0.00    -0.307 OA
BRANCH  17  18
ATOM     18  C   UNL d   1       1.541  -2.476   1.842  0.00  0.00     0.293 C 
ATOM     19  O   UNL d   1       2.040  -3.299   1.093  0.00  0.00    -0.259 OA
BRANCH  18  20
ATOM     20  C   UNL d   1       1.606  -2.587   3.325  0.00  0.00     0.039 A 
ATOM     21  C   UNL d   1       2.124  -3.771   3.869  0.00  0.00     0.017 A 
ATOM     22  C   UNL d   1       2.239  -3.922   5.251  0.00  0.00     0.001 A 
ATOM     23  C   UNL d   1       1.844  -2.890   6.099  0.00  0.00     0.000 A 
ATOM     24  C   UNL d   1       1.322  -1.710   5.566  0.00  0.00     0.001 A 
ATOM     25  C   UNL d   1       1.198  -1.558   4.182  0.00  0.00     0.017 A 
ENDBRANCH  18  20
ENDBRANCH  17  18
ENDBRANCH   2  17
BRANCH   5  26
ATOM     26  C   UNL d   1       2.181   0.420  -1.408  0.00  0.00     0.213 C 
BRANCH  26  27
ATOM     27  O   UNL d   1       3.400  -0.318  -1.188  0.00  0.00    -0.315 OA
BRANCH  27  28
ATOM     28  C   UNL d   1       4.214   0.160  -0.210  0.00  0.00     0.293 C 
ATOM     29  O   UNL d   1       3.953   1.098   0.527  0.00  0.00    -0.259 OA
BRANCH  28  30
ATOM     30  C   UNL d   1       5.484  -0.608  -0.118  0.00  0.00     0.039 A 
ATOM     31  C   UNL d   1       6.310  -0.384   0.996  0.00  0.00     0.017 A 
ATOM     32  C   UNL d   1       7.535  -1.040   1.109  0.00  0.00     0.001 A 
ATOM     33  C   UNL d   1       7.951  -1.920   0.115  0.00  0.00     0.000 A 
ATOM     34  C   UNL d   1       7.133  -2.156  -0.992  0.00  0.00     0.001 A 
ATOM     35  C   UNL d   1       5.902  -1.506  -1.110  0.00  0.00     0.017 A 
ENDBRANCH  28  30
ENDBRANCH  27  28
ENDBRANCH  26  27
ENDBRANCH   5  26
TORSDOF 10
