REMARK  6 active torsions:
REMARK  status: ('A' for Active; 'I' for Inactive)
REMARK    1  A    between atoms: C_4  and  C_1 
REMARK    2  A    between atoms: O_6  and  C_2 
REMARK       I    between atoms: C_3  and  N_7 
REMARK       I    between atoms: N_13  and  C_3 
REMARK    3  A    between atoms: O_19  and  C_4 
REMARK    4  A    between atoms: N_7  and  C_5 
REMARK    5  A    between atoms: C_9  and  O_6 
REMARK    6  A    between atoms: C_18  and  N_13 
ROOT
ATOM      1  C   UNL d   1       3.484   3.674  -1.374  0.00  0.00     0.071 C 
ATOM      2  C   UNL d   1       2.275   3.206  -0.841  0.00  0.00     0.103 C 
ATOM      3  C   UNL d   1       3.784   5.038  -1.294  0.00  0.00     0.056 C 
ATOM      4  C   UNL d   1       1.534   4.033   0.008  0.00  0.00     0.041 C 
ATOM      5  C   UNL d   1       2.984   5.881  -0.525  0.00  0.00     0.036 C 
ATOM      6  C   UNL d   1       1.888   5.374   0.165  0.00  0.00     0.026 C 
ATOM      7 CL   UNL d   1       3.397   7.544  -0.379  0.00  0.00    -0.084 Cl
ENDROOT
BRANCH   1   8
ATOM      8  N   UNL d   1       4.382   2.742  -1.942  0.00  0.00    -0.306 N 
ATOM      9  C   UNL d   1       5.761   2.685  -1.851  0.00  0.00     0.325 C 
ATOM     10  N   UNL d   1       6.339   3.600  -1.008  0.00  0.00    -0.309 N 
ATOM     11  O   UNL d   1       6.354   1.799  -2.459  0.00  0.00    -0.247 OA
ATOM     12  H   UNL d   1       5.703   4.151  -0.458  0.00  0.00     0.170 HD
ATOM     13  H   UNL d   1       3.982   1.856  -2.245  0.00  0.00     0.171 HD
BRANCH  10  14
ATOM     14  C   UNL d   1       7.693   3.804  -0.693  0.00  0.00     0.036 A 
ATOM     15  C   UNL d   1       8.732   2.967  -1.096  0.00  0.00     0.031 A 
ATOM     16  C   UNL d   1      10.048   3.251  -0.712  0.00  0.00     0.026 A 
ATOM     17  C   UNL d   1      10.328   4.381   0.056  0.00  0.00     0.034 A 
ATOM     18  C   UNL d   1       9.299   5.228   0.456  0.00  0.00     0.026 A 
ATOM     19 CL   UNL d   1      11.947   4.734   0.512  0.00  0.00    -0.084 Cl
ATOM     20  C   UNL d   1       7.985   4.931   0.091  0.00  0.00     0.031 A 
ENDBRANCH  10  14
ENDBRANCH   1   8
BRANCH   2  21
ATOM     21  O   UNL d   1       1.921   1.899  -1.074  0.00  0.00    -0.307 OA
BRANCH  21  22
ATOM     22  C   UNL d   1       0.760   1.580  -1.714  0.00  0.00     0.099 A 
ATOM     23  C   UNL d   1       0.685   0.463  -2.530  0.00  0.00     0.114 A 
ATOM     24  S   UNL d   1      -0.921   0.202  -3.091  0.00  0.00    -0.093 SA
ATOM     25  C   UNL d   1      -1.493   1.617  -2.338  0.00  0.00     0.053 A 
ATOM     26  C   UNL d   1      -0.496   2.263  -1.640  0.00  0.00     0.046 A 
BRANCH  23  27
ATOM     27  C   UNL d   1       1.707  -0.454  -2.992  0.00  0.00     0.302 C 
ATOM     28  O   UNL d   1       1.522  -1.606  -3.371  0.00  0.00    -0.259 OA
BRANCH  27  29
ATOM     29  O   UNL d   1       2.921   0.176  -3.043  0.00  0.00    -0.322 OA
ATOM     30  C   UNL d   1       3.931  -0.593  -3.704  0.00  0.00     0.213 C 
ENDBRANCH  27  29
ENDBRANCH  23  27
ENDBRANCH  21  22
ENDBRANCH   2  21
TORSDOF 6
