REMARK  3 active torsions:
REMARK  status: ('A' for Active; 'I' for Inactive)
REMARK    1  A    between atoms: S_7  and  C_1 
REMARK    2  A    between atoms: C_8  and  S_7 
REMARK    3  A    between atoms: C_11  and  C_8 
ROOT
ATOM      1  C   UNL d   1      -1.436  -0.099  -0.047  0.00  0.00     0.007 A 
ATOM      2  C   UNL d   1       1.384   0.098  -0.112  0.00  0.00     0.040 A 
ATOM      3  C   UNL d   1      -0.788   1.149  -0.045  0.00  0.00     0.027 A 
ATOM      4  C   UNL d   1      -0.642  -1.267  -0.102  0.00  0.00    -0.044 A 
ATOM      5  C   UNL d   1       0.761  -1.149  -0.117  0.00  0.00     0.032 A 
ATOM      6  C   UNL d   1       0.617   1.265  -0.085  0.00  0.00    -0.039 A 
ATOM      7 CL   UNL d   1       3.109   0.143  -0.136  0.00  0.00    -0.084 Cl
ATOM      8  C   UNL d   1       1.252   2.627  -0.103  0.00  0.00     0.050 C 
ATOM      9  C   UNL d   1      -1.192  -2.672  -0.110  0.00  0.00     0.049 C 
ENDROOT
BRANCH   1  10
ATOM     10  S   UNL d   1      -3.224  -0.257   0.033  0.00  0.00    -0.125 SA
BRANCH  10  11
ATOM     11  C   UNL d   1      -3.871   1.446  -0.080  0.00  0.00     0.117 C 
BRANCH  11  12
ATOM     12  C   UNL d   1      -5.380   1.417  -0.168  0.00  0.00    -0.048 A 
ATOM     13  C   UNL d   1      -6.164   1.388   0.999  0.00  0.00     0.011 A 
ATOM     14  C   UNL d   1      -7.553   1.294   0.913  0.00  0.00     0.043 A 
ATOM     15  C   UNL d   1      -8.162   1.229  -0.335  0.00  0.00     0.116 A 
ATOM     16  C   UNL d   1      -7.407   1.259  -1.500  0.00  0.00     0.043 A 
ATOM     17  F   UNL d   1      -9.494   1.124  -0.415  0.00  0.00    -0.206 F 
ATOM     18  C   UNL d   1      -6.017   1.352  -1.419  0.00  0.00     0.011 A 
ENDBRANCH  11  12
ENDBRANCH  10  11
ENDBRANCH   1  10
TORSDOF 3
