REMARK  2 active torsions:
REMARK  status: ('A' for Active; 'I' for Inactive)
REMARK    1  A    between atoms: C_4  and  C_1 
REMARK    2  A    between atoms: C_5  and  C_4 
ROOT
ATOM      1  C   UNL d   1      -3.781  -0.115  -0.100  0.00  0.00     0.215 C 
ATOM      2  O   UNL d   1      -4.392   0.950  -0.125  0.00  0.00    -0.284 OA
ENDROOT
BRANCH   1   3
ATOM      3  C   UNL d   1      -2.338  -0.205  -0.023  0.00  0.00     0.127 A 
ATOM      4  O   UNL d   1      -1.711  -1.332  -0.485  0.00  0.00    -0.306 OA
ATOM      5  C   UNL d   1      -0.380  -1.180  -0.264  0.00  0.00     0.086 A 
ATOM      6  C   UNL d   1       0.597  -2.123  -0.571  0.00  0.00     0.038 A 
ATOM      7  C   UNL d   1      -0.127   0.050   0.327  0.00  0.00     0.001 A 
ATOM      8  C   UNL d   1       1.911  -1.785  -0.237  0.00  0.00     0.003 A 
ATOM      9  C   UNL d   1       2.209  -0.560   0.367  0.00  0.00     0.001 A 
ATOM     10  C   UNL d   1       1.201   0.373   0.654  0.00  0.00     0.014 A 
ATOM     11  C   UNL d   1      -1.392   0.687   0.448  0.00  0.00     0.055 A 
ENDBRANCH   1   3
BRANCH   1  12
ATOM     12  C   UNL d   1      -4.569  -1.383  -0.123  0.00  0.00     0.017 A 
ATOM     13  C   UNL d   1      -4.152  -2.510   0.604  0.00  0.00     0.024 A 
ATOM     14  C   UNL d   1      -4.875  -3.712   0.559  0.00  0.00    -0.039 A 
ATOM     15  C   UNL d   1      -4.365  -4.901   1.323  0.00  0.00     0.050 C 
ATOM     16  C   UNL d   1      -6.048  -3.759  -0.209  0.00  0.00     0.040 A 
ATOM     17  C   UNL d   1      -6.490  -2.628  -0.905  0.00  0.00     0.025 A 
ATOM     18 CL   UNL d   1      -6.986  -5.203  -0.329  0.00  0.00    -0.084 Cl
ATOM     19  C   UNL d   1      -5.756  -1.439  -0.859  0.00  0.00     0.017 A 
ENDBRANCH   1  12
TORSDOF 2
