REMARK  4 active torsions:
REMARK  status: ('A' for Active; 'I' for Inactive)
REMARK    1  A    between atoms: N_2  and  C_1 
REMARK    2  A    between atoms: N_4  and  C_1 
REMARK    3  A    between atoms: C_5  and  N_2 
REMARK    4  A    between atoms: C_6  and  C_5 
ROOT
ATOM      1  C   UNL d   1       0.868   1.813   2.035  0.00  0.00     0.160 C 
ENDROOT
BRANCH   1   2
ATOM      2  N   UNL d   1       0.326   0.894   1.051  0.00  0.00    -0.363 N 
ATOM      3  H   UNL d   1       0.651  -0.063   1.145  0.00  0.00     0.162 HD
BRANCH   2   4
ATOM      4  C   UNL d   1      -0.120   1.146  -0.210  0.00  0.00     0.169 C 
ATOM      5  S   UNL d   1      -0.073  -0.175  -1.250  0.00  0.00    -0.041 SA
BRANCH   4   6
ATOM      6  N   UNL d   1      -0.558   2.409  -0.552  0.00  0.00    -0.367 N 
ATOM      7  C   UNL d   1      -1.154   3.337   0.399  0.00  0.00     0.151 C 
ATOM      8  C   UNL d   1      -0.671   2.849  -1.945  0.00  0.00     0.151 C 
ENDBRANCH   4   6
ENDBRANCH   2   4
ENDBRANCH   1   2
BRANCH   1   9
ATOM      9  C   UNL d   1       1.669   1.091   3.090  0.00  0.00    -0.041 A 
ATOM     10  C   UNL d   1       3.068   1.097   3.058  0.00  0.00     0.009 A 
ATOM     11  C   UNL d   1       3.803   0.469   4.066  0.00  0.00     0.007 A 
ATOM     12  C   UNL d   1       3.155  -0.185   5.120  0.00  0.00    -0.062 A 
ATOM     13  C   UNL d   1       1.755  -0.220   5.137  0.00  0.00     0.007 A 
ATOM     14  C   UNL d   1       3.957  -0.812   6.222  0.00  0.00     0.048 C 
ATOM     15  C   UNL d   1       1.021   0.404   4.129  0.00  0.00     0.009 A 
ENDBRANCH   1   9
TORSDOF 4
