REMARK  4 active torsions:
REMARK  status: ('A' for Active; 'I' for Inactive)
REMARK    1  A    between atoms: N_2  and  C_1 
REMARK    2  A    between atoms: N_7  and  C_3 
REMARK    3  A    between atoms: S_9  and  C_5 
REMARK       I    between atoms: C_10  and  N_7 
REMARK    4  A    between atoms: C_14  and  S_9 
ROOT
ATOM      1  C   UNL d   1      -1.298   1.192   0.046  0.00  0.00     0.132 A 
ATOM      2  C   UNL d   1      -1.992  -0.033  -0.038  0.00  0.00     0.069 A 
ATOM      3  C   UNL d   1       0.101   1.220   0.004  0.00  0.00     0.082 A 
ATOM      4  C   UNL d   1       0.152  -1.209  -0.093  0.00  0.00     0.046 A 
ATOM      5  C   UNL d   1      -1.250  -1.224  -0.105  0.00  0.00     0.054 A 
ATOM      6  C   UNL d   1       0.809   0.024  -0.055  0.00  0.00     0.136 A 
ATOM      7  F   UNL d   1       2.149   0.083  -0.059  0.00  0.00    -0.205 F 
ENDROOT
BRANCH   4   8
ATOM      8  S   UNL d   1       1.063  -2.737   0.015  0.00  0.00    -0.087 SA
BRANCH   8   9
ATOM      9  C   UNL d   1       1.250  -3.186  -1.698  0.00  0.00     0.005 A 
ATOM     10  C   UNL d   1       2.017  -2.413  -2.573  0.00  0.00     0.019 A 
ATOM     11  C   UNL d   1       2.209  -2.823  -3.896  0.00  0.00     0.008 A 
ATOM     12  C   UNL d   1       1.649  -4.020  -4.356  0.00  0.00    -0.062 A 
ATOM     13  C   UNL d   1       0.883  -4.795  -3.479  0.00  0.00     0.008 A 
ATOM     14  C   UNL d   1       1.887  -4.463  -5.770  0.00  0.00     0.048 C 
ATOM     15  C   UNL d   1       0.688  -4.381  -2.157  0.00  0.00     0.019 A 
ENDBRANCH   8   9
ENDBRANCH   4   8
BRANCH   2  16
ATOM     16  N   UNL d   1      -3.409  -0.095  -0.003  0.00  0.00    -0.325 N 
ATOM     17  C   UNL d   1      -4.147  -0.905  -0.850  0.00  0.00     0.218 C 
ATOM     18  O   UNL d   1      -3.679  -1.632  -1.720  0.00  0.00    -0.274 OA
ATOM     19  C   UNL d   1      -5.634  -0.765  -0.655  0.00  0.00     0.117 C 
ATOM     20  H   UNL d   1      -3.892   0.742   0.324  0.00  0.00     0.169 HD
ENDBRANCH   2  16
BRANCH   1  21
ATOM     21  N   UNL d   1      -2.006   2.472   0.112  0.00  0.00    -0.113 N 
ATOM     22  O   UNL d   1      -3.238   2.462   0.302  0.00  0.00    -0.532 OA
ATOM     23  O   UNL d   1      -1.347   3.515  -0.003  0.00  0.00    -0.532 OA
ENDBRANCH   1  21
TORSDOF 4
