REMARK  6 active torsions:
REMARK  status: ('A' for Active; 'I' for Inactive)
REMARK    1  A    between atoms: N_4  and  C_1 
REMARK    2  A    between atoms: N_5  and  C_1 
REMARK       I    between atoms: C_2  and  N_3 
REMARK    3  A    between atoms: C_7  and  C_2 
REMARK    4  A    between atoms: N_3  and  N_4 
REMARK    5  A    between atoms: C_15  and  N_5 
REMARK    6  A    between atoms: C_8  and  C_9 
ROOT
ATOM      1  C   UNL d   1       0.346   3.289  -1.987  0.00  0.00     0.270 C 
ATOM      2  N   UNL d   1       0.902   3.023  -3.224  0.00  0.00    -0.264 N 
ATOM      3  O   UNL d   1       1.003   3.356  -0.953  0.00  0.00    -0.266 OA
ATOM      4  H   UNL d   1       0.327   2.702  -3.997  0.00  0.00     0.190 HD
ENDROOT
BRANCH   2   5
ATOM      5  N   UNL d   1       2.241   2.641  -3.289  0.00  0.00    -0.273 N 
ATOM      6  H   UNL d   1       2.724   2.544  -2.397  0.00  0.00     0.189 HD
BRANCH   5   7
ATOM      7  C   UNL d   1       2.976   2.811  -4.433  0.00  0.00     0.191 C 
ATOM      8  S   UNL d   1       2.544   3.816  -5.705  0.00  0.00    -0.039 SA
BRANCH   7   9
ATOM      9  N   UNL d   1       4.131   2.088  -4.549  0.00  0.00    -0.332 N 
ATOM     10  H   UNL d   1       4.719   2.401  -5.312  0.00  0.00     0.168 HD
BRANCH   9  11
ATOM     11  C   UNL d   1       4.488   0.849  -3.971  0.00  0.00     0.034 A 
ATOM     12  C   UNL d   1       3.635   0.070  -3.182  0.00  0.00     0.029 A 
ATOM     13  C   UNL d   1       4.049  -1.171  -2.689  0.00  0.00     0.002 A 
ATOM     14  C   UNL d   1       5.314  -1.659  -2.998  0.00  0.00     0.000 A 
ATOM     15  C   UNL d   1       6.166  -0.906  -3.803  0.00  0.00     0.002 A 
ATOM     16  C   UNL d   1       5.753   0.340  -4.287  0.00  0.00     0.029 A 
ENDBRANCH   9  11
ENDBRANCH   7   9
ENDBRANCH   5   7
ENDBRANCH   2   5
BRANCH   1  17
ATOM     17  C   UNL d   1      -1.141   3.421  -1.974  0.00  0.00     0.033 A 
ATOM     18  C   UNL d   1      -1.834   3.172  -0.788  0.00  0.00     0.017 A 
ATOM     19  C   UNL d   1      -3.235   3.220  -0.771  0.00  0.00     0.009 A 
ATOM     20  C   UNL d   1      -3.977   3.520  -1.931  0.00  0.00    -0.051 A 
ATOM     21  C   UNL d   1      -3.256   3.802  -3.101  0.00  0.00     0.009 A 
ATOM     22  C   UNL d   1      -1.857   3.761  -3.127  0.00  0.00     0.017 A 
BRANCH  20  23
ATOM     23  C   UNL d   1      -5.517   3.521  -1.896  0.00  0.00    -0.024 C 
ATOM     24  C   UNL d   1      -6.167   3.873  -3.255  0.00  0.00     0.019 C 
ATOM     25  C   UNL d   1      -6.025   2.118  -1.499  0.00  0.00     0.019 C 
ATOM     26  C   UNL d   1      -6.025   4.553  -0.868  0.00  0.00     0.019 C 
ENDBRANCH  20  23
ENDBRANCH   1  17
TORSDOF 6
