REMARK  6 active torsions:
REMARK  status: ('A' for Active; 'I' for Inactive)
REMARK    1  A    between atoms: C_7  and  N_1 
REMARK    2  A    between atoms: S_6  and  C_4 
REMARK    3  A    between atoms: C_8  and  S_6 
REMARK    4  A    between atoms: N_16  and  C_11 
REMARK    5  A    between atoms: O_14  and  C_15 
REMARK    6  A    between atoms: C_19  and  O_14 
ROOT
ATOM      1  N   UNL d   1       0.072   0.860   0.037  0.00  0.00    -0.251 N 
ATOM      2  C   UNL d   1      -1.064   0.116   0.267  0.00  0.00     0.232 C 
ATOM      3  C   UNL d   1       1.175   0.054  -0.119  0.00  0.00     0.245 C 
ATOM      4  C   UNL d   1       0.745  -1.397  -0.158  0.00  0.00     0.154 C 
ATOM      5  C   UNL d   1      -0.723  -1.347   0.209  0.00  0.00     0.129 C 
ATOM      6  O   UNL d   1      -2.203   0.497   0.484  0.00  0.00    -0.273 OA
ATOM      7  O   UNL d   1       2.352   0.395  -0.176  0.00  0.00    -0.271 OA
ENDROOT
BRANCH   1   8
ATOM      8  C   UNL d   1       0.109   2.290   0.009  0.00  0.00     0.045 A 
ATOM      9  C   UNL d   1      -0.853   3.061   0.680  0.00  0.00     0.033 A 
ATOM     10  C   UNL d   1      -0.829   4.461   0.634  0.00  0.00     0.039 A 
ATOM     11  C   UNL d   1       0.116   5.124  -0.145  0.00  0.00     0.076 A 
ATOM     12  C   UNL d   1       1.100   4.382  -0.793  0.00  0.00     0.039 A 
ATOM     13  C   UNL d   1       1.102   2.980  -0.708  0.00  0.00     0.033 A 
BRANCH  11  14
ATOM     14  O   UNL d   1       0.174   6.493  -0.286  0.00  0.00    -0.311 OA
BRANCH  14  15
ATOM     15  C   UNL d   1      -0.999   7.216  -0.342  0.00  0.00     0.076 A 
ATOM     16  C   UNL d   1      -0.959   8.510   0.184  0.00  0.00     0.037 A 
ATOM     17  C   UNL d   1      -2.109   9.304   0.182  0.00  0.00     0.003 A 
ATOM     18  C   UNL d   1      -3.300   8.806  -0.348  0.00  0.00     0.000 A 
ATOM     19  C   UNL d   1      -3.333   7.531  -0.908  0.00  0.00     0.003 A 
ATOM     20  C   UNL d   1      -2.178   6.748  -0.931  0.00  0.00     0.037 A 
ENDBRANCH  14  15
ENDBRANCH  11  14
ENDBRANCH   1   8
BRANCH   4  21
ATOM     21  S   UNL d   1       1.083  -2.029  -1.849  0.00  0.00    -0.113 SA
BRANCH  21  22
ATOM     22  C   UNL d   1       0.642  -3.767  -1.712  0.00  0.00     0.022 A 
ATOM     23  C   UNL d   1      -0.339  -4.303  -2.575  0.00  0.00     0.022 A 
ATOM     24  C   UNL d   1      -0.662  -5.663  -2.486  0.00  0.00     0.024 A 
ATOM     25  C   UNL d   1       0.063  -6.511  -1.651  0.00  0.00     0.002 A 
ATOM     26  C   UNL d   1       1.077  -5.995  -0.847  0.00  0.00     0.001 A 
ATOM     27  C   UNL d   1       1.360  -4.625  -0.867  0.00  0.00     0.020 A 
BRANCH  23  28
ATOM     28  N   UNL d   1      -1.139  -3.466  -3.381  0.00  0.00    -0.302 NA
ATOM     29  H   UNL d   1      -0.613  -2.644  -3.677  0.00  0.00     0.124 HD
ATOM     30  H   UNL d   1      -1.568  -3.947  -4.165  0.00  0.00     0.124 HD
ENDBRANCH  23  28
ENDBRANCH  21  22
ENDBRANCH   4  21
TORSDOF 6
