REMARK  6 active torsions:
REMARK  status: ('A' for Active; 'I' for Inactive)
REMARK    1  A    between atoms: C_8  and  C_1 
REMARK    2  A    between atoms: N_3  and  C_9 
REMARK    3  A    between atoms: O_19  and  C_8 
REMARK    4  A    between atoms: N_10  and  N_13 
REMARK    5  A    between atoms: C_20  and  C_18 
REMARK    6  A    between atoms: C_24  and  O_19 
ROOT
ATOM      1  C   UNL d   1      -0.107   1.326   0.040  0.00  0.00     0.109 A 
ATOM      2  C   UNL d   1      -1.394   0.833   0.081  0.00  0.00     0.153 A 
ATOM      3  N   UNL d   1      -0.012  -0.972   0.044  0.00  0.00    -0.302 N 
ATOM      4  HN  UNL d   1       0.319  -1.937   0.042  1.00  0.00     0.186 HD
ATOM      5  N   UNL d   1      -1.276  -0.527   0.055  0.00  0.00    -0.283 N 
ATOM      6  C   UNL d   1       0.714   0.154   0.035  0.00  0.00     0.042 A 
ATOM      7  N   UNL d   1      -2.627   1.393   0.128  0.00  0.00    -0.284 N 
ATOM      8  C   UNL d   1       2.196   0.051   0.006  0.00  0.00     0.071 C 
ATOM      9  H   UNL d   1      -2.047  -1.181   0.043  0.00  0.00     0.188 HD
ATOM     10  H   UNL d   1      -2.717   2.412   0.107  0.00  0.00     0.188 HD
ENDROOT
BRANCH   7  11
ATOM     11  N   UNL d   1      -3.718   0.599   0.002  0.00  0.00    -0.309 N 
ATOM     12  C   UNL d   1      -4.847   1.069   0.424  0.00  0.00     0.118 C 
ATOM     13  HN  UNL d   1      -3.652  -0.331  -0.410  1.00  0.00     0.186 HD
BRANCH  12  14
ATOM     14  C   UNL d   1      -6.057   0.221   0.334  0.00  0.00    -0.019 A 
ATOM     15  C   UNL d   1      -5.988  -1.015  -0.329  0.00  0.00     0.015 A 
ATOM     16  C   UNL d   1      -7.106  -1.844  -0.395  0.00  0.00     0.037 A 
ATOM     17  C   UNL d   1      -8.300  -1.433   0.207  0.00  0.00     0.102 A 
ATOM     18  C   UNL d   1      -8.378  -0.196   0.869  0.00  0.00     0.037 A 
ATOM     19  C   UNL d   1      -7.251   0.633   0.931  0.00  0.00     0.015 A 
BRANCH  17  20
ATOM     20  N   UNL d   1      -9.477  -2.309   0.145  0.00  0.00    -0.116 N 
ATOM     21  O   UNL d   1      -9.360  -3.393  -0.441  0.00  0.00    -0.532 OA
ATOM     22  O   UNL d   1     -10.518  -1.908   0.684  0.00  0.00    -0.532 OA
ENDBRANCH  17  20
ENDBRANCH  12  14
ENDBRANCH   7  11
BRANCH   1  23
ATOM     23  C   UNL d   1       0.264   2.724  -0.040  0.00  0.00     0.299 C 
ATOM     24  O   UNL d   1      -0.554   3.636  -0.095  0.00  0.00    -0.259 OA
BRANCH  23  25
ATOM     25  O   UNL d   1       1.614   2.891  -0.138  0.00  0.00    -0.318 OA
BRANCH  25  26
ATOM     26  C   UNL d   1       2.057   4.141  -0.679  0.00  0.00     0.174 C 
ATOM     27  C   UNL d   1       2.106   4.007  -2.191  0.00  0.00     0.034 C 
ENDBRANCH  25  26
ENDBRANCH  23  25
ENDBRANCH   1  23
TORSDOF 6
