REMARK  2 active torsions:
REMARK  status: ('A' for Active; 'I' for Inactive)
REMARK    1  A    between atoms: C_2  and  C_1 
REMARK       I    between atoms: N_3  and  C_1 
REMARK    2  A    between atoms: C_9  and  N_3 
ROOT
ATOM      1  C   UNL d   1       1.137   0.778   0.236  0.00  0.00     0.274 C 
ATOM      2  N   UNL d   1       0.316   0.687  -0.875  0.00  0.00    -0.322 N 
ATOM      3  O   UNL d   1       0.788   0.935   1.401  0.00  0.00    -0.266 OA
ATOM      4  H   UNL d   1       0.798   0.514  -1.753  0.00  0.00     0.169 HD
ENDROOT
BRANCH   2   5
ATOM      5  C   UNL d   1      -1.093   0.767  -0.896  0.00  0.00     0.037 A 
ATOM      6  C   UNL d   1      -1.862   1.050   0.237  0.00  0.00     0.069 A 
ATOM      7  C   UNL d   1      -3.254   1.070   0.163  0.00  0.00     0.104 A 
ATOM      8  O   UNL d   1      -3.924   1.319   1.335  0.00  0.00    -0.346 OA
ATOM      9  C   UNL d   1      -3.900   0.845  -1.053  0.00  0.00     0.102 A 
ATOM     10  C   UNL d   1      -5.286   0.896   1.244  0.00  0.00     0.202 C 
ATOM     11  C   UNL d   1      -5.914   1.408  -0.042  0.00  0.00     0.202 C 
ATOM     12  O   UNL d   1      -5.264   0.855  -1.194  0.00  0.00    -0.346 OA
ATOM     13  C   UNL d   1      -3.147   0.575  -2.192  0.00  0.00     0.042 A 
ATOM     14  C   UNL d   1      -1.748   0.539  -2.114  0.00  0.00     0.032 A 
ENDBRANCH   2   5
BRANCH   1  15
ATOM     15  C   UNL d   1       2.590   0.657  -0.059  0.00  0.00     0.116 A 
ATOM     16  N   UNL d   1       2.967   0.477  -1.359  0.00  0.00    -0.359 N 
ATOM     17  C   UNL d   1       4.308   0.391  -1.546  0.00  0.00     0.105 A 
ATOM     18  HN  UNL d   1       2.297   0.413  -2.125  1.00  0.00     0.165 HD
ATOM     19  C   UNL d   1       5.223   0.477  -0.505  0.00  0.00     0.104 A 
ATOM     20  N   UNL d   1       4.845   0.649   0.781  0.00  0.00    -0.372 N 
ATOM     21  C   UNL d   1       3.506   0.737   0.983  0.00  0.00     0.122 A 
ATOM     22  HN  UNL d   1       5.518   0.709   1.545  1.00  0.00     0.164 HD
ENDBRANCH   1  15
TORSDOF 2
