REMARK  3 active torsions:
REMARK  status: ('A' for Active; 'I' for Inactive)
REMARK    1  A    between atoms: N_2  and  C_1 
REMARK       I    between atoms: C_6  and  N_2 
REMARK    2  A    between atoms: C_3  and  C_11 
REMARK    3  A    between atoms: C_11  and  C_6 
ROOT
ATOM      1  C   UNL d   1       3.087  -2.993   0.056  0.00  0.00     0.112 C 
ENDROOT
BRANCH   1   2
ATOM      2  C   UNL d   1       2.406  -1.599  -0.000  0.00  0.00    -0.031 C 
ATOM      3  C   UNL d   1       2.384  -0.947  -1.408  0.00  0.00     0.014 C 
ATOM      4  C   UNL d   1       1.648   0.407  -1.377  0.00  0.00    -0.013 C 
ATOM      5  C   UNL d   1       0.203   0.190  -0.903  0.00  0.00     0.009 C 
ATOM      6  C   UNL d   1       2.364   1.355  -0.401  0.00  0.00     0.009 C 
ATOM      7  C   UNL d   1       0.202  -0.412   0.510  0.00  0.00    -0.013 C 
ATOM      8  C   UNL d   1       0.933  -1.760   0.479  0.00  0.00     0.014 C 
ATOM      9  C   UNL d   1       0.933   0.532   1.476  0.00  0.00     0.009 C 
ATOM     10  C   UNL d   1       2.382   0.742   1.008  0.00  0.00    -0.013 C 
ATOM     11  C   UNL d   1       3.113  -0.613   0.968  0.00  0.00     0.014 C 
ENDBRANCH   1   2
BRANCH   1  12
ATOM     12  C   UNL d   1       3.774  -3.502  -1.202  0.00  0.00     0.224 C 
ATOM     13  N   UNL d   1       4.982  -2.897  -1.455  0.00  0.00    -0.307 N 
ATOM     14  H   UNL d   1       5.367  -2.236  -0.794  0.00  0.00     0.171 HD
ATOM     15  O   UNL d   1       3.248  -4.401  -1.854  0.00  0.00    -0.273 OA
BRANCH  13  16
ATOM     16  C   UNL d   1       5.818  -3.164  -2.512  0.00  0.00     0.150 A 
ATOM     17  N   UNL d   1       7.017  -2.622  -2.584  0.00  0.00    -0.346 N 
ATOM     18  C   UNL d   1       7.650  -3.066  -3.731  0.00  0.00     0.097 A 
ATOM     19  HN  UNL d   1       7.415  -1.976  -1.903  1.00  0.00     0.167 HD
ATOM     20  C   UNL d   1       6.912  -3.908  -4.532  0.00  0.00     0.070 A 
ATOM     21  S   UNL d   1       5.375  -4.159  -3.823  0.00  0.00    -0.064 SA
ENDBRANCH  13  16
ENDBRANCH   1  12
TORSDOF 3
