REMARK  11 active torsions:
REMARK  status: ('A' for Active; 'I' for Inactive)
REMARK    1  A    between atoms: C_1  and  O_7 
REMARK    2  A    between atoms: C_2  and  O_8 
REMARK    3  A    between atoms: C_3  and  O_10 
REMARK    4  A    between atoms: C_4  and  O_9 
REMARK    5  A    between atoms: C_6  and  C_16 
REMARK    6  A    between atoms: C_11  and  O_7 
REMARK    7  A    between atoms: C_12  and  O_8 
REMARK    8  A    between atoms: C_13  and  O_9 
REMARK    9  A    between atoms: C_15  and  O_10 
REMARK   10  A    between atoms: C_14  and  O_19 
REMARK   11  A    between atoms: O_19  and  C_16 
ROOT
ATOM      1  C   UNL d   1       0.882  -1.308  -0.130  0.00  0.00     0.219 C 
ATOM      2  C   UNL d   1       1.641   0.031   0.055  0.00  0.00     0.198 C 
ATOM      3  C   UNL d   1      -0.584  -1.242   0.389  0.00  0.00     0.299 C 
ATOM      4  C   UNL d   1       0.820   1.272  -0.318  0.00  0.00     0.195 C 
ATOM      5  O   UNL d   1      -1.210  -0.041  -0.104  0.00  0.00    -0.348 OA
ATOM      6  C   UNL d   1      -0.571   1.168   0.311  0.00  0.00     0.181 C 
ENDROOT
BRANCH   3   7
ATOM      7  O   UNL d   1      -1.375  -2.314  -0.155  0.00  0.00    -0.318 OA
BRANCH   7   8
ATOM      8  C   UNL d   1      -1.460  -3.541   0.432  0.00  0.00     0.073 A 
ATOM      9  C   UNL d   1      -0.915  -3.924   1.652  0.00  0.00     0.049 A 
ATOM     10  C   UNL d   1      -0.913  -5.274   2.057  0.00  0.00    -0.023 A 
ATOM     11  C   UNL d   1      -0.221  -5.692   3.207  0.00  0.00     0.012 A 
ATOM     12  C   UNL d   1      -1.584  -6.237   1.274  0.00  0.00    -0.026 A 
ATOM     13  C   UNL d   1      -0.157  -7.043   3.555  0.00  0.00     0.001 A 
ATOM     14  C   UNL d   1      -0.831  -7.989   2.790  0.00  0.00     0.001 A 
ATOM     15  C   UNL d   1      -1.556  -7.587   1.666  0.00  0.00     0.012 A 
ATOM     16  C   UNL d   1      -2.244  -5.822   0.111  0.00  0.00     0.015 A 
ATOM     17  C   UNL d   1      -2.160  -4.492  -0.314  0.00  0.00     0.038 A 
ENDBRANCH   7   8
ENDBRANCH   3   7
BRANCH   1  18
ATOM     18  O   UNL d   1       1.667  -2.415   0.411  0.00  0.00    -0.308 OA
BRANCH  18  19
ATOM     19  C   UNL d   1       1.936  -2.433   1.742  0.00  0.00     0.255 C 
ATOM     20  O   UNL d   1       1.534  -1.613   2.553  0.00  0.00    -0.266 OA
ATOM     21  C   UNL d   1       2.727  -3.655   2.103  0.00  0.00     0.126 C 
ENDBRANCH  18  19
ENDBRANCH   1  18
BRANCH   2  22
ATOM     22  O   UNL d   1       2.950   0.043  -0.588  0.00  0.00    -0.311 OA
BRANCH  22  23
ATOM     23  C   UNL d   1       3.020  -0.044  -1.943  0.00  0.00     0.255 C 
ATOM     24  O   UNL d   1       2.070  -0.229  -2.689  0.00  0.00    -0.266 OA
ATOM     25  C   UNL d   1       4.428   0.169  -2.403  0.00  0.00     0.126 C 
ENDBRANCH  22  23
ENDBRANCH   2  22
BRANCH   6  26
ATOM     26  C   UNL d   1      -1.436   2.353  -0.157  0.00  0.00     0.213 C 
BRANCH  26  27
ATOM     27  O   UNL d   1      -2.754   2.304   0.418  0.00  0.00    -0.319 OA
BRANCH  27  28
ATOM     28  C   UNL d   1      -2.846   2.708   1.710  0.00  0.00     0.254 C 
ATOM     29  O   UNL d   1      -1.915   3.118   2.392  0.00  0.00    -0.266 OA
ATOM     30  C   UNL d   1      -4.258   2.594   2.197  0.00  0.00     0.126 C 
ENDBRANCH  27  28
ENDBRANCH  26  27
ENDBRANCH   6  26
BRANCH   4  31
ATOM     31  O   UNL d   1       1.488   2.441   0.227  0.00  0.00    -0.311 OA
BRANCH  31  32
ATOM     32  C   UNL d   1       2.121   3.263  -0.647  0.00  0.00     0.255 C 
ATOM     33  O   UNL d   1       2.136   3.127  -1.864  0.00  0.00    -0.266 OA
ATOM     34  C   UNL d   1       2.788   4.397   0.068  0.00  0.00     0.126 C 
ENDBRANCH  31  32
ENDBRANCH   4  31
TORSDOF 11
