REMARK  1 active torsions:
REMARK  status: ('A' for Active; 'I' for Inactive)
REMARK    1  A    between atoms: C_7  and  C_1 
ROOT
ATOM      1  C   UNL d   1       0.016   1.056   0.024  0.00  0.00     0.043 A 
ATOM      2  C   UNL d   1      -1.081   0.213   0.004  0.00  0.00     0.126 A 
ATOM      3  N   UNL d   1       0.759  -1.117   0.112  0.00  0.00    -0.303 N 
ATOM      4  HN  UNL d   1       1.352  -1.946   0.144  1.00  0.00     0.186 HD
ATOM      5  N   UNL d   1      -0.580  -1.056   0.091  0.00  0.00    -0.285 N 
ATOM      6  C   UNL d   1       1.137   0.169   0.081  0.00  0.00     0.036 A 
ATOM      7  N   UNL d   1      -2.414   0.429  -0.085  0.00  0.00    -0.384 N 
ATOM      8  C   UNL d   1       2.584   0.496   0.120  0.00  0.00     0.070 C 
ATOM      9  H   UNL d   1      -1.099  -1.923   0.129  0.00  0.00     0.188 HD
ATOM     10  H   UNL d   1      -2.741   1.340  -0.400  0.00  0.00     0.157 HD
ATOM     11  H   UNL d   1      -3.066  -0.317  -0.313  0.00  0.00     0.157 HD
ENDROOT
BRANCH   1  12
ATOM     12  C   UNL d   1      -0.045   2.513  -0.022  0.00  0.00    -0.020 A 
ATOM     13  C   UNL d   1      -1.005   3.218   0.720  0.00  0.00     0.012 A 
ATOM     14  C   UNL d   1      -1.068   4.613   0.670  0.00  0.00     0.001 A 
ATOM     15  C   UNL d   1      -0.157   5.324  -0.107  0.00  0.00     0.000 A 
ATOM     16  C   UNL d   1       0.811   4.640  -0.838  0.00  0.00     0.001 A 
ATOM     17  C   UNL d   1       0.862   3.243  -0.803  0.00  0.00     0.012 A 
ENDBRANCH   1  12
TORSDOF 1
