REMARK  3 active torsions:
REMARK  status: ('A' for Active; 'I' for Inactive)
REMARK    1  A    between atoms: N_10  and  C_3 
REMARK    2  A    between atoms: C_4  and  N_10 
REMARK    3  A    between atoms: N_14  and  C_7 
ROOT
ATOM      1  N   UNL d   1      -0.109  -1.085  -0.539  0.00  0.00    -0.166 N 
ATOM      2  HN  UNL d   1      -0.549  -1.948  -0.860  1.00  0.00     0.187 HD
ATOM      3  C   UNL d   1      -0.817  -0.085  -0.019  0.00  0.00     0.686 A 
ATOM      4  N   UNL d   1      -0.288   1.064   0.383  0.00  0.00    -0.188 N 
ATOM      5  HN  UNL d   1      -0.853   1.841   0.726  1.00  0.00     0.185 HD
ATOM      6  C   UNL d   1       1.197  -0.895  -0.617  0.00  0.00     0.170 A 
ATOM      7  N   UNL d   1       1.835   0.174  -0.180  0.00  0.00    -0.328 N 
ATOM      8  HN  UNL d   1       2.851   0.266  -0.212  1.00  0.00     0.169 HD
ATOM      9  C   UNL d   1       1.039   1.119   0.303  0.00  0.00     0.200 A 
ENDROOT
BRANCH   3  10
ATOM     10  N   UNL d   1      -2.201  -0.195   0.066  0.00  0.00    -0.185 N 
ATOM     11  H   UNL d   1      -2.662   0.702   0.105  0.00  0.00     0.184 HD
BRANCH  10  12
ATOM     12  C   UNL d   1      -3.004  -1.343   0.047  0.00  0.00     0.126 A 
ATOM     13  C   UNL d   1      -2.599  -2.572   0.586  0.00  0.00     0.146 A 
ATOM     14  F   UNL d   1      -1.450  -2.670   1.273  0.00  0.00    -0.204 F 
ATOM     15  C   UNL d   1      -3.394  -3.714   0.500  0.00  0.00     0.045 A 
ATOM     16  C   UNL d   1      -4.623  -3.659  -0.157  0.00  0.00     0.006 A 
ATOM     17  C   UNL d   1      -5.048  -2.452  -0.709  0.00  0.00     0.045 A 
ATOM     18  C   UNL d   1      -4.246  -1.316  -0.601  0.00  0.00     0.146 A 
ATOM     19  F   UNL d   1      -4.679  -0.170  -1.149  0.00  0.00    -0.204 F 
ENDBRANCH  10  12
ENDBRANCH   3  10
BRANCH   6  20
ATOM     20  N   UNL d   1       1.947  -1.911  -1.177  0.00  0.00    -0.273 NA
ATOM     21  H   UNL d   1       1.435  -2.781  -1.120  0.00  0.00     0.127 HD
ATOM     22  H   UNL d   1       2.886  -1.901  -0.806  0.00  0.00     0.127 HD
ENDBRANCH   6  20
TORSDOF 3
