REMARK  7 active torsions:
REMARK  status: ('A' for Active; 'I' for Inactive)
REMARK    1  A    between atoms: N_6  and  C_1 
REMARK    2  A    between atoms: S_2  and  N_6 
REMARK    3  A    between atoms: C_9  and  S_2 
REMARK    4  A    between atoms: C_22  and  N_3 
REMARK    5  A    between atoms: C_16  and  C_8 
REMARK    6  A    between atoms: C_19  and  C_10 
REMARK    7  A    between atoms: C_11  and  C_17 
ROOT
ATOM      1  N   UNL d   1      -0.934  -2.594  -0.284  0.00  0.00    -0.164 NA
ATOM      2  H   UNL d   1      -0.273  -3.298  -0.609  0.00  0.00     0.147 HD
ENDROOT
BRANCH   1   3
ATOM      3  S   UNL d   1      -1.388  -3.222   1.262  0.00  0.00     0.253 S 
ATOM      4  O   UNL d   1      -1.781  -4.595   1.047  0.00  0.00    -0.205 OA
ATOM      5  O   UNL d   1      -0.353  -2.874   2.210  0.00  0.00    -0.205 OA
BRANCH   3   6
ATOM      6  C   UNL d   1      -2.841  -2.376   1.809  0.00  0.00     0.116 C 
ATOM      7  S   UNL d   1      -4.102  -2.269   0.665  0.00  0.00    -0.075 SA
ATOM      8  C   UNL d   1      -4.982  -1.182   1.643  0.00  0.00     0.035 C 
ATOM      9  C   UNL d   1      -4.418  -1.050   2.895  0.00  0.00     0.023 C 
ATOM     10  C   UNL d   1      -3.175  -1.747   2.992  0.00  0.00     0.034 C 
BRANCH   8  11
ATOM     11  C   UNL d   1      -6.187  -0.441   1.161  0.00  0.00     0.074 A 
ATOM     12  C   UNL d   1      -6.751  -0.527  -0.131  0.00  0.00     0.077 A 
ATOM     13  C   UNL d   1      -7.745   0.421  -0.135  0.00  0.00     0.184 A 
ATOM     14  O   UNL d   1      -7.806   1.007   1.090  0.00  0.00    -0.233 OA
ATOM     15  N   UNL d   1      -6.831   0.463   1.910  0.00  0.00    -0.260 N 
ATOM     16  HN  UNL d   1      -6.642   0.701   2.884  1.00  0.00     0.195 HD
BRANCH  13  17
ATOM     17  C   UNL d   1      -8.679   0.917  -1.158  0.00  0.00     0.441 C 
ATOM     18  F   UNL d   1      -8.615   0.169  -2.293  0.00  0.00    -0.164 F 
ATOM     19  F   UNL d   1      -9.969   0.886  -0.745  0.00  0.00    -0.164 F 
ATOM     20  F   UNL d   1      -8.403   2.194  -1.524  0.00  0.00    -0.164 F 
ENDBRANCH  13  17
ENDBRANCH   8  11
ENDBRANCH   3   6
ENDBRANCH   1   3
BRANCH   1  21
ATOM     21  C   UNL d   1      -0.400  -1.252  -0.195  0.00  0.00     0.119 C 
ATOM     22  N   UNL d   1       0.904  -0.827   0.035  0.00  0.00    -0.244 N 
ATOM     23  N   UNL d   1       0.941   0.503   0.313  0.00  0.00    -0.291 N 
ATOM     24  C   UNL d   1      -0.295   0.944   0.051  0.00  0.00     0.069 C 
ATOM     25  HN  UNL d   1       1.737   1.046   0.648  1.00  0.00     0.187 HD
ATOM     26  C   UNL d   1      -1.172  -0.117  -0.258  0.00  0.00     0.077 C 
BRANCH  22  27
ATOM     27  C   UNL d   1       2.103  -1.585   0.016  0.00  0.00     0.058 A 
ATOM     28  C   UNL d   1       2.236  -2.712  -0.808  0.00  0.00     0.034 A 
ATOM     29  C   UNL d   1       3.420  -3.452  -0.790  0.00  0.00     0.044 A 
ATOM     30  C   UNL d   1       4.464  -3.059   0.040  0.00  0.00     0.116 A 
ATOM     31  C   UNL d   1       4.359  -1.926   0.837  0.00  0.00     0.044 A 
ATOM     32  F   UNL d   1       5.595  -3.776   0.055  0.00  0.00    -0.206 F 
ATOM     33  C   UNL d   1       3.182  -1.176   0.817  0.00  0.00     0.034 A 
ENDBRANCH  22  27
BRANCH  24  34
ATOM     34  C   UNL d   1      -0.649   2.402   0.106  0.00  0.00     0.033 A 
ATOM     35  S   UNL d   1      -2.199   3.033  -0.250  0.00  0.00    -0.100 SA
ATOM     36  C   UNL d   1      -1.678   4.641   0.016  0.00  0.00     0.050 A 
ATOM     37  C   UNL d   1      -0.352   4.699   0.383  0.00  0.00     0.008 A 
ATOM     38  C   UNL d   1       0.243   3.403   0.435  0.00  0.00     0.021 A 
ENDBRANCH  24  34
ENDBRANCH   1  21
TORSDOF 7
