REMARK  7 active torsions:
REMARK  status: ('A' for Active; 'I' for Inactive)
REMARK    1  A    between atoms: C_11  and  C_1 
REMARK    2  A    between atoms: C_12  and  C_2 
REMARK    3  A    between atoms: N_7  and  C_3 
REMARK       I    between atoms: C_10  and  N_7 
REMARK    4  A    between atoms: C_8  and  C_10 
REMARK    5  A    between atoms: C_14  and  CA_9 
REMARK    6  A    between atoms: C_13  and  C_15 
REMARK    7  A    between atoms: OXT_29  and  C_14 
ROOT
ATOM      1  C   UNL d   1       1.593   0.804   0.222  0.00  0.00     0.147 A 
ATOM      2  C   UNL d   1       1.540  -0.610  -0.005  0.00  0.00     0.053 A 
ATOM      3  C   UNL d   1       0.188  -0.928   0.065  0.00  0.00     0.138 A 
ATOM      4  N   UNL d   1       0.358   1.297   0.452  0.00  0.00    -0.292 N 
ATOM      5  HN  UNL d   1       0.106   2.264   0.657  1.00  0.00     0.187 HD
ATOM      6  N   UNL d   1      -0.471   0.240   0.353  0.00  0.00    -0.280 N 
ATOM      7  C   UNL d   1      -1.889   0.514   0.259  0.00  0.00     0.179 C 
ENDROOT
BRANCH   3   8
ATOM      8  N   UNL d   1      -0.317  -2.193  -0.228  0.00  0.00    -0.306 N 
ATOM      9  C   UNL d   1      -1.304  -2.854   0.571  0.00  0.00     0.276 C 
ATOM     10  O   UNL d   1      -1.808  -2.216   1.486  0.00  0.00    -0.266 OA
ATOM     11  H   UNL d   1       0.198  -2.691  -0.958  0.00  0.00     0.170 HD
BRANCH   9  12
ATOM     12  C   UNL d   1      -1.662  -4.307   0.375  0.00  0.00     0.134 A 
ATOM     13  CA  UNL d   1      -0.953  -5.272  -0.330  0.00  0.00     0.139 A 
ATOM     14  N   UNL d   1      -1.254  -6.616  -0.279  0.00  0.00    -0.357 N 
ATOM     15  C   UNL d   1      -2.332  -6.955   0.462  0.00  0.00     0.105 A 
ATOM     16  HN  UNL d   1      -0.696  -7.313  -0.771  1.00  0.00     0.165 HD
ATOM     17  C   UNL d   1      -3.073  -6.010   1.138  0.00  0.00     0.105 A 
ATOM     18  N   UNL d   1      -2.754  -4.693   1.113  0.00  0.00    -0.358 N 
ATOM     19  HN  UNL d   1      -3.308  -4.008   1.628  1.00  0.00     0.165 HD
BRANCH  13  20
ATOM     20  C   UNL d   1       0.204  -4.997  -1.208  0.00  0.00     0.196 C 
ATOM     21  O   UNL d   1       0.445  -3.913  -1.701  0.00  0.00    -0.645 OA
BRANCH  20  22
ATOM     22  OXT UNL d   1       0.977  -6.088  -1.383  0.00  0.00    -0.772 OA
ATOM     23  HXT UNL d   1       0.563  -6.891  -0.983  0.00  0.00     0.167 HD
ENDBRANCH  20  22
ENDBRANCH  13  20
ENDBRANCH   9  12
ENDBRANCH   3   8
BRANCH   2  24
ATOM     24  C   UNL d   1       2.602  -1.584  -0.254  0.00  0.00    -0.019 A 
ATOM     25  C   UNL d   1       2.626  -2.812   0.431  0.00  0.00     0.028 A 
ATOM     26  C   UNL d   1       3.596  -3.794   0.147  0.00  0.00     0.048 A 
ATOM     27  C   UNL d   1       4.611  -3.492  -0.767  0.00  0.00     0.016 A 
ATOM     28  C   UNL d   1       4.622  -2.261  -1.422  0.00  0.00     0.002 A 
ATOM     29  C   UNL d   1       3.610  -1.325  -1.188  0.00  0.00     0.012 A 
BRANCH  26  30
ATOM     30  C   UNL d   1       3.546  -5.156   0.796  0.00  0.00     0.417 C 
ATOM     31  F   UNL d   1       2.355  -5.388   1.430  0.00  0.00    -0.166 F 
ATOM     32  F   UNL d   1       3.684  -6.176  -0.093  0.00  0.00    -0.166 F 
ATOM     33  F   UNL d   1       4.513  -5.336   1.733  0.00  0.00    -0.166 F 
ENDBRANCH  26  30
ENDBRANCH   2  24
BRANCH   1  34
ATOM     34  C   UNL d   1       2.788   1.726   0.191  0.00  0.00     0.434 C 
ATOM     35  F   UNL d   1       3.974   1.066   0.272  0.00  0.00    -0.165 F 
ATOM     36  F   UNL d   1       2.830   2.442  -0.965  0.00  0.00    -0.165 F 
ATOM     37  F   UNL d   1       2.786   2.622   1.213  0.00  0.00    -0.165 F 
ENDBRANCH   1  34
TORSDOF 7
