REMARK  4 active torsions:
REMARK  status: ('A' for Active; 'I' for Inactive)
REMARK    1  A    between atoms: C_6  and  C_1 
REMARK    2  A    between atoms: C_5  and  N_12 
REMARK    3  A    between atoms: C_13  and  C_6 
REMARK    4  A    between atoms: N_12  and  C_7 
ROOT
ATOM      1  C   UNL d   1       0.897  -0.098  -0.108  0.00  0.00     0.110 C 
ATOM      2  C   UNL d   1       0.199   1.047  -0.121  0.00  0.00     0.116 C 
ATOM      3  C   UNL d   1       0.242  -1.358  -0.138  0.00  0.00     0.105 C 
ATOM      4  N   UNL d   1      -0.299  -2.381  -0.128  0.00  0.00    -0.191 NA
ENDROOT
BRANCH   1   5
ATOM      5  C   UNL d   1       2.390  -0.010  -0.120  0.00  0.00     0.204 C 
ATOM      6  O   UNL d   1       2.960   0.993  -0.546  0.00  0.00    -0.286 OA
BRANCH   5   7
ATOM      7  C   UNL d   1       3.218  -1.143   0.389  0.00  0.00     0.016 A 
ATOM      8  C   UNL d   1       4.492  -1.328  -0.171  0.00  0.00     0.017 A 
ATOM      9  C   UNL d   1       5.330  -2.347   0.293  0.00  0.00     0.025 A 
ATOM     10  C   UNL d   1       4.902  -3.181   1.322  0.00  0.00     0.034 A 
ATOM     11  C   UNL d   1       3.645  -3.001   1.896  0.00  0.00     0.025 A 
ATOM     12 CL   UNL d   1       5.936  -4.425   1.906  0.00  0.00    -0.084 Cl
ATOM     13  C   UNL d   1       2.809  -1.974   1.442  0.00  0.00     0.017 A 
ENDBRANCH   5   7
ENDBRANCH   1   5
BRANCH   2  14
ATOM     14  N   UNL d   1      -1.169   1.235  -0.035  0.00  0.00    -0.349 N 
ATOM     15  H   UNL d   1      -1.706   0.432   0.293  0.00  0.00     0.167 HD
BRANCH  14  16
ATOM     16  C   UNL d   1      -1.867   2.395  -0.104  0.00  0.00     0.128 A 
ATOM     17  N   UNL d   1      -3.072   2.575   0.444  0.00  0.00    -0.245 N 
ATOM     18  O   UNL d   1      -3.434   3.878   0.155  0.00  0.00    -0.241 OA
ATOM     19  HN  UNL d   1      -3.615   1.889   0.969  1.00  0.00     0.196 HD
ATOM     20  C   UNL d   1      -2.465   4.456  -0.602  0.00  0.00     0.076 A 
ATOM     21  C   UNL d   1      -1.451   3.554  -0.798  0.00  0.00     0.084 A 
ATOM     22  C   UNL d   1      -2.702   5.844  -1.032  0.00  0.00     0.079 C 
ENDBRANCH  14  16
ENDBRANCH   2  14
TORSDOF 4
