REMARK  5 active torsions:
REMARK  status: ('A' for Active; 'I' for Inactive)
REMARK    1  A    between atoms: C_4  and  S_1 
REMARK    2  A    between atoms: N_18  and  S_1 
REMARK    3  A    between atoms: N_2  and  C_8 
REMARK    4  A    between atoms: O_5  and  C_3 
REMARK    5  A    between atoms: C_12  and  O_5 
ROOT
ATOM      1  C   UNL d   1      -0.332  -4.394  -0.077  0.00  0.00     0.119 A 
ATOM      2  C   UNL d   1       0.358  -1.683  -0.025  0.00  0.00     0.077 A 
ATOM      3  C   UNL d   1       0.908  -3.967  -0.581  0.00  0.00     0.071 A 
ATOM      4  C   UNL d   1      -1.250  -3.432   0.370  0.00  0.00     0.071 A 
ATOM      5  C   UNL d   1      -0.914  -2.077   0.394  0.00  0.00     0.051 A 
ATOM      6  C   UNL d   1       1.265  -2.618  -0.526  0.00  0.00     0.051 A 
ATOM      7 CL   UNL d   1       2.033  -5.047  -1.328  0.00  0.00    -0.081 Cl
ATOM      8 CL   UNL d   1      -2.837  -3.878   0.895  0.00  0.00    -0.081 Cl
ENDROOT
BRANCH   1   9
ATOM      9  O   UNL d   1      -0.753  -5.704  -0.096  0.00  0.00    -0.306 OA
BRANCH   9  10
ATOM     10  C   UNL d   1      -0.032  -6.683   0.558  0.00  0.00     0.098 A 
ATOM     11  C   UNL d   1      -0.311  -8.013   0.200  0.00  0.00     0.070 A 
ATOM     12  C   UNL d   1       0.413  -9.073   0.750  0.00  0.00     0.062 A 
ATOM     13 CL   UNL d   1      -1.554  -8.390  -0.942  0.00  0.00    -0.081 Cl
ATOM     14  C   UNL d   1       1.428  -8.799   1.672  0.00  0.00     0.104 A 
ATOM     15  C   UNL d   1       1.686  -7.483   2.078  0.00  0.00     0.039 A 
ATOM     16  C   UNL d   1       0.938  -6.431   1.538  0.00  0.00     0.041 A 
BRANCH  14  17
ATOM     17  N   UNL d   1       2.235  -9.899   2.214  0.00  0.00    -0.116 N 
ATOM     18  O   UNL d   1       1.924 -11.054   1.892  0.00  0.00    -0.532 OA
ATOM     19  O   UNL d   1       3.181  -9.605   2.958  0.00  0.00    -0.532 OA
ENDBRANCH  14  17
ENDBRANCH   9  10
ENDBRANCH   1   9
BRANCH   2  20
ATOM     20  S   UNL d   1       0.791   0.032   0.006  0.00  0.00     0.239 S 
ATOM     21  O   UNL d   1      -0.414   0.817  -0.118  0.00  0.00    -0.206 OA
ATOM     22  O   UNL d   1       1.950   0.239  -0.829  0.00  0.00    -0.206 OA
BRANCH  20  23
ATOM     23  N   UNL d   1       1.316   0.216   1.588  0.00  0.00    -0.225 NA
ATOM     24  H   UNL d   1       0.704   0.869   2.081  0.00  0.00     0.136 HD
ATOM     25  H   UNL d   1       2.294   0.500   1.595  0.00  0.00     0.136 HD
ENDBRANCH  20  23
ENDBRANCH   2  20
TORSDOF 5
