REMARK  4 active torsions:
REMARK  status: ('A' for Active; 'I' for Inactive)
REMARK    1  A    between atoms: C_5  and  C_1 
REMARK    2  A    between atoms: C_6  and  C_5 
REMARK    3  A    between atoms: C_10  and  C_5 
REMARK    4  A    between atoms: O_12  and  C_6 
ROOT
ATOM      1  C   UNL d   1       1.792  -0.818   0.742  0.00  0.00     0.163 C 
ATOM      2  S   UNL d   1       0.539  -1.724  -0.260  0.00  0.00    -0.112 SA
ATOM      3  C   UNL d   1       2.035   0.522   0.043  0.00  0.00     0.237 C 
ATOM      4  N   UNL d   1       0.948   1.321  -0.212  0.00  0.00    -0.325 N 
ATOM      5  C   UNL d   1      -0.729  -0.470  -0.194  0.00  0.00     0.028 A 
ATOM      6  C   UNL d   1      -0.391   0.895  -0.181  0.00  0.00     0.051 A 
ATOM      7  O   UNL d   1       3.171   0.931  -0.200  0.00  0.00    -0.272 OA
ATOM      8  C   UNL d   1      -2.070  -0.853  -0.135  0.00  0.00     0.021 A 
ATOM      9  C   UNL d   1      -1.395   1.863  -0.126  0.00  0.00     0.031 A 
ATOM     10  C   UNL d   1      -3.067   0.117  -0.035  0.00  0.00     0.002 A 
ATOM     11  C   UNL d   1      -2.731   1.471  -0.028  0.00  0.00     0.002 A 
ATOM     12  H   UNL d   1       1.161   2.271  -0.492  0.00  0.00     0.169 HD
ENDROOT
BRANCH   1  13
ATOM     13  C   UNL d   1       1.371  -0.625   2.224  0.00  0.00     0.140 C 
BRANCH  13  14
ATOM     14  C   UNL d   1       1.142  -1.979   2.892  0.00  0.00     0.150 C 
ATOM     15  O   UNL d   1       0.066  -2.561   2.880  0.00  0.00    -0.649 OA
BRANCH  14  16
ATOM     16  O   UNL d   1       2.218  -2.534   3.496  0.00  0.00    -0.776 OA
ATOM     17  H   UNL d   1       3.006  -1.961   3.556  0.00  0.00     0.167 HD
ENDBRANCH  14  16
ENDBRANCH  13  14
BRANCH  13  18
ATOM     18  C   UNL d   1       2.249   0.294   3.080  0.00  0.00    -0.042 A 
ATOM     19  C   UNL d   1       1.638   1.023   4.118  0.00  0.00     0.008 A 
ATOM     20  C   UNL d   1       2.383   1.876   4.933  0.00  0.00     0.001 A 
ATOM     21  C   UNL d   1       3.753   2.006   4.734  0.00  0.00     0.000 A 
ATOM     22  C   UNL d   1       4.377   1.280   3.721  0.00  0.00     0.001 A 
ATOM     23  C   UNL d   1       3.633   0.428   2.899  0.00  0.00     0.008 A 
ENDBRANCH  13  18
ENDBRANCH   1  13
TORSDOF 4
