REMARK  4 active torsions:
REMARK  status: ('A' for Active; 'I' for Inactive)
REMARK    1  A    between atoms: C_6  and  N_1 
REMARK    2  A    between atoms: C_7  and  C_10 
REMARK    3  A    between atoms: O_19  and  C_7 
REMARK    4  A    between atoms: C_22  and  O_19 
ROOT
ATOM      1  N   UNL d   1      -2.475  -0.748   0.083  0.00  0.00    -0.244 N 
ATOM      2  C   UNL d   1      -1.430  -1.454   0.642  0.00  0.00     0.267 A 
ATOM      3  C   UNL d   1      -2.008   0.408  -0.516  0.00  0.00     0.266 A 
ATOM      4  C   UNL d   1      -0.232  -0.682   0.423  0.00  0.00     0.064 A 
ATOM      5  C   UNL d   1      -0.565   0.459  -0.265  0.00  0.00     0.051 A 
ATOM      6  O   UNL d   1      -1.375  -2.543   1.187  0.00  0.00    -0.267 OA
ATOM      7  O   UNL d   1      -2.582   1.284  -1.135  0.00  0.00    -0.267 OA
ATOM      8  N   UNL d   1       2.041  -0.047   0.468  0.00  0.00    -0.374 N 
ATOM      9  HN  UNL d   1       3.012  -0.224   0.727  1.00  0.00     0.164 HD
ATOM     10  C   UNL d   1       1.065  -0.932   0.771  0.00  0.00     0.105 A 
ATOM     11  C   UNL d   1       0.391   1.395  -0.594  0.00  0.00     0.035 A 
ATOM     12  C   UNL d   1       1.685   1.090  -0.196  0.00  0.00     0.088 A 
ENDROOT
BRANCH   1  13
ATOM     13  C   UNL d   1      -3.816  -1.219   0.069  0.00  0.00     0.046 A 
ATOM     14  C   UNL d   1      -4.228  -2.192   0.998  0.00  0.00     0.031 A 
ATOM     15  C   UNL d   1      -5.484  -2.791   0.923  0.00  0.00     0.020 A 
ATOM     16  C   UNL d   1      -6.373  -2.421  -0.082  0.00  0.00     0.039 A 
ATOM     17  C   UNL d   1      -6.016  -1.400  -0.972  0.00  0.00     0.020 A 
ATOM     18  C   UNL d   1      -4.751  -0.795  -0.887  0.00  0.00     0.031 A 
BRANCH  16  19
ATOM     19  C   UNL d   1      -7.606  -3.229  -0.233  0.00  0.00     0.293 C 
ATOM     20  O   UNL d   1      -7.723  -4.355   0.222  0.00  0.00    -0.259 OA
BRANCH  19  21
ATOM     21  O   UNL d   1      -8.505  -2.574  -1.005  0.00  0.00    -0.318 OA
BRANCH  21  22
ATOM     22  C   UNL d   1      -9.525  -3.402  -1.578  0.00  0.00     0.174 C 
ATOM     23  C   UNL d   1      -9.043  -3.822  -2.954  0.00  0.00     0.034 C 
ENDBRANCH  21  22
ENDBRANCH  19  21
ENDBRANCH  16  19
ENDBRANCH   1  13
TORSDOF 4
