REMARK  8 active torsions:
REMARK  status: ('A' for Active; 'I' for Inactive)
REMARK    1  A    between atoms: C_7  and  N_1 
REMARK    2  A    between atoms: S_14  and  C_5 
REMARK    3  A    between atoms: C_6  and  O_11 
REMARK    4  A    between atoms: C_8  and  C_12 
REMARK    5  A    between atoms: O_22  and  C_8 
REMARK    6  A    between atoms: O_11  and  C_20 
REMARK    7  A    between atoms: C_12  and  C_21 
REMARK    8  A    between atoms: C_21  and  S_14 
ROOT
ATOM      1  N   UNL d   1       0.005   0.847  -0.090  0.00  0.00    -0.251 N 
ATOM      2  C   UNL d   1      -1.115   0.059   0.013  0.00  0.00     0.232 C 
ATOM      3  C   UNL d   1       1.152   0.086  -0.056  0.00  0.00     0.245 C 
ATOM      4  C   UNL d   1      -0.712  -1.389  -0.007  0.00  0.00     0.128 C 
ATOM      5  C   UNL d   1       0.793  -1.369  -0.199  0.00  0.00     0.149 C 
ATOM      6  O   UNL d   1      -2.285   0.398   0.119  0.00  0.00    -0.273 OA
ATOM      7  O   UNL d   1       2.301   0.471   0.124  0.00  0.00    -0.271 OA
ENDROOT
BRANCH   1   8
ATOM      8  C   UNL d   1       0.016   2.270  -0.110  0.00  0.00     0.045 A 
ATOM      9  C   UNL d   1      -1.037   3.034   0.411  0.00  0.00     0.033 A 
ATOM     10  C   UNL d   1      -0.987   4.438   0.419  0.00  0.00     0.039 A 
ATOM     11  C   UNL d   1       0.123   5.105  -0.090  0.00  0.00     0.078 A 
ATOM     12  C   UNL d   1       1.143   4.359  -0.675  0.00  0.00     0.039 A 
ATOM     13  C   UNL d   1       1.097   2.963  -0.675  0.00  0.00     0.033 A 
BRANCH  11  14
ATOM     14  O   UNL d   1       0.316   6.450  -0.123  0.00  0.00    -0.255 OA
BRANCH  14  15
ATOM     15  C   UNL d   1      -0.248   7.262   0.896  0.00  0.00     0.530 C 
ATOM     16  F   UNL d   1      -0.702   6.572   1.964  0.00  0.00    -0.144 F 
ATOM     17  F   UNL d   1       0.703   8.118   1.334  0.00  0.00    -0.144 F 
ATOM     18  F   UNL d   1      -1.263   7.988   0.380  0.00  0.00    -0.144 F 
ENDBRANCH  14  15
ENDBRANCH  11  14
ENDBRANCH   1   8
BRANCH   5  19
ATOM     19  S   UNL d   1       1.279  -2.005  -1.849  0.00  0.00    -0.154 SA
BRANCH  19  20
ATOM     20  C   UNL d   1       3.096  -1.791  -1.748  0.00  0.00     0.085 C 
BRANCH  20  21
ATOM     21  C   UNL d   1       3.753  -2.339  -3.008  0.00  0.00     0.120 C 
BRANCH  21  22
ATOM     22  C   UNL d   1       5.250  -2.133  -2.954  0.00  0.00     0.140 C 
ATOM     23  O   UNL d   1       5.863  -1.668  -2.011  0.00  0.00    -0.650 OA
BRANCH  22  24
ATOM     24  O   UNL d   1       5.863  -2.541  -4.089  0.00  0.00    -0.776 OA
ATOM     25  H   UNL d   1       5.254  -2.897  -4.766  0.00  0.00     0.167 HD
ENDBRANCH  22  24
ENDBRANCH  21  22
ENDBRANCH  20  21
ENDBRANCH  19  20
ENDBRANCH   5  19
TORSDOF 8
