REMARK  7 active torsions:
REMARK  status: ('A' for Active; 'I' for Inactive)
REMARK    1  A    between atoms: C_7  and  N_1 
REMARK    2  A    between atoms: C_11  and  C_3 
REMARK    3  A    between atoms: C_9  and  C_4 
REMARK    4  A    between atoms: O_10  and  C_6 
REMARK    5  A    between atoms: C_12  and  C_7 
REMARK    6  A    between atoms: C_17  and  C_11 
REMARK    7  A    between atoms: C_18  and  C_17 
ROOT
ATOM      1  N   UNL d   1      -0.624   1.193  -0.056  0.00  0.00    -0.309 N 
ATOM      2  C   UNL d   1      -1.357   0.006  -0.191  0.00  0.00     0.257 A 
ATOM      3  C   UNL d   1      -0.598  -1.284  -0.069  0.00  0.00     0.043 A 
ATOM      4  C   UNL d   1       0.764   1.186   0.086  0.00  0.00     0.050 A 
ATOM      5  C   UNL d   1       1.440   0.023   0.125  0.00  0.00     0.067 A 
ATOM      6  C   UNL d   1       0.735  -1.228   0.061  0.00  0.00     0.079 A 
ATOM      7  O   UNL d   1      -2.568  -0.020  -0.399  0.00  0.00    -0.267 OA
ENDROOT
BRANCH   1   8
ATOM      8  C   UNL d   1      -1.393   2.446  -0.072  0.00  0.00     0.171 C 
BRANCH   8   9
ATOM      9  C   UNL d   1      -1.199   3.298  -1.309  0.00  0.00    -0.040 A 
ATOM     10  C   UNL d   1      -1.062   2.731  -2.584  0.00  0.00     0.009 A 
ATOM     11  C   UNL d   1      -0.761   3.534  -3.686  0.00  0.00     0.001 A 
ATOM     12  C   UNL d   1      -0.640   4.914  -3.532  0.00  0.00     0.000 A 
ATOM     13  C   UNL d   1      -0.850   5.497  -2.284  0.00  0.00     0.001 A 
ATOM     14  C   UNL d   1      -1.135   4.694  -1.179  0.00  0.00     0.009 A 
ENDBRANCH   8   9
ENDBRANCH   1   8
BRANCH   4  15
ATOM     15  C   UNL d   1       1.569   2.422   0.147  0.00  0.00    -0.009 A 
ATOM     16  C   UNL d   1       2.031   3.013  -1.038  0.00  0.00     0.014 A 
ATOM     17  C   UNL d   1       2.804   4.173  -1.004  0.00  0.00     0.001 A 
ATOM     18  C   UNL d   1       3.164   4.729   0.221  0.00  0.00     0.000 A 
ATOM     19  C   UNL d   1       2.744   4.129   1.408  0.00  0.00     0.001 A 
ATOM     20  C   UNL d   1       1.946   2.981   1.373  0.00  0.00     0.014 A 
ENDBRANCH   4  15
BRANCH   3  21
ATOM     21  C   UNL d   1      -1.386  -2.569  -0.096  0.00  0.00     0.047 C 
BRANCH  21  22
ATOM     22  C   UNL d   1      -1.399  -3.335   1.236  0.00  0.00     0.004 C 
BRANCH  22  23
ATOM     23  C   UNL d   1      -2.001  -2.541   2.397  0.00  0.00    -0.004 C 
ATOM     24  C   UNL d   1      -2.006  -3.362   3.678  0.00  0.00     0.005 C 
ENDBRANCH  22  23
ENDBRANCH  21  22
ENDBRANCH   3  21
BRANCH   6  25
ATOM     25  O   UNL d   1       1.500  -2.372   0.151  0.00  0.00    -0.360 OA
ATOM     26  H   UNL d   1       2.439  -2.130   0.228  0.00  0.00     0.217 HD
ENDBRANCH   6  25
TORSDOF 7
