REMARK  3 active torsions:
REMARK  status: ('A' for Active; 'I' for Inactive)
REMARK    1  A    between atoms: C_7  and  C_1 
REMARK    2  A    between atoms: C_8  and  C_2 
REMARK    3  A    between atoms: C_6  and  C_4 
ROOT
ATOM      1  C   UNL d   1      -0.058   1.104  -0.046  0.00  0.00     0.097 A 
ATOM      2  C   UNL d   1       1.238   0.626   0.084  0.00  0.00     0.012 A 
ATOM      3  O   UNL d   1      -0.937   0.049  -0.082  0.00  0.00    -0.308 OA
ATOM      4  C   UNL d   1      -0.209  -1.106  -0.013  0.00  0.00     0.087 A 
ATOM      5  C   UNL d   1       1.129  -0.792   0.103  0.00  0.00     0.053 A 
ENDROOT
BRANCH   4   6
ATOM      6  C   UNL d   1      -0.942  -2.369  -0.090  0.00  0.00    -0.002 A 
ATOM      7  C   UNL d   1      -2.344  -2.414  -0.082  0.00  0.00     0.016 A 
ATOM      8  C   UNL d   1      -3.023  -3.637  -0.167  0.00  0.00     0.024 A 
ATOM      9  C   UNL d   1      -2.306  -4.826  -0.264  0.00  0.00     0.034 A 
ATOM     10  C   UNL d   1      -0.915  -4.806  -0.273  0.00  0.00     0.024 A 
ATOM     11 CL   UNL d   1      -3.138  -6.327  -0.376  0.00  0.00    -0.084 Cl
ATOM     12  C   UNL d   1      -0.240  -3.584  -0.185  0.00  0.00     0.016 A 
ENDBRANCH   4   6
BRANCH   1  13
ATOM     13  C   UNL d   1      -0.669   2.428  -0.161  0.00  0.00    -0.001 A 
ATOM     14  C   UNL d   1      -0.077   3.425  -0.949  0.00  0.00     0.014 A 
ATOM     15  C   UNL d   1      -0.590   4.724  -0.965  0.00  0.00     0.001 A 
ATOM     16  C   UNL d   1      -1.718   5.036  -0.211  0.00  0.00     0.000 A 
ATOM     17  C   UNL d   1      -2.344   4.045   0.544  0.00  0.00     0.001 A 
ATOM     18  C   UNL d   1      -1.824   2.747   0.567  0.00  0.00     0.014 A 
ENDBRANCH   1  13
BRANCH   2  19
ATOM     19  C   UNL d   1       2.457   1.425   0.161  0.00  0.00    -0.023 A 
ATOM     20  C   UNL d   1       2.515   2.617   0.895  0.00  0.00     0.012 A 
ATOM     21  C   UNL d   1       3.687   3.377   0.922  0.00  0.00     0.001 A 
ATOM     22  C   UNL d   1       4.822   2.937   0.246  0.00  0.00     0.000 A 
ATOM     23  C   UNL d   1       4.788   1.735  -0.458  0.00  0.00     0.001 A 
ATOM     24  C   UNL d   1       3.611   0.985  -0.502  0.00  0.00     0.012 A 
ENDBRANCH   2  19
TORSDOF 3
