REMARK  6 active torsions:
REMARK  status: ('A' for Active; 'I' for Inactive)
REMARK    1  A    between atoms: S_2  and  C_1 
REMARK    2  A    between atoms: N_7  and  S_2 
REMARK    3  A    between atoms: C_8  and  C_3 
REMARK    4  A    between atoms: C_11  and  C_4 
REMARK    5  A    between atoms: O_18  and  C_8 
REMARK    6  A    between atoms: C_25  and  O_18 
ROOT
ATOM      1  C   UNL d   1      -1.778  -0.631  -0.209  0.00  0.00     0.128 A 
ATOM      2  C   UNL d   1      -0.433  -1.125  -0.126  0.00  0.00     0.094 A 
ATOM      3  C   UNL d   1      -1.703   0.739  -0.412  0.00  0.00     0.110 A 
ATOM      4  O   UNL d   1      -0.380   1.106  -0.400  0.00  0.00    -0.312 OA
ATOM      5  C   UNL d   1       0.376  -0.007  -0.212  0.00  0.00     0.068 A 
ATOM      6  C   UNL d   1       1.838   0.219  -0.150  0.00  0.00     0.078 C 
ENDROOT
BRANCH   1   7
ATOM      7  S   UNL d   1      -3.200  -1.580   0.022  0.00  0.00     0.247 S 
ATOM      8  O   UNL d   1      -2.780  -2.743   0.765  0.00  0.00    -0.206 OA
ATOM      9  O   UNL d   1      -4.153  -0.669   0.627  0.00  0.00    -0.206 OA
BRANCH   7  10
ATOM     10  N   UNL d   1      -3.808  -2.049  -1.498  0.00  0.00    -0.202 NA
ATOM     11  C   UNL d   1      -3.082  -3.142  -2.224  0.00  0.00     0.134 C 
ATOM     12  C   UNL d   1      -3.485  -4.530  -1.703  0.00  0.00     0.183 C 
ATOM     13  O   UNL d   1      -4.909  -4.719  -1.793  0.00  0.00    -0.389 OA
ATOM     14  C   UNL d   1      -5.602  -3.720  -1.029  0.00  0.00     0.183 C 
ATOM     15  C   UNL d   1      -5.279  -2.317  -1.548  0.00  0.00     0.134 C 
ENDBRANCH   7  10
ENDBRANCH   1   7
BRANCH   2  16
ATOM     16  C   UNL d   1       0.027  -2.488   0.061  0.00  0.00     0.297 C 
ATOM     17  O   UNL d   1      -0.469  -3.452  -0.504  0.00  0.00    -0.259 OA
BRANCH  16  18
ATOM     18  O   UNL d   1       1.054  -2.555   0.949  0.00  0.00    -0.318 OA
BRANCH  18  19
ATOM     19  C   UNL d   1       1.278  -3.837   1.550  0.00  0.00     0.174 C 
ATOM     20  C   UNL d   1       0.615  -3.805   2.913  0.00  0.00     0.034 C 
ENDBRANCH  18  19
ENDBRANCH  16  18
ENDBRANCH   2  16
BRANCH   3  21
ATOM     21  C   UNL d   1      -2.631   1.861  -0.620  0.00  0.00    -0.001 A 
ATOM     22  C   UNL d   1      -2.269   3.175  -0.273  0.00  0.00     0.015 A 
ATOM     23  C   UNL d   1      -3.142   4.254  -0.487  0.00  0.00     0.007 A 
ATOM     24  C   UNL d   1      -4.404   4.045  -1.049  0.00  0.00    -0.062 A 
ATOM     25  C   UNL d   1      -4.776   2.744  -1.388  0.00  0.00     0.007 A 
ATOM     26  C   UNL d   1      -5.338   5.194  -1.288  0.00  0.00     0.048 C 
ATOM     27  C   UNL d   1      -3.893   1.675  -1.196  0.00  0.00     0.015 A 
ENDBRANCH   3  21
TORSDOF 6
