REMARK  5 active torsions:
REMARK  status: ('A' for Active; 'I' for Inactive)
REMARK    1  A    between atoms: C_5  and  C_1 
REMARK    2  A    between atoms: N_3  and  C_2 
REMARK       I    between atoms: C_4  and  N_3 
REMARK    3  A    between atoms: C_9  and  C_4 
REMARK    4  A    between atoms: O_18  and  C_5 
REMARK    5  A    between atoms: C_10  and  C_11 
ROOT
ATOM      1  N   UNL d   1       2.512   1.559   0.418  0.00  0.00    -0.321 N 
ATOM      2  C   UNL d   1       2.579   2.794  -0.199  0.00  0.00     0.256 C 
ATOM      3  O   UNL d   1       3.481   3.205  -0.918  0.00  0.00    -0.267 OA
ATOM      4  H   UNL d   1       1.589   1.261   0.714  0.00  0.00     0.169 HD
ENDROOT
BRANCH   2   5
ATOM      5  C   UNL d   1       1.325   3.601  -0.044  0.00  0.00     0.032 A 
ATOM      6  C   UNL d   1       0.530   3.528   1.106  0.00  0.00     0.017 A 
ATOM      7  C   UNL d   1      -0.712   4.176   1.149  0.00  0.00     0.009 A 
ATOM      8  C   UNL d   1      -1.192   4.926   0.058  0.00  0.00    -0.051 A 
ATOM      9  C   UNL d   1      -0.346   5.037  -1.061  0.00  0.00     0.009 A 
ATOM     10  C   UNL d   1       0.896   4.388  -1.111  0.00  0.00     0.017 A 
BRANCH   8  11
ATOM     11  C   UNL d   1      -2.589   5.579   0.112  0.00  0.00    -0.024 C 
ATOM     12  C   UNL d   1      -2.958   6.357  -1.172  0.00  0.00     0.019 C 
ATOM     13  C   UNL d   1      -3.675   4.497   0.308  0.00  0.00     0.019 C 
ATOM     14  C   UNL d   1      -2.667   6.575   1.288  0.00  0.00     0.019 C 
ENDBRANCH   8  11
ENDBRANCH   2   5
BRANCH   1  15
ATOM     15  C   UNL d   1       3.454   0.531   0.380  0.00  0.00     0.058 A 
ATOM     16  C   UNL d   1       4.823   0.576   0.157  0.00  0.00     0.106 A 
ATOM     17  S   UNL d   1       5.497  -1.012   0.074  0.00  0.00    -0.094 SA
ATOM     18  C   UNL d   1       4.017  -1.745   0.481  0.00  0.00     0.053 A 
ATOM     19  C   UNL d   1       3.017  -0.814   0.627  0.00  0.00     0.038 A 
BRANCH  16  20
ATOM     20  C   UNL d   1       5.760   1.678   0.041  0.00  0.00     0.302 C 
ATOM     21  O   UNL d   1       6.764   1.709  -0.659  0.00  0.00    -0.259 OA
BRANCH  20  22
ATOM     22  O   UNL d   1       5.416   2.654   0.935  0.00  0.00    -0.322 OA
ATOM     23  C   UNL d   1       6.160   3.861   0.782  0.00  0.00     0.213 C 
ENDBRANCH  20  22
ENDBRANCH  16  20
ENDBRANCH   1  15
TORSDOF 5
