REMARK  7 active torsions:
REMARK  status: ('A' for Active; 'I' for Inactive)
REMARK    1  A    between atoms: C_20  and  C_9 
REMARK    2  A    between atoms: C_10  and  C_19 
REMARK    3  A    between atoms: C_19  and  C_22 
REMARK    4  A    between atoms: C_21  and  C_20 
REMARK    5  A    between atoms: C_24  and  C_21 
REMARK    6  A    between atoms: C_22  and  C_23 
REMARK    7  A    between atoms: C_23  and  C_24 
ROOT
ATOM      1  C   UNL d   1       4.600  -4.051  -0.439  0.00  0.00     0.000 C 
ENDROOT
BRANCH   1   2
ATOM      2  C   UNL d   1       5.181  -5.450  -0.643  0.00  0.00     0.005 C 
BRANCH   2   3
ATOM      3  C   UNL d   1       6.710  -5.405  -0.599  0.00  0.00     0.043 C 
BRANCH   3   4
ATOM      4  C   UNL d   1       7.330  -6.759  -0.801  0.00  0.00    -0.004 C 
ATOM      5  C   UNL d   1       7.662  -7.163  -2.191  0.00  0.00     0.179 C 
ATOM      6  C   UNL d   1       8.500  -8.361  -2.373  0.00  0.00     0.078 C 
ATOM      7  O   UNL d   1       7.283  -6.524  -3.164  0.00  0.00    -0.288 OA
ATOM      8  C   UNL d   1       8.806  -9.171  -1.354  0.00  0.00     0.064 C 
ATOM      9  C   UNL d   1       8.289  -8.885   0.012  0.00  0.00     0.190 C 
ATOM     10 BR   UNL d   1       9.890 -10.672  -1.592  0.00  0.00    -0.047 Br
ATOM     11  C   UNL d   1       7.629  -7.579   0.216  0.00  0.00     0.067 C 
ATOM     12  O   UNL d   1       8.402  -9.658   0.955  0.00  0.00    -0.287 OA
ENDBRANCH   3   4
ENDBRANCH   2   3
ENDBRANCH   1   2
BRANCH   1  13
ATOM     13  C   UNL d   1       3.071  -4.061  -0.459  0.00  0.00     0.000 C 
BRANCH  13  14
ATOM     14  C   UNL d   1       2.528  -2.646  -0.255  0.00  0.00     0.005 C 
BRANCH  14  15
ATOM     15  C   UNL d   1       0.996  -2.618  -0.216  0.00  0.00     0.043 C 
BRANCH  15  16
ATOM     16  C   UNL d   1       0.457  -1.215  -0.101  0.00  0.00    -0.004 C 
ATOM     17  C   UNL d   1      -0.305  -0.649  -1.046  0.00  0.00     0.067 C 
ATOM     18  C   UNL d   1      -0.806   0.737  -0.939  0.00  0.00     0.190 C 
ATOM     19  C   UNL d   1      -0.290   1.555   0.191  0.00  0.00     0.064 C 
ATOM     20  O   UNL d   1      -1.597   1.160  -1.776  0.00  0.00    -0.287 OA
ATOM     21  C   UNL d   1       0.446   0.988   1.151  0.00  0.00     0.078 C 
ATOM     22 BR   UNL d   1      -0.694   3.378   0.220  0.00  0.00    -0.047 Br
ATOM     23  C   UNL d   1       0.776  -0.447   1.131  0.00  0.00     0.179 C 
ATOM     24  O   UNL d   1       1.310  -0.961   2.105  0.00  0.00    -0.288 OA
ENDBRANCH  15  16
ENDBRANCH  14  15
ENDBRANCH  13  14
ENDBRANCH   1  13
TORSDOF 7
