REMARK  1 active torsions:
REMARK  status: ('A' for Active; 'I' for Inactive)
REMARK       I    between atoms: C_6  and  N_1 
REMARK    1  A    between atoms: C_14  and  C_7 
ROOT
ATOM      1  N   UNL d   1      -1.748   0.363   0.060  0.00  0.00    -0.274 N 
ATOM      2  C   UNL d   1      -0.772   1.360   0.029  0.00  0.00     0.277 C 
ATOM      3  C   UNL d   1       0.672   0.903   0.021  0.00  0.00     0.104 C 
ATOM      4  N   UNL d   1       0.982  -0.430   0.044  0.00  0.00    -0.321 N 
ATOM      5  C   UNL d   1       0.074  -1.436   0.012  0.00  0.00     0.240 C 
ATOM      6  C   UNL d   1      -3.096   0.731   0.083  0.00  0.00     0.223 C 
ATOM      7  C   UNL d   1       1.625   1.855   0.026  0.00  0.00     0.048 C 
ATOM      8  C   UNL d   1      -1.377  -1.035  -0.138  0.00  0.00     0.238 C 
ATOM      9  O   UNL d   1      -0.994   2.571   0.040  0.00  0.00    -0.265 OA
ATOM     10  O   UNL d   1       0.428  -2.612   0.024  0.00  0.00    -0.271 OA
ATOM     11  O   UNL d   1      -3.504   1.894   0.093  0.00  0.00    -0.273 OA
ATOM     12  C   UNL d   1      -4.160  -0.349   0.118  0.00  0.00     0.117 C 
ATOM     13  H   UNL d   1       1.953  -0.723   0.093  0.00  0.00     0.169 HD
ENDROOT
BRANCH   7  14
ATOM     14  C   UNL d   1       3.066   1.605   0.027  0.00  0.00    -0.018 A 
ATOM     15  C   UNL d   1       3.773   1.460   1.217  0.00  0.00     0.099 A 
ATOM     16  N   UNL d   1       5.099   1.196   1.281  0.00  0.00    -0.374 N 
ATOM     17  C   UNL d   1       5.755   1.089   0.105  0.00  0.00     0.087 A 
ATOM     18  HN  UNL d   1       5.580   1.085   2.174  1.00  0.00     0.164 HD
ATOM     19  C   UNL d   1       5.144   1.225  -1.131  0.00  0.00     0.018 A 
ATOM     20  C   UNL d   1       3.776   1.488  -1.168  0.00  0.00     0.014 A 
ENDBRANCH   7  14
TORSDOF 1
