REMARK  4 active torsions:
REMARK  status: ('A' for Active; 'I' for Inactive)
REMARK       I    between atoms: N_5  and  C_1 
REMARK    1  A    between atoms: C_13  and  C_1 
REMARK    2  A    between atoms: C_2  and  C_16 
REMARK    3  A    between atoms: C_3  and  C_13 
REMARK    4  A    between atoms: C_16  and  N_5 
ROOT
ATOM      1  C   UNL d   1       1.008   0.018  -0.088  0.00  0.00     0.222 C 
ATOM      2  N   UNL d   1       0.291   0.706   0.866  0.00  0.00    -0.355 N 
ATOM      3  O   UNL d   1       0.472  -0.666  -0.958  0.00  0.00    -0.273 OA
ATOM      4  H   UNL d   1       0.752   1.028   1.708  0.00  0.00     0.162 HD
ENDROOT
BRANCH   1   5
ATOM      5  C   UNL d   1       2.516   0.151   0.012  0.00  0.00     0.141 C 
BRANCH   5   6
ATOM      6  C   UNL d   1       3.135  -0.867   0.938  0.00  0.00    -0.044 A 
ATOM      7  C   UNL d   1       3.017  -2.241   0.678  0.00  0.00     0.050 A 
ATOM      8  C   UNL d   1       3.574  -3.171   1.555  0.00  0.00     0.119 A 
ATOM      9  F   UNL d   1       3.441  -4.479   1.299  0.00  0.00    -0.206 F 
ATOM     10  C   UNL d   1       4.259  -2.766   2.691  0.00  0.00     0.084 A 
ATOM     11  C   UNL d   1       4.394  -1.407   2.936  0.00  0.00     0.119 A 
ATOM     12  C   UNL d   1       3.846  -0.458   2.075  0.00  0.00     0.050 A 
ATOM     13  F   UNL d   1       5.061  -0.997   4.023  0.00  0.00    -0.206 F 
ENDBRANCH   5   6
ENDBRANCH   1   5
BRANCH   2  14
ATOM     14  C   UNL d   1      -1.142   0.533   0.923  0.00  0.00     0.187 C 
BRANCH  14  15
ATOM     15  C   UNL d   1      -1.746   1.333   2.019  0.00  0.00     0.070 A 
ATOM     16  O   UNL d   1      -0.997   1.556   3.141  0.00  0.00    -0.325 OA
ATOM     17  C   UNL d   1      -1.784   2.242   4.010  0.00  0.00     0.142 A 
ATOM     18  C   UNL d   1      -3.029   2.465   3.467  0.00  0.00     0.027 A 
ATOM     19  C   UNL d   1      -3.002   1.884   2.178  0.00  0.00     0.036 A 
ENDBRANCH  14  15
ENDBRANCH   2  14
TORSDOF 4
