REMARK  4 active torsions:
REMARK  status: ('A' for Active; 'I' for Inactive)
REMARK    1  A    between atoms: C_5  and  N_1 
REMARK    2  A    between atoms: C_10  and  C_4 
REMARK    3  A    between atoms: O_17  and  C_10 
REMARK    4  A    between atoms: C_20  and  O_17 
ROOT
ATOM      1  N   UNL d   1       0.861  -0.700  -0.058  0.00  0.00    -0.257 N 
ATOM      2  N   UNL d   1       0.923   0.652  -0.086  0.00  0.00    -0.288 N 
ATOM      3  HN  UNL d   1       1.766   1.223  -0.138  1.00  0.00     0.188 HD
ATOM      4  C   UNL d   1      -0.346   1.096  -0.031  0.00  0.00     0.126 A 
ATOM      5  C   UNL d   1      -0.464  -1.127   0.030  0.00  0.00     0.033 A 
ATOM      6  C   UNL d   1      -1.240   0.012  -0.003  0.00  0.00     0.064 A 
ATOM      7  C   UNL d   1      -0.953  -2.518   0.221  0.00  0.00     0.070 C 
ENDROOT
BRANCH   1   8
ATOM      8  C   UNL d   1       2.078  -1.447  -0.090  0.00  0.00     0.100 A 
ATOM      9  C   UNL d   1       3.225  -0.985   0.600  0.00  0.00     0.066 A 
ATOM     10  C   UNL d   1       4.404  -1.744   0.621  0.00  0.00     0.050 A 
ATOM     11 CL   UNL d   1       3.304   0.460   1.561  0.00  0.00    -0.082 Cl
ATOM     12  C   UNL d   1       4.452  -2.977  -0.009  0.00  0.00     0.037 A 
ATOM     13  C   UNL d   1       3.355  -3.435  -0.724  0.00  0.00     0.050 A 
ATOM     14 CL   UNL d   1       5.885  -3.924   0.060  0.00  0.00    -0.084 Cl
ATOM     15  C   UNL d   1       2.194  -2.652  -0.812  0.00  0.00     0.066 A 
ATOM     16 CL   UNL d   1       1.079  -3.164  -2.038  0.00  0.00    -0.082 Cl
ENDBRANCH   1   8
BRANCH   4  17
ATOM     17  C   UNL d   1      -0.690   2.513  -0.047  0.00  0.00     0.311 C 
ATOM     18  O   UNL d   1      -1.852   2.919  -0.132  0.00  0.00    -0.258 OA
BRANCH  17  19
ATOM     19  O   UNL d   1       0.407   3.330  -0.033  0.00  0.00    -0.317 OA
BRANCH  19  20
ATOM     20  C   UNL d   1       0.209   4.641  -0.573  0.00  0.00     0.175 C 
ATOM     21  C   UNL d   1       0.379   4.553  -2.079  0.00  0.00     0.034 C 
ENDBRANCH  19  20
ENDBRANCH  17  19
ENDBRANCH   4  17
TORSDOF 4
