REMARK  6 active torsions:
REMARK  status: ('A' for Active; 'I' for Inactive)
REMARK    1  A    between atoms: N_2  and  C_1 
REMARK    2  A    between atoms: N_5  and  C_3 
REMARK    3  A    between atoms: N_8  and  N_5 
REMARK    4  A    between atoms: N_16  and  N_11 
REMARK    5  A    between atoms: C_14  and  C_13 
REMARK    6  A    between atoms: C_19  and  N_16 
ROOT
ATOM      1  N   UNL d   1       4.449  -1.273  -0.199  0.00  0.00    -0.308 N 
ATOM      2  HN  UNL d   1       5.382  -1.152  -0.593  1.00  0.00     0.186 HD
ATOM      3  C   UNL d   1       3.894  -2.430  -0.010  0.00  0.00     0.125 C 
ENDROOT
BRANCH   1   4
ATOM      4  N   UNL d   1       3.642  -0.223   0.188  0.00  0.00    -0.295 N 
ATOM      5  C   UNL d   1       3.599  -0.006   1.645  0.00  0.00     0.178 C 
BRANCH   4   6
ATOM      6  C   UNL d   1       3.698   0.927  -0.641  0.00  0.00     0.083 A 
ATOM      7  C   UNL d   1       3.582   0.863  -2.048  0.00  0.00     0.132 A 
ATOM      8  C   UNL d   1       3.618   1.998  -2.880  0.00  0.00     0.062 A 
ATOM      9  C   UNL d   1       3.764   3.250  -2.302  0.00  0.00     0.036 A 
ATOM     10  C   UNL d   1       3.873   3.370  -0.922  0.00  0.00     0.026 A 
ATOM     11 CL   UNL d   1       3.788   4.658  -3.288  0.00  0.00    -0.084 Cl
ATOM     12  C   UNL d   1       3.840   2.227  -0.109  0.00  0.00     0.035 A 
BRANCH   7  13
ATOM     13  N   UNL d   1       3.324  -0.399  -2.713  0.00  0.00    -0.113 N 
ATOM     14  O   UNL d   1       2.245  -0.963  -2.475  0.00  0.00    -0.532 OA
ATOM     15  O   UNL d   1       4.158  -0.772  -3.552  0.00  0.00    -0.532 OA
ENDBRANCH   7  13
ENDBRANCH   4   6
ENDBRANCH   1   4
BRANCH   3  16
ATOM     16  C   UNL d   1       4.675  -3.684  -0.210  0.00  0.00     0.120 C 
ATOM     17  N   UNL d   1       4.105  -4.796   0.114  0.00  0.00    -0.327 N 
ATOM     18  HN  UNL d   1       3.136  -4.845   0.430  1.00  0.00     0.180 HD
BRANCH  17  19
ATOM     19  N   UNL d   1       4.899  -5.902   0.001  0.00  0.00    -0.206 NA
ATOM     20  H   UNL d   1       5.733  -5.907   0.590  0.00  0.00     0.153 HD
BRANCH  19  21
ATOM     21  C   UNL d   1       4.218  -7.146   0.086  0.00  0.00     0.027 A 
ATOM     22  C   UNL d   1       2.931  -7.309  -0.446  0.00  0.00     0.025 A 
ATOM     23  C   UNL d   1       2.287  -8.548  -0.410  0.00  0.00     0.002 A 
ATOM     24  C   UNL d   1       2.929  -9.649   0.151  0.00  0.00     0.000 A 
ATOM     25  C   UNL d   1       4.219  -9.512   0.661  0.00  0.00     0.002 A 
ATOM     26  C   UNL d   1       4.864  -8.271   0.613  0.00  0.00     0.025 A 
ENDBRANCH  19  21
ENDBRANCH  17  19
ENDBRANCH   3  16
TORSDOF 6
