REMARK  4 active torsions:
REMARK  status: ('A' for Active; 'I' for Inactive)
REMARK    1  A    between atoms: C_12  and  C_5 
REMARK    2  A    between atoms: C_13  and  C_10 
REMARK    3  A    between atoms: O_15  and  C_12 
REMARK    4  A    between atoms: C_19  and  O_15 
ROOT
ATOM      1  N   UNL d   1      -0.232  -0.657  -0.017  0.00  0.00    -0.243 N 
ATOM      2  C   UNL d   1      -0.171   0.736  -0.019  0.00  0.00     0.129 A 
ATOM      3  N   UNL d   1      -1.517  -1.092   0.009  0.00  0.00    -0.292 N 
ATOM      4  HN  UNL d   1      -1.837  -2.060   0.035  1.00  0.00     0.187 HD
ATOM      5  C   UNL d   1       2.136  -0.815  -0.070  0.00  0.00     0.079 A 
ATOM      6  C   UNL d   1       0.936  -1.443  -0.035  0.00  0.00     0.050 A 
ATOM      7  C   UNL d   1      -1.474   1.173  -0.014  0.00  0.00     0.082 A 
ATOM      8  N   UNL d   1       1.007   1.419  -0.029  0.00  0.00    -0.350 N 
ATOM      9  HN  UNL d   1       1.047   2.438  -0.018  1.00  0.00     0.166 HD
ATOM     10  C   UNL d   1      -2.282   0.010  -0.007  0.00  0.00     0.062 A 
ATOM     11  C   UNL d   1       2.076   0.681  -0.052  0.00  0.00     0.109 A 
ATOM     12  C   UNL d   1       0.708  -2.931   0.015  0.00  0.00     0.071 C 
ENDROOT
BRANCH  10  13
ATOM     13  C   UNL d   1      -3.748  -0.072  -0.021  0.00  0.00    -0.008 A 
ATOM     14  C   UNL d   1      -4.396  -1.319   0.020  0.00  0.00     0.014 A 
ATOM     15  C   UNL d   1      -5.790  -1.407  -0.007  0.00  0.00     0.001 A 
ATOM     16  C   UNL d   1      -6.561  -0.249  -0.079  0.00  0.00     0.000 A 
ATOM     17  C   UNL d   1      -5.937   0.995  -0.119  0.00  0.00     0.001 A 
ATOM     18  C   UNL d   1      -4.542   1.083  -0.088  0.00  0.00     0.014 A 
ENDBRANCH  10  13
BRANCH   5  19
ATOM     19  C   UNL d   1       3.438  -1.520  -0.061  0.00  0.00     0.296 C 
ATOM     20  O   UNL d   1       3.634  -2.647  -0.481  0.00  0.00    -0.259 OA
BRANCH  19  21
ATOM     21  O   UNL d   1       4.354  -0.742   0.570  0.00  0.00    -0.318 OA
BRANCH  21  22
ATOM     22  C   UNL d   1       5.529  -1.423   1.036  0.00  0.00     0.174 C 
ATOM     23  C   UNL d   1       5.285  -1.812   2.482  0.00  0.00     0.034 C 
ENDBRANCH  21  22
ENDBRANCH  19  21
ENDBRANCH   5  19
TORSDOF 4
