REMARK  11 active torsions:
REMARK  status: ('A' for Active; 'I' for Inactive)
REMARK    1  A    between atoms: C_11  and  N_1 
REMARK    2  A    between atoms: N_2  and  C_12 
REMARK    3  A    between atoms: N_15  and  C_11 
REMARK    4  A    between atoms: C_12  and  N_15 
REMARK    5  A    between atoms: C_18  and  N_15 
REMARK    6  A    between atoms: C_23  and  C_18 
REMARK    7  A    between atoms: O_19  and  C_22 
REMARK    8  A    between atoms: C_22  and  C_24 
REMARK    9  A    between atoms: C_25  and  C_23 
REMARK   10  A    between atoms: C_24  and  C_26 
REMARK   11  A    between atoms: C_26  and  C_25 
ROOT
ATOM      1  N   UNL d   1       3.482  -2.417   0.026  0.00  0.00     0.126 N 
ENDROOT
BRANCH   1   2
ATOM      2  C   UNL d   1       3.827  -1.678   1.265  0.00  0.00     0.420 C 
BRANCH   2   3
ATOM      3  N   UNL d   1       3.353  -2.337   2.477  0.00  0.00    -0.245 N 
ATOM      4  N   UNL d   1       2.029  -2.522   2.690  0.00  0.00    -0.018 NA
ATOM      5  N   UNL d   1       1.897  -3.248   3.789  0.00  0.00    -0.282 N 
ATOM      6  C   UNL d   1       3.144  -3.467   4.306  0.00  0.00     0.074 A 
ATOM      7  HN  UNL d   1       1.018  -3.586   4.181  1.00  0.00     0.184 HD
ATOM      8  C   UNL d   1       4.102  -2.859   3.501  0.00  0.00     0.078 A 
ATOM      9  C   UNL d   1       3.542  -4.173   5.449  0.00  0.00     0.033 A 
ATOM     10  C   UNL d   1       5.470  -2.882   3.803  0.00  0.00     0.033 A 
ATOM     11  C   UNL d   1       5.849  -3.581   4.956  0.00  0.00     0.002 A 
ATOM     12  C   UNL d   1       4.905  -4.225   5.761  0.00  0.00     0.002 A 
ENDBRANCH   2   3
ENDBRANCH   1   2
BRANCH   1  13
ATOM     13  C   UNL d   1       2.048  -2.418  -0.332  0.00  0.00     0.420 C 
BRANCH  13  14
ATOM     14  N   UNL d   1       1.418  -1.103  -0.248  0.00  0.00    -0.245 N 
ATOM     15  N   UNL d   1       2.034   0.024  -0.670  0.00  0.00    -0.018 NA
ATOM     16  N   UNL d   1       1.247   1.046  -0.357  0.00  0.00    -0.282 N 
ATOM     17  C   UNL d   1       0.086   0.545   0.172  0.00  0.00     0.074 A 
ATOM     18  HN  UNL d   1       1.468   2.034  -0.487  1.00  0.00     0.184 HD
ATOM     19  C   UNL d   1       0.144  -0.842   0.195  0.00  0.00     0.078 A 
ATOM     20  C   UNL d   1      -1.064   1.191   0.645  0.00  0.00     0.033 A 
ATOM     21  C   UNL d   1      -0.915  -1.648   0.627  0.00  0.00     0.033 A 
ATOM     22  C   UNL d   1      -2.062  -0.988   1.077  0.00  0.00     0.002 A 
ATOM     23  C   UNL d   1      -2.133   0.406   1.101  0.00  0.00     0.002 A 
ENDBRANCH  13  14
ENDBRANCH   1  13
BRANCH   1  24
ATOM     24  C   UNL d   1       4.022  -3.790   0.040  0.00  0.00     0.277 C 
BRANCH  24  25
ATOM     25  C   UNL d   1       3.847  -4.572  -1.274  0.00  0.00     0.030 C 
BRANCH  25  26
ATOM     26  C   UNL d   1       4.437  -3.890  -2.511  0.00  0.00     0.002 C 
BRANCH  26  27
ATOM     27  C   UNL d   1       5.956  -3.767  -2.424  0.00  0.00     0.002 C 
BRANCH  27  28
ATOM     28  C   UNL d   1       6.549  -3.138  -3.684  0.00  0.00     0.026 C 
BRANCH  28  29
ATOM     29  C   UNL d   1       8.067  -3.035  -3.587  0.00  0.00     0.164 C 
BRANCH  29  30
ATOM     30  O   UNL d   1       8.630  -4.337  -3.491  0.00  0.00    -0.401 OA
ATOM     31  H   UNL d   1       9.590  -4.228  -3.395  0.00  0.00     0.209 HD
ENDBRANCH  29  30
ENDBRANCH  28  29
ENDBRANCH  27  28
ENDBRANCH  26  27
ENDBRANCH  25  26
ENDBRANCH  24  25
ENDBRANCH   1  24
TORSDOF 11
