REMARK  3 active torsions:
REMARK  status: ('A' for Active; 'I' for Inactive)
REMARK    1  A    between atoms: C_12  and  N_1 
REMARK    2  A    between atoms: C_14  and  C_12 
REMARK    3  A    between atoms: O_13  and  C_14 
ROOT
ATOM      1  N   UNL d   1       2.145  -0.614  -0.022  0.00  0.00    -0.263 N 
ATOM      2  C   UNL d   1      -0.234  -0.719   0.016  0.00  0.00     0.100 A 
ATOM      3  C   UNL d   1       1.012  -1.441   0.065  0.00  0.00     0.271 A 
ATOM      4  C   UNL d   1       2.100   0.782  -0.053  0.00  0.00     0.330 A 
ATOM      5  C   UNL d   1      -0.304   0.644  -0.042  0.00  0.00     0.059 A 
ATOM      6  N   UNL d   1       0.859   1.372  -0.072  0.00  0.00    -0.307 N 
ATOM      7  S   UNL d   1      -1.765  -1.449   0.039  0.00  0.00    -0.094 SA
ATOM      8  C   UNL d   1      -1.637   1.125  -0.051  0.00  0.00     0.038 A 
ATOM      9  C   UNL d   1      -2.543   0.082  -0.012  0.00  0.00     0.053 A 
ATOM     10  O   UNL d   1       3.094   1.510  -0.028  0.00  0.00    -0.246 OA
ATOM     11  O   UNL d   1       1.093  -2.662   0.196  0.00  0.00    -0.266 OA
ATOM     12  H   UNL d   1       0.835   2.383  -0.091  0.00  0.00     0.170 HD
ENDROOT
BRANCH   1  13
ATOM     13  C   UNL d   1       3.455  -1.263   0.022  0.00  0.00     0.163 C 
BRANCH  13  14
ATOM     14  C   UNL d   1       3.745  -2.148  -1.197  0.00  0.00     0.184 C 
BRANCH  14  15
ATOM     15  O   UNL d   1       3.749  -1.372  -2.391  0.00  0.00    -0.399 OA
ATOM     16  H   UNL d   1       3.932  -1.985  -3.125  0.00  0.00     0.209 HD
ENDBRANCH  14  15
ENDBRANCH  13  14
ENDBRANCH   1  13
TORSDOF 3
