REMARK  6 active torsions:
REMARK  status: ('A' for Active; 'I' for Inactive)
REMARK    1  A    between atoms: C_9  and  C_4 
REMARK    2  A    between atoms: N_7  and  C_10 
REMARK    3  A    between atoms: N_8  and  C_14 
REMARK       I    between atoms: N_16  and  C_9 
REMARK    4  A    between atoms: C_24  and  N_16 
REMARK    5  A    between atoms: C_26  and  C_24 
REMARK    6  A    between atoms: C_27  and  C_26 
ROOT
ATOM      1  C   UNL d   1      -0.438   0.682  -0.275  0.00  0.00     0.005 A 
ATOM      2  C   UNL d   1      -0.973  -0.635  -0.249  0.00  0.00     0.029 A 
ATOM      3  C   UNL d   1       1.372  -0.810  -0.171  0.00  0.00     0.028 A 
ATOM      4  C   UNL d   1      -1.360   1.728  -0.243  0.00  0.00     0.046 A 
ATOM      5  C   UNL d   1       1.025   0.556  -0.257  0.00  0.00    -0.010 A 
ATOM      6  C   UNL d   1       0.137  -1.597  -0.168  0.00  0.00     0.194 A 
ATOM      7  C   UNL d   1      -3.214   0.082  -0.225  0.00  0.00     0.104 A 
ATOM      8  C   UNL d   1      -2.314  -0.972  -0.227  0.00  0.00     0.052 A 
ATOM      9  C   UNL d   1      -2.748   1.416  -0.237  0.00  0.00     0.054 A 
ATOM     10  C   UNL d   1       2.662  -1.310  -0.127  0.00  0.00     0.052 A 
ATOM     11  C   UNL d   1       3.686  -0.374  -0.212  0.00  0.00     0.103 A 
ATOM     12  C   UNL d   1       2.062   1.470  -0.348  0.00  0.00     0.016 A 
ATOM     13  O   UNL d   1       0.045  -2.803  -0.112  0.00  0.00    -0.287 OA
ATOM     14  C   UNL d   1       3.395   1.004  -0.340  0.00  0.00     0.037 A 
ENDROOT
BRANCH   4  15
ATOM     15  C   UNL d   1      -1.081   3.155   0.063  0.00  0.00     0.254 C 
ATOM     16  N   UNL d   1      -0.217   3.944  -0.700  0.00  0.00    -0.352 N 
ATOM     17  C   UNL d   1       0.021   3.642  -2.107  0.00  0.00     0.152 C 
ATOM     18  O   UNL d   1      -1.720   3.594   1.018  0.00  0.00    -0.267 OA
BRANCH  16  19
ATOM     19  C   UNL d   1      -0.121   5.379  -0.366  0.00  0.00     0.125 C 
BRANCH  19  20
ATOM     20  C   UNL d   1       0.080   5.781   1.105  0.00  0.00     0.020 C 
BRANCH  20  21
ATOM     21  C   UNL d   1       1.313   5.164   1.760  0.00  0.00    -0.003 C 
ATOM     22  C   UNL d   1       1.426   5.591   3.218  0.00  0.00     0.005 C 
ENDBRANCH  20  21
ENDBRANCH  19  20
ENDBRANCH  16  19
ENDBRANCH   4  15
BRANCH   7  23
ATOM     23  N   UNL d   1      -4.654  -0.188  -0.157  0.00  0.00    -0.116 N 
ATOM     24  O   UNL d   1      -5.010  -1.374  -0.080  0.00  0.00    -0.532 OA
ATOM     25  O   UNL d   1      -5.426   0.777  -0.186  0.00  0.00    -0.532 OA
ENDBRANCH   7  23
BRANCH  11  26
ATOM     26  N   UNL d   1       5.087  -0.826  -0.171  0.00  0.00    -0.116 N 
ATOM     27  O   UNL d   1       5.292  -2.046  -0.087  0.00  0.00    -0.532 OA
ATOM     28  O   UNL d   1       5.968   0.046  -0.215  0.00  0.00    -0.532 OA
ENDBRANCH  11  26
TORSDOF 6
