REMARK  3 active torsions:
REMARK  status: ('A' for Active; 'I' for Inactive)
REMARK       I    between atoms: N_4  and  C_1 
REMARK       I    between atoms: N_5  and  C_1 
REMARK    1  A    between atoms: N_2  and  N_4 
REMARK    2  A    between atoms: C_8  and  N_5 
REMARK    3  A    between atoms: C_9  and  C_8 
ROOT
ATOM      1  C   UNL d   1       0.910  -0.012  -0.021  0.00  0.00     0.335 C 
ATOM      2  N   UNL d   1       2.282  -0.224   0.049  0.00  0.00    -0.252 N 
ATOM      3  N   UNL d   1       0.215  -1.188   0.181  0.00  0.00    -0.338 N 
ATOM      4  O   UNL d   1       0.363   1.062  -0.233  0.00  0.00    -0.246 OA
ATOM      5  H   UNL d   1       2.613  -1.166   0.160  0.00  0.00     0.191 HD
ATOM      6  H   UNL d   1       0.713  -2.034   0.397  0.00  0.00     0.164 HD
ENDROOT
BRANCH   2   7
ATOM      7  N   UNL d   1       3.161   0.800  -0.133  0.00  0.00    -0.306 N 
ATOM      8  C   UNL d   1       4.441   0.581  -0.079  0.00  0.00    -0.004 C 
ATOM      9  C   UNL d   1       5.129  -0.738   0.187  0.00  0.00     0.064 C 
ATOM     10  C   UNL d   1       5.360   1.764  -0.294  0.00  0.00     0.064 C 
ATOM     11  HN  UNL d   1       2.814   1.742  -0.313  1.00  0.00     0.186 HD
ENDBRANCH   2   7
BRANCH   3  12
ATOM     12  C   UNL d   1      -1.230  -1.251   0.172  0.00  0.00     0.162 C 
BRANCH  12  13
ATOM     13  C   UNL d   1      -1.730  -2.230  -0.863  0.00  0.00    -0.040 A 
ATOM     14  C   UNL d   1      -2.475  -3.361  -0.494  0.00  0.00     0.009 A 
ATOM     15  C   UNL d   1      -2.979  -4.228  -1.467  0.00  0.00     0.001 A 
ATOM     16  C   UNL d   1      -2.744  -3.976  -2.818  0.00  0.00     0.000 A 
ATOM     17  C   UNL d   1      -1.996  -2.864  -3.197  0.00  0.00     0.001 A 
ATOM     18  C   UNL d   1      -1.492  -1.996  -2.226  0.00  0.00     0.009 A 
ENDBRANCH  12  13
ENDBRANCH   3  12
TORSDOF 3
