REMARK  3 active torsions:
REMARK  status: ('A' for Active; 'I' for Inactive)
REMARK    1  A    between atoms: C_5  and  C_1 
REMARK    2  A    between atoms: C_8  and  C_2 
REMARK    3  A    between atoms: O_12  and  C_8 
ROOT
ATOM      1  C   UNL d   1      -1.300  -0.839   0.240  0.00  0.00     0.088 A 
ATOM      2  C   UNL d   1       0.017  -1.281  -0.102  0.00  0.00     0.098 A 
ATOM      3  N   UNL d   1      -1.253   0.416   0.716  0.00  0.00    -0.259 N 
ATOM      4  HN  UNL d   1      -2.036   0.959   1.080  1.00  0.00     0.195 HD
ATOM      5  O   UNL d   1       0.055   0.828   0.617  0.00  0.00    -0.241 OA
ATOM      6  C   UNL d   1       0.818  -0.181   0.131  0.00  0.00     0.091 A 
ATOM      7  C   UNL d   1       2.244   0.144  -0.069  0.00  0.00     0.080 C 
ENDROOT
BRANCH   1   8
ATOM      8  C   UNL d   1      -2.576  -1.562   0.194  0.00  0.00     0.037 A 
ATOM      9  C   UNL d   1      -2.755  -2.782   0.876  0.00  0.00     0.048 A 
ATOM     10 CL   UNL d   1      -1.520  -3.504   1.858  0.00  0.00    -0.083 Cl
ATOM     11  C   UNL d   1      -3.985  -3.456   0.842  0.00  0.00     0.025 A 
ATOM     12  C   UNL d   1      -5.070  -2.909   0.165  0.00  0.00     0.003 A 
ATOM     13  C   UNL d   1      -4.923  -1.694  -0.495  0.00  0.00     0.025 A 
ATOM     14  C   UNL d   1      -3.686  -1.031  -0.497  0.00  0.00     0.048 A 
ATOM     15 CL   UNL d   1      -3.616   0.443  -1.409  0.00  0.00    -0.083 Cl
ENDBRANCH   1   8
BRANCH   2  16
ATOM     16  C   UNL d   1       0.432  -2.559  -0.620  0.00  0.00     0.181 C 
ATOM     17  O   UNL d   1      -0.188  -3.180  -1.468  0.00  0.00    -0.646 OA
BRANCH  16  18
ATOM     18  O   UNL d   1       1.566  -3.054  -0.052  0.00  0.00    -0.773 OA
ATOM     19  H   UNL d   1       1.838  -2.558   0.742  0.00  0.00     0.167 HD
ENDBRANCH  16  18
ENDBRANCH   2  16
TORSDOF 3
