REMARK  5 active torsions:
REMARK  status: ('A' for Active; 'I' for Inactive)
REMARK    1  A    between atoms: C_9  and  C_1 
REMARK    2  A    between atoms: C_2  and  O_8 
REMARK    3  A    between atoms: C_3  and  C_2 
REMARK    4  A    between atoms: C_16  and  C_4 
REMARK    5  A    between atoms: O_8  and  C_17 
ROOT
ATOM      1  C   UNL d   1       0.719  -0.253  -0.999  0.00  0.00     0.072 C 
ATOM      2  C   UNL d   1       0.396  -1.209  -0.100  0.00  0.00     0.036 C 
ATOM      3  C   UNL d   1       1.717  -0.504  -1.997  0.00  0.00     0.102 C 
ATOM      4  N   UNL d   1       2.512  -0.674  -2.821  0.00  0.00    -0.191 NA
ENDROOT
BRANCH   1   5
ATOM      5  C   UNL d   1       0.075   1.091  -0.947  0.00  0.00     0.052 A 
ATOM      6  N   UNL d   1      -0.850   1.291   0.028  0.00  0.00    -0.365 N 
ATOM      7  C   UNL d   1      -1.430   2.510   0.118  0.00  0.00     0.088 A 
ATOM      8  HN  UNL d   1      -1.100   0.543   0.675  1.00  0.00     0.165 HD
ATOM      9  C   UNL d   1      -1.141   3.566  -0.726  0.00  0.00     0.017 A 
ATOM     10  C   UNL d   1      -0.194   3.363  -1.718  0.00  0.00     0.004 A 
ATOM     11  C   UNL d   1       0.424   2.118  -1.831  0.00  0.00     0.031 A 
ENDBRANCH   1   5
BRANCH   2  12
ATOM     12  C   UNL d   1       1.109  -2.487   0.012  0.00  0.00    -0.035 A 
ATOM     13  C   UNL d   1       2.279  -2.518   0.779  0.00  0.00     0.014 A 
ATOM     14  C   UNL d   1       3.057  -3.672   0.843  0.00  0.00     0.038 A 
ATOM     15  C   UNL d   1       2.643  -4.820   0.178  0.00  0.00     0.079 A 
ATOM     16  C   UNL d   1       1.468  -4.807  -0.584  0.00  0.00     0.038 A 
ATOM     17  C   UNL d   1       0.704  -3.635  -0.674  0.00  0.00     0.014 A 
BRANCH  15  18
ATOM     18  O   UNL d   1       3.343  -6.054   0.219  0.00  0.00    -0.275 OA
BRANCH  18  19
ATOM     19  C   UNL d   1       4.486  -6.339   0.984  0.00  0.00     0.305 C 
ATOM     20  O   UNL d   1       5.074  -5.538   1.705  0.00  0.00    -0.258 OA
BRANCH  19  21
ATOM     21  C   UNL d   1       4.914  -7.718   0.809  0.00  0.00     0.080 A 
ATOM     22  S   UNL d   1       4.034  -8.853  -0.125  0.00  0.00    -0.096 SA
ATOM     23  C   UNL d   1       5.202 -10.076   0.129  0.00  0.00     0.050 A 
ATOM     24  C   UNL d   1       6.226  -9.651   0.945  0.00  0.00     0.009 A 
ATOM     25  C   UNL d   1       6.047  -8.300   1.357  0.00  0.00     0.025 A 
ENDBRANCH  19  21
ENDBRANCH  18  19
ENDBRANCH  15  18
ENDBRANCH   2  12
TORSDOF 5
