REMARK  8 active torsions:
REMARK  status: ('A' for Active; 'I' for Inactive)
REMARK    1  A    between atoms: O_11  and  C_3 
REMARK    2  A    between atoms: C_9  and  C_4 
REMARK    3  A    between atoms: S_10  and  C_5 
REMARK    4  A    between atoms: C_12  and  C_9 
REMARK    5  A    between atoms: C_13  and  S_10 
REMARK    6  A    between atoms: C_15  and  C_12 
REMARK    7  A    between atoms: C_16  and  C_13 
REMARK    8  A    between atoms: C_17  and  C_16 
ROOT
ATOM      1  N   UNL d   1      -0.525   1.307  -0.065  0.00  0.00    -0.317 N 
ATOM      2  HN  UNL d   1      -0.991   2.215  -0.059  1.00  0.00     0.170 HD
ATOM      3  C   UNL d   1      -1.203   0.157  -0.041  0.00  0.00     0.150 A 
ATOM      4  C   UNL d   1      -0.659  -1.113  -0.067  0.00  0.00     0.015 A 
ATOM      5  C   UNL d   1       0.804   1.186  -0.097  0.00  0.00     0.146 A 
ATOM      6  N   UNL d   1       1.468   0.022  -0.098  0.00  0.00    -0.340 N 
ATOM      7  HN  UNL d   1       2.487  -0.006  -0.122  1.00  0.00     0.167 HD
ATOM      8  C   UNL d   1       0.734  -1.114  -0.067  0.00  0.00     0.018 A 
ATOM      9  C   UNL d   1       1.534  -2.384  -0.012  0.00  0.00     0.069 C 
ENDROOT
BRANCH   5  10
ATOM     10  S   UNL d   1       1.754   2.681  -0.075  0.00  0.00    -0.094 SA
BRANCH  10  11
ATOM     11  C   UNL d   1       2.711   2.432  -1.606  0.00  0.00     0.082 C 
BRANCH  11  12
ATOM     12  C   UNL d   1       3.649   3.626  -1.811  0.00  0.00     0.014 C 
BRANCH  12  13
ATOM     13  C   UNL d   1       4.513   3.535  -3.084  0.00  0.00    -0.022 C 
ATOM     14  C   UNL d   1       3.676   3.485  -4.363  0.00  0.00     0.009 C 
ATOM     15  C   UNL d   1       5.463   4.736  -3.145  0.00  0.00     0.009 C 
ENDBRANCH  12  13
ENDBRANCH  11  12
ENDBRANCH  10  11
ENDBRANCH   5  10
BRANCH   3  16
ATOM     16  O   UNL d   1      -2.540   0.364   0.025  0.00  0.00    -0.346 OA
ATOM     17  H   UNL d   1      -2.568   1.336   0.004  0.00  0.00     0.219 HD
ENDBRANCH   3  16
BRANCH   4  18
ATOM     18  C   UNL d   1      -1.453  -2.394   0.003  0.00  0.00     0.045 C 
BRANCH  18  19
ATOM     19  C   UNL d   1      -2.833  -2.456  -0.672  0.00  0.00     0.009 C 
BRANCH  19  20
ATOM     20  C   UNL d   1      -2.854  -2.128  -2.178  0.00  0.00    -0.023 C 
ATOM     21  C   UNL d   1      -1.991  -3.087  -2.998  0.00  0.00     0.009 C 
ATOM     22  C   UNL d   1      -4.298  -2.165  -2.683  0.00  0.00     0.009 C 
ENDBRANCH  19  20
ENDBRANCH  18  19
ENDBRANCH   4  18
TORSDOF 8
