REMARK  6 active torsions:
REMARK  status: ('A' for Active; 'I' for Inactive)
REMARK    1  A    between atoms: C_6  and  C_1 
REMARK    2  A    between atoms: C_2  and  C_7 
REMARK    3  A    between atoms: N_4  and  C_3 
REMARK    4  A    between atoms: C_5  and  N_4 
REMARK    5  A    between atoms: O_19  and  C_6 
REMARK    6  A    between atoms: O_22  and  C_18 
ROOT
ATOM      1  N   UNL d   1       1.146  -2.529  -0.078  0.00  0.00    -0.257 NA
ATOM      2  H   UNL d   1       1.617  -2.733   0.814  0.00  0.00     0.134 HD
ENDROOT
BRANCH   1   3
ATOM      3  C   UNL d   1       0.568  -1.224  -0.010  0.00  0.00     0.030 A 
ATOM      4  C   UNL d   1       1.369  -0.066   0.041  0.00  0.00     0.061 A 
ATOM      5  C   UNL d   1       0.767   1.201   0.130  0.00  0.00     0.057 A 
ATOM      6  C   UNL d   1      -0.623   1.338   0.163  0.00  0.00     0.069 A 
ATOM      7  C   UNL d   1      -1.417   0.197   0.141  0.00  0.00     0.038 A 
ATOM      8  C   UNL d   1      -0.827  -1.066   0.079  0.00  0.00     0.027 A 
BRANCH   4   9
ATOM      9  C   UNL d   1       2.857  -0.092  -0.008  0.00  0.00     0.178 C 
ATOM     10  O   UNL d   1       3.550   0.798   0.460  0.00  0.00    -0.646 OA
BRANCH   9  11
ATOM     11  O   UNL d   1       3.376  -1.156  -0.654  0.00  0.00    -0.773 OA
ATOM     12  H   UNL d   1       2.695  -1.786  -0.974  0.00  0.00     0.167 HD
ENDBRANCH   9  11
ENDBRANCH   4   9
BRANCH   6  13
ATOM     13  O   UNL d   1      -1.080   2.624   0.223  0.00  0.00    -0.356 OA
ATOM     14  C   UNL d   1      -2.491   2.808   0.180  0.00  0.00     0.210 C 
ENDBRANCH   6  13
ENDBRANCH   1   3
BRANCH   1  15
ATOM     15  C   UNL d   1       0.448  -3.698  -0.509  0.00  0.00     0.035 A 
ATOM     16  C   UNL d   1      -0.319  -3.660  -1.687  0.00  0.00     0.041 A 
ATOM     17  C   UNL d   1      -1.114  -4.749  -2.075  0.00  0.00     0.049 A 
ATOM     18  C   UNL d   1      -1.084  -5.919  -1.302  0.00  0.00     0.018 A 
ATOM     19  C   UNL d   1      -0.275  -5.997  -0.166  0.00  0.00     0.026 A 
ATOM     20  C   UNL d   1       0.487  -4.894   0.227  0.00  0.00     0.055 A 
ATOM     21 CL   UNL d   1       1.433  -5.010   1.667  0.00  0.00    -0.082 Cl
BRANCH  17  22
ATOM     22  C   UNL d   1      -2.026  -4.649  -3.276  0.00  0.00     0.417 C 
ATOM     23  F   UNL d   1      -1.952  -3.449  -3.914  0.00  0.00    -0.166 F 
ATOM     24  F   UNL d   1      -1.758  -5.594  -4.216  0.00  0.00    -0.166 F 
ATOM     25  F   UNL d   1      -3.335  -4.810  -2.939  0.00  0.00    -0.166 F 
ENDBRANCH  17  22
ENDBRANCH   1  15
TORSDOF 6
