REMARK  4 active torsions:
REMARK  status: ('A' for Active; 'I' for Inactive)
REMARK    1  A    between atoms: N_8  and  C_3 
REMARK    2  A    between atoms: C_13  and  C_17 
REMARK    3  A    between atoms: O_21  and  C_13 
REMARK    4  A    between atoms: C_23  and  O_21 
ROOT
ATOM      1  C   UNL d   1      -1.771   0.140  -0.788  0.00  0.00     0.070 A 
ATOM      2  C   UNL d   1      -1.254  -1.050  -0.310  0.00  0.00     0.138 A 
ATOM      3  C   UNL d   1      -1.744   1.258   0.062  0.00  0.00     0.119 A 
ATOM      4  N   UNL d   1      -2.071  -1.468  -2.397  0.00  0.00    -0.307 N 
ATOM      5  HN  UNL d   1      -2.309  -1.944  -3.267  1.00  0.00     0.186 HD
ATOM      6  N   UNL d   1      -1.483  -1.979  -1.290  0.00  0.00    -0.281 N 
ATOM      7  C   UNL d   1      -2.263  -0.186  -2.070  0.00  0.00     0.126 A 
ATOM      8  N   UNL d   1      -0.686  -1.254   0.892  0.00  0.00    -0.337 N 
ATOM      9  HN  UNL d   1      -0.304  -2.145   1.207  1.00  0.00     0.168 HD
ATOM     10  N   UNL d   1      -1.184   1.084   1.290  0.00  0.00    -0.338 N 
ATOM     11  HN  UNL d   1      -1.140   1.859   1.952  1.00  0.00     0.168 HD
ATOM     12  C   UNL d   1      -0.688  -0.126   1.623  0.00  0.00     0.183 A 
ATOM     13  C   UNL d   1      -1.232  -3.396  -1.218  0.00  0.00     0.179 C 
ENDROOT
BRANCH   3  14
ATOM     14  N   UNL d   1      -2.383   2.454  -0.266  0.00  0.00    -0.366 N 
ATOM     15  C   UNL d   1      -2.704   3.315   0.871  0.00  0.00     0.125 C 
ATOM     16  C   UNL d   1      -3.814   4.273   0.429  0.00  0.00     0.034 C 
ATOM     17  C   UNL d   1      -3.419   5.068  -0.828  0.00  0.00     0.088 C 
ATOM     18  C   UNL d   1      -2.904   4.130  -1.933  0.00  0.00     0.034 C 
ATOM     19  C   UNL d   1      -1.826   3.170  -1.416  0.00  0.00     0.125 C 
BRANCH  17  20
ATOM     20  C   UNL d   1      -2.378   6.119  -0.487  0.00  0.00     0.263 C 
ATOM     21  O   UNL d   1      -1.278   6.213  -1.010  0.00  0.00    -0.265 OA
BRANCH  20  22
ATOM     22  O   UNL d   1      -2.837   6.924   0.515  0.00  0.00    -0.322 OA
BRANCH  22  23
ATOM     23  C   UNL d   1      -1.841   7.724   1.160  0.00  0.00     0.174 C 
ATOM     24  C   UNL d   1      -1.222   6.903   2.279  0.00  0.00     0.034 C 
ENDBRANCH  22  23
ENDBRANCH  20  22
ENDBRANCH  17  20
ENDBRANCH   3  14
TORSDOF 4
