REMARK  2 active torsions:
REMARK  status: ('A' for Active; 'I' for Inactive)
REMARK    1  A    between atoms: C_3  and  C_7 
REMARK       I    between atoms: N_6  and  C_3 
REMARK    2  A    between atoms: C_8  and  N_6 
ROOT
ATOM      1  N   UNL d   1       6.423   2.568  -0.796  0.00  0.00    -0.197 NA
ATOM      2  C   UNL d   1       6.118   1.917  -1.708  0.00  0.00     0.068 C 
ATOM      3  C   UNL d   1       5.652   1.090  -2.816  0.00  0.00     0.226 C 
ENDROOT
BRANCH   3   4
ATOM      4  C   UNL d   1       4.170   1.242  -3.123  0.00  0.00     0.235 C 
ATOM      5  N   UNL d   1       3.364   1.704  -2.095  0.00  0.00    -0.326 N 
ATOM      6  H   UNL d   1       3.813   2.075  -1.262  0.00  0.00     0.169 HD
ATOM      7  O   UNL d   1       3.761   0.885  -4.228  0.00  0.00    -0.272 OA
BRANCH   5   8
ATOM      8  C   UNL d   1       1.949   1.733  -2.056  0.00  0.00     0.036 A 
ATOM      9  C   UNL d   1       1.124   1.199  -3.052  0.00  0.00     0.056 A 
ATOM     10  C   UNL d   1      -0.265   1.194  -2.886  0.00  0.00     0.074 A 
ATOM     11 CL   UNL d   1      -1.262   0.499  -4.107  0.00  0.00    -0.081 Cl
ATOM     12  C   UNL d   1      -0.834   1.731  -1.734  0.00  0.00     0.138 A 
ATOM     13  C   UNL d   1      -0.029   2.290  -0.750  0.00  0.00     0.046 A 
ATOM     14  F   UNL d   1      -2.162   1.712  -1.548  0.00  0.00    -0.204 F 
ATOM     15  C   UNL d   1       1.358   2.291  -0.912  0.00  0.00     0.032 A 
ENDBRANCH   5   8
ENDBRANCH   3   4
TORSDOF 2
