REMARK  6 active torsions:
REMARK  status: ('A' for Active; 'I' for Inactive)
REMARK    1  A    between atoms: C_9  and  C_1 
REMARK    2  A    between atoms: C_11  and  N_4 
REMARK    3  A    between atoms: C_8  and  C_10 
REMARK    4  A    between atoms: C_12  and  C_11 
REMARK       I    between atoms: N_16  and  C_12 
REMARK    5  A    between atoms: N_13  and  N_16 
REMARK    6  A    between atoms: C_15  and  C_19 
ROOT
ATOM      1  C   UNL d   1      -0.408  -1.129   1.763  0.00  0.00     0.145 A 
ATOM      2  N   UNL d   1       0.662  -0.324   1.942  0.00  0.00    -0.268 N 
ATOM      3  HN  UNL d   1       1.160  -0.075   2.797  1.00  0.00     0.190 HD
ATOM      4  N   UNL d   1       0.887   0.061   0.662  0.00  0.00    -0.207 N 
ATOM      5  N   UNL d   1      -0.765  -1.234   0.441  0.00  0.00    -0.266 N 
ATOM      6  HN  UNL d   1      -1.517  -1.810   0.061  1.00  0.00     0.186 HD
ATOM      7  N   UNL d   1       0.047  -0.449  -0.248  0.00  0.00    -0.002 NA
ENDROOT
BRANCH   4   8
ATOM      8  C   UNL d   1       1.908   1.014   0.306  0.00  0.00     0.271 C 
BRANCH   8   9
ATOM      9  C   UNL d   1       3.228   0.334   0.038  0.00  0.00     0.257 C 
ATOM     10  N   UNL d   1       3.810  -0.265   1.154  0.00  0.00    -0.269 N 
ATOM     11  H   UNL d   1       3.320  -0.301   2.045  0.00  0.00     0.190 HD
ATOM     12  O   UNL d   1       3.745   0.383  -1.073  0.00  0.00    -0.270 OA
BRANCH  10  13
ATOM     13  N   UNL d   1       5.006  -0.917   1.013  0.00  0.00    -0.308 N 
ATOM     14  C   UNL d   1       5.437  -1.544   2.066  0.00  0.00     0.120 C 
ATOM     15  HN  UNL d   1       5.526  -0.910   0.136  1.00  0.00     0.186 HD
BRANCH  14  16
ATOM     16  C   UNL d   1       6.712  -2.304   2.070  0.00  0.00     0.002 A 
ATOM     17  C   UNL d   1       7.075  -3.110   3.160  0.00  0.00     0.045 A 
ATOM     18 CL   UNL d   1       6.049  -3.355   4.530  0.00  0.00    -0.083 Cl
ATOM     19  C   UNL d   1       8.309  -3.777   3.161  0.00  0.00     0.024 A 
ATOM     20  C   UNL d   1       9.177  -3.653   2.077  0.00  0.00     0.002 A 
ATOM     21  C   UNL d   1       8.812  -2.872   0.982  0.00  0.00     0.001 A 
ATOM     22  C   UNL d   1       7.583  -2.202   0.975  0.00  0.00     0.014 A 
ENDBRANCH  14  16
ENDBRANCH  10  13
ENDBRANCH   8   9
ENDBRANCH   4   8
BRANCH   1  23
ATOM     23  C   UNL d   1      -1.045  -1.931   2.809  0.00  0.00     0.025 A 
ATOM     24  C   UNL d   1      -2.374  -2.398   2.724  0.00  0.00     0.061 A 
ATOM     25  C   UNL d   1      -2.832  -3.342   3.672  0.00  0.00     0.017 A 
ATOM     26  C   UNL d   1      -2.029  -3.750   4.734  0.00  0.00     0.001 A 
ATOM     27  C   UNL d   1      -0.757  -3.212   4.875  0.00  0.00     0.001 A 
ATOM     28  C   UNL d   1      -0.266  -2.320   3.918  0.00  0.00     0.016 A 
BRANCH  24  29
ATOM     29  C   UNL d   1      -3.368  -1.937   1.681  0.00  0.00     0.418 C 
ATOM     30  F   UNL d   1      -3.163  -0.677   1.216  0.00  0.00    -0.166 F 
ATOM     31  F   UNL d   1      -3.423  -2.761   0.601  0.00  0.00    -0.166 F 
ATOM     32  F   UNL d   1      -4.643  -1.911   2.179  0.00  0.00    -0.166 F 
ENDBRANCH  24  29
ENDBRANCH   1  23
TORSDOF 6
