REMARK  3 active torsions:
REMARK  status: ('A' for Active; 'I' for Inactive)
REMARK    1  A    between atoms: N_6  and  C_2 
REMARK    2  A    between atoms: C_3  and  C_12 
REMARK    3  A    between atoms: N_8  and  N_6 
ROOT
ATOM      1  N   UNL d   1       3.238   0.857  -0.073  0.00  0.00    -0.309 N 
ATOM      2  HN  UNL d   1       3.368  -0.149  -0.179  1.00  0.00     0.186 HD
ATOM      3  C   UNL d   1       4.208   1.704   0.062  0.00  0.00     0.123 C 
ENDROOT
BRANCH   1   4
ATOM      4  N   UNL d   1       1.991   1.487  -0.055  0.00  0.00    -0.280 N 
ATOM      5  HN  UNL d   1       1.859   2.495   0.034  1.00  0.00     0.189 HD
BRANCH   4   6
ATOM      6  C   UNL d   1       1.028   0.635  -0.166  0.00  0.00     0.162 A 
ATOM      7  N   UNL d   1       1.193  -0.701  -0.293  0.00  0.00    -0.306 N 
ATOM      8  C   UNL d   1       0.084  -1.482  -0.399  0.00  0.00     0.233 A 
ATOM      9  H   UNL d   1       2.133  -1.067  -0.314  0.00  0.00     0.171 HD
ATOM     10  O   UNL d   1       0.113  -2.699  -0.532  0.00  0.00    -0.272 OA
ATOM     11  C   UNL d   1      -1.182  -0.664  -0.327  0.00  0.00     0.185 A 
ATOM     12  S   UNL d   1      -0.650   1.067  -0.167  0.00  0.00    -0.083 SA
ENDBRANCH   4   6
ENDBRANCH   1   4
BRANCH   3  13
ATOM     13  C   UNL d   1       5.619   1.269   0.095  0.00  0.00     0.041 A 
ATOM     14  C   UNL d   1       5.938  -0.090  -0.029  0.00  0.00     0.129 A 
ATOM     15  F   UNL d   1       4.989  -1.022  -0.203  0.00  0.00    -0.205 F 
ATOM     16  C   UNL d   1       7.259  -0.531   0.026  0.00  0.00     0.043 A 
ATOM     17  C   UNL d   1       8.290   0.386   0.205  0.00  0.00     0.005 A 
ATOM     18  C   UNL d   1       7.992   1.743   0.320  0.00  0.00     0.025 A 
ATOM     19  C   UNL d   1       6.662   2.188   0.264  0.00  0.00     0.048 A 
ATOM     20 CL   UNL d   1       6.405   3.891   0.415  0.00  0.00    -0.083 Cl
ENDBRANCH   3  13
TORSDOF 3
