REMARK  4 active torsions:
REMARK  status: ('A' for Active; 'I' for Inactive)
REMARK    1  A    between atoms: N_12  and  C_6 
REMARK    2  A    between atoms: C_11  and  C_17 
REMARK    3  A    between atoms: C_16  and  N_12 
REMARK    4  A    between atoms: C_17  and  C_16 
ROOT
ATOM      1  C   UNL d   1      -4.155  -0.424  -1.248  0.00  0.00     0.103 A 
ATOM      2  C   UNL d   1      -5.359   0.105  -0.548  0.00  0.00     0.200 A 
ATOM      3  C   UNL d   1      -3.699   0.620  -2.213  0.00  0.00     0.200 A 
ATOM      4  C   UNL d   1      -5.615   1.416  -1.131  0.00  0.00     0.029 A 
ATOM      5  C   UNL d   1      -4.664   1.722  -2.093  0.00  0.00     0.029 A 
ATOM      6  C   UNL d   1      -3.568  -1.609  -1.007  0.00  0.00     0.128 C 
ATOM      7  N   UNL d   1      -1.338  -2.318  -2.142  0.00  0.00    -0.190 NA
ATOM      8  C   UNL d   1      -2.333  -1.964  -1.659  0.00  0.00     0.118 C 
ATOM      9  O   UNL d   1      -6.011  -0.371   0.356  0.00  0.00    -0.286 OA
ATOM     10  O   UNL d   1      -2.749   0.600  -2.965  0.00  0.00    -0.286 OA
ATOM     11  C   UNL d   1      -4.705   2.920  -2.782  0.00  0.00     0.016 A 
ATOM     12  C   UNL d   1      -6.641   2.285  -0.809  0.00  0.00     0.016 A 
ATOM     13  C   UNL d   1      -5.739   3.812  -2.475  0.00  0.00     0.001 A 
ATOM     14  C   UNL d   1      -6.699   3.494  -1.496  0.00  0.00     0.001 A 
ENDROOT
BRANCH   6  15
ATOM     15  N   UNL d   1      -4.005  -2.630  -0.173  0.00  0.00    -0.380 N 
ATOM     16  H   UNL d   1      -3.350  -2.891   0.563  0.00  0.00     0.160 HD
BRANCH  15  17
ATOM     17  C   UNL d   1      -5.370  -3.112  -0.009  0.00  0.00     0.124 C 
BRANCH  17  18
ATOM     18  C   UNL d   1      -5.369  -4.647   0.008  0.00  0.00     0.053 C 
BRANCH  18  19
ATOM     19  C   UNL d   1      -6.752  -5.262   0.020  0.00  0.00    -0.082 C 
ATOM     20  C   UNL d   1      -7.167  -6.075  -0.970  0.00  0.00    -0.024 C 
ATOM     21  C   UNL d   1      -8.516  -6.732  -1.008  0.00  0.00     0.027 C 
ATOM     22  C   UNL d   1      -9.494  -6.168   0.021  0.00  0.00     0.004 C 
ATOM     23  C   UNL d   1      -8.807  -5.929   1.361  0.00  0.00     0.005 C 
ATOM     24  C   UNL d   1      -7.629  -4.962   1.214  0.00  0.00     0.034 C 
ENDBRANCH  18  19
ENDBRANCH  17  18
ENDBRANCH  15  17
ENDBRANCH   6  15
TORSDOF 4
