REMARK  3 active torsions:
REMARK  status: ('A' for Active; 'I' for Inactive)
REMARK    1  A    between atoms: C_4  and  N_1 
REMARK    2  A    between atoms: N_5  and  C_4 
REMARK    3  A    between atoms: C_8  and  N_5 
ROOT
ATOM      1  N   UNL d   1      -1.322   2.909  -0.055  0.00  0.00    -0.371 N 
ATOM      2  H   UNL d   1      -2.063   2.381   0.391  0.00  0.00     0.161 HD
ENDROOT
BRANCH   1   3
ATOM      3  C   UNL d   1      -0.032   2.279  -0.183  0.00  0.00     0.258 C 
BRANCH   3   4
ATOM      4  N   UNL d   1      -0.220   0.858  -0.075  0.00  0.00    -0.271 N 
ATOM      5  C   UNL d   1      -0.360   0.052  -1.156  0.00  0.00     0.228 A 
ATOM      6  C   UNL d   1      -0.473  -1.373  -0.696  0.00  0.00     0.112 A 
ATOM      7  O   UNL d   1      -0.361   0.378  -2.341  0.00  0.00    -0.273 OA
ATOM      8  C   UNL d   1      -0.276  -1.294   0.806  0.00  0.00     0.112 A 
ATOM      9  C   UNL d   1      -0.086   0.165   1.088  0.00  0.00     0.228 A 
ATOM     10  O   UNL d   1       0.178   0.615   2.192  0.00  0.00    -0.273 OA
ENDBRANCH   3   4
ENDBRANCH   1   3
BRANCH   1  11
ATOM     11  C   UNL d   1      -1.534   4.268  -0.235  0.00  0.00     0.068 A 
ATOM     12  C   UNL d   1      -2.578   4.921   0.451  0.00  0.00     0.145 A 
ATOM     13  C   UNL d   1      -2.836   6.280   0.291  0.00  0.00     0.086 A 
ATOM     14  F   UNL d   1      -3.349   4.220   1.299  0.00  0.00    -0.204 F 
ATOM     15  C   UNL d   1      -2.046   7.009  -0.581  0.00  0.00     0.119 A 
ATOM     16  C   UNL d   1      -0.999   6.408  -1.267  0.00  0.00     0.044 A 
ATOM     17  F   UNL d   1      -2.291   8.313  -0.767  0.00  0.00    -0.206 F 
ATOM     18  C   UNL d   1      -0.734   5.048  -1.078  0.00  0.00     0.035 A 
ENDBRANCH   1  11
TORSDOF 3
