REMARK  5 active torsions:
REMARK  status: ('A' for Active; 'I' for Inactive)
REMARK    1  A    between atoms: S_12  and  C_3 
REMARK    2  A    between atoms: C_4  and  C_5 
REMARK    3  A    between atoms: C_8  and  C_11 
REMARK    4  A    between atoms: O_18  and  C_10 
REMARK    5  A    between atoms: C_11  and  S_12 
ROOT
ATOM      1  N   UNL d   1       2.064  -0.134  -0.066  0.00  0.00    -0.318 N 
ATOM      2  HN  UNL d   1       3.064  -0.333  -0.091  1.00  0.00     0.170 HD
ATOM      3  C   UNL d   1       1.159  -1.103   0.108  0.00  0.00     0.146 A 
ATOM      4  C   UNL d   1      -0.610   0.378   0.021  0.00  0.00     0.122 A 
ATOM      5  N   UNL d   1      -0.167  -0.898   0.160  0.00  0.00    -0.333 N 
ATOM      6  HN  UNL d   1      -0.818  -1.671   0.298  1.00  0.00     0.168 HD
ATOM      7  C   UNL d   1       0.263   1.434  -0.172  0.00  0.00     0.090 A 
ATOM      8  C   UNL d   1       1.593   1.106  -0.205  0.00  0.00     0.143 A 
ENDROOT
BRANCH   3   9
ATOM      9  S   UNL d   1       1.713  -2.783   0.263  0.00  0.00    -0.089 SA
BRANCH   9  10
ATOM     10  C   UNL d   1       3.505  -2.532   0.066  0.00  0.00     0.126 C 
BRANCH  10  11
ATOM     11  C   UNL d   1       4.265  -3.833   0.030  0.00  0.00     0.012 A 
ATOM     12  C   UNL d   1       4.805  -4.342   1.218  0.00  0.00     0.125 A 
ATOM     13  F   UNL d   1       4.627  -3.678   2.370  0.00  0.00    -0.205 F 
ATOM     14  C   UNL d   1       5.546  -5.522   1.246  0.00  0.00     0.043 A 
ATOM     15  C   UNL d   1       5.760  -6.231   0.069  0.00  0.00     0.005 A 
ATOM     16  C   UNL d   1       5.220  -5.755  -1.126  0.00  0.00     0.024 A 
ATOM     17  C   UNL d   1       4.474  -4.569  -1.146  0.00  0.00     0.044 A 
ATOM     18 CL   UNL d   1       3.846  -4.055  -2.671  0.00  0.00    -0.084 Cl
ENDBRANCH  10  11
ENDBRANCH   9  10
ENDBRANCH   3   9
BRANCH   8  19
ATOM     19  O   UNL d   1       2.552   2.056  -0.393  0.00  0.00    -0.346 OA
ATOM     20  H   UNL d   1       2.129   2.918  -0.518  0.00  0.00     0.219 HD
ENDBRANCH   8  19
BRANCH   4  21
ATOM     21  C   UNL d   1      -2.100   0.671   0.065  0.00  0.00     0.432 C 
ATOM     22  F   UNL d   1      -2.889  -0.413   0.295  0.00  0.00    -0.165 F 
ATOM     23  F   UNL d   1      -2.415   1.578   1.036  0.00  0.00    -0.165 F 
ATOM     24  F   UNL d   1      -2.549   1.223  -1.100  0.00  0.00    -0.165 F 
ENDBRANCH   4  21
TORSDOF 5
