REMARK  6 active torsions:
REMARK  status: ('A' for Active; 'I' for Inactive)
REMARK    1  A    between atoms: S_3  and  C_1 
REMARK    2  A    between atoms: C_7  and  C_2 
REMARK    3  A    between atoms: N_8  and  S_3 
REMARK    4  A    between atoms: O_19  and  C_7 
REMARK    5  A    between atoms: C_14  and  N_8 
REMARK    6  A    between atoms: C_10  and  C_14 
ROOT
ATOM      1  S   UNL d   1      -1.767   2.757   0.146  0.00  0.00     0.245 S 
ATOM      2  O   UNL d   1      -3.120   2.260   0.225  0.00  0.00    -0.206 OA
ATOM      3  O   UNL d   1      -1.163   3.494   1.234  0.00  0.00    -0.206 OA
ENDROOT
BRANCH   1   4
ATOM      4  C   UNL d   1      -0.760   1.362   0.017  0.00  0.00     0.122 A 
ATOM      5  C   UNL d   1       0.674   1.399  -0.019  0.00  0.00     0.094 A 
ATOM      6  C   UNL d   1       1.078   0.074   0.011  0.00  0.00     0.067 A 
ATOM      7  C   UNL d   1       2.378  -0.633   0.009  0.00  0.00     0.078 C 
ATOM      8  O   UNL d   1      -0.009  -0.746   0.014  0.00  0.00    -0.318 OA
ATOM      9  C   UNL d   1      -1.129   0.033   0.016  0.00  0.00     0.073 A 
ATOM     10  C   UNL d   1      -2.394  -0.731   0.035  0.00  0.00     0.078 C 
BRANCH   5  11
ATOM     11  C   UNL d   1       1.524   2.573  -0.092  0.00  0.00     0.297 C 
ATOM     12  O   UNL d   1       1.166   3.596  -0.664  0.00  0.00    -0.259 OA
BRANCH  11  13
ATOM     13  O   UNL d   1       2.740   2.389   0.491  0.00  0.00    -0.322 OA
ATOM     14  C   UNL d   1       3.623   3.509   0.413  0.00  0.00     0.213 C 
ENDBRANCH  11  13
ENDBRANCH   5  11
ENDBRANCH   1   4
BRANCH   1  15
ATOM     15  N   UNL d   1      -1.621   3.677  -1.253  0.00  0.00    -0.211 NA
ATOM     16  H   UNL d   1      -0.634   3.894  -1.439  0.00  0.00     0.140 HD
BRANCH  15  17
ATOM     17  C   UNL d   1      -2.409   3.230  -2.405  0.00  0.00     0.144 C 
BRANCH  17  18
ATOM     18  C   UNL d   1      -2.208   4.132  -3.603  0.00  0.00    -0.022 A 
ATOM     19  C   UNL d   1      -1.218   3.895  -4.569  0.00  0.00     0.043 A 
ATOM     20  C   UNL d   1      -1.063   4.754  -5.661  0.00  0.00     0.048 A 
ATOM     21 CL   UNL d   1      -0.143   2.546  -4.454  0.00  0.00    -0.084 Cl
ATOM     22  C   UNL d   1      -1.890   5.868  -5.788  0.00  0.00     0.035 A 
ATOM     23  C   UNL d   1      -2.867   6.133  -4.833  0.00  0.00     0.024 A 
ATOM     24 CL   UNL d   1      -1.698   6.927  -7.130  0.00  0.00    -0.084 Cl
ATOM     25  C   UNL d   1      -3.022   5.273  -3.743  0.00  0.00     0.012 A 
ENDBRANCH  17  18
ENDBRANCH  15  17
ENDBRANCH   1  15
TORSDOF 6
