REMARK  6 active torsions:
REMARK  status: ('A' for Active; 'I' for Inactive)
REMARK    1  A    between atoms: N_2  and  S_1 
REMARK    2  A    between atoms: C_3  and  S_1 
REMARK    3  A    between atoms: C_6  and  N_2 
REMARK    4  A    between atoms: C_4  and  C_7 
REMARK    5  A    between atoms: C_5  and  C_8 
REMARK    6  A    between atoms: C_16  and  C_6 
ROOT
ATOM      1  S   UNL d   1       1.065  -0.052   0.114  0.00  0.00     0.264 S 
ATOM      2  O   UNL d   1       0.529  -1.365  -0.179  0.00  0.00    -0.200 OA
ATOM      3  O   UNL d   1       2.490   0.192   0.191  0.00  0.00    -0.200 OA
ENDROOT
BRANCH   1   4
ATOM      4  N   UNL d   1       0.398   0.502   1.552  0.00  0.00    -0.265 N 
ATOM      5  H   UNL d   1       1.082   1.004   2.113  0.00  0.00     0.180 HD
BRANCH   4   6
ATOM      6  C   UNL d   1      -0.797   0.051   2.134  0.00  0.00     0.118 C 
ATOM      7  N   UNL d   1      -1.557  -0.824   1.571  0.00  0.00    -0.384 N 
ATOM      8  H   UNL d   1      -1.133  -1.184   0.714  0.00  0.00     0.157 HD
ATOM      9  HN  UNL d   1      -2.464  -1.118   1.934  1.00  0.00     0.157 HD
BRANCH   6  10
ATOM     10  C   UNL d   1      -1.192   0.626   3.442  0.00  0.00     0.011 A 
ATOM     11  C   UNL d   1      -0.824   1.907   3.841  0.00  0.00     0.032 A 
ATOM     12  C   UNL d   1      -1.310   2.363   5.056  0.00  0.00     0.088 A 
ATOM     13  N   UNL d   1      -2.092   1.632   5.880  0.00  0.00    -0.375 N 
ATOM     14  C   UNL d   1      -2.426   0.391   5.472  0.00  0.00     0.088 A 
ATOM     15  HN  UNL d   1      -2.417   2.003   6.773  1.00  0.00     0.164 HD
ATOM     16  C   UNL d   1      -2.006  -0.150   4.274  0.00  0.00     0.032 A 
ENDBRANCH   6  10
ENDBRANCH   4   6
ENDBRANCH   1   4
BRANCH   1  17
ATOM     17  C   UNL d   1       0.372   1.082  -1.064  0.00  0.00     0.081 A 
ATOM     18  C   UNL d   1       1.096   2.215  -1.442  0.00  0.00     0.041 A 
ATOM     19  C   UNL d   1       0.548   3.128  -2.357  0.00  0.00     0.050 A 
ATOM     20  C   UNL d   1      -0.720   2.863  -2.909  0.00  0.00     0.032 A 
ATOM     21  C   UNL d   1      -1.427   1.692  -2.579  0.00  0.00     0.050 A 
ATOM     22  C   UNL d   1      -0.875   0.808  -1.639  0.00  0.00     0.041 A 
BRANCH  19  23
ATOM     23  C   UNL d   1       1.304   4.377  -2.755  0.00  0.00     0.417 C 
ATOM     24  F   UNL d   1       2.521   4.483  -2.155  0.00  0.00    -0.166 F 
ATOM     25  F   UNL d   1       1.535   4.440  -4.094  0.00  0.00    -0.166 F 
ATOM     26  F   UNL d   1       0.628   5.513  -2.433  0.00  0.00    -0.166 F 
ENDBRANCH  19  23
BRANCH  21  27
ATOM     27  C   UNL d   1      -2.751   1.379  -3.243  0.00  0.00     0.417 C 
ATOM     28  F   UNL d   1      -3.280   0.188  -2.851  0.00  0.00    -0.166 F 
ATOM     29  F   UNL d   1      -3.700   2.318  -2.982  0.00  0.00    -0.166 F 
ATOM     30  F   UNL d   1      -2.646   1.314  -4.598  0.00  0.00    -0.166 F 
ENDBRANCH  21  27
ENDBRANCH   1  17
TORSDOF 6
