REMARK  4 active torsions:
REMARK  status: ('A' for Active; 'I' for Inactive)
REMARK    1  A    between atoms: C_7  and  C_1 
REMARK    2  A    between atoms: C_8  and  C_2 
REMARK    3  A    between atoms: O_13  and  C_7 
REMARK    4  A    between atoms: C_19  and  O_13 
ROOT
ATOM      1  C   UNL d   1       1.435   0.993   0.043  0.00  0.00     0.066 C 
ATOM      2  C   UNL d   1       0.207   1.873  -0.058  0.00  0.00     0.161 C 
ATOM      3  C   UNL d   1       1.329  -0.356   0.058  0.00  0.00     0.024 C 
ATOM      4  C   UNL d   1      -1.107  -0.222   0.045  0.00  0.00     0.321 C 
ATOM      5  N   UNL d   1       0.064  -0.908   0.016  0.00  0.00    -0.312 N 
ATOM      6  N   UNL d   1      -1.014   1.118   0.159  0.00  0.00    -0.330 N 
ATOM      7  O   UNL d   1      -2.192  -0.794   0.001  0.00  0.00    -0.247 OA
ATOM      8  C   UNL d   1       2.411  -1.403   0.038  0.00  0.00     0.069 C 
ATOM      9  H   UNL d   1      -0.046  -1.913  -0.037  0.00  0.00     0.170 HD
ATOM     10  H   UNL d   1      -1.897   1.608   0.138  0.00  0.00     0.165 HD
ENDROOT
BRANCH   2  11
ATOM     11  C   UNL d   1       0.184   3.080   0.870  0.00  0.00    -0.029 A 
ATOM     12  C   UNL d   1       0.256   2.931   2.265  0.00  0.00     0.028 A 
ATOM     13  C   UNL d   1       0.247   4.055   3.092  0.00  0.00     0.011 A 
ATOM     14 BR   UNL d   1       0.370   3.839   4.966  0.00  0.00    -0.051 Br
ATOM     15  C   UNL d   1       0.153   5.335   2.550  0.00  0.00     0.019 A 
ATOM     16  C   UNL d   1       0.060   5.495   1.169  0.00  0.00     0.002 A 
ATOM     17  C   UNL d   1       0.074   4.375   0.335  0.00  0.00     0.009 A 
ENDBRANCH   2  11
BRANCH   1  18
ATOM     18  C   UNL d   1       2.711   1.739  -0.104  0.00  0.00     0.293 C 
ATOM     19  O   UNL d   1       2.798   2.783  -0.737  0.00  0.00    -0.259 OA
BRANCH  18  20
ATOM     20  O   UNL d   1       3.748   1.095   0.480  0.00  0.00    -0.318 OA
BRANCH  20  21
ATOM     21  C   UNL d   1       5.052   1.480   0.017  0.00  0.00     0.174 C 
ATOM     22  C   UNL d   1       5.299   0.893  -1.367  0.00  0.00     0.034 C 
ENDBRANCH  20  21
ENDBRANCH  18  20
ENDBRANCH   1  18
TORSDOF 4
