REMARK  11 active torsions:
REMARK  status: ('A' for Active; 'I' for Inactive)
REMARK    1  A    between atoms: C_7  and  C_1 
REMARK    2  A    between atoms: O_12  and  C_1 
REMARK    3  A    between atoms: C_8  and  C_2 
REMARK    4  A    between atoms: O_13  and  C_2 
REMARK    5  A    between atoms: C_9  and  C_4 
REMARK    6  A    between atoms: C_10  and  C_5 
REMARK    7  A    between atoms: C_11  and  C_6 
REMARK    8  A    between atoms: O_25  and  C_9 
REMARK    9  A    between atoms: O_24  and  C_10 
REMARK   10  A    between atoms: C_30  and  O_24 
REMARK   11  A    between atoms: C_29  and  O_25 
ROOT
ATOM      1  C   UNL d   1       0.764   1.332  -0.306  0.00  0.00     0.371 C 
ATOM      2  C   UNL d   1       0.776  -1.179  -0.294  0.00  0.00     0.371 C 
ATOM      3  N   UNL d   1       1.452   0.075   0.059  0.00  0.00     0.174 N 
ATOM      4  C   UNL d   1      -0.630  -1.199   0.371  0.00  0.00     0.170 C 
ATOM      5  C   UNL d   1      -0.713   1.362   0.179  0.00  0.00     0.170 C 
ATOM      6  C   UNL d   1      -1.458   0.034  -0.111  0.00  0.00     0.057 C 
ATOM      7  H   UNL d   1       2.370   0.106  -0.387  0.00  0.00     0.324 HD
ENDROOT
BRANCH   6   8
ATOM      8  C   UNL d   1      -2.915  -0.017   0.333  0.00  0.00    -0.037 A 
ATOM      9  C   UNL d   1      -3.864  -0.633  -0.485  0.00  0.00     0.095 A 
ATOM     10  N   UNL d   1      -5.185  -0.709  -0.209  0.00  0.00    -0.375 N 
ATOM     11  C   UNL d   1      -5.599  -0.140   0.940  0.00  0.00     0.087 A 
ATOM     12  HN  UNL d   1      -5.837  -1.174  -0.840  1.00  0.00     0.164 HD
ATOM     13  C   UNL d   1      -4.747   0.492   1.827  0.00  0.00     0.018 A 
ATOM     14  C   UNL d   1      -3.386   0.548   1.521  0.00  0.00     0.010 A 
ENDBRANCH   6   8
BRANCH   4  15
ATOM     15  C   UNL d   1      -0.459  -1.195   1.893  0.00  0.00     0.269 C 
ATOM     16  O   UNL d   1      -0.430  -0.202   2.588  0.00  0.00    -0.265 OA
BRANCH  15  17
ATOM     17  O   UNL d   1      -0.255  -2.464   2.360  0.00  0.00    -0.321 OA
BRANCH  17  18
ATOM     18  C   UNL d   1       0.451  -2.531   3.612  0.00  0.00     0.174 C 
ATOM     19  C   UNL d   1       1.945  -2.532   3.336  0.00  0.00     0.034 C 
ENDBRANCH  17  18
ENDBRANCH  15  17
ENDBRANCH   4  15
BRANCH   5  20
ATOM     20  C   UNL d   1      -1.430   2.500  -0.513  0.00  0.00     0.269 C 
ATOM     21  O   UNL d   1      -1.544   2.560  -1.728  0.00  0.00    -0.265 OA
BRANCH  20  22
ATOM     22  O   UNL d   1      -1.879   3.417   0.379  0.00  0.00    -0.321 OA
BRANCH  22  23
ATOM     23  C   UNL d   1      -2.546   4.562  -0.173  0.00  0.00     0.174 C 
ATOM     24  C   UNL d   1      -1.527   5.584  -0.641  0.00  0.00     0.034 C 
ENDBRANCH  22  23
ENDBRANCH  20  22
ENDBRANCH   5  20
BRANCH   2  25
ATOM     25  C   UNL d   1       0.677  -1.604  -1.846  0.00  0.00     0.449 C 
ATOM     26  F   UNL d   1       1.395  -0.804  -2.662  0.00  0.00    -0.166 F 
ATOM     27  F   UNL d   1       1.202  -2.848  -2.021  0.00  0.00    -0.166 F 
ATOM     28  F   UNL d   1      -0.591  -1.647  -2.306  0.00  0.00    -0.166 F 
ENDBRANCH   2  25
BRANCH   2  29
ATOM     29  O   UNL d   1       1.570  -2.195   0.341  0.00  0.00    -0.355 OA
ATOM     30  H   UNL d   1       2.374  -2.324  -0.192  0.00  0.00     0.213 HD
ENDBRANCH   2  29
BRANCH   1  31
ATOM     31  C   UNL d   1       1.536   2.597   0.329  0.00  0.00     0.449 C 
ATOM     32  F   UNL d   1       2.670   2.214   0.972  0.00  0.00    -0.166 F 
ATOM     33  F   UNL d   1       1.913   3.482  -0.625  0.00  0.00    -0.166 F 
ATOM     34  F   UNL d   1       0.787   3.277   1.225  0.00  0.00    -0.166 F 
ENDBRANCH   1  31
BRANCH   1  35
ATOM     35  O   UNL d   1       0.862   1.345  -1.730  0.00  0.00    -0.355 OA
ATOM     36  H   UNL d   1       0.012   1.589  -2.151  0.00  0.00     0.213 HD
ENDBRANCH   1  35
TORSDOF 11
