REMARK  1 active torsions:
REMARK  status: ('A' for Active; 'I' for Inactive)
REMARK       I    between atoms: C_3  and  N_6 
REMARK       I    between atoms: N_11  and  C_3 
REMARK    1  A    between atoms: N_6  and  C_7 
ROOT
ATOM      1  S   UNL d   1       0.563   0.103   0.001  0.00  0.00     0.146 S 
ATOM      2  C   UNL d   1      -0.494  -1.015   0.895  0.00  0.00     0.165 C 
ATOM      3  O   UNL d   1       1.153  -0.606  -1.118  0.00  0.00    -0.228 OA
ATOM      4  O   UNL d   1       1.361   0.850   0.948  0.00  0.00    -0.228 OA
ATOM      5  C   UNL d   1      -1.866  -0.840   0.243  0.00  0.00     0.101 C 
ATOM      6  C   UNL d   1      -0.728   1.156  -0.627  0.00  0.00     0.142 C 
ATOM      7  C   UNL d   1      -2.019   0.669   0.018  0.00  0.00     0.041 C 
ENDROOT
BRANCH   5   8
ATOM      8  N   UNL d   1      -2.956  -1.369   1.055  0.00  0.00    -0.338 N 
ATOM      9  C   UNL d   1      -2.993  -2.715   1.338  0.00  0.00     0.316 C 
ATOM     10  O   UNL d   1      -2.125  -3.504   0.997  0.00  0.00    -0.247 OA
ATOM     11  N   UNL d   1      -4.104  -3.049   2.065  0.00  0.00    -0.347 N 
ATOM     12  C   UNL d   1      -4.286  -4.380   2.593  0.00  0.00     0.151 C 
ATOM     13  H   UNL d   1      -4.642  -2.302   2.475  0.00  0.00     0.163 HD
ATOM     14  H   UNL d   1      -3.870  -0.957   0.930  0.00  0.00     0.164 HD
ENDBRANCH   5   8
TORSDOF 1
