REMARK  2 active torsions:
REMARK  status: ('A' for Active; 'I' for Inactive)
REMARK    1  A    between atoms: S_5  and  C_1 
REMARK    2  A    between atoms: C_4  and  S_5 
ROOT
ATOM      1  C   UNL d   1       0.794   1.258  -0.407  0.00  0.00     0.194 C 
ATOM      2  C   UNL d   1       1.462  -0.049  -0.040  0.00  0.00     0.148 C 
ATOM      3  C   UNL d   1      -0.641   1.276   0.079  0.00  0.00     0.148 C 
ATOM      4  C   UNL d   1      -0.750  -1.249   0.303  0.00  0.00    -0.035 C 
ATOM      5  C   UNL d   1       0.676  -1.323  -0.272  0.00  0.00     0.089 C 
ATOM      6  C   UNL d   1      -1.471   0.029  -0.165  0.00  0.00     0.089 C 
ATOM      7  O   UNL d   1       2.623  -0.096   0.352  0.00  0.00    -0.296 OA
ATOM      8  O   UNL d   1      -1.149   2.288   0.564  0.00  0.00    -0.296 OA
ATOM      9  C   UNL d   1      -1.532  -2.474  -0.206  0.00  0.00     0.015 C 
ATOM     10  C   UNL d   1      -0.716  -1.300   1.842  0.00  0.00     0.015 C 
ENDROOT
BRANCH   1  11
ATOM     11  S   UNL d   1       0.778   1.533  -2.209  0.00  0.00    -0.035 SA
BRANCH  11  12
ATOM     12  C   UNL d   1       2.537   1.624  -2.521  0.00  0.00     0.444 C 
ATOM     13  F   UNL d   1       3.265   1.820  -1.406  0.00  0.00    -0.160 F 
ATOM     14  F   UNL d   1       2.968   0.488  -3.114  0.00  0.00    -0.160 F 
ATOM     15  F   UNL d   1       2.812   2.647  -3.362  0.00  0.00    -0.160 F 
ENDBRANCH  11  12
ENDBRANCH   1  11
TORSDOF 2
