REMARK  11 active torsions:
REMARK  status: ('A' for Active; 'I' for Inactive)
REMARK    1  A    between atoms: O_16  and  C_1 
REMARK    2  A    between atoms: C_6  and  C_2 
REMARK    3  A    between atoms: O_17  and  C_3 
REMARK    4  A    between atoms: O_18  and  C_4 
REMARK    5  A    between atoms: C_5  and  C_11 
REMARK       I    between atoms: N_10  and  C_5 
REMARK    6  A    between atoms: C_11  and  C_6 
REMARK    7  A    between atoms: C_12  and  C_6 
REMARK    8  A    between atoms: C_9  and  C_12 
REMARK    9  A    between atoms: O_20  and  C_9 
REMARK   10  A    between atoms: C_15  and  N_10 
REMARK   11  A    between atoms: O_25  and  C_19 
ROOT
ATOM      1  C   UNL d   1      -2.768   0.099  -0.774  0.00  0.00     0.037 C 
ENDROOT
BRANCH   1   2
ATOM      2  C   UNL d   1      -1.344  -0.457  -0.922  0.00  0.00    -0.048 C 
ATOM      3  C   UNL d   1      -0.396  -0.133   0.054  0.00  0.00     0.047 C 
ATOM      4  C   UNL d   1       0.817  -0.835   0.176  0.00  0.00     0.104 C 
ATOM      5  C   UNL d   1       1.120  -1.872  -0.727  0.00  0.00     0.135 C 
ATOM      6  C   UNL d   1       0.244  -2.103  -1.810  0.00  0.00     0.104 C 
ATOM      7  C   UNL d   1      -0.976  -1.405  -1.894  0.00  0.00     0.047 C 
BRANCH   4   8
ATOM      8  O   UNL d   1       1.544  -0.387   1.250  0.00  0.00    -0.353 OA
ATOM      9  C   UNL d   1       2.696  -1.109   1.652  0.00  0.00     0.210 C 
ENDBRANCH   4   8
BRANCH   5  10
ATOM     10  O   UNL d   1       2.300  -2.554  -0.551  0.00  0.00    -0.351 OA
ATOM     11  C   UNL d   1       2.297  -3.952  -0.842  0.00  0.00     0.210 C 
ENDBRANCH   5  10
BRANCH   6  12
ATOM     12  O   UNL d   1       0.619  -3.055  -2.725  0.00  0.00    -0.353 OA
ATOM     13  C   UNL d   1       0.067  -2.989  -4.030  0.00  0.00     0.210 C 
ENDBRANCH   6  12
ENDBRANCH   1   2
BRANCH   1  14
ATOM     14  C   UNL d   1      -3.022   1.375  -1.608  0.00  0.00     0.113 C 
BRANCH  14  15
ATOM     15  C   UNL d   1      -4.423   1.947  -1.387  0.00  0.00     0.222 C 
ATOM     16  N   UNL d   1      -5.036   2.822  -2.242  0.00  0.00    -0.327 N 
ATOM     17  H   UNL d   1      -5.872   3.207  -1.815  0.00  0.00     0.169 HD
ATOM     18  O   UNL d   1      -5.025   1.692  -0.339  0.00  0.00    -0.273 OA
BRANCH  16  19
ATOM     19  C   UNL d   1      -4.734   3.321  -3.526  0.00  0.00     0.034 A 
ATOM     20  C   UNL d   1      -3.818   2.756  -4.397  0.00  0.00     0.032 A 
ATOM     21  C   UNL d   1      -3.517   3.369  -5.616  0.00  0.00     0.039 A 
ATOM     22  C   UNL d   1      -4.176   4.522  -6.021  0.00  0.00     0.068 A 
ATOM     23  C   UNL d   1      -5.162   5.060  -5.200  0.00  0.00     0.039 A 
ATOM     24  C   UNL d   1      -5.443   4.456  -3.960  0.00  0.00     0.032 A 
BRANCH  22  25
ATOM     25  O   UNL d   1      -3.732   5.038  -7.203  0.00  0.00    -0.356 OA
ATOM     26  C   UNL d   1      -4.678   5.763  -7.973  0.00  0.00     0.210 C 
ENDBRANCH  22  25
ENDBRANCH  16  19
ENDBRANCH  14  15
ENDBRANCH   1  14
BRANCH   1  27
ATOM     27  C   UNL d   1      -3.824  -0.994  -1.052  0.00  0.00     0.119 C 
BRANCH  27  28
ATOM     28  C   UNL d   1      -3.722  -2.115  -0.048  0.00  0.00     0.140 C 
ATOM     29  O   UNL d   1      -3.236  -3.208  -0.291  0.00  0.00    -0.650 OA
BRANCH  28  30
ATOM     30  O   UNL d   1      -4.238  -1.795   1.160  0.00  0.00    -0.776 OA
ATOM     31  H   UNL d   1      -4.612  -0.891   1.205  0.00  0.00     0.167 HD
ENDBRANCH  28  30
ENDBRANCH  27  28
ENDBRANCH   1  27
TORSDOF 11
