REMARK  4 active torsions:
REMARK  status: ('A' for Active; 'I' for Inactive)
REMARK    1  A    between atoms: S_2  and  C_1 
REMARK    2  A    between atoms: O_9  and  C_1 
REMARK    3  A    between atoms: C_3  and  S_2 
REMARK    4  A    between atoms: C_13  and  O_9 
ROOT
ATOM      1  C   UNL d   1       0.975  -2.160   1.893  0.00  0.00     0.011 A 
ATOM      2  C   UNL d   1       2.881  -2.588   3.372  0.00  0.00    -0.025 A 
ATOM      3  C   UNL d   1       2.015  -1.697   2.710  0.00  0.00     0.031 A 
ATOM      4  C   UNL d   1       2.691  -3.978   3.216  0.00  0.00    -0.026 A 
ATOM      5  C   UNL d   1       1.633  -4.439   2.417  0.00  0.00     0.013 A 
ATOM      6  C   UNL d   1       0.793  -3.538   1.750  0.00  0.00     0.020 A 
ATOM      7  C   UNL d   1       3.951  -2.125   4.157  0.00  0.00     0.012 A 
ATOM      8  C   UNL d   1       3.576  -4.867   3.846  0.00  0.00     0.012 A 
ATOM      9  C   UNL d   1       4.827  -3.021   4.770  0.00  0.00     0.001 A 
ATOM     10  C   UNL d   1       4.642  -4.391   4.613  0.00  0.00     0.001 A 
ENDROOT
BRANCH   1  11
ATOM     11  S   UNL d   1       0.068  -0.981   0.920  0.00  0.00    -0.022 SA
BRANCH  11  12
ATOM     12  C   UNL d   1      -1.621  -1.168   1.383  0.00  0.00     0.327 C 
ATOM     13  O   UNL d   1      -2.425  -0.307   1.046  0.00  0.00    -0.251 OA
BRANCH  12  14
ATOM     14  O   UNL d   1      -1.974  -2.294   2.068  0.00  0.00    -0.313 OA
BRANCH  14  15
ATOM     15  C   UNL d   1      -3.373  -2.423   2.365  0.00  0.00     0.175 C 
ATOM     16  C   UNL d   1      -4.098  -3.078   1.201  0.00  0.00     0.034 C 
ENDBRANCH  14  15
ENDBRANCH  12  14
ENDBRANCH  11  12
ENDBRANCH   1  11
TORSDOF 4
