REMARK  5 active torsions:
REMARK  status: ('A' for Active; 'I' for Inactive)
REMARK    1  A    between atoms: C_9  and  C_2 
REMARK    2  A    between atoms: N_8  and  C_3 
REMARK    3  A    between atoms: C_12  and  C_7 
REMARK    4  A    between atoms: O_16  and  C_9 
REMARK    5  A    between atoms: C_24  and  O_16 
ROOT
ATOM      1  C   UNL d   1      -0.853   1.264  -0.087  0.00  0.00     0.106 A 
ATOM      2  C   UNL d   1      -1.568   0.060  -0.001  0.00  0.00     0.087 A 
ATOM      3  C   UNL d   1       0.538   1.223  -0.045  0.00  0.00     0.126 A 
ATOM      4  N   UNL d   1       1.180   0.037   0.033  0.00  0.00    -0.343 N 
ATOM      5  HN  UNL d   1       2.200   0.028   0.043  1.00  0.00     0.167 HD
ATOM      6  C   UNL d   1      -0.893  -1.168   0.105  0.00  0.00     0.075 A 
ATOM      7  C   UNL d   1       0.510  -1.153   0.098  0.00  0.00     0.041 A 
ATOM      8  C   UNL d   1      -1.514   2.504  -0.364  0.00  0.00     0.104 C 
ATOM      9  N   UNL d   1      -2.043   3.518  -0.572  0.00  0.00    -0.191 NA
ATOM     10 CL   UNL d   1      -1.810  -2.627   0.259  0.00  0.00    -0.081 Cl
ENDROOT
BRANCH   2  11
ATOM     11  C   UNL d   1      -3.028   0.095  -0.244  0.00  0.00     0.296 C 
ATOM     12  O   UNL d   1      -3.553  -0.531  -1.150  0.00  0.00    -0.259 OA
BRANCH  11  13
ATOM     13  O   UNL d   1      -3.622   0.995   0.574  0.00  0.00    -0.318 OA
BRANCH  13  14
ATOM     14  C   UNL d   1      -4.911   1.471   0.140  0.00  0.00     0.174 C 
ATOM     15  C   UNL d   1      -5.895   1.407   1.287  0.00  0.00     0.034 C 
ENDBRANCH  13  14
ENDBRANCH  11  13
ENDBRANCH   2  11
BRANCH   3  16
ATOM     16  N   UNL d   1       1.299   2.355  -0.241  0.00  0.00    -0.362 N 
ATOM     17  C   UNL d   1       2.627   2.228  -0.857  0.00  0.00     0.150 C 
ATOM     18  C   UNL d   1       2.898   3.539  -1.620  0.00  0.00     0.187 C 
ATOM     19  O   UNL d   1       2.818   4.690  -0.755  0.00  0.00    -0.388 OA
ATOM     20  C   UNL d   1       1.524   4.768  -0.124  0.00  0.00     0.187 C 
ATOM     21  C   UNL d   1       1.233   3.496   0.691  0.00  0.00     0.150 C 
ENDBRANCH   3  16
BRANCH   7  22
ATOM     22  C   UNL d   1       1.425  -2.398   0.112  0.00  0.00    -0.007 C 
ATOM     23  C   UNL d   1       2.925  -1.983   0.031  0.00  0.00     0.021 C 
ATOM     24  C   UNL d   1       1.281  -3.199   1.420  0.00  0.00     0.021 C 
ATOM     25  C   UNL d   1       1.186  -3.308  -1.112  0.00  0.00     0.021 C 
ENDBRANCH   7  22
TORSDOF 5
