REMARK  5 active torsions:
REMARK  status: ('A' for Active; 'I' for Inactive)
REMARK    1  A    between atoms: C_10  and  C_1 
REMARK    2  A    between atoms: C_11  and  C_2 
REMARK    3  A    between atoms: C_7  and  C_3 
REMARK    4  A    between atoms: O_15  and  C_10 
REMARK    5  A    between atoms: O_16  and  C_11 
ROOT
ATOM      1  C   UNL d   1       1.329  -1.004   0.077  0.00  0.00     0.054 C 
ATOM      2  C   UNL d   1      -1.225  -1.056   0.109  0.00  0.00     0.054 C 
ATOM      3  C   UNL d   1       0.066  -1.850  -0.106  0.00  0.00     0.117 C 
ATOM      4  C   UNL d   1       1.256   0.347   0.051  0.00  0.00     0.018 C 
ATOM      5  C   UNL d   1      -1.201   0.298   0.069  0.00  0.00     0.018 C 
ATOM      6  N   UNL d   1       0.012   0.957  -0.073  0.00  0.00    -0.362 N 
ATOM      7  C   UNL d   1      -2.425   1.173   0.174  0.00  0.00     0.069 C 
ATOM      8  C   UNL d   1       2.414   1.305   0.165  0.00  0.00     0.069 C 
ATOM      9  H   UNL d   1      -0.005   1.974  -0.018  0.00  0.00     0.165 HD
ENDROOT
BRANCH   3  10
ATOM     10  C   UNL d   1       0.061  -2.497  -1.498  0.00  0.00     0.023 A 
ATOM     11  N   UNL d   1       0.087  -3.853  -1.561  0.00  0.00    -0.362 N 
ATOM     12  C   UNL d   1       0.061  -4.431  -2.787  0.00  0.00     0.005 A 
ATOM     13  HN  UNL d   1       0.126  -4.419  -0.714  1.00  0.00     0.165 HD
ATOM     14  C   UNL d   1       0.090  -5.931  -2.842  0.00  0.00     0.068 C 
ATOM     15  C   UNL d   1       0.006  -3.701  -3.971  0.00  0.00     0.024 A 
ATOM     16  C   UNL d   1      -0.021  -2.314  -3.896  0.00  0.00     0.004 A 
ATOM     17  C   UNL d   1       0.009  -1.703  -2.649  0.00  0.00     0.026 A 
ENDBRANCH   3  10
BRANCH   2  18
ATOM     18  C   UNL d   1      -2.481  -1.821   0.326  0.00  0.00     0.291 C 
ATOM     19  O   UNL d   1      -3.604  -1.411   0.082  0.00  0.00    -0.260 OA
BRANCH  18  20
ATOM     20  O   UNL d   1      -2.198  -3.032   0.871  0.00  0.00    -0.323 OA
ATOM     21  C   UNL d   1      -3.335  -3.861   1.110  0.00  0.00     0.213 C 
ENDBRANCH  18  20
ENDBRANCH   2  18
BRANCH   1  22
ATOM     22  C   UNL d   1       2.606  -1.744   0.247  0.00  0.00     0.291 C 
ATOM     23  O   UNL d   1       3.682  -1.397  -0.217  0.00  0.00    -0.260 OA
BRANCH  22  24
ATOM     24  O   UNL d   1       2.400  -2.837   1.023  0.00  0.00    -0.323 OA
ATOM     25  C   UNL d   1       3.563  -3.633   1.262  0.00  0.00     0.213 C 
ENDBRANCH  22  24
ENDBRANCH   1  22
TORSDOF 5
