REMARK  1 active torsions:
REMARK  status: ('A' for Active; 'I' for Inactive)
REMARK    1  A    between atoms: C_26  and  C_24 
ROOT
ATOM      1  C   UNL d   1       2.737  -0.736   0.004  0.00  0.00     0.134 A 
ATOM      2  C   UNL d   1       1.780   0.248   0.008  0.00  0.00     0.104 A 
ATOM      3  N   UNL d   1       4.098  -0.324   0.005  0.00  0.00    -0.288 N 
ATOM      4  N   UNL d   1       3.519   1.978   0.002  0.00  0.00    -0.270 N 
ATOM      5  N   UNL d   1       2.275  -2.093  -0.001  0.00  0.00    -0.303 N 
ATOM      6  C   UNL d   1       4.498   1.029   0.000  0.00  0.00     0.332 A 
ATOM      7  C   UNL d   1       2.180   1.694   0.009  0.00  0.00     0.267 A 
ATOM      8  C   UNL d   1      -0.089  -1.375   0.007  0.00  0.00     0.061 A 
ATOM      9  C   UNL d   1       0.327  -0.072   0.010  0.00  0.00     0.068 A 
ATOM     10  C   UNL d   1       0.900  -2.430   0.002  0.00  0.00     0.261 A 
ATOM     11  N   UNL d   1      -0.594   0.929   0.014  0.00  0.00    -0.354 N 
ATOM     12  HN  UNL d   1      -0.282   1.900   0.018  1.00  0.00     0.166 HD
ATOM     13  C   UNL d   1      -1.451  -1.688   0.007  0.00  0.00     0.033 A 
ATOM     14  C   UNL d   1      -1.920   0.653   0.013  0.00  0.00     0.043 A 
ATOM     15  C   UNL d   1      -2.393  -0.667   0.010  0.00  0.00    -0.008 A 
ATOM     16  O   UNL d   1       5.690   1.357  -0.004  0.00  0.00    -0.246 OA
ATOM     17  O   UNL d   1       1.364   2.614   0.016  0.00  0.00    -0.267 OA
ATOM     18  O   UNL d   1       0.476  -3.590   0.002  0.00  0.00    -0.267 OA
ATOM     19  C   UNL d   1      -2.871   1.674   0.009  0.00  0.00     0.037 A 
ATOM     20  C   UNL d   1       5.301  -1.133   0.007  0.00  0.00     0.163 C 
ATOM     21  C   UNL d   1       3.902   3.383  -0.001  0.00  0.00     0.164 C 
ATOM     22  C   UNL d   1       3.014  -3.339  -0.006  0.00  0.00     0.161 C 
ATOM     23  C   UNL d   1      -3.768  -0.950   0.010  0.00  0.00     0.014 A 
ATOM     24  C   UNL d   1      -4.255   1.412  -0.005  0.00  0.00    -0.056 A 
ATOM     25  C   UNL d   1      -4.694   0.087   0.005  0.00  0.00     0.008 A 
ENDROOT
BRANCH  24  26
ATOM     26  C   UNL d   1      -5.259   2.538  -0.022  0.00  0.00     0.034 C 
ATOM     27  C   UNL d   1      -5.673   2.966   1.377  0.00  0.00     0.010 C 
ENDBRANCH  24  26
TORSDOF 1
