REMARK  9 active torsions:
REMARK  status: ('A' for Active; 'I' for Inactive)
REMARK    1  A    between atoms: N_3  and  C_1 
REMARK    2  A    between atoms: N_4  and  C_2 
REMARK    3  A    between atoms: C_5  and  C_12 
REMARK    4  A    between atoms: C_6  and  C_11 
REMARK    5  A    between atoms: O_16  and  C_9 
REMARK    6  A    between atoms: C_10  and  O_15 
REMARK    7  A    between atoms: O_15  and  C_36 
REMARK    8  A    between atoms: C_35  and  O_16 
REMARK    9  A    between atoms: C_19  and  C_20 
ROOT
ATOM      1  C   UNL d   1       7.305   1.594  -1.009  0.00  0.00    -0.026 A 
ATOM      2  C   UNL d   1       7.954   1.751  -2.247  0.00  0.00     0.015 A 
ATOM      3  C   UNL d   1       8.126   1.311   0.100  0.00  0.00     0.015 A 
ATOM      4  C   UNL d   1      10.117   1.265  -1.256  0.00  0.00     0.076 A 
ATOM      5  C   UNL d   1       9.508   1.193  -0.005  0.00  0.00     0.038 A 
ATOM      6  C   UNL d   1       9.344   1.581  -2.372  0.00  0.00     0.038 A 
ENDROOT
BRANCH   1   7
ATOM      7  C   UNL d   1       5.835   1.729  -0.831  0.00  0.00    -0.026 A 
ATOM      8  C   UNL d   1       4.906   1.501  -1.863  0.00  0.00     0.015 A 
ATOM      9  C   UNL d   1       3.522   1.639  -1.650  0.00  0.00     0.038 A 
ATOM     10  C   UNL d   1       3.040   1.993  -0.392  0.00  0.00     0.076 A 
ATOM     11  C   UNL d   1       3.935   2.149   0.662  0.00  0.00     0.038 A 
ATOM     12  C   UNL d   1       5.304   2.068   0.428  0.00  0.00     0.015 A 
BRANCH  10  13
ATOM     13  O   UNL d   1       1.679   2.174  -0.249  0.00  0.00    -0.308 OA
BRANCH  13  14
ATOM     14  C   UNL d   1       1.266   3.120   0.667  0.00  0.00     0.109 A 
ATOM     15  C   UNL d   1       0.235   2.837   1.563  0.00  0.00     0.137 A 
ATOM     16  C   UNL d   1      -0.177   3.770   2.529  0.00  0.00     0.055 A 
ATOM     17  C   UNL d   1       0.459   5.019   2.605  0.00  0.00     0.050 A 
ATOM     18  C   UNL d   1       1.473   5.319   1.682  0.00  0.00     0.019 A 
ATOM     19  C   UNL d   1       1.851   4.393   0.706  0.00  0.00     0.040 A 
BRANCH  15  20
ATOM     20  N   UNL d   1      -0.422   1.546   1.538  0.00  0.00    -0.113 N 
ATOM     21  O   UNL d   1      -1.652   1.551   1.409  0.00  0.00    -0.532 OA
ATOM     22  O   UNL d   1       0.281   0.542   1.704  0.00  0.00    -0.532 OA
ENDBRANCH  15  20
BRANCH  17  23
ATOM     23  C   UNL d   1       0.089   6.034   3.661  0.00  0.00     0.417 C 
ATOM     24  F   UNL d   1      -0.999   5.679   4.396  0.00  0.00    -0.166 F 
ATOM     25  F   UNL d   1       1.097   6.235   4.553  0.00  0.00    -0.166 F 
ATOM     26  F   UNL d   1      -0.194   7.255   3.131  0.00  0.00    -0.166 F 
ENDBRANCH  17  23
ENDBRANCH  13  14
ENDBRANCH  10  13
ENDBRANCH   1   7
BRANCH   4  27
ATOM     27  O   UNL d   1      11.464   1.039  -1.452  0.00  0.00    -0.308 OA
BRANCH  27  28
ATOM     28  C   UNL d   1      12.094   0.140  -0.614  0.00  0.00     0.109 A 
ATOM     29  C   UNL d   1      13.344   0.422  -0.045  0.00  0.00     0.137 A 
ATOM     30  C   UNL d   1      13.947  -0.510   0.828  0.00  0.00     0.055 A 
ATOM     31  C   UNL d   1      13.315  -1.728   1.131  0.00  0.00     0.050 A 
ATOM     32  C   UNL d   1      12.080  -2.012   0.535  0.00  0.00     0.019 A 
ATOM     33  C   UNL d   1      11.494  -1.104  -0.348  0.00  0.00     0.040 A 
BRANCH  29  34
ATOM     34  N   UNL d   1      14.062   1.676  -0.320  0.00  0.00    -0.113 N 
ATOM     35  O   UNL d   1      15.242   1.744   0.061  0.00  0.00    -0.532 OA
ATOM     36  O   UNL d   1      13.471   2.598  -0.894  0.00  0.00    -0.532 OA
ENDBRANCH  29  34
BRANCH  31  37
ATOM     37  C   UNL d   1      13.935  -2.730   2.078  0.00  0.00     0.417 C 
ATOM     38  F   UNL d   1      15.194  -2.397   2.470  0.00  0.00    -0.166 F 
ATOM     39  F   UNL d   1      13.210  -2.875   3.220  0.00  0.00    -0.166 F 
ATOM     40  F   UNL d   1      14.026  -3.971   1.529  0.00  0.00    -0.166 F 
ENDBRANCH  31  37
ENDBRANCH  27  28
ENDBRANCH   4  27
TORSDOF 9
