REMARK  6 active torsions:
REMARK  status: ('A' for Active; 'I' for Inactive)
REMARK    1  A    between atoms: O_8  and  C_2 
REMARK    2  A    between atoms: O_9  and  C_3 
REMARK    3  A    between atoms: C_20  and  O_8 
REMARK    4  A    between atoms: C_21  and  O_9 
REMARK    5  A    between atoms: C_11  and  C_13 
REMARK    6  A    between atoms: C_12  and  C_14 
ROOT
ATOM      1  C   UNL d   1      -0.306   0.061   0.177  0.00  0.00     0.113 A 
ATOM      2  C   UNL d   1      -1.047  -1.100   0.063  0.00  0.00     0.171 A 
ATOM      3  C   UNL d   1      -1.029   1.228   0.000  0.00  0.00     0.171 A 
ATOM      4  N   UNL d   1      -2.375   1.257  -0.149  0.00  0.00    -0.332 N 
ATOM      5  HN  UNL d   1      -2.887   2.135  -0.241  1.00  0.00     0.168 HD
ATOM      6  N   UNL d   1      -2.396  -1.112  -0.074  0.00  0.00    -0.332 N 
ATOM      7  HN  UNL d   1      -2.924  -1.984  -0.102  1.00  0.00     0.168 HD
ATOM      8  C   UNL d   1      -2.995   0.076  -0.169  0.00  0.00     0.184 A 
ATOM      9 BR   UNL d   1       1.548   0.054   0.541  0.00  0.00    -0.042 Br
ENDROOT
BRANCH   2  10
ATOM     10  O   UNL d   1      -0.406  -2.330   0.106  0.00  0.00    -0.292 OA
BRANCH  10  11
ATOM     11  C   UNL d   1      -0.905  -3.351  -0.680  0.00  0.00     0.077 A 
ATOM     12  C   UNL d   1      -1.425  -3.171  -1.960  0.00  0.00     0.038 A 
ATOM     13  C   UNL d   1      -1.846  -4.271  -2.721  0.00  0.00     0.011 A 
ATOM     14  C   UNL d   1      -1.722  -5.589  -2.243  0.00  0.00    -0.050 A 
ATOM     15  C   UNL d   1      -1.205  -5.748  -0.945  0.00  0.00     0.011 A 
ATOM     16  C   UNL d   1      -0.795  -4.645  -0.177  0.00  0.00     0.038 A 
BRANCH  14  17
ATOM     17  C   UNL d   1      -2.085  -6.782  -3.151  0.00  0.00    -0.024 C 
ATOM     18  C   UNL d   1      -1.828  -8.157  -2.494  0.00  0.00     0.019 C 
ATOM     19  C   UNL d   1      -3.574  -6.740  -3.558  0.00  0.00     0.019 C 
ATOM     20  C   UNL d   1      -1.224  -6.729  -4.435  0.00  0.00     0.019 C 
ENDBRANCH  14  17
ENDBRANCH  10  11
ENDBRANCH   2  10
BRANCH   3  21
ATOM     21  O   UNL d   1      -0.368   2.449  -0.013  0.00  0.00    -0.292 OA
BRANCH  21  22
ATOM     22  C   UNL d   1      -0.797   3.402  -0.918  0.00  0.00     0.077 A 
ATOM     23  C   UNL d   1      -0.700   4.738  -0.533  0.00  0.00     0.038 A 
ATOM     24  C   UNL d   1      -1.034   5.764  -1.433  0.00  0.00     0.011 A 
ATOM     25  C   UNL d   1      -1.454   5.487  -2.749  0.00  0.00    -0.050 A 
ATOM     26  C   UNL d   1      -1.572   4.132  -3.103  0.00  0.00     0.011 A 
ATOM     27  C   UNL d   1      -1.231   3.105  -2.210  0.00  0.00     0.038 A 
BRANCH  25  28
ATOM     28  C   UNL d   1      -1.704   6.628  -3.756  0.00  0.00    -0.024 C 
ATOM     29  C   UNL d   1      -2.093   6.131  -5.169  0.00  0.00     0.019 C 
ATOM     30  C   UNL d   1      -2.838   7.555  -3.271  0.00  0.00     0.019 C 
ATOM     31  C   UNL d   1      -0.414   7.464  -3.916  0.00  0.00     0.019 C 
ENDBRANCH  25  28
ENDBRANCH  21  22
ENDBRANCH   3  21
TORSDOF 6
