REMARK  3 active torsions:
REMARK  status: ('A' for Active; 'I' for Inactive)
REMARK    1  A    between atoms: C_9  and  N_1 
REMARK    2  A    between atoms: C_10  and  C_6 
REMARK    3  A    between atoms: O_19  and  C_15 
ROOT
ATOM      1  N   UNL d   1      -3.058   1.077  -0.050  0.00  0.00    -0.282 N 
ATOM      2  N   UNL d   1      -1.767   1.512  -0.260  0.00  0.00    -0.300 N 
ATOM      3  HN  UNL d   1      -1.473   2.427  -0.601  1.00  0.00     0.187 HD
ATOM      4  C   UNL d   1      -1.002   0.514   0.066  0.00  0.00     0.043 C 
ATOM      5  C   UNL d   1      -1.708  -0.670   0.672  0.00  0.00     0.067 C 
ATOM      6  C   UNL d   1      -3.139  -0.369   0.205  0.00  0.00     0.151 C 
ATOM      7  C   UNL d   1       0.458   0.463  -0.030  0.00  0.00    -0.005 A 
ATOM      8  C   UNL d   1      -1.070  -2.031   0.405  0.00  0.00     0.018 C 
ATOM      9  C   UNL d   1       1.040  -0.800  -0.220  0.00  0.00    -0.046 A 
ATOM     10  C   UNL d   1       0.160  -1.989  -0.504  0.00  0.00     0.040 C 
ATOM     11  C   UNL d   1       1.238   1.607   0.124  0.00  0.00     0.014 A 
ATOM     12  C   UNL d   1       2.434  -0.907  -0.227  0.00  0.00     0.008 A 
ATOM     13  C   UNL d   1       2.627   1.484   0.133  0.00  0.00     0.001 A 
ATOM     14  C   UNL d   1       3.223   0.230  -0.033  0.00  0.00     0.001 A 
ENDROOT
BRANCH   6  15
ATOM     15  C   UNL d   1      -3.611  -1.124  -1.029  0.00  0.00    -0.033 A 
ATOM     16  C   UNL d   1      -4.741  -1.952  -0.954  0.00  0.00     0.012 A 
ATOM     17  C   UNL d   1      -5.152  -2.695  -2.063  0.00  0.00     0.037 A 
ATOM     18  C   UNL d   1      -4.445  -2.631  -3.264  0.00  0.00     0.068 A 
ATOM     19  C   UNL d   1      -3.355  -1.770  -3.366  0.00  0.00     0.037 A 
ATOM     20  C   UNL d   1      -2.947  -1.018  -2.260  0.00  0.00     0.012 A 
BRANCH  18  21
ATOM     21  O   UNL d   1      -4.911  -3.450  -4.255  0.00  0.00    -0.356 OA
ATOM     22  C   UNL d   1      -4.137  -3.500  -5.448  0.00  0.00     0.210 C 
ENDBRANCH  18  21
ENDBRANCH   6  15
BRANCH   1  23
ATOM     23  C   UNL d   1      -4.164   1.913  -0.217  0.00  0.00     0.051 A 
ATOM     24  C   UNL d   1      -4.034   3.197  -0.764  0.00  0.00     0.031 A 
ATOM     25  C   UNL d   1      -5.141   4.040  -0.929  0.00  0.00     0.002 A 
ATOM     26  C   UNL d   1      -6.408   3.622  -0.538  0.00  0.00     0.000 A 
ATOM     27  C   UNL d   1      -6.568   2.359   0.016  0.00  0.00     0.002 A 
ATOM     28  C   UNL d   1      -5.461   1.522   0.172  0.00  0.00     0.031 A 
ENDBRANCH   1  23
TORSDOF 3
