REMARK  9 active torsions:
REMARK  status: ('A' for Active; 'I' for Inactive)
REMARK    1  A    between atoms: C_8  and  C_1 
REMARK    2  A    between atoms: C_9  and  C_2 
REMARK    3  A    between atoms: S_10  and  C_3 
REMARK    4  A    between atoms: O_17  and  C_8 
REMARK    5  A    between atoms: O_16  and  C_9 
REMARK    6  A    between atoms: C_15  and  S_10 
REMARK    7  A    between atoms: C_11  and  C_15 
REMARK    8  A    between atoms: O_18  and  C_11 
REMARK    9  A    between atoms: C_20  and  O_17 
ROOT
ATOM      1  C   UNL d   1      -1.878   0.001  -0.050  0.00  0.00     0.074 A 
ATOM      2  C   UNL d   1       0.182  -1.293  -0.017  0.00  0.00     0.062 A 
ATOM      3  C   UNL d   1      -1.117   1.162  -0.120  0.00  0.00     0.086 A 
ATOM      4  N   UNL d   1       0.244   1.112  -0.109  0.00  0.00    -0.353 N 
ATOM      5  HN  UNL d   1       0.785   1.976  -0.134  1.00  0.00     0.166 HD
ATOM      6  C   UNL d   1      -1.213  -1.231   0.003  0.00  0.00     0.040 A 
ATOM      7  C   UNL d   1       0.885  -0.093  -0.064  0.00  0.00     0.022 A 
ATOM      8  C   UNL d   1       2.380   0.025  -0.053  0.00  0.00     0.069 C 
ENDROOT
BRANCH   3   9
ATOM      9  S   UNL d   1      -1.802   2.810  -0.117  0.00  0.00    -0.101 SA
BRANCH   9  10
ATOM     10  C   UNL d   1      -0.378   3.778  -0.723  0.00  0.00     0.191 C 
BRANCH  10  11
ATOM     11  C   UNL d   1      -0.023   3.491  -2.170  0.00  0.00     0.268 C 
ATOM     12  O   UNL d   1      -0.575   2.705  -2.928  0.00  0.00    -0.264 OA
BRANCH  11  13
ATOM     13  O   UNL d   1       1.021   4.304  -2.529  0.00  0.00    -0.326 OA
ATOM     14  C   UNL d   1       1.419   4.189  -3.897  0.00  0.00     0.213 C 
ENDBRANCH  11  13
ENDBRANCH  10  11
ENDBRANCH   9  10
ENDBRANCH   3   9
BRANCH   1  15
ATOM     15  C   UNL d   1      -3.351  -0.079  -0.020  0.00  0.00     0.296 C 
ATOM     16  O   UNL d   1      -3.937  -0.918   0.642  0.00  0.00    -0.259 OA
BRANCH  15  17
ATOM     17  O   UNL d   1      -3.882   0.724  -0.965  0.00  0.00    -0.318 OA
BRANCH  17  18
ATOM     18  C   UNL d   1      -5.229   0.420  -1.357  0.00  0.00     0.174 C 
ATOM     19  C   UNL d   1      -5.155  -0.359  -2.656  0.00  0.00     0.034 C 
ENDBRANCH  17  18
ENDBRANCH  15  17
ENDBRANCH   1  15
BRANCH   2  20
ATOM     20  C   UNL d   1       0.841  -2.620   0.043  0.00  0.00     0.294 C 
ATOM     21  O   UNL d   1       1.883  -2.857   0.625  0.00  0.00    -0.259 OA
BRANCH  20  22
ATOM     22  O   UNL d   1       0.093  -3.507  -0.662  0.00  0.00    -0.322 OA
ATOM     23  C   UNL d   1       0.594  -4.845  -0.662  0.00  0.00     0.213 C 
ENDBRANCH  20  22
ENDBRANCH   2  20
TORSDOF 9
