REMARK  5 active torsions:
REMARK  status: ('A' for Active; 'I' for Inactive)
REMARK    1  A    between atoms: N_6  and  N_1 
REMARK    2  A    between atoms: S_16  and  C_2 
REMARK       I    between atoms: C_8  and  N_6 
REMARK    3  A    between atoms: C_9  and  C_8 
REMARK    4  A    between atoms: O_12  and  C_10 
REMARK    5  A    between atoms: C_18  and  O_12 
ROOT
ATOM      1  N   UNL d   1       3.398  -0.962  -0.887  0.00  0.00    -0.254 N 
ATOM      2  C   UNL d   1       4.681  -0.644  -0.480  0.00  0.00     0.275 C 
ATOM      3  O   UNL d   1       5.651  -1.391  -0.470  0.00  0.00    -0.266 OA
ATOM      4  H   UNL d   1       2.751  -0.221  -1.143  0.00  0.00     0.191 HD
ENDROOT
BRANCH   1   5
ATOM      5  N   UNL d   1       3.134  -2.242  -1.445  0.00  0.00    -0.194 N 
ATOM      6  C   UNL d   1       2.023  -2.977  -1.054  0.00  0.00     0.167 C 
ATOM      7  N   UNL d   1       1.711  -4.136  -1.533  0.00  0.00    -0.335 N 
ATOM      8  C   UNL d   1       2.542  -4.688  -2.510  0.00  0.00     0.050 A 
ATOM      9  HN  UNL d   1       0.882  -4.633  -1.207  1.00  0.00     0.168 HD
ATOM     10  C   UNL d   1       3.632  -3.999  -3.045  0.00  0.00     0.061 A 
ATOM     11  C   UNL d   1       2.232  -5.955  -3.009  0.00  0.00     0.030 A 
ATOM     12  C   UNL d   1       3.884  -2.627  -2.558  0.00  0.00     0.281 C 
ATOM     13  C   UNL d   1       4.419  -4.569  -4.050  0.00  0.00     0.019 A 
ATOM     14  O   UNL d   1       4.633  -1.887  -3.193  0.00  0.00    -0.265 OA
ATOM     15  C   UNL d   1       4.100  -5.836  -4.541  0.00  0.00     0.001 A 
ATOM     16  C   UNL d   1       3.002  -6.526  -4.024  0.00  0.00     0.002 A 
BRANCH   6  17
ATOM     17  S   UNL d   1       0.887  -2.293   0.088  0.00  0.00    -0.105 SA
ATOM     18  H   UNL d   1       1.215  -1.013  -0.083  0.00  0.00     0.110 HD
ENDBRANCH   6  17
ENDBRANCH   1   5
BRANCH   2  19
ATOM     19  C   UNL d   1       4.847   0.765  -0.078  0.00  0.00     0.085 A 
ATOM     20  C   UNL d   1       4.256   1.320   1.058  0.00  0.00     0.164 A 
ATOM     21  N   UNL d   1       4.264   2.660   1.283  0.00  0.00    -0.346 N 
ATOM     22  C   UNL d   1       4.935   3.448   0.415  0.00  0.00     0.090 A 
ATOM     23  HN  UNL d   1       3.776   3.060   2.085  1.00  0.00     0.167 HD
ATOM     24  C   UNL d   1       5.623   2.964  -0.683  0.00  0.00     0.018 A 
ATOM     25  C   UNL d   1       5.579   1.596  -0.933  0.00  0.00     0.023 A 
BRANCH  20  26
ATOM     26  O   UNL d   1       3.521   0.646   2.003  0.00  0.00    -0.293 OA
BRANCH  26  27
ATOM     27  C   UNL d   1       3.906  -0.600   2.438  0.00  0.00     0.077 C 
ATOM     28  C   UNL d   1       5.221  -1.057   2.508  0.00  0.00     0.037 C 
ATOM     29  C   UNL d   1       5.470  -2.409   2.762  0.00  0.00     0.003 C 
ATOM     30  C   UNL d   1       4.413  -3.282   3.019  0.00  0.00     0.000 C 
ATOM     31  C   UNL d   1       3.111  -2.796   3.075  0.00  0.00     0.003 C 
ATOM     32  C   UNL d   1       2.862  -1.450   2.803  0.00  0.00     0.037 C 
ENDBRANCH  26  27
ENDBRANCH  20  26
ENDBRANCH   2  19
TORSDOF 5
