REMARK  1 active torsions:
REMARK  status: ('A' for Active; 'I' for Inactive)
REMARK    1  A    between atoms: O_9  and  C_4 
ROOT
ATOM      1  C   UNL d   1       1.022  -1.380  -0.309  0.00  0.00     0.255 C 
ATOM      2  N   UNL d   1       2.234  -0.780  -0.462  0.00  0.00    -0.324 N 
ATOM      3  C   UNL d   1      -0.283  -0.666  -0.224  0.00  0.00     0.053 A 
ATOM      4  C   UNL d   1       2.699   0.569  -0.246  0.00  0.00     0.144 C 
ATOM      5  N   UNL d   1       0.472   1.650   0.356  0.00  0.00    -0.288 NA
ATOM      6  C   UNL d   1      -0.494   0.693   0.049  0.00  0.00     0.024 A 
ATOM      7  O   UNL d   1       1.037  -2.613  -0.276  0.00  0.00    -0.268 OA
ATOM      8  C   UNL d   1       1.670   1.698  -0.471  0.00  0.00     0.153 C 
ATOM      9  C   UNL d   1      -1.410  -1.503  -0.412  0.00  0.00     0.019 A 
ATOM     10  C   UNL d   1       3.827   0.819  -1.274  0.00  0.00     0.072 C 
ATOM     11  C   UNL d   1      -1.825   1.149   0.179  0.00  0.00     0.024 A 
ATOM     12  C   UNL d   1      -2.716  -1.020  -0.320  0.00  0.00     0.001 A 
ATOM     13  C   UNL d   1      -2.924   0.314  -0.019  0.00  0.00     0.002 A 
ATOM     14  H   UNL d   1       2.968  -1.476  -0.446  0.00  0.00     0.165 HD
ATOM     15  H   UNL d   1       0.658   1.700   1.351  0.00  0.00     0.127 HD
ENDROOT
BRANCH   4  16
ATOM     16  O   UNL d   1       3.379   0.650   1.015  0.00  0.00    -0.365 OA
ATOM     17  C   UNL d   1       2.755   0.092   2.158  0.00  0.00     0.204 C 
ENDBRANCH   4  16
TORSDOF 1
