REMARK  1 active torsions:
REMARK  status: ('A' for Active; 'I' for Inactive)
REMARK    1  A    between atoms: C_7  and  C_6 
ROOT
ATOM      1  C   UNL d   1       0.002  -0.500   0.288  0.00  0.00     0.125 C 
ATOM      2  N   UNL d   1       1.980   1.046   0.892  0.00  0.00    -0.191 NA
ATOM      3  N   UNL d   1      -2.356   0.548   0.135  0.00  0.00    -0.191 NA
ATOM      4  C   UNL d   1       1.092   0.351   0.615  0.00  0.00     0.111 C 
ATOM      5  C   UNL d   1      -1.293   0.089   0.207  0.00  0.00     0.111 C 
ATOM      6  C   UNL d   1       0.137  -1.817   0.027  0.00  0.00     0.046 C 
ENDROOT
BRANCH   6   7
ATOM      7  C   UNL d   1       1.321  -2.630   0.033  0.00  0.00    -0.027 A 
ATOM      8  C   UNL d   1       2.409  -2.469   0.867  0.00  0.00     0.061 A 
ATOM      9  S   UNL d   1       3.634  -3.634   0.583  0.00  0.00    -0.113 SA
ATOM     10  C   UNL d   1       2.704  -4.393  -0.631  0.00  0.00     0.050 A 
ATOM     11  C   UNL d   1       1.488  -3.769  -0.817  0.00  0.00     0.019 A 
ENDBRANCH   6   7
TORSDOF 1
