REMARK  1 active torsions:
REMARK  status: ('A' for Active; 'I' for Inactive)
REMARK    1  A    between atoms: C_9  and  C_6 
ROOT
ATOM      1  N   UNL d   1      -1.716   1.510  -0.265  0.00  0.00    -0.305 N 
ATOM      2  HN  UNL d   1      -1.414   2.402  -0.657  1.00  0.00     0.186 HD
ATOM      3  C   UNL d   1      -0.979   0.489   0.045  0.00  0.00     0.043 C 
ATOM      4  N   UNL d   1      -2.976   1.127   0.049  0.00  0.00    -0.322 N 
ATOM      5  C   UNL d   1      -1.722  -0.683   0.627  0.00  0.00     0.067 C 
ATOM      6  C   UNL d   1      -3.154  -0.331   0.192  0.00  0.00     0.144 C 
ATOM      7  C   UNL d   1       0.478   0.420  -0.045  0.00  0.00    -0.005 A 
ATOM      8  C   UNL d   1      -1.113  -2.053   0.345  0.00  0.00     0.018 C 
ATOM      9  C   UNL d   1       1.048  -0.846  -0.232  0.00  0.00    -0.046 A 
ATOM     10  C   UNL d   1       0.155  -2.026  -0.518  0.00  0.00     0.040 C 
ATOM     11  C   UNL d   1      -4.126   1.920  -0.325  0.00  0.00     0.171 C 
ATOM     12  C   UNL d   1       1.261   1.562   0.115  0.00  0.00     0.014 A 
ATOM     13  C   UNL d   1       2.442  -0.952  -0.248  0.00  0.00     0.008 A 
ATOM     14  C   UNL d   1       2.650   1.438   0.114  0.00  0.00     0.001 A 
ATOM     15  C   UNL d   1       3.238   0.184  -0.063  0.00  0.00     0.001 A 
ENDROOT
BRANCH   6  16
ATOM     16  C   UNL d   1      -3.737  -1.008  -1.042  0.00  0.00    -0.033 A 
ATOM     17  C   UNL d   1      -3.100  -0.996  -2.296  0.00  0.00     0.012 A 
ATOM     18  C   UNL d   1      -3.718  -1.555  -3.418  0.00  0.00     0.043 A 
ATOM     19  C   UNL d   1      -4.982  -2.126  -3.298  0.00  0.00     0.116 A 
ATOM     20  C   UNL d   1      -5.631  -2.158  -2.070  0.00  0.00     0.043 A 
ATOM     21  F   UNL d   1      -5.586  -2.638  -4.377  0.00  0.00    -0.206 F 
ATOM     22  C   UNL d   1      -5.010  -1.602  -0.951  0.00  0.00     0.012 A 
ENDBRANCH   6  16
TORSDOF 1
