REMARK  2 active torsions:
REMARK  status: ('A' for Active; 'I' for Inactive)
REMARK    1  A    between atoms: C_8  and  C_3 
REMARK    2  A    between atoms: C_12  and  C_7 
ROOT
ATOM      1  N   UNL d   1       1.570  -0.084  -0.014  0.00  0.00    -0.331 N 
ATOM      2  HN  UNL d   1       2.515  -0.466  -0.052  1.00  0.00     0.168 HD
ATOM      3  C   UNL d   1       1.201   1.156   0.014  0.00  0.00     0.162 A 
ATOM      4  C   UNL d   1       0.374  -0.759   0.022  0.00  0.00     0.111 A 
ATOM      5  O   UNL d   1      -0.125   1.417   0.060  0.00  0.00    -0.256 OA
ATOM      6  C   UNL d   1      -0.760   0.212   0.068  0.00  0.00     0.316 A 
ATOM      7  C   UNL d   1       0.278  -2.094   0.012  0.00  0.00     0.047 C 
ATOM      8  O   UNL d   1      -1.959   0.030   0.105  0.00  0.00    -0.257 OA
ENDROOT
BRANCH   7   9
ATOM      9  C   UNL d   1      -0.973  -2.852   0.023  0.00  0.00    -0.031 A 
ATOM     10  C   UNL d   1      -1.584  -3.194   1.237  0.00  0.00     0.051 A 
ATOM     11  C   UNL d   1      -2.776  -3.887   1.183  0.00  0.00     0.105 A 
ATOM     12  O   UNL d   1      -3.511  -4.290   2.255  0.00  0.00    -0.323 OA
ATOM     13  C   UNL d   1      -3.355  -4.246  -0.012  0.00  0.00     0.105 A 
ATOM     14  C   UNL d   1      -4.651  -4.878   1.595  0.00  0.00     0.352 A 
ATOM     15  O   UNL d   1      -4.527  -4.914   0.159  0.00  0.00    -0.323 OA
ATOM     16  C   UNL d   1      -2.774  -3.936  -1.222  0.00  0.00     0.040 A 
ATOM     17  C   UNL d   1      -1.569  -3.227  -1.200  0.00  0.00     0.014 A 
ENDBRANCH   7   9
BRANCH   3  18
ATOM     18  C   UNL d   1       2.068   2.345   0.002  0.00  0.00     0.016 A 
ATOM     19  C   UNL d   1       1.528   3.634   0.108  0.00  0.00     0.022 A 
ATOM     20  C   UNL d   1       2.366   4.757   0.123  0.00  0.00    -0.061 A 
ATOM     21  C   UNL d   1       1.795   6.138   0.261  0.00  0.00     0.048 C 
ATOM     22  C   UNL d   1       3.750   4.576   0.017  0.00  0.00     0.007 A 
ATOM     23  C   UNL d   1       4.291   3.295  -0.098  0.00  0.00     0.002 A 
ATOM     24  C   UNL d   1       3.453   2.179  -0.103  0.00  0.00     0.016 A 
ENDBRANCH   3  18
TORSDOF 2
