REMARK  2 active torsions:
REMARK  status: ('A' for Active; 'I' for Inactive)
REMARK    1  A    between atoms: C_4  and  N_1 
REMARK    2  A    between atoms: O_16  and  C_9 
ROOT
ATOM      1  N   UNL d   1       0.513   1.146  -0.452  0.00  0.00    -0.249 N 
ATOM      2  C   UNL d   1       1.311   0.040  -0.178  0.00  0.00     0.232 C 
ATOM      3  C   UNL d   1      -0.875   1.176  -0.367  0.00  0.00     0.232 C 
ATOM      4  C   UNL d   1       0.640  -1.301  -0.305  0.00  0.00     0.113 C 
ATOM      5  C   UNL d   1      -1.571  -0.164  -0.407  0.00  0.00     0.113 C 
ATOM      6  C   UNL d   1      -0.794  -1.321   0.217  0.00  0.00    -0.031 C 
ATOM      7  O   UNL d   1      -1.553   2.209  -0.368  0.00  0.00    -0.273 OA
ATOM      8  O   UNL d   1       2.509   0.098   0.102  0.00  0.00    -0.273 OA
ATOM      9  C   UNL d   1      -1.460  -2.638  -0.223  0.00  0.00     0.016 C 
ATOM     10  C   UNL d   1      -0.814  -1.245   1.752  0.00  0.00     0.016 C 
ENDROOT
BRANCH   1  11
ATOM     11  C   UNL d   1       1.153   2.312  -0.973  0.00  0.00     0.080 A 
ATOM     12  C   UNL d   1       1.334   2.315  -2.370  0.00  0.00     0.057 A 
ATOM     13  C   UNL d   1       1.722   3.475  -3.030  0.00  0.00     0.036 A 
ATOM     14 CL   UNL d   1       1.849   3.475  -4.750  0.00  0.00    -0.084 Cl
ATOM     15  C   UNL d   1       1.962   4.640  -2.317  0.00  0.00     0.026 A 
ATOM     16  C   UNL d   1       1.833   4.627  -0.925  0.00  0.00     0.041 A 
ATOM     17  C   UNL d   1       1.443   3.464  -0.233  0.00  0.00     0.095 A 
BRANCH  17  18
ATOM     18  O   UNL d   1       1.354   3.648   1.120  0.00  0.00    -0.354 OA
ATOM     19  C   UNL d   1       1.634   2.529   1.949  0.00  0.00     0.210 C 
ENDBRANCH  17  18
ENDBRANCH   1  11
TORSDOF 2
