REMARK  3 active torsions:
REMARK  status: ('A' for Active; 'I' for Inactive)
REMARK    1  A    between atoms: C_7  and  C_1 
REMARK    2  A    between atoms: C_12  and  C_6 
REMARK    3  A    between atoms: N_9  and  C_12 
ROOT
ATOM      1  C   UNL d   1      -1.122   0.693  -0.510  0.00  0.00     0.141 A 
ATOM      2  N   UNL d   1      -0.213  -0.208  -1.027  0.00  0.00    -0.321 N 
ATOM      3  HN  UNL d   1       0.079  -0.333  -1.996  1.00  0.00     0.169 HD
ATOM      4  N   UNL d   1      -1.196   0.672   0.831  0.00  0.00    -0.242 N 
ATOM      5  HN  UNL d   1      -1.757   1.269   1.439  1.00  0.00     0.196 HD
ATOM      6  C   UNL d   1       0.183  -0.863   0.039  0.00  0.00     0.177 A 
ATOM      7  O   UNL d   1      -0.326  -0.356   1.198  0.00  0.00    -0.221 OA
ENDROOT
BRANCH   1   8
ATOM      8  C   UNL d   1      -1.993   1.474  -1.383  0.00  0.00     0.053 A 
ATOM      9  C   UNL d   1      -2.581   0.875  -2.518  0.00  0.00     0.049 A 
ATOM     10 CL   UNL d   1      -2.439  -0.815  -2.897  0.00  0.00    -0.083 Cl
ATOM     11  C   UNL d   1      -3.380   1.618  -3.398  0.00  0.00     0.025 A 
ATOM     12  C   UNL d   1      -3.635   2.961  -3.155  0.00  0.00     0.003 A 
ATOM     13  C   UNL d   1      -3.099   3.563  -2.022  0.00  0.00     0.025 A 
ATOM     14  C   UNL d   1      -2.280   2.832  -1.142  0.00  0.00     0.049 A 
ATOM     15 CL   UNL d   1      -1.652   3.717   0.209  0.00  0.00    -0.083 Cl
ENDBRANCH   1   8
BRANCH   6  16
ATOM     16  C   UNL d   1       0.875  -2.185   0.114  0.00  0.00     0.358 C 
BRANCH  16  17
ATOM     17  N   UNL d   1       2.350  -2.140   0.156  0.00  0.00     0.100 N 
ATOM     18  C   UNL d   1       2.956  -1.611  -1.089  0.00  0.00     0.299 C 
ATOM     19  C   UNL d   1       2.906  -2.570  -2.293  0.00  0.00     0.198 C 
ATOM     20  O   UNL d   1       3.459  -3.853  -1.974  0.00  0.00    -0.388 OA
ATOM     21  C   UNL d   1       2.802  -4.429  -0.841  0.00  0.00     0.198 C 
ATOM     22  C   UNL d   1       2.898  -3.500   0.384  0.00  0.00     0.299 C 
ENDBRANCH  16  17
ENDBRANCH   6  16
TORSDOF 3
