REMARK  3 active torsions:
REMARK  status: ('A' for Active; 'I' for Inactive)
REMARK       I    between atoms: N_2  and  C_1 
REMARK    1  A    between atoms: C_4  and  C_1 
REMARK       I    between atoms: C_3  and  N_2 
REMARK       I    between atoms: N_6  and  C_3 
REMARK    2  A    between atoms: C_5  and  C_8 
REMARK    3  A    between atoms: C_8  and  N_6 
ROOT
ATOM      1  C   UNL d   1       0.400   4.199   1.052  0.00  0.00     0.261 C 
ATOM      2  N   UNL d   1       0.044   2.853   1.120  0.00  0.00    -0.275 N 
ATOM      3  C   UNL d   1       0.806   1.739   0.856  0.00  0.00     0.324 C 
ATOM      4  N   UNL d   1       2.105   1.988   0.590  0.00  0.00    -0.323 N 
ATOM      5  O   UNL d   1       1.510   4.610   0.729  0.00  0.00    -0.267 OA
ATOM      6  O   UNL d   1       0.290   0.627   0.907  0.00  0.00    -0.247 OA
ATOM      7  H   UNL d   1      -0.904   2.614   1.369  0.00  0.00     0.173 HD
ATOM      8  H   UNL d   1       2.308   2.974   0.426  0.00  0.00     0.166 HD
ENDROOT
BRANCH   4   9
ATOM      9  C   UNL d   1       3.211   1.082   0.310  0.00  0.00     0.097 C 
ATOM     10  C   UNL d   1       3.055  -0.414   0.687  0.00  0.00     0.044 C 
ATOM     11  C   UNL d   1       2.936  -0.719   2.175  0.00  0.00     0.004 C 
ATOM     12  C   UNL d   1       3.981  -0.003   3.019  0.00  0.00     0.000 C 
ATOM     13  C   UNL d   1       4.140   1.465   2.636  0.00  0.00     0.004 C 
ATOM     14  C   UNL d   1       4.399   1.642   1.122  0.00  0.00     0.044 C 
BRANCH   9  15
ATOM     15  C   UNL d   1       3.414   1.120  -1.175  0.00  0.00    -0.086 C 
ATOM     16  C   UNL d   1       3.398   1.000  -2.372  0.00  0.00     0.015 C 
ENDBRANCH   9  15
ENDBRANCH   4   9
BRANCH   1  17
ATOM     17  C   UNL d   1      -0.707   5.155   1.274  0.00  0.00     0.054 A 
ATOM     18  C   UNL d   1      -1.594   5.077   2.352  0.00  0.00     0.049 A 
ATOM     19 CL   UNL d   1      -1.387   3.963   3.655  0.00  0.00    -0.083 Cl
ATOM     20  C   UNL d   1      -2.691   5.944   2.412  0.00  0.00     0.025 A 
ATOM     21  C   UNL d   1      -2.891   6.896   1.410  0.00  0.00     0.002 A 
ATOM     22  C   UNL d   1      -1.976   7.011   0.365  0.00  0.00     0.001 A 
ATOM     23  C   UNL d   1      -0.881   6.150   0.300  0.00  0.00     0.019 A 
ENDBRANCH   1  17
TORSDOF 3
