REMARK  5 active torsions:
REMARK  status: ('A' for Active; 'I' for Inactive)
REMARK    1  A    between atoms: C_8  and  N_1 
REMARK    2  A    between atoms: C_9  and  C_4 
REMARK    3  A    between atoms: C_11  and  C_7 
REMARK    4  A    between atoms: C_12  and  C_8 
REMARK    5  A    between atoms: C_15  and  C_12 
ROOT
ATOM      1  N   UNL d   1       1.478  -0.986  -0.173  0.00  0.00    -0.297 N 
ATOM      2  N   UNL d   1      -0.680  -0.337   0.014  0.00  0.00    -0.337 N 
ATOM      3  HN  UNL d   1      -1.695  -0.375   0.106  1.00  0.00     0.167 HD
ATOM      4  C   UNL d   1       0.152  -1.340  -0.066  0.00  0.00     0.121 A 
ATOM      5  C   UNL d   1       0.113   0.781  -0.053  0.00  0.00     0.103 A 
ATOM      6  C   UNL d   1       1.541   0.383  -0.161  0.00  0.00     0.276 A 
ATOM      7  C   UNL d   1      -0.257   2.066  -0.032  0.00  0.00     0.046 C 
ATOM      8  O   UNL d   1       2.496   1.131  -0.211  0.00  0.00    -0.265 OA
ENDROOT
BRANCH   1   9
ATOM      9  C   UNL d   1       2.644  -1.863  -0.266  0.00  0.00     0.138 C 
BRANCH   9  10
ATOM     10  C   UNL d   1       4.037  -1.232  -0.192  0.00  0.00     0.059 C 
BRANCH  10  11
ATOM     11  C   UNL d   1       5.109  -2.292  -0.324  0.00  0.00    -0.057 A 
ATOM     12  C   UNL d   1       5.563  -2.692  -1.591  0.00  0.00     0.009 A 
ATOM     13  C   UNL d   1       6.542  -3.680  -1.712  0.00  0.00     0.024 A 
ATOM     14  C   UNL d   1       7.067  -4.277  -0.568  0.00  0.00     0.034 A 
ATOM     15  C   UNL d   1       6.615  -3.900   0.695  0.00  0.00     0.024 A 
ATOM     16 CL   UNL d   1       8.281  -5.487  -0.715  0.00  0.00    -0.084 Cl
ATOM     17  C   UNL d   1       5.635  -2.913   0.817  0.00  0.00     0.009 A 
ENDBRANCH  10  11
ENDBRANCH   9  10
ENDBRANCH   1   9
BRANCH   4  18
ATOM     18  C   UNL d   1      -0.330  -2.748   0.017  0.00  0.00     0.008 A 
ATOM     19  C   UNL d   1       0.278  -3.817  -0.650  0.00  0.00     0.015 A 
ATOM     20  C   UNL d   1      -0.168  -5.128  -0.458  0.00  0.00     0.001 A 
ATOM     21  C   UNL d   1      -1.267  -5.378   0.357  0.00  0.00     0.000 A 
ATOM     22  C   UNL d   1      -1.932  -4.315   0.966  0.00  0.00     0.001 A 
ATOM     23  C   UNL d   1      -1.466  -3.008   0.798  0.00  0.00     0.015 A 
ENDBRANCH   4  18
BRANCH   7  24
ATOM     24  C   UNL d   1      -1.647   2.509   0.054  0.00  0.00    -0.034 A 
ATOM     25  C   UNL d   1      -2.243   2.720   1.302  0.00  0.00     0.013 A 
ATOM     26  C   UNL d   1      -3.572   3.144   1.381  0.00  0.00     0.024 A 
ATOM     27  C   UNL d   1      -4.302   3.356   0.213  0.00  0.00     0.034 A 
ATOM     28  C   UNL d   1      -3.715   3.151  -1.034  0.00  0.00     0.024 A 
ATOM     29 CL   UNL d   1      -5.940   3.873   0.311  0.00  0.00    -0.084 Cl
ATOM     30  C   UNL d   1      -2.386   2.727  -1.114  0.00  0.00     0.013 A 
ENDBRANCH   7  24
TORSDOF 5
