REMARK  3 active torsions:
REMARK  status: ('A' for Active; 'I' for Inactive)
REMARK    1  A    between atoms: N_6  and  C_1 
REMARK    2  A    between atoms: C_10  and  N_4 
REMARK       I    between atoms: C_7  and  N_6 
REMARK    3  A    between atoms: C_9  and  C_7 
ROOT
ATOM      1  C   UNL d   1      -0.331  -1.073   0.224  0.00  0.00     0.129 C 
ATOM      2  C   UNL d   1       0.995  -0.415   0.462  0.00  0.00     0.295 C 
ATOM      3  N   UNL d   1      -0.465   1.141  -0.332  0.00  0.00    -0.289 N 
ATOM      4  N   UNL d   1       0.825   0.940   0.203  0.00  0.00    -0.217 N 
ATOM      5  C   UNL d   1      -1.165  -0.066  -0.127  0.00  0.00     0.057 C 
ATOM      6  O   UNL d   1       1.984  -1.036   0.824  0.00  0.00    -0.264 OA
ATOM      7  C   UNL d   1      -1.016   2.479  -0.125  0.00  0.00     0.178 C 
ATOM      8  C   UNL d   1      -2.656  -0.144  -0.226  0.00  0.00     0.072 C 
ENDROOT
BRANCH   1   9
ATOM      9  N   UNL d   1      -0.432  -2.435   0.394  0.00  0.00    -0.320 N 
ATOM     10  C   UNL d   1      -1.445  -3.277  -0.009  0.00  0.00     0.230 C 
ATOM     11  O   UNL d   1      -2.522  -2.895  -0.458  0.00  0.00    -0.272 OA
ATOM     12  H   UNL d   1       0.447  -2.855   0.685  0.00  0.00     0.169 HD
BRANCH  10  13
ATOM     13  C   UNL d   1      -1.104  -4.790   0.029  0.00  0.00     0.030 C 
ATOM     14  C   UNL d   1      -0.645  -5.245   1.421  0.00  0.00     0.025 C 
ATOM     15  C   UNL d   1      -2.364  -5.595  -0.352  0.00  0.00     0.025 C 
ATOM     16  C   UNL d   1      -0.008  -5.094  -1.004  0.00  0.00     0.025 C 
ENDBRANCH  10  13
ENDBRANCH   1   9
BRANCH   4  17
ATOM     17  C   UNL d   1       1.903   1.803  -0.052  0.00  0.00     0.060 A 
ATOM     18  C   UNL d   1       2.392   2.046  -1.340  0.00  0.00     0.031 A 
ATOM     19  C   UNL d   1       3.523   2.855  -1.498  0.00  0.00     0.002 A 
ATOM     20  C   UNL d   1       4.130   3.445  -0.386  0.00  0.00     0.000 A 
ATOM     21  C   UNL d   1       3.612   3.230   0.889  0.00  0.00     0.002 A 
ATOM     22  C   UNL d   1       2.506   2.401   1.053  0.00  0.00     0.031 A 
ENDBRANCH   4  17
TORSDOF 3
