REMARK  7 active torsions:
REMARK  status: ('A' for Active; 'I' for Inactive)
REMARK    1  A    between atoms: C_2  and  C_1 
REMARK    2  A    between atoms: O_12  and  C_2 
REMARK    3  A    between atoms: S_4  and  C_3 
REMARK    4  A    between atoms: C_10  and  S_4 
REMARK    5  A    between atoms: C_6  and  C_10 
REMARK    6  A    between atoms: O_13  and  C_6 
REMARK    7  A    between atoms: N_14  and  C_11 
ROOT
ATOM      1  C   UNL d   1      -1.165   1.416  -0.014  0.00  0.00     0.056 A 
ATOM      2  C   UNL d   1      -1.954   0.254   0.036  0.00  0.00     0.018 A 
ATOM      3  C   UNL d   1       0.238   1.304  -0.081  0.00  0.00     0.042 A 
ATOM      4  C   UNL d   1      -1.311  -0.994   0.012  0.00  0.00     0.021 A 
ATOM      5  C   UNL d   1       0.874   0.062  -0.036  0.00  0.00     0.006 A 
ATOM      6  C   UNL d   1       0.084  -1.085  -0.047  0.00  0.00     0.024 A 
ENDROOT
BRANCH   2   7
ATOM      7  S   UNL d   1      -3.740   0.204   0.195  0.00  0.00    -0.118 SA
BRANCH   7   8
ATOM      8  C   UNL d   1      -4.241   0.733  -1.491  0.00  0.00     0.189 C 
BRANCH   8   9
ATOM      9  C   UNL d   1      -5.727   0.535  -1.732  0.00  0.00     0.149 C 
ATOM     10  O   UNL d   1      -6.302   0.972  -2.721  0.00  0.00    -0.649 OA
BRANCH   9  11
ATOM     11  O   UNL d   1      -6.384  -0.202  -0.807  0.00  0.00    -0.776 OA
ATOM     12  H   UNL d   1      -5.794  -0.474  -0.072  0.00  0.00     0.167 HD
ENDBRANCH   9  11
ENDBRANCH   8   9
ENDBRANCH   7   8
ENDBRANCH   2   7
BRANCH   1  13
ATOM     13  C   UNL d   1      -1.690   2.809  -0.023  0.00  0.00     0.177 C 
ATOM     14  O   UNL d   1      -1.119   3.719  -0.599  0.00  0.00    -0.646 OA
BRANCH  13  15
ATOM     15  O   UNL d   1      -2.807   3.001   0.706  0.00  0.00    -0.773 OA
ATOM     16  H   UNL d   1      -3.153   2.198   1.142  0.00  0.00     0.167 HD
ENDBRANCH  13  15
ENDBRANCH   1  13
BRANCH   5  17
ATOM     17  N   UNL d   1       2.256  -0.032  -0.209  0.00  0.00    -0.303 NA
ATOM     18  H   UNL d   1       2.777   0.787   0.093  0.00  0.00     0.124 HD
ATOM     19  H   UNL d   1       2.670  -0.894   0.134  0.00  0.00     0.124 HD
ENDBRANCH   5  17
TORSDOF 7
