REMARK  4 active torsions:
REMARK  status: ('A' for Active; 'I' for Inactive)
REMARK    1  A    between atoms: C_6  and  C_1 
REMARK    2  A    between atoms: C_7  and  C_2 
REMARK    3  A    between atoms: S_15  and  C_5 
REMARK       I    between atoms: N_8  and  C_6 
REMARK    4  A    between atoms: C_12  and  N_8 
ROOT
ATOM      1  C   UNL d   1       1.286  -1.275   0.041  0.00  0.00     0.087 A 
ATOM      2  C   UNL d   1      -0.083  -1.196  -0.213  0.00  0.00     0.026 A 
ATOM      3  C   UNL d   1      -0.577   0.147  -0.096  0.00  0.00     0.081 A 
ATOM      4  S   UNL d   1       1.915   0.250   0.505  0.00  0.00    -0.075 SA
ATOM      5  C   UNL d   1       0.424   1.045   0.227  0.00  0.00     0.063 A 
ATOM      6  C   UNL d   1      -1.951   0.537  -0.274  0.00  0.00     0.102 C 
ATOM      7  N   UNL d   1      -3.060   0.834  -0.432  0.00  0.00    -0.191 NA
ENDROOT
BRANCH   2   8
ATOM      8  C   UNL d   1      -0.896  -2.396  -0.654  0.00  0.00     0.018 C 
ATOM      9  S   UNL d   1      -0.776  -3.957   0.031  0.00  0.00    -0.101 SA
ATOM     10  C   UNL d   1      -1.748  -4.644  -1.194  0.00  0.00     0.050 C 
ATOM     11  C   UNL d   1      -2.262  -3.683  -2.033  0.00  0.00     0.008 C 
ATOM     12  C   UNL d   1      -1.808  -2.372  -1.692  0.00  0.00     0.020 C 
ENDBRANCH   2   8
BRANCH   5  13
ATOM     13  S   UNL d   1       0.246   2.792   0.421  0.00  0.00    -0.126 SA
ATOM     14  C   UNL d   1       1.505   3.431  -0.712  0.00  0.00     0.096 C 
ENDBRANCH   5  13
BRANCH   1  15
ATOM     15  C   UNL d   1       2.177  -2.397  -0.216  0.00  0.00     0.264 C 
ATOM     16  N   UNL d   1       3.344  -2.474   0.542  0.00  0.00    -0.321 N 
ATOM     17  H   UNL d   1       3.664  -1.609   0.966  0.00  0.00     0.169 HD
ATOM     18  O   UNL d   1       1.945  -3.192  -1.127  0.00  0.00    -0.267 OA
BRANCH  16  19
ATOM     19  C   UNL d   1       4.327  -3.466   0.281  0.00  0.00     0.056 A 
ATOM     20  C   UNL d   1       5.687  -3.131   0.285  0.00  0.00     0.060 A 
ATOM     21 CL   UNL d   1       6.217  -1.556   0.761  0.00  0.00    -0.082 Cl
ATOM     22  C   UNL d   1       6.638  -4.047  -0.177  0.00  0.00     0.026 A 
ATOM     23  C   UNL d   1       6.243  -5.323  -0.587  0.00  0.00     0.002 A 
ATOM     24  C   UNL d   1       4.907  -5.698  -0.490  0.00  0.00     0.002 A 
ATOM     25  C   UNL d   1       3.955  -4.776  -0.052  0.00  0.00     0.031 A 
ENDBRANCH  16  19
ENDBRANCH   1  15
TORSDOF 4
