REMARK  6 active torsions:
REMARK  status: ('A' for Active; 'I' for Inactive)
REMARK    1  A    between atoms: N_9  and  N_1 
REMARK    2  A    between atoms: C_16  and  N_9 
REMARK    3  A    between atoms: S_14  and  C_12 
REMARK    4  A    between atoms: C_21  and  S_14 
REMARK    5  A    between atoms: C_20  and  C_16 
REMARK    6  A    between atoms: O_18  and  C_20 
ROOT
ATOM      1  N   UNL d   1       2.297  -0.105   0.134  0.00  0.00    -0.205 N 
ATOM      2  C   UNL d   1       1.672   1.146   0.088  0.00  0.00     0.276 A 
ATOM      3  C   UNL d   1       1.653  -1.343   0.030  0.00  0.00     0.276 A 
ATOM      4  C   UNL d   1       0.190   1.137   0.061  0.00  0.00     0.046 A 
ATOM      5  C   UNL d   1      -0.515  -0.075   0.057  0.00  0.00     0.007 A 
ATOM      6  C   UNL d   1       0.168  -1.305   0.041  0.00  0.00     0.046 A 
ATOM      7  C   UNL d   1      -1.942  -0.059   0.044  0.00  0.00    -0.007 A 
ATOM      8  C   UNL d   1      -0.484   2.361   0.038  0.00  0.00     0.019 A 
ATOM      9  O   UNL d   1       2.219  -2.432  -0.057  0.00  0.00    -0.266 OA
ATOM     10  O   UNL d   1       2.280   2.214   0.068  0.00  0.00    -0.266 OA
ATOM     11  C   UNL d   1      -2.615   1.198   0.038  0.00  0.00     0.011 A 
ATOM     12  C   UNL d   1      -1.875   2.388   0.021  0.00  0.00     0.020 A 
ATOM     13  C   UNL d   1      -0.529  -2.518   0.030  0.00  0.00     0.018 A 
ATOM     14  C   UNL d   1      -2.607  -1.306   0.016  0.00  0.00     0.014 A 
ATOM     15  C   UNL d   1      -1.916  -2.519   0.023  0.00  0.00     0.002 A 
ENDROOT
BRANCH   1  16
ATOM     16  N   UNL d   1       3.734  -0.108   0.180  0.00  0.00    -0.226 NA
ATOM     17  H   UNL d   1       4.056   0.810  -0.155  0.00  0.00     0.147 HD
BRANCH  16  18
ATOM     18  C   UNL d   1       4.200  -0.242   1.570  0.00  0.00     0.137 C 
BRANCH  18  19
ATOM     19  C   UNL d   1       5.729  -0.194   1.633  0.00  0.00     0.180 C 
BRANCH  19  20
ATOM     20  O   UNL d   1       6.200   1.075   1.187  0.00  0.00    -0.400 OA
ATOM     21  H   UNL d   1       7.172   1.045   1.230  0.00  0.00     0.209 HD
ENDBRANCH  19  20
ENDBRANCH  18  19
ENDBRANCH  16  18
ENDBRANCH   1  16
BRANCH  11  22
ATOM     22  S   UNL d   1      -4.399   1.418  -0.078  0.00  0.00    -0.129 SA
BRANCH  22  23
ATOM     23  C   UNL d   1      -5.000   0.772   1.523  0.00  0.00     0.075 C 
ATOM     24  C   UNL d   1      -4.415   1.475   2.733  0.00  0.00     0.016 C 
ENDBRANCH  22  23
ENDBRANCH  11  22
TORSDOF 6
