REMARK  1 active torsions:
REMARK  status: ('A' for Active; 'I' for Inactive)
REMARK    1  A    between atoms: C_5  and  C_6 
ROOT
ATOM      1  N   UNL d   1      -1.110   0.480   1.194  0.00  0.00    -0.364 N 
ATOM      2  HN  UNL d   1      -0.693   0.701   2.098  1.00  0.00     0.165 HD
ATOM      3  C   UNL d   1      -0.458   0.767   0.029  0.00  0.00     0.059 A 
ATOM      4  C   UNL d   1      -2.324  -0.106   1.111  0.00  0.00     0.088 A 
ATOM      5  C   UNL d   1      -1.050   0.516  -1.213  0.00  0.00     0.032 A 
ATOM      6  C   UNL d   1      -2.945  -0.433  -0.081  0.00  0.00     0.017 A 
ATOM      7  C   UNL d   1      -2.298  -0.102  -1.264  0.00  0.00     0.004 A 
ENDROOT
BRANCH   3   8
ATOM      8  C   UNL d   1       0.944   1.235   0.144  0.00  0.00     0.059 A 
ATOM      9  N   UNL d   1       1.604   1.497  -1.020  0.00  0.00    -0.364 N 
ATOM     10  C   UNL d   1       2.928   1.762  -0.955  0.00  0.00     0.088 A 
ATOM     11  HN  UNL d   1       1.113   1.492  -1.915  1.00  0.00     0.165 HD
ATOM     12  C   UNL d   1       3.650   1.781   0.226  0.00  0.00     0.017 A 
ATOM     13  C   UNL d   1       2.970   1.554   1.412  0.00  0.00     0.004 A 
ATOM     14  C   UNL d   1       1.602   1.292   1.377  0.00  0.00     0.032 A 
ENDBRANCH   3   8
TORSDOF 1
