REMARK  2 active torsions:
REMARK  status: ('A' for Active; 'I' for Inactive)
REMARK    1  A    between atoms: C_8  and  N_1 
REMARK    2  A    between atoms: C_10  and  C_4 
ROOT
ATOM      1  N   UNL d   1      -0.278  -1.144   0.085  0.00  0.00    -0.243 N 
ATOM      2  N   UNL d   1       0.981  -0.648   0.101  0.00  0.00    -0.235 N 
ATOM      3  HN  UNL d   1       1.834  -1.205   0.163  1.00  0.00     0.209 HD
ATOM      4  C   UNL d   1      -0.373   1.050  -0.046  0.00  0.00     0.119 A 
ATOM      5  C   UNL d   1      -1.179  -0.084  -0.028  0.00  0.00     0.064 A 
ATOM      6  N   UNL d   1       0.935   0.667   0.025  0.00  0.00    -0.280 N 
ATOM      7  HN  UNL d   1       1.741   1.293   0.019  1.00  0.00     0.188 HD
ATOM      8  C   UNL d   1      -2.660  -0.204  -0.006  0.00  0.00     0.073 C 
ENDROOT
BRANCH   1   9
ATOM      9  C   UNL d   1      -0.489  -2.554   0.082  0.00  0.00     0.081 A 
ATOM     10  C   UNL d   1       0.369  -3.441   0.776  0.00  0.00     0.084 A 
ATOM     11  C   UNL d   1       0.158  -4.830   0.664  0.00  0.00     0.058 A 
ATOM     12 CL   UNL d   1       1.595  -2.883   1.880  0.00  0.00    -0.080 Cl
ATOM     13 CL   UNL d   1       1.157  -6.000   1.464  0.00  0.00    -0.082 Cl
ATOM     14  C   UNL d   1      -0.892  -5.333  -0.108  0.00  0.00     0.026 A 
ATOM     15  C   UNL d   1      -1.744  -4.462  -0.777  0.00  0.00     0.004 A 
ATOM     16  C   UNL d   1      -1.541  -3.084  -0.689  0.00  0.00     0.033 A 
ENDBRANCH   1   9
BRANCH   4  17
ATOM     17  C   UNL d   1      -0.761   2.456  -0.097  0.00  0.00     0.175 C 
ATOM     18  O   UNL d   1      -1.941   2.808  -0.191  0.00  0.00    -0.291 OA
ATOM     19  C   UNL d   1       0.320   3.508  -0.022  0.00  0.00     0.098 C 
ENDBRANCH   4  17
TORSDOF 2
