REMARK  4 active torsions:
REMARK  status: ('A' for Active; 'I' for Inactive)
REMARK    1  A    between atoms: C_5  and  C_1 
REMARK    2  A    between atoms: C_6  and  C_2 
REMARK       I    between atoms: N_10  and  C_5 
REMARK    3  A    between atoms: C_9  and  C_7 
REMARK    4  A    between atoms: C_8  and  N_11 
ROOT
ATOM      1  C   UNL d   1       0.279  -2.537   0.567  0.00  0.00     0.258 C 
ATOM      2  N   UNL d   1      -0.611  -3.566   0.243  0.00  0.00    -0.346 N 
ATOM      3  N   UNL d   1      -2.561  -5.570  -0.448  0.00  0.00    -0.266 NA
ATOM      4  O   UNL d   1       0.480  -1.587  -0.185  0.00  0.00    -0.267 OA
ATOM      5  C   UNL d   1      -1.351  -3.474  -1.024  0.00  0.00     0.141 C 
ATOM      6  C   UNL d   1      -0.510  -4.942   0.763  0.00  0.00     0.141 C 
ATOM      7  C   UNL d   1      -2.723  -4.183  -0.951  0.00  0.00     0.117 C 
ATOM      8  C   UNL d   1      -1.901  -5.593   0.877  0.00  0.00     0.117 C 
ENDROOT
BRANCH   1   9
ATOM      9  C   UNL d   1       0.938  -2.596   1.858  0.00  0.00     0.093 C 
ATOM     10  C   UNL d   1       2.297  -2.297   2.201  0.00  0.00     0.088 C 
ATOM     11  N   UNL d   1       2.504  -2.527   3.507  0.00  0.00    -0.259 N 
ATOM     12  O   UNL d   1       1.276  -2.820   4.055  0.00  0.00    -0.241 OA
ATOM     13  HN  UNL d   1       3.397  -2.492   3.998  1.00  0.00     0.195 HD
ATOM     14  C   UNL d   1       0.335  -2.820   3.083  0.00  0.00     0.090 C 
ATOM     15  C   UNL d   1      -1.052  -3.031   3.540  0.00  0.00     0.080 C 
BRANCH  10  16
ATOM     16  C   UNL d   1       3.398  -1.844   1.353  0.00  0.00     0.054 A 
ATOM     17  C   UNL d   1       4.221  -0.758   1.705  0.00  0.00     0.049 A 
ATOM     18 CL   UNL d   1       3.959   0.216   3.116  0.00  0.00    -0.083 Cl
ATOM     19  C   UNL d   1       5.298  -0.382   0.888  0.00  0.00     0.025 A 
ATOM     20  C   UNL d   1       5.559  -1.066  -0.297  0.00  0.00     0.005 A 
ATOM     21  C   UNL d   1       4.742  -2.131  -0.666  0.00  0.00     0.043 A 
ATOM     22  C   UNL d   1       3.681  -2.514   0.157  0.00  0.00     0.130 A 
ATOM     23  F   UNL d   1       2.945  -3.571  -0.222  0.00  0.00    -0.205 F 
ENDBRANCH  10  16
ENDBRANCH   1   9
BRANCH   3  24
ATOM     24  C   UNL d   1      -3.784  -6.259  -0.445  0.00  0.00     0.097 A 
ATOM     25  C   UNL d   1      -4.194  -6.981  -1.566  0.00  0.00     0.086 A 
ATOM     26  C   UNL d   1      -5.434  -7.647  -1.513  0.00  0.00     0.021 A 
ATOM     27  C   UNL d   1      -6.211  -7.595  -0.366  0.00  0.00     0.018 A 
ATOM     28  C   UNL d   1      -5.723  -6.870   0.699  0.00  0.00     0.089 A 
ATOM     29  N   UNL d   1      -4.542  -6.213   0.678  0.00  0.00    -0.356 N 
ATOM     30  HN  UNL d   1      -4.226  -5.691   1.495  1.00  0.00     0.166 HD
BRANCH  25  31
ATOM     31  C   UNL d   1      -3.386  -7.067  -2.827  0.00  0.00     0.420 C 
ATOM     32  F   UNL d   1      -2.061  -6.773  -2.731  0.00  0.00    -0.166 F 
ATOM     33  F   UNL d   1      -3.428  -8.319  -3.376  0.00  0.00    -0.166 F 
ATOM     34  F   UNL d   1      -3.877  -6.239  -3.797  0.00  0.00    -0.166 F 
ENDBRANCH  25  31
ENDBRANCH   3  24
TORSDOF 4
