REMARK  8 active torsions:
REMARK  status: ('A' for Active; 'I' for Inactive)
REMARK    1  A    between atoms: N_2  and  C_1 
REMARK    2  A    between atoms: C_3  and  C_1 
REMARK    3  A    between atoms: C_4  and  C_1 
REMARK    4  A    between atoms: N_7  and  C_1 
REMARK       I    between atoms: C_5  and  N_2 
REMARK    5  A    between atoms: C_6  and  C_5 
REMARK    6  A    between atoms: C_16  and  N_7 
REMARK    7  A    between atoms: O_18  and  C_9 
REMARK    8  A    between atoms: C_20  and  O_18 
ROOT
ATOM      1  C   UNL d   1       1.025   0.430   0.195  0.00  0.00     0.290 C 
ENDROOT
BRANCH   1   2
ATOM      2  N   UNL d   1       0.013  -0.188  -0.689  0.00  0.00    -0.320 N 
ATOM      3  C   UNL d   1       0.259  -0.276  -2.046  0.00  0.00     0.256 C 
ATOM      4  O   UNL d   1       1.343   0.086  -2.481  0.00  0.00    -0.268 OA
ATOM      5  H   UNL d   1      -0.878  -0.398  -0.267  0.00  0.00     0.165 HD
BRANCH   3   6
ATOM      6  C   UNL d   1      -0.828  -0.713  -2.974  0.00  0.00     0.065 A 
ATOM      7  C   UNL d   1      -0.490  -1.190  -4.266  0.00  0.00     0.084 A 
ATOM      8  C   UNL d   1      -1.509  -1.452  -5.188  0.00  0.00     0.038 A 
ATOM      9  C   UNL d   1      -2.850  -1.282  -4.828  0.00  0.00     0.003 A 
ATOM     10  C   UNL d   1      -3.183  -0.845  -3.547  0.00  0.00     0.001 A 
ATOM     11  C   UNL d   1      -2.179  -0.551  -2.623  0.00  0.00     0.020 A 
BRANCH   7  12
ATOM     12  O   UNL d   1       0.831  -1.419  -4.519  0.00  0.00    -0.350 OA
BRANCH  12  13
ATOM     13  C   UNL d   1       1.331  -1.539  -5.846  0.00  0.00     0.171 C 
ATOM     14  C   UNL d   1       1.486  -0.188  -6.521  0.00  0.00     0.034 C 
ENDBRANCH  12  13
ENDBRANCH   7  12
ENDBRANCH   3   6
ENDBRANCH   1   2
BRANCH   1  15
ATOM     15  C   UNL d   1       1.627   1.788  -0.360  0.00  0.00     0.435 C 
ATOM     16  F   UNL d   1       0.681   2.518  -1.009  0.00  0.00    -0.167 F 
ATOM     17  F   UNL d   1       1.999   2.566   0.704  0.00  0.00    -0.167 F 
ATOM     18  F   UNL d   1       2.708   1.694  -1.151  0.00  0.00    -0.167 F 
ENDBRANCH   1  15
BRANCH   1  19
ATOM     19  C   UNL d   1       2.327  -0.395   0.463  0.00  0.00     0.435 C 
ATOM     20  F   UNL d   1       2.934  -0.834  -0.663  0.00  0.00    -0.167 F 
ATOM     21  F   UNL d   1       3.248   0.325   1.151  0.00  0.00    -0.167 F 
ATOM     22  F   UNL d   1       2.098  -1.513   1.197  0.00  0.00    -0.167 F 
ENDBRANCH   1  19
BRANCH   1  23
ATOM     23  N   UNL d   1       0.193   0.788   1.421  0.00  0.00    -0.251 NA
ATOM     24  H   UNL d   1       0.515   1.701   1.762  0.00  0.00     0.130 HD
BRANCH  23  25
ATOM     25  C   UNL d   1      -0.073  -0.031   2.513  0.00  0.00     0.010 A 
ATOM     26  C   UNL d   1      -0.301  -1.405   2.439  0.00  0.00     0.023 A 
ATOM     27  C   UNL d   1      -0.625  -2.147   3.589  0.00  0.00     0.002 A 
ATOM     28  C   UNL d   1      -0.765  -1.521   4.819  0.00  0.00     0.000 A 
ATOM     29  C   UNL d   1      -0.596  -0.146   4.911  0.00  0.00     0.002 A 
ATOM     30  C   UNL d   1      -0.269   0.586   3.762  0.00  0.00     0.023 A 
ENDBRANCH  23  25
ENDBRANCH   1  23
TORSDOF 8
