REMARK  3 active torsions:
REMARK  status: ('A' for Active; 'I' for Inactive)
REMARK       I    between atoms: N_2  and  C_1 
REMARK    1  A    between atoms: C_4  and  C_1 
REMARK       I    between atoms: C_5  and  N_2 
REMARK    2  A    between atoms: C_3  and  N_6 
REMARK       I    between atoms: N_9  and  C_5 
REMARK    3  A    between atoms: N_6  and  N_9 
ROOT
ATOM      1  C   UNL d   1       0.987   0.007   0.152  0.00  0.00     0.263 C 
ATOM      2  N   UNL d   1       0.440   0.327  -1.077  0.00  0.00    -0.274 N 
ATOM      3  C   UNL d   1       1.018   1.096  -2.055  0.00  0.00     0.337 C 
ATOM      4  N   UNL d   1       2.388   1.244  -1.990  0.00  0.00    -0.268 N 
ATOM      5  O   UNL d   1       2.142   0.261   0.481  0.00  0.00    -0.267 OA
ATOM      6  O   UNL d   1       0.325   1.605  -2.936  0.00  0.00    -0.246 OA
ATOM      7  H   UNL d   1      -0.559   0.243  -1.201  0.00  0.00     0.173 HD
ATOM      8  H   UNL d   1       2.824   1.112  -1.073  0.00  0.00     0.185 HD
ENDROOT
BRANCH   4   9
ATOM      9  N   UNL d   1       2.940   2.289  -2.772  0.00  0.00    -0.199 NA
ATOM     10  H   UNL d   1       2.265   2.557  -3.505  0.00  0.00     0.153 HD
BRANCH   9  11
ATOM     11  C   UNL d   1       4.198   1.958  -3.361  0.00  0.00     0.071 A 
ATOM     12  C   UNL d   1       4.427   2.291  -4.717  0.00  0.00     0.060 A 
ATOM     13  C   UNL d   1       5.663   2.075  -5.334  0.00  0.00     0.049 A 
ATOM     14 CL   UNL d   1       3.163   2.982  -5.682  0.00  0.00    -0.082 Cl
ATOM     15  C   UNL d   1       6.708   1.535  -4.597  0.00  0.00     0.037 A 
ATOM     16  C   UNL d   1       6.532   1.217  -3.255  0.00  0.00     0.049 A 
ATOM     17 CL   UNL d   1       8.239   1.285  -5.340  0.00  0.00    -0.084 Cl
ATOM     18  C   UNL d   1       5.294   1.440  -2.637  0.00  0.00     0.060 A 
ATOM     19 CL   UNL d   1       5.225   1.112  -0.937  0.00  0.00    -0.082 Cl
ENDBRANCH   9  11
ENDBRANCH   4   9
BRANCH   1  20
ATOM     20  C   UNL d   1       0.099  -0.702   1.100  0.00  0.00     0.075 A 
ATOM     21  C   UNL d   1       0.489  -1.946   1.620  0.00  0.00     0.051 A 
ATOM     22 CL   UNL d   1       1.913  -2.776   1.097  0.00  0.00    -0.083 Cl
ATOM     23  C   UNL d   1      -0.309  -2.596   2.569  0.00  0.00     0.025 A 
ATOM     24  C   UNL d   1      -1.500  -2.016   3.003  0.00  0.00     0.003 A 
ATOM     25  C   UNL d   1      -1.898  -0.786   2.485  0.00  0.00     0.025 A 
ATOM     26  C   UNL d   1      -1.102  -0.125   1.541  0.00  0.00     0.051 A 
ATOM     27 CL   UNL d   1      -1.661   1.412   0.982  0.00  0.00    -0.083 Cl
ENDBRANCH   1  20
TORSDOF 3
