REMARK  6 active torsions:
REMARK  status: ('A' for Active; 'I' for Inactive)
REMARK    1  A    between atoms: C_8  and  C_1 
REMARK    2  A    between atoms: O_7  and  C_2 
REMARK    3  A    between atoms: O_16  and  C_5 
REMARK    4  A    between atoms: C_6  and  O_7 
REMARK    5  A    between atoms: C_9  and  C_6 
REMARK    6  A    between atoms: O_17  and  C_8 
ROOT
ATOM      1  C   UNL d   1       0.336   1.325  -0.408  0.00  0.00     0.116 A 
ATOM      2  C   UNL d   1       1.597   0.777  -0.262  0.00  0.00     0.106 A 
ATOM      3  C   UNL d   1       1.565  -0.636  -0.090  0.00  0.00     0.083 A 
ATOM      4  S   UNL d   1      -0.865   0.095  -0.320  0.00  0.00    -0.057 SA
ATOM      5  C   UNL d   1       0.287  -1.155  -0.095  0.00  0.00     0.112 A 
ENDROOT
BRANCH   2   6
ATOM      6  O   UNL d   1       2.730   1.522  -0.359  0.00  0.00    -0.273 OA
BRANCH   6   7
ATOM      7  C   UNL d   1       3.740   1.269   0.538  0.00  0.00     0.305 C 
ATOM      8  O   UNL d   1       3.616   0.591   1.552  0.00  0.00    -0.258 OA
BRANCH   7   9
ATOM      9  C   UNL d   1       4.971   1.898   0.088  0.00  0.00     0.080 A 
ATOM     10  S   UNL d   1       6.394   1.666   1.023  0.00  0.00    -0.096 SA
ATOM     11  C   UNL d   1       7.348   2.565  -0.070  0.00  0.00     0.050 A 
ATOM     12  C   UNL d   1       6.606   3.052  -1.122  0.00  0.00     0.009 A 
ATOM     13  C   UNL d   1       5.232   2.673  -1.029  0.00  0.00     0.025 A 
ENDBRANCH   7   9
ENDBRANCH   6   7
ENDBRANCH   2   6
BRANCH   1  14
ATOM     14  C   UNL d   1      -0.089   2.701  -0.589  0.00  0.00     0.302 C 
ATOM     15  O   UNL d   1      -1.234   3.090  -0.794  0.00  0.00    -0.259 OA
BRANCH  14  16
ATOM     16  O   UNL d   1       0.991   3.532  -0.488  0.00  0.00    -0.322 OA
ATOM     17  C   UNL d   1       0.731   4.929  -0.631  0.00  0.00     0.213 C 
ENDBRANCH  14  16
ENDBRANCH   1  14
BRANCH   5  18
ATOM     18  O   UNL d   1      -0.152  -2.414   0.030  0.00  0.00    -0.349 OA
ATOM     19  C   UNL d   1       0.848  -3.412   0.207  0.00  0.00     0.211 C 
ENDBRANCH   5  18
TORSDOF 6
