REMARK  7 active torsions:
REMARK  status: ('A' for Active; 'I' for Inactive)
REMARK    1  A    between atoms: N_2  and  C_1 
REMARK       I    between atoms: C_3  and  N_2 
REMARK    2  A    between atoms: C_9  and  C_3 
REMARK    3  A    between atoms: C_4  and  C_11 
REMARK    4  A    between atoms: O_12  and  C_4 
REMARK    5  A    between atoms: C_5  and  C_9 
REMARK    6  A    between atoms: C_11  and  C_5 
REMARK    7  A    between atoms: C_18  and  C_7 
ROOT
ATOM      1  N   UNL d   1       1.069   2.546   0.135  0.00  0.00    -0.326 N 
ATOM      2  C   UNL d   1       2.290   2.856   0.731  0.00  0.00     0.222 C 
ATOM      3  O   UNL d   1       2.914   2.109   1.472  0.00  0.00    -0.273 OA
ATOM      4  H   UNL d   1       0.489   3.338  -0.099  0.00  0.00     0.169 HD
ENDROOT
BRANCH   1   5
ATOM      5  C   UNL d   1       0.417   1.288   0.254  0.00  0.00     0.047 A 
ATOM      6  C   UNL d   1       1.101   0.067   0.046  0.00  0.00    -0.035 A 
ATOM      7  C   UNL d   1       0.415  -1.154   0.222  0.00  0.00     0.009 A 
ATOM      8  C   UNL d   1       2.526  -0.052  -0.425  0.00  0.00     0.050 C 
ATOM      9  C   UNL d   1      -0.934  -1.181   0.542  0.00  0.00     0.001 A 
ATOM     10  C   UNL d   1      -1.624   0.014   0.682  0.00  0.00     0.009 A 
ATOM     11  C   UNL d   1      -0.972   1.258   0.533  0.00  0.00    -0.031 A 
BRANCH  11  12
ATOM     12  C   UNL d   1      -1.819   2.483   0.808  0.00  0.00     0.036 C 
ATOM     13  C   UNL d   1      -1.867   2.807   2.296  0.00  0.00     0.010 C 
ENDBRANCH  11  12
ENDBRANCH   1   5
BRANCH   2  14
ATOM     14  C   UNL d   1       2.788   4.255   0.357  0.00  0.00     0.112 C 
BRANCH  14  15
ATOM     15  C   UNL d   1       4.007   4.802   1.163  0.00  0.00    -0.030 C 
ATOM     16  C   UNL d   1       4.372   6.207   0.626  0.00  0.00     0.016 C 
ATOM     17  C   UNL d   1       3.601   4.989   2.643  0.00  0.00     0.016 C 
BRANCH  15  18
ATOM     18  C   UNL d   1       5.269   3.897   1.123  0.00  0.00     0.119 C 
BRANCH  18  19
ATOM     19  C   UNL d   1       5.837   3.582  -0.246  0.00  0.00     0.140 C 
ATOM     20  O   UNL d   1       5.406   3.984  -1.314  0.00  0.00    -0.650 OA
BRANCH  19  21
ATOM     21  O   UNL d   1       6.936   2.793  -0.170  0.00  0.00    -0.776 OA
ATOM     22  H   UNL d   1       7.156   2.523   0.743  0.00  0.00     0.167 HD
ENDBRANCH  19  21
ENDBRANCH  18  19
ENDBRANCH  15  18
ENDBRANCH  14  15
ENDBRANCH   2  14
TORSDOF 7
