REMARK  7 active torsions:
REMARK  status: ('A' for Active; 'I' for Inactive)
REMARK    1  A    between atoms: C_5  and  C_1 
REMARK    2  A    between atoms: C_2  and  C_11 
REMARK    3  A    between atoms: C_15  and  N_6 
REMARK    4  A    between atoms: C_11  and  O_19 
REMARK    5  A    between atoms: C_14  and  C_15 
REMARK    6  A    between atoms: N_24  and  C_14 
REMARK    7  A    between atoms: O_19  and  N_17 
ROOT
ATOM      1  C   UNL d   1       3.210   0.462  -0.094  0.00  0.00     0.095 C 
ATOM      2  N   UNL d   1       3.117  -0.819  -0.282  0.00  0.00    -0.249 N 
ATOM      3  HN  UNL d   1       3.922  -1.417  -0.470  1.00  0.00     0.196 HD
ENDROOT
BRANCH   1   4
ATOM      4  C   UNL d   1       4.628   1.025  -0.154  0.00  0.00     0.219 C 
BRANCH   4   5
ATOM      5  N   UNL d   1       4.750   2.430  -0.525  0.00  0.00    -0.296 N 
ATOM      6  N   UNL d   1       3.912   2.995  -1.422  0.00  0.00    -0.294 N 
ATOM      7  C   UNL d   1       4.433   4.224  -1.641  0.00  0.00     0.133 A 
ATOM      8  HN  UNL d   1       3.075   2.588  -1.839  1.00  0.00     0.187 HD
ATOM      9  C   UNL d   1       5.570   4.442  -0.817  0.00  0.00     0.054 A 
ATOM     10  C   UNL d   1       5.742   3.275  -0.114  0.00  0.00     0.113 A 
BRANCH   7  11
ATOM     11  C   UNL d   1       3.872   5.204  -2.642  0.00  0.00     0.433 C 
ATOM     12  F   UNL d   1       2.745   4.765  -3.260  0.00  0.00    -0.165 F 
ATOM     13  F   UNL d   1       3.558   6.391  -2.055  0.00  0.00    -0.165 F 
ATOM     14  F   UNL d   1       4.773   5.488  -3.622  0.00  0.00    -0.165 F 
ENDBRANCH   7  11
ENDBRANCH   4   5
ENDBRANCH   1   4
BRANCH   1  15
ATOM     15  N   UNL d   1       2.143   1.290   0.187  0.00  0.00    -0.289 NA
ATOM     16  H   UNL d   1       2.260   2.231  -0.196  0.00  0.00     0.125 HD
ATOM     17  H   UNL d   1       1.254   0.891  -0.087  0.00  0.00     0.125 HD
ENDBRANCH   1  15
BRANCH   2  18
ATOM     18  O   UNL d   1       1.790  -1.307  -0.200  0.00  0.00    -0.194 OA
BRANCH  18  19
ATOM     19  C   UNL d   1       1.792  -2.654  -0.521  0.00  0.00     0.319 C 
ATOM     20  O   UNL d   1       2.789  -3.293  -0.849  0.00  0.00    -0.257 OA
BRANCH  19  21
ATOM     21  C   UNL d   1       0.484  -3.280  -0.461  0.00  0.00     0.096 A 
ATOM     22  C   UNL d   1      -0.721  -2.780  -0.007  0.00  0.00     0.090 A 
ATOM     23  O   UNL d   1      -1.686  -3.729  -0.147  0.00  0.00    -0.242 OA
ATOM     24  C   UNL d   1      -1.185  -1.508   0.577  0.00  0.00     0.080 C 
ATOM     25  N   UNL d   1      -1.143  -4.873  -0.686  0.00  0.00    -0.265 N 
ATOM     26  C   UNL d   1       0.155  -4.609  -0.869  0.00  0.00     0.047 A 
ATOM     27  HN  UNL d   1      -1.630  -5.743  -0.901  1.00  0.00     0.194 HD
ATOM     28  C   UNL d   1       1.042  -5.648  -1.449  0.00  0.00     0.071 C 
ENDBRANCH  19  21
ENDBRANCH  18  19
ENDBRANCH   2  18
TORSDOF 7
