REMARK  4 active torsions:
REMARK  status: ('A' for Active; 'I' for Inactive)
REMARK    1  A    between atoms: C_8  and  C_6 
REMARK    2  A    between atoms: C_7  and  C_16 
REMARK    3  A    between atoms: O_15  and  C_10 
REMARK    4  A    between atoms: C_16  and  O_15 
ROOT
ATOM      1  C   UNL d   1      -0.116  -0.743  -0.814  0.00  0.00     0.125 C 
ATOM      2  N   UNL d   1       1.699   0.013  -2.494  0.00  0.00    -0.191 NA
ATOM      3  N   UNL d   1      -2.352   0.552  -0.732  0.00  0.00    -0.191 NA
ATOM      4  C   UNL d   1       0.889  -0.329  -1.735  0.00  0.00     0.110 C 
ATOM      5  C   UNL d   1      -1.343  -0.019  -0.778  0.00  0.00     0.110 C 
ATOM      6  C   UNL d   1       0.045  -1.793   0.017  0.00  0.00     0.045 C 
ENDROOT
BRANCH   6   7
ATOM      7  C   UNL d   1       1.243  -2.634   0.087  0.00  0.00    -0.034 A 
ATOM      8  C   UNL d   1       2.293  -2.308   0.951  0.00  0.00     0.014 A 
ATOM      9  C   UNL d   1       3.446  -3.098   0.980  0.00  0.00     0.037 A 
ATOM     10  C   UNL d   1       3.563  -4.207   0.141  0.00  0.00     0.069 A 
ATOM     11  C   UNL d   1       2.489  -4.564  -0.676  0.00  0.00     0.037 A 
ATOM     12  C   UNL d   1       1.339  -3.772  -0.716  0.00  0.00     0.014 A 
BRANCH  10  13
ATOM     13  O   UNL d   1       4.764  -4.869   0.185  0.00  0.00    -0.348 OA
BRANCH  13  14
ATOM     14  C   UNL d   1       5.078  -5.606  -0.998  0.00  0.00     0.202 C 
BRANCH  14  15
ATOM     15  C   UNL d   1       6.562  -5.794  -1.077  0.00  0.00    -0.011 C 
ATOM     16  C   UNL d   1       7.317  -5.319  -2.078  0.00  0.00     0.009 C 
ENDBRANCH  14  15
ENDBRANCH  13  14
ENDBRANCH  10  13
ENDBRANCH   6   7
TORSDOF 4
