REMARK  2 active torsions:
REMARK  status: ('A' for Active; 'I' for Inactive)
REMARK    1  A    between atoms: C_2  and  C_1 
REMARK    2  A    between atoms: C_5  and  C_9 
ROOT
ATOM      1  C   UNL d   1       1.383   2.481   0.042  0.00  0.00     0.041 A 
ATOM      2  C   UNL d   1       2.232   2.825  -1.034  0.00  0.00     0.049 A 
ATOM      3  C   UNL d   1       1.339   3.388   1.125  0.00  0.00     0.049 A 
ATOM      4  C   UNL d   1       2.884   4.926   0.024  0.00  0.00     0.051 A 
ATOM      5  C   UNL d   1       2.058   4.597   1.100  0.00  0.00     0.041 A 
ATOM      6  C   UNL d   1       2.975   4.020  -1.035  0.00  0.00     0.041 A 
ATOM      7 CL   UNL d   1       2.417   1.847  -2.456  0.00  0.00    -0.083 Cl
ATOM      8 CL   UNL d   1       0.475   3.093   2.600  0.00  0.00    -0.083 Cl
ENDROOT
BRANCH   1   9
ATOM      9  C   UNL d   1       0.605   1.220   0.006  0.00  0.00     0.087 C 
ATOM     10  N   UNL d   1       1.074   0.061  -0.417  0.00  0.00    -0.353 N 
ATOM     11  C   UNL d   1       0.074  -0.903  -0.443  0.00  0.00     0.012 C 
ATOM     12  HN  UNL d   1       2.043  -0.105  -0.689  1.00  0.00     0.166 HD
ATOM     13  C   UNL d   1       0.367  -2.238  -1.020  0.00  0.00     0.068 C 
ATOM     14  C   UNL d   1      -1.131  -0.487   0.080  0.00  0.00     0.076 C 
ATOM     15  S   UNL d   1      -1.078   1.189   0.402  0.00  0.00    -0.081 SA
ENDBRANCH   1   9
BRANCH   4  16
ATOM     16  C   UNL d   1       3.671   6.214   0.001  0.00  0.00     0.417 C 
ATOM     17  F   UNL d   1       3.422   7.020   1.067  0.00  0.00    -0.166 F 
ATOM     18  F   UNL d   1       5.014   5.997  -0.002  0.00  0.00    -0.166 F 
ATOM     19  F   UNL d   1       3.407   6.961  -1.106  0.00  0.00    -0.166 F 
ENDBRANCH   4  16
TORSDOF 2
