REMARK  3 active torsions:
REMARK  status: ('A' for Active; 'I' for Inactive)
REMARK    1  A    between atoms: N_5  and  C_3 
REMARK    2  A    between atoms: N_10  and  C_4 
REMARK    3  A    between atoms: C_12  and  N_10 
ROOT
ATOM      1  N   UNL d   1      -0.593  -1.199   0.033  0.00  0.00    -0.021 N 
ATOM      2  HN  UNL d   1      -1.015  -2.127   0.047  1.00  0.00     0.203 HD
ATOM      3  C   UNL d   1      -1.320  -0.090  -0.148  0.00  0.00     0.703 A 
ATOM      4  C   UNL d   1       0.714  -1.014   0.192  0.00  0.00     0.698 A 
ATOM      5  N   UNL d   1      -0.817   1.146  -0.244  0.00  0.00    -0.186 N 
ATOM      6  HN  UNL d   1      -1.394   1.967  -0.424  1.00  0.00     0.185 HD
ATOM      7  N   UNL d   1       1.299   0.183   0.157  0.00  0.00    -0.187 N 
ATOM      8  HN  UNL d   1       2.301   0.302   0.308  1.00  0.00     0.185 HD
ATOM      9  C   UNL d   1       0.497   1.208  -0.087  0.00  0.00     0.215 A 
ENDROOT
BRANCH   4  10
ATOM     10  N   UNL d   1       1.487  -2.157   0.351  0.00  0.00    -0.190 N 
ATOM     11  H   UNL d   1       1.003  -2.995   0.061  0.00  0.00     0.184 HD
BRANCH  10  12
ATOM     12  C   UNL d   1       2.767  -2.333   0.902  0.00  0.00     0.070 A 
ATOM     13  C   UNL d   1       3.609  -3.372   0.462  0.00  0.00     0.061 A 
ATOM     14 CL   UNL d   1       3.080  -4.486  -0.753  0.00  0.00    -0.082 Cl
ATOM     15  C   UNL d   1       4.899  -3.528   0.981  0.00  0.00     0.026 A 
ATOM     16  C   UNL d   1       5.369  -2.651   1.957  0.00  0.00     0.002 A 
ATOM     17  C   UNL d   1       4.556  -1.612   2.398  0.00  0.00     0.002 A 
ATOM     18  C   UNL d   1       3.276  -1.446   1.862  0.00  0.00     0.032 A 
ENDBRANCH  10  12
ENDBRANCH   4  10
BRANCH   3  19
ATOM     19  N   UNL d   1      -2.740  -0.227  -0.205  0.00  0.00    -0.168 N 
ATOM     20  C   UNL d   1      -3.459  -1.391  -0.003  0.00  0.00     0.114 A 
ATOM     21  C   UNL d   1      -4.804  -1.106  -0.105  0.00  0.00     0.020 A 
ATOM     22  C   UNL d   1      -4.923   0.272  -0.392  0.00  0.00     0.020 A 
ATOM     23  C   UNL d   1      -3.647   0.790  -0.443  0.00  0.00     0.114 A 
ENDBRANCH   3  19
TORSDOF 3
