REMARK  6 active torsions:
REMARK  status: ('A' for Active; 'I' for Inactive)
REMARK       I    between atoms: N_2  and  C_1 
REMARK    1  A    between atoms: C_3  and  C_1 
REMARK    2  A    between atoms: C_6  and  N_2 
REMARK    3  A    between atoms: C_5  and  C_3 
REMARK    4  A    between atoms: C_13  and  C_9 
REMARK    5  A    between atoms: O_18  and  C_10 
REMARK    6  A    between atoms: C_20  and  C_13 
ROOT
ATOM      1  C   UNL d   1       1.064   0.071   0.231  0.00  0.00     0.230 C 
ATOM      2  N   UNL d   1       0.640  -1.222   0.506  0.00  0.00    -0.327 N 
ATOM      3  O   UNL d   1       2.084   0.595   0.675  0.00  0.00    -0.272 OA
ATOM      4  H   UNL d   1      -0.230  -1.523   0.095  0.00  0.00     0.169 HD
ENDROOT
BRANCH   1   5
ATOM      5  C   UNL d   1       0.181   0.859  -0.749  0.00  0.00     0.107 C 
ATOM      6  C   UNL d   1      -1.323   0.693  -0.530  0.00  0.00     0.025 C 
BRANCH   5   7
ATOM      7  C   UNL d   1       0.571   0.625  -2.199  0.00  0.00    -0.045 A 
ATOM      8  C   UNL d   1       0.504  -0.644  -2.788  0.00  0.00     0.008 A 
ATOM      9  C   UNL d   1       0.847  -0.830  -4.129  0.00  0.00     0.007 A 
ATOM     10  C   UNL d   1       1.258   0.250  -4.918  0.00  0.00    -0.058 A 
ATOM     11  C   UNL d   1       1.327   1.520  -4.335  0.00  0.00     0.007 A 
ATOM     12  C   UNL d   1       0.994   1.704  -2.990  0.00  0.00     0.008 A 
BRANCH  10  13
ATOM     13  C   UNL d   1       1.573   0.037  -6.380  0.00  0.00     0.042 C 
BRANCH  13  14
ATOM     14  C   UNL d   1       2.992   0.452  -6.816  0.00  0.00    -0.019 C 
ATOM     15  C   UNL d   1       4.079  -0.362  -6.109  0.00  0.00     0.010 C 
ATOM     16  C   UNL d   1       3.129   0.283  -8.332  0.00  0.00     0.010 C 
ENDBRANCH  13  14
ENDBRANCH  10  13
ENDBRANCH   5   7
ENDBRANCH   1   5
BRANCH   2  17
ATOM     17  C   UNL d   1       1.312  -2.191   1.286  0.00  0.00     0.034 A 
ATOM     18  C   UNL d   1       2.544  -1.974   1.900  0.00  0.00     0.032 A 
ATOM     19  C   UNL d   1       3.165  -2.982   2.648  0.00  0.00     0.039 A 
ATOM     20  C   UNL d   1       2.562  -4.228   2.791  0.00  0.00     0.068 A 
ATOM     21  C   UNL d   1       1.328  -4.453   2.180  0.00  0.00     0.039 A 
ATOM     22  C   UNL d   1       0.705  -3.444   1.433  0.00  0.00     0.032 A 
BRANCH  20  23
ATOM     23  O   UNL d   1       3.075  -5.289   3.485  0.00  0.00    -0.356 OA
ATOM     24  C   UNL d   1       4.338  -5.087   4.110  0.00  0.00     0.210 C 
ENDBRANCH  20  23
ENDBRANCH   2  17
TORSDOF 6
