REMARK  4 active torsions:
REMARK  status: ('A' for Active; 'I' for Inactive)
REMARK    1  A    between atoms: C_2  and  C_1 
REMARK    2  A    between atoms: C_3  and  C_1 
REMARK    3  A    between atoms: C_5  and  C_4 
REMARK    4  A    between atoms: O_13  and  C_5 
ROOT
ATOM      1  C   UNL d   1       0.174  -0.946   0.736  0.00  0.00     0.032 A 
ATOM      2  C   UNL d   1       0.681  -1.143   2.033  0.00  0.00     0.051 A 
ATOM      3  C   UNL d   1      -1.000  -1.623   0.343  0.00  0.00     0.016 A 
ATOM      4  C   UNL d   1      -0.056  -1.952   2.924  0.00  0.00     0.019 A 
ATOM      5  C   UNL d   1      -1.719  -2.406   1.245  0.00  0.00     0.001 A 
ATOM      6  C   UNL d   1      -1.251  -2.564   2.539  0.00  0.00     0.001 A 
ENDROOT
BRANCH   1   7
ATOM      7  C   UNL d   1       0.830  -0.082  -0.277  0.00  0.00     0.193 C 
ATOM      8  O   UNL d   1       2.051  -0.128  -0.376  0.00  0.00    -0.287 OA
BRANCH   7   9
ATOM      9  C   UNL d   1       0.044   0.744  -1.244  0.00  0.00     0.018 A 
ATOM     10  C   UNL d   1       0.615   1.015  -2.493  0.00  0.00     0.039 A 
ATOM     11  C   UNL d   1      -0.132   1.677  -3.467  0.00  0.00     0.036 A 
ATOM     12 CL   UNL d   1       0.560   1.975  -5.014  0.00  0.00    -0.084 Cl
ATOM     13  C   UNL d   1      -1.442   2.074  -3.212  0.00  0.00     0.047 A 
ATOM     14  C   UNL d   1      -1.990   1.839  -1.955  0.00  0.00     0.036 A 
ATOM     15  C   UNL d   1      -1.248   1.200  -0.960  0.00  0.00     0.039 A 
ATOM     16 CL   UNL d   1      -3.616   2.299  -1.633  0.00  0.00    -0.084 Cl
ENDBRANCH   7   9
ENDBRANCH   1   7
BRANCH   2  17
ATOM     17  C   UNL d   1       1.902  -0.528   2.630  0.00  0.00     0.177 C 
ATOM     18  O   UNL d   1       1.940  -0.257   3.824  0.00  0.00    -0.646 OA
BRANCH  17  19
ATOM     19  O   UNL d   1       2.989  -0.413   1.852  0.00  0.00    -0.773 OA
ATOM     20  H   UNL d   1       2.842  -0.501   0.880  0.00  0.00     0.167 HD
ENDBRANCH  17  19
ENDBRANCH   2  17
TORSDOF 4
