REMARK  3 active torsions:
REMARK  status: ('A' for Active; 'I' for Inactive)
REMARK    1  A    between atoms: N_11  and  C_1 
REMARK    2  A    between atoms: C_6  and  C_14 
REMARK    3  A    between atoms: N_9  and  N_11 
ROOT
ATOM      1  N   UNL d   1       1.415   3.142   0.124  0.00  0.00    -0.297 N 
ATOM      2  HN  UNL d   1       2.296   2.632   0.185  1.00  0.00     0.186 HD
ATOM      3  C   UNL d   1       1.381   4.428   0.016  0.00  0.00     0.122 C 
ENDROOT
BRANCH   1   4
ATOM      4  N   UNL d   1       0.216   2.505   0.153  0.00  0.00    -0.131 N 
ATOM      5  H   UNL d   1      -0.657   3.023   0.117  0.00  0.00     0.205 HD
BRANCH   4   6
ATOM      6  C   UNL d   1       0.092   1.159   0.148  0.00  0.00     0.712 A 
ATOM      7  N   UNL d   1      -1.174   0.631   0.129  0.00  0.00    -0.184 N 
ATOM      8  C   UNL d   1      -0.964  -0.664   0.115  0.00  0.00     0.215 A 
ATOM      9  HN  UNL d   1      -2.066   1.126   0.126  1.00  0.00     0.185 HD
ATOM     10  N   UNL d   1       0.371  -0.902   0.123  0.00  0.00    -0.281 N 
ATOM     11  N   UNL d   1       1.064   0.237   0.151  0.00  0.00    -0.130 N 
ATOM     12  H   UNL d   1       0.870  -1.784   0.111  0.00  0.00     0.188 HD
ATOM     13  HN  UNL d   1       2.075   0.372   0.169  1.00  0.00     0.205 HD
ENDBRANCH   4   6
ENDBRANCH   1   4
BRANCH   3  14
ATOM     14  C   UNL d   1       2.627   5.222  -0.020  0.00  0.00     0.024 A 
ATOM     15  C   UNL d   1       3.784   4.765  -0.675  0.00  0.00     0.047 A 
ATOM     16 CL   UNL d   1       3.844   3.329  -1.638  0.00  0.00    -0.083 Cl
ATOM     17  C   UNL d   1       4.962   5.522  -0.633  0.00  0.00     0.025 A 
ATOM     18  C   UNL d   1       4.997   6.739   0.042  0.00  0.00     0.003 A 
ATOM     19  C   UNL d   1       3.847   7.213   0.668  0.00  0.00     0.025 A 
ATOM     20  C   UNL d   1       2.665   6.462   0.638  0.00  0.00     0.047 A 
ATOM     21 CL   UNL d   1       1.298   7.125   1.468  0.00  0.00    -0.083 Cl
ENDBRANCH   3  14
TORSDOF 3
