REMARK  3 active torsions:
REMARK  status: ('A' for Active; 'I' for Inactive)
REMARK    1  A    between atoms: N_6  and  C_4 
REMARK    2  A    between atoms: C_10  and  C_9 
REMARK    3  A    between atoms: O_12  and  C_11 
ROOT
ATOM      1  N   UNL d   1      -2.520  -1.524  -0.302  0.00  0.00    -0.350 N 
ATOM      2  HN  UNL d   1      -3.322  -1.087  -0.755  1.00  0.00     0.166 HD
ATOM      3  C   UNL d   1      -2.515  -2.753   0.116  0.00  0.00     0.104 C 
ENDROOT
BRANCH   1   4
ATOM      4  C   UNL d   1      -1.308  -0.863  -0.065  0.00  0.00     0.128 A 
ATOM      5  C   UNL d   1      -0.845   0.199  -0.860  0.00  0.00     0.084 A 
ATOM      6  C   UNL d   1       0.299   0.610  -0.218  0.00  0.00     0.076 A 
ATOM      7  O   UNL d   1       0.502  -0.165   0.883  0.00  0.00    -0.241 OA
ATOM      8  C   UNL d   1       1.285   1.678  -0.459  0.00  0.00     0.079 C 
ATOM      9  N   UNL d   1      -0.527  -1.088   0.992  0.00  0.00    -0.245 N 
ATOM     10  HN  UNL d   1      -0.658  -1.788   1.722  1.00  0.00     0.196 HD
ENDBRANCH   1   4
BRANCH   3  11
ATOM     11  C   UNL d   1      -3.728  -3.597   0.042  0.00  0.00     0.012 A 
ATOM     12  C   UNL d   1      -4.946  -3.122  -0.456  0.00  0.00     0.077 A 
ATOM     13  C   UNL d   1      -6.065  -3.950  -0.482  0.00  0.00     0.037 A 
ATOM     14  C   UNL d   1      -5.976  -5.258  -0.002  0.00  0.00     0.003 A 
ATOM     15  C   UNL d   1      -4.765  -5.737   0.500  0.00  0.00     0.001 A 
ATOM     16  C   UNL d   1      -3.640  -4.910   0.522  0.00  0.00     0.015 A 
BRANCH  12  17
ATOM     17  O   UNL d   1      -5.116  -1.848  -0.925  0.00  0.00    -0.360 OA
ATOM     18  H   UNL d   1      -4.263  -1.378  -0.802  0.00  0.00     0.217 HD
ENDBRANCH  12  17
ENDBRANCH   3  11
TORSDOF 3
