REMARK  4 active torsions:
REMARK  status: ('A' for Active; 'I' for Inactive)
REMARK    1  A    between atoms: C_4  and  C_1 
REMARK    2  A    between atoms: C_8  and  C_2 
REMARK    3  A    between atoms: O_15  and  C_3 
REMARK       I    between atoms: N_13  and  C_4 
REMARK    4  A    between atoms: O_16  and  C_7 
ROOT
ATOM      1  C   UNL d   1      -0.763   1.097  -0.568  0.00  0.00     0.112 C 
ATOM      2  C   UNL d   1       0.328   1.179   0.219  0.00  0.00     0.040 C 
ATOM      3  C   UNL d   1      -1.362   2.243  -1.155  0.00  0.00     0.105 C 
ATOM      4  N   UNL d   1      -1.882   3.151  -1.649  0.00  0.00    -0.191 NA
ENDROOT
BRANCH   1   5
ATOM      5  C   UNL d   1      -1.356  -0.254  -0.818  0.00  0.00     0.260 C 
ATOM      6  O   UNL d   1      -0.900  -1.278  -0.319  0.00  0.00    -0.267 OA
ATOM      7  N   UNL d   1      -2.445  -0.318  -1.632  0.00  0.00    -0.365 N 
ATOM      8  H   UNL d   1      -2.887   0.471  -2.084  0.00  0.00     0.159 HD
ATOM      9  H   UNL d   1      -2.846  -1.231  -1.799  0.00  0.00     0.159 HD
ENDBRANCH   1   5
BRANCH   2  10
ATOM     10  C   UNL d   1       0.997   2.436   0.579  0.00  0.00    -0.030 A 
ATOM     11  C   UNL d   1       0.562   3.166   1.679  0.00  0.00     0.033 A 
ATOM     12  C   UNL d   1       1.202   4.361   2.014  0.00  0.00     0.047 A 
ATOM     13 BR   UNL d   1       0.536   5.309   3.527  0.00  0.00    -0.048 Br
ATOM     14  C   UNL d   1       2.290   4.849   1.262  0.00  0.00     0.116 A 
ATOM     15  C   UNL d   1       2.727   4.128   0.143  0.00  0.00     0.103 A 
ATOM     16  C   UNL d   1       2.064   2.924  -0.182  0.00  0.00     0.051 A 
BRANCH  14  17
ATOM     17  O   UNL d   1       2.844   6.013   1.718  0.00  0.00    -0.357 OA
ATOM     18  H   UNL d   1       3.438   6.403   1.071  0.00  0.00     0.218 HD
ENDBRANCH  14  17
BRANCH  15  19
ATOM     19  O   UNL d   1       3.741   4.374  -0.740  0.00  0.00    -0.353 OA
ATOM     20  C   UNL d   1       4.591   5.498  -0.626  0.00  0.00     0.210 C 
ENDBRANCH  15  19
ENDBRANCH   2  10
TORSDOF 4
