REMARK  5 active torsions:
REMARK  status: ('A' for Active; 'I' for Inactive)
REMARK    1  A    between atoms: C_12  and  N_3 
REMARK    2  A    between atoms: C_8  and  C_4 
REMARK    3  A    between atoms: O_11  and  C_8 
REMARK       I    between atoms: C_9  and  N_10 
REMARK    4  A    between atoms: C_15  and  C_9 
REMARK    5  A    between atoms: N_10  and  O_11 
ROOT
ATOM      1  N   UNL d   1      -0.180  -0.990  -0.129  0.00  0.00    -0.272 N 
ATOM      2  HN  UNL d   1      -0.423  -1.959  -0.332  1.00  0.00     0.189 HD
ATOM      3  N   UNL d   1       1.050  -0.441  -0.005  0.00  0.00    -0.196 N 
ATOM      4  C   UNL d   1      -1.006   0.053   0.079  0.00  0.00     0.150 A 
ATOM      5  N   UNL d   1       1.079   0.899   0.207  0.00  0.00    -0.281 N 
ATOM      6  HN  UNL d   1       1.889   1.509   0.316  1.00  0.00     0.189 HD
ATOM      7  C   UNL d   1      -0.221   1.221   0.237  0.00  0.00     0.058 A 
ATOM      8  C   UNL d   1      -0.618   2.638   0.394  0.00  0.00     0.072 C 
ENDROOT
BRANCH   4   9
ATOM      9  C   UNL d   1      -2.454  -0.109   0.183  0.00  0.00     0.335 C 
ATOM     10  O   UNL d   1      -3.206   0.702   0.720  0.00  0.00    -0.255 OA
BRANCH   9  11
ATOM     11  O   UNL d   1      -2.887  -1.318  -0.303  0.00  0.00    -0.191 OA
BRANCH  11  12
ATOM     12  N   UNL d   1      -4.131  -1.738   0.259  0.00  0.00    -0.221 N 
ATOM     13  C   UNL d   1      -4.160  -3.117   0.371  0.00  0.00     0.275 C 
ATOM     14  O   UNL d   1      -3.414  -3.866  -0.251  0.00  0.00    -0.265 OA
ATOM     15  H   UNL d   1      -4.509  -1.129   0.977  0.00  0.00     0.198 HD
BRANCH  13  16
ATOM     16  C   UNL d   1      -5.098  -3.700   1.370  0.00  0.00     0.034 A 
ATOM     17  C   UNL d   1      -6.239  -3.035   1.833  0.00  0.00     0.017 A 
ATOM     18  C   UNL d   1      -7.062  -3.647   2.785  0.00  0.00     0.001 A 
ATOM     19  C   UNL d   1      -6.754  -4.919   3.273  0.00  0.00     0.000 A 
ATOM     20  C   UNL d   1      -5.628  -5.589   2.807  0.00  0.00     0.001 A 
ATOM     21  C   UNL d   1      -4.804  -4.984   1.857  0.00  0.00     0.017 A 
ENDBRANCH  13  16
ENDBRANCH  11  12
ENDBRANCH   9  11
ENDBRANCH   4   9
BRANCH   3  22
ATOM     22  C   UNL d   1       2.233  -1.217  -0.092  0.00  0.00     0.074 A 
ATOM     23  C   UNL d   1       2.167  -2.565  -0.470  0.00  0.00     0.033 A 
ATOM     24  C   UNL d   1       3.342  -3.311  -0.591  0.00  0.00     0.002 A 
ATOM     25  C   UNL d   1       4.576  -2.722  -0.314  0.00  0.00     0.000 A 
ATOM     26  C   UNL d   1       4.642  -1.388   0.087  0.00  0.00     0.002 A 
ATOM     27  C   UNL d   1       3.475  -0.631   0.194  0.00  0.00     0.033 A 
ENDBRANCH   3  22
TORSDOF 5
