REMARK  7 active torsions:
REMARK  status: ('A' for Active; 'I' for Inactive)
REMARK    1  A    between atoms: C_15  and  C_3 
REMARK    2  A    between atoms: C_21  and  C_6 
REMARK    3  A    between atoms: C_7  and  C_13 
REMARK    4  A    between atoms: N_9  and  C_18 
REMARK    5  A    between atoms: O_25  and  C_12 
REMARK    6  A    between atoms: S_16  and  C_21 
REMARK    7  A    between atoms: C_20  and  S_16 
ROOT
ATOM      1  C   UNL d   1       0.651  -6.361  -0.000  0.00  0.00     0.049 C 
ATOM      2  C   UNL d   1      -0.655  -5.845  -0.181  0.00  0.00     0.027 C 
ATOM      3  C   UNL d   1       0.812  -7.647   0.540  0.00  0.00     0.031 C 
ATOM      4  C   UNL d   1      -1.753  -6.696   0.022  0.00  0.00     0.021 C 
ATOM      5  C   UNL d   1      -0.284  -8.487   0.723  0.00  0.00     0.002 C 
ATOM      6  C   UNL d   1      -1.561  -8.024   0.431  0.00  0.00     0.002 C 
ENDROOT
BRANCH   2   7
ATOM      7  S   UNL d   1      -0.859  -4.080  -0.479  0.00  0.00    -0.119 SA
BRANCH   7   8
ATOM      8  C   UNL d   1      -2.131  -3.979  -1.775  0.00  0.00     0.166 C 
BRANCH   8   9
ATOM      9  C   UNL d   1      -1.624  -3.275  -2.980  0.00  0.00     0.158 A 
ATOM     10  N   UNL d   1      -1.352  -2.002  -3.174  0.00  0.00    -0.322 N 
ATOM     11  C   UNL d   1      -1.056  -1.957  -4.521  0.00  0.00     0.137 A 
ATOM     12  HN  UNL d   1      -1.359  -1.238  -2.498  1.00  0.00     0.169 HD
ATOM     13  N   UNL d   1      -1.134  -3.151  -5.133  0.00  0.00    -0.242 N 
ATOM     14  O   UNL d   1      -1.502  -4.025  -4.113  0.00  0.00    -0.222 OA
ATOM     15  HN  UNL d   1      -0.964  -3.366  -6.115  1.00  0.00     0.196 HD
BRANCH  11  16
ATOM     16  C   UNL d   1      -0.763  -0.708  -5.216  0.00  0.00     0.010 A 
ATOM     17  C   UNL d   1      -0.261   0.400  -4.515  0.00  0.00     0.017 A 
ATOM     18  C   UNL d   1      -0.027   1.614  -5.172  0.00  0.00     0.025 A 
ATOM     19  C   UNL d   1      -0.301   1.729  -6.533  0.00  0.00     0.034 A 
ATOM     20  C   UNL d   1      -0.788   0.638  -7.248  0.00  0.00     0.025 A 
ATOM     21 CL   UNL d   1      -0.046   3.231  -7.335  0.00  0.00    -0.084 Cl
ATOM     22  C   UNL d   1      -1.013  -0.577  -6.592  0.00  0.00     0.017 A 
ENDBRANCH  11  16
ENDBRANCH   8   9
ENDBRANCH   7   8
ENDBRANCH   2   7
BRANCH   1  23
ATOM     23  N   UNL d   1       1.782  -5.609  -0.384  0.00  0.00    -0.364 N 
ATOM     24  C   UNL d   1       2.656  -6.063  -1.236  0.00  0.00     0.102 C 
ATOM     25  HN  UNL d   1       1.919  -4.681   0.018  1.00  0.00     0.165 HD
BRANCH  24  26
ATOM     26  C   UNL d   1       2.676  -7.371  -1.936  0.00  0.00     0.016 A 
ATOM     27  C   UNL d   1       3.850  -8.123  -1.914  0.00  0.00     0.099 A 
ATOM     28  C   UNL d   1       3.845  -9.439  -2.383  0.00  0.00     0.069 A 
ATOM     29 CL   UNL d   1       5.279 -10.397  -2.319  0.00  0.00    -0.081 Cl
ATOM     30  C   UNL d   1       2.667 -10.012  -2.864  0.00  0.00     0.050 A 
ATOM     31  C   UNL d   1       1.510  -9.239  -2.929  0.00  0.00     0.036 A 
ATOM     32  C   UNL d   1       1.514  -7.913  -2.501  0.00  0.00     0.039 A 
ATOM     33 CL   UNL d   1       0.042  -9.949  -3.478  0.00  0.00    -0.084 Cl
BRANCH  27  34
ATOM     34  O   UNL d   1       4.994  -7.571  -1.396  0.00  0.00    -0.358 OA
ATOM     35  H   UNL d   1       5.703  -8.242  -1.445  0.00  0.00     0.217 HD
ENDBRANCH  27  34
ENDBRANCH  24  26
ENDBRANCH   1  23
TORSDOF 7
