REMARK  3 active torsions:
REMARK  status: ('A' for Active; 'I' for Inactive)
REMARK    1  A    between atoms: C_8  and  C_2 
REMARK    2  A    between atoms: N_6  and  C_3 
REMARK    3  A    between atoms: O_24  and  C_23 
ROOT
ATOM      1  C   UNL d   1       0.039   1.059  -0.001  0.00  0.00     0.048 A 
ATOM      2  C   UNL d   1      -1.289   1.649  -0.233  0.00  0.00    -0.003 A 
ATOM      3  C   UNL d   1       1.397   1.522   0.096  0.00  0.00     0.097 A 
ATOM      4  C   UNL d   1      -0.111  -0.326   0.121  0.00  0.00     0.089 A 
ATOM      5  C   UNL d   1      -2.293   0.691  -0.224  0.00  0.00     0.065 A 
ATOM      6  S   UNL d   1      -1.717  -0.878   0.037  0.00  0.00    -0.082 SA
ATOM      7  N   UNL d   1       2.363   0.568   0.254  0.00  0.00    -0.342 N 
ATOM      8  HN  UNL d   1       3.340   0.853   0.319  1.00  0.00     0.167 HD
ATOM      9  N   UNL d   1       0.845  -1.253   0.284  0.00  0.00    -0.346 N 
ATOM     10  HN  UNL d   1       0.657  -2.252   0.368  1.00  0.00     0.167 HD
ATOM     11  C   UNL d   1       2.056  -0.727   0.325  0.00  0.00     0.182 A 
ENDROOT
BRANCH   2  12
ATOM     12  C   UNL d   1      -1.715   3.031  -0.454  0.00  0.00    -0.024 A 
ATOM     13  C   UNL d   1      -1.179   3.803  -1.490  0.00  0.00     0.024 A 
ATOM     14  C   UNL d   1      -1.537   5.161  -1.637  0.00  0.00    -0.025 A 
ATOM     15  C   UNL d   1      -0.904   5.990  -2.580  0.00  0.00     0.012 A 
ATOM     16  C   UNL d   1      -2.514   5.723  -0.779  0.00  0.00    -0.026 A 
ATOM     17  C   UNL d   1      -1.198   7.353  -2.646  0.00  0.00     0.001 A 
ATOM     18  C   UNL d   1      -2.163   7.902  -1.809  0.00  0.00     0.001 A 
ATOM     19  C   UNL d   1      -2.831   7.090  -0.898  0.00  0.00     0.012 A 
ATOM     20  C   UNL d   1      -3.113   4.920   0.194  0.00  0.00     0.013 A 
ATOM     21  C   UNL d   1      -2.708   3.596   0.364  0.00  0.00     0.013 A 
ENDBRANCH   2  12
BRANCH   3  22
ATOM     22  N   UNL d   1       1.861   2.835  -0.074  0.00  0.00    -0.268 NA
ATOM     23  C   UNL d   1       1.299   3.884   0.782  0.00  0.00     0.099 C 
ATOM     24  C   UNL d   1       1.525   5.213   0.055  0.00  0.00     0.046 C 
ATOM     25  C   UNL d   1       3.003   5.474  -0.210  0.00  0.00     0.120 C 
ATOM     26  C   UNL d   1       3.683   4.271  -0.861  0.00  0.00     0.046 C 
ATOM     27  C   UNL d   1       3.337   2.966  -0.145  0.00  0.00     0.099 C 
BRANCH  25  28
ATOM     28  O   UNL d   1       3.663   5.798   1.011  0.00  0.00    -0.395 OA
ATOM     29  H   UNL d   1       3.175   6.538   1.413  0.00  0.00     0.210 HD
ENDBRANCH  25  28
ENDBRANCH   3  22
TORSDOF 3
