REMARK  4 active torsions:
REMARK  status: ('A' for Active; 'I' for Inactive)
REMARK    1  A    between atoms: C_3  and  C_1 
REMARK    2  A    between atoms: N_4  and  C_2 
REMARK       I    between atoms: N_11  and  C_3 
REMARK       I    between atoms: C_5  and  N_4 
REMARK    3  A    between atoms: C_7  and  C_5 
REMARK    4  A    between atoms: N_6  and  C_7 
ROOT
ATOM      1  C   UNL d   1      -0.104  -4.775   0.458  0.00  0.00     0.058 A 
ATOM      2  C   UNL d   1       0.445  -3.689   1.176  0.00  0.00     0.050 A 
ATOM      3  C   UNL d   1      -0.833  -5.760   1.146  0.00  0.00     0.019 A 
ATOM      4  C   UNL d   1       0.136  -3.550   2.537  0.00  0.00     0.030 A 
ATOM      5  C   UNL d   1      -1.065  -5.648   2.517  0.00  0.00     0.001 A 
ATOM      6  C   UNL d   1      -0.605  -4.529   3.204  0.00  0.00     0.002 A 
ENDROOT
BRANCH   2   7
ATOM      7  N   UNL d   1       1.345  -2.736   0.633  0.00  0.00    -0.325 N 
ATOM      8  C   UNL d   1       2.433  -3.127  -0.140  0.00  0.00     0.250 C 
ATOM      9  O   UNL d   1       2.716  -4.285  -0.436  0.00  0.00    -0.271 OA
ATOM     10  H   UNL d   1       1.541  -1.900   1.181  0.00  0.00     0.169 HD
BRANCH   8  11
ATOM     11  C   UNL d   1       3.321  -1.968  -0.585  0.00  0.00     0.375 C 
BRANCH  11  12
ATOM     12  N   UNL d   1       3.885  -1.219   0.560  0.00  0.00     0.101 N 
ATOM     13  C   UNL d   1       4.776  -0.140   0.052  0.00  0.00     0.299 C 
ATOM     14  C   UNL d   1       6.136  -0.632  -0.482  0.00  0.00     0.198 C 
ATOM     15  O   UNL d   1       6.840  -1.369   0.522  0.00  0.00    -0.388 OA
ATOM     16  C   UNL d   1       6.070  -2.498   0.948  0.00  0.00     0.198 C 
ATOM     17  C   UNL d   1       4.690  -2.070   1.477  0.00  0.00     0.299 C 
ENDBRANCH  11  12
ENDBRANCH   8  11
ENDBRANCH   2   7
BRANCH   1  18
ATOM     18  C   UNL d   1      -0.089  -4.916  -1.027  0.00  0.00     0.251 C 
ATOM     19  O   UNL d   1      -0.163  -6.010  -1.577  0.00  0.00    -0.268 OA
ATOM     20  N   UNL d   1      -0.115  -3.765  -1.766  0.00  0.00    -0.366 N 
ATOM     21  H   UNL d   1      -0.113  -2.849  -1.345  0.00  0.00     0.159 HD
ATOM     22  H   UNL d   1      -0.126  -3.860  -2.772  0.00  0.00     0.159 HD
ENDBRANCH   1  18
TORSDOF 4
