REMARK  3 active torsions:
REMARK  status: ('A' for Active; 'I' for Inactive)
REMARK    1  A    between atoms: C_7  and  C_3 
REMARK    2  A    between atoms: C_8  and  C_4 
REMARK    3  A    between atoms: C_11  and  C_13 
ROOT
ATOM      1  C   UNL d   1       0.256  -2.766   0.156  0.00  0.00    -0.008 A 
ATOM      2  C   UNL d   1       0.855  -5.565   0.150  0.00  0.00    -0.023 A 
ATOM      3  C   UNL d   1       1.071  -3.329   1.140  0.00  0.00     0.014 A 
ATOM      4  C   UNL d   1      -0.224  -3.602  -0.856  0.00  0.00     0.014 A 
ATOM      5  C   UNL d   1       1.343  -4.705   1.149  0.00  0.00     0.013 A 
ATOM      6  C   UNL d   1       0.074  -4.974  -0.861  0.00  0.00     0.013 A 
ENDROOT
BRANCH   1   7
ATOM      7  C   UNL d   1      -0.062  -1.338   0.132  0.00  0.00     0.056 A 
ATOM      8  N   UNL d   1      -0.165  -0.682  -1.090  0.00  0.00    -0.348 N 
ATOM      9  C   UNL d   1      -0.408   0.597  -0.910  0.00  0.00     0.085 A 
ATOM     10  HN  UNL d   1      -0.065  -1.131  -2.000  1.00  0.00     0.166 HD
ATOM     11  S   UNL d   1      -0.562   1.082   0.727  0.00  0.00    -0.074 SA
ATOM     12  C   UNL d   1      -0.319  -0.544   1.239  0.00  0.00     0.008 A 
ATOM     13  C   UNL d   1      -0.415  -0.844   2.695  0.00  0.00     0.059 C 
BRANCH   9  14
ATOM     14  C   UNL d   1      -0.544   1.552  -2.066  0.00  0.00     0.005 A 
ATOM     15  C   UNL d   1      -0.511   1.117  -3.375  0.00  0.00     0.063 A 
ATOM     16  S   UNL d   1      -0.696   2.401  -4.491  0.00  0.00    -0.113 SA
ATOM     17  C   UNL d   1      -0.809   3.553  -3.231  0.00  0.00     0.050 A 
ATOM     18  C   UNL d   1      -0.719   2.968  -1.986  0.00  0.00     0.022 A 
ENDBRANCH   9  14
ENDBRANCH   1   7
BRANCH   2  19
ATOM     19  C   UNL d   1       1.148  -7.021   0.165  0.00  0.00     0.013 A 
ATOM     20  C   UNL d   1       2.362  -7.544   0.651  0.00  0.00     0.127 A 
ATOM     21  F   UNL d   1       3.331  -6.728   1.095  0.00  0.00    -0.205 F 
ATOM     22  C   UNL d   1       2.622  -8.916   0.688  0.00  0.00     0.043 A 
ATOM     23  C   UNL d   1       1.671  -9.816   0.220  0.00  0.00     0.003 A 
ATOM     24  C   UNL d   1       0.464  -9.338  -0.278  0.00  0.00     0.001 A 
ATOM     25  C   UNL d   1       0.205  -7.960  -0.299  0.00  0.00     0.015 A 
ENDBRANCH   2  19
TORSDOF 3
