REMARK  7 active torsions:
REMARK  status: ('A' for Active; 'I' for Inactive)
REMARK    1  A    between atoms: C_6  and  CA_1 
REMARK    2  A    between atoms: CA_1  and  N_3 
REMARK    3  A    between atoms: CA_1  and  C_2 
REMARK    4  A    between atoms: OXT_13  and  C_2 
REMARK       I    between atoms: C_4  and  N_3 
REMARK    5  A    between atoms: C_5  and  O_8 
REMARK    6  A    between atoms: C_11  and  C_6 
REMARK    7  A    between atoms: O_8  and  C_12 
ROOT
ATOM      1  C   UNL d   1       0.434   1.212   0.694  0.00  0.00     0.074 C 
ENDROOT
BRANCH   1   2
ATOM      2  CA  UNL d   1       1.198   1.715  -0.541  0.00  0.00     0.186 C 
BRANCH   2   3
ATOM      3  N   UNL d   1       2.640   1.497  -0.447  0.00  0.00    -0.347 N 
ATOM      4  C   UNL d   1       3.364   1.452  -1.619  0.00  0.00     0.214 C 
ATOM      5  O   UNL d   1       2.821   1.527  -2.720  0.00  0.00    -0.274 OA
ATOM      6  C   UNL d   1       4.851   1.335  -1.447  0.00  0.00     0.117 C 
ATOM      7  H   UNL d   1       3.111   1.863   0.374  0.00  0.00     0.163 HD
ENDBRANCH   2   3
BRANCH   2   8
ATOM      8  C   UNL d   1       1.002   3.223  -0.754  0.00  0.00     0.163 C 
ATOM      9  O   UNL d   1       0.954   4.053   0.144  0.00  0.00    -0.648 OA
BRANCH   8  10
ATOM     10  OXT UNL d   1       1.013   3.573  -2.066  0.00  0.00    -0.775 OA
ATOM     11  HXT UNL d   1       1.314   2.836  -2.649  0.00  0.00     0.167 HD
ENDBRANCH   8  10
ENDBRANCH   2   8
ENDBRANCH   1   2
BRANCH   1  12
ATOM     12  C   UNL d   1      -1.081   1.180   0.575  0.00  0.00    -0.056 A 
ATOM     13  C   UNL d   1      -1.774   1.661  -0.548  0.00  0.00     0.010 A 
ATOM     14  C   UNL d   1      -3.166   1.640  -0.604  0.00  0.00     0.038 A 
ATOM     15  C   UNL d   1      -3.892   1.148   0.472  0.00  0.00     0.079 A 
ATOM     16  C   UNL d   1      -3.232   0.631   1.586  0.00  0.00     0.038 A 
ATOM     17  C   UNL d   1      -1.834   0.655   1.641  0.00  0.00     0.010 A 
BRANCH  15  18
ATOM     18  O   UNL d   1      -5.297   1.063   0.463  0.00  0.00    -0.279 OA
BRANCH  18  19
ATOM     19  C   UNL d   1      -6.069   2.027  -0.185  0.00  0.00     0.260 C 
ATOM     20  O   UNL d   1      -5.674   3.056  -0.726  0.00  0.00    -0.265 OA
ATOM     21  C   UNL d   1      -7.513   1.623  -0.140  0.00  0.00     0.126 C 
ENDBRANCH  18  19
ENDBRANCH  15  18
ENDBRANCH   1  12
TORSDOF 7
