REMARK  4 active torsions:
REMARK  status: ('A' for Active; 'I' for Inactive)
REMARK    1  A    between atoms: C_2  and  S_1 
REMARK    2  A    between atoms: C_3  and  S_1 
REMARK    3  A    between atoms: C_4  and  N_10 
REMARK    4  A    between atoms: N_10  and  C_5 
ROOT
ATOM      1  C   UNL d   1       0.509   1.622  -0.079  0.00  0.00     0.160 C 
ATOM      2  C   UNL d   1      -0.089   2.131  -1.180  0.00  0.00     0.141 C 
ATOM      3  C   UNL d   1       0.968   0.249  -0.009  0.00  0.00     0.113 C 
ATOM      4  N   UNL d   1       1.339  -0.846  -0.030  0.00  0.00    -0.191 NA
ENDROOT
BRANCH   1   5
ATOM      5  S   UNL d   1       0.773   2.770   1.220  0.00  0.00     0.219 S 
ATOM      6  O   UNL d   1      -0.473   2.901   1.962  0.00  0.00    -0.216 OA
ATOM      7  O   UNL d   1       1.392   3.987   0.718  0.00  0.00    -0.216 OA
BRANCH   5   8
ATOM      8  C   UNL d   1       1.945   2.067   2.354  0.00  0.00     0.086 A 
ATOM      9  C   UNL d   1       3.260   1.786   1.978  0.00  0.00     0.056 A 
ATOM     10 CL   UNL d   1       3.880   2.041   0.387  0.00  0.00    -0.083 Cl
ATOM     11  C   UNL d   1       4.152   1.281   2.931  0.00  0.00     0.025 A 
ATOM     12  C   UNL d   1       3.748   1.085   4.253  0.00  0.00     0.002 A 
ATOM     13  C   UNL d   1       2.449   1.401   4.636  0.00  0.00     0.002 A 
ATOM     14  C   UNL d   1       1.547   1.890   3.691  0.00  0.00     0.025 A 
ENDBRANCH   5   8
ENDBRANCH   1   5
BRANCH   2  15
ATOM     15  N   UNL d   1      -0.489   1.435  -2.292  0.00  0.00    -0.200 N 
ATOM     16  H   UNL d   1      -0.766   0.468  -2.194  0.00  0.00     0.183 HD
BRANCH  15  17
ATOM     17  C   UNL d   1      -0.884   1.942  -3.524  0.00  0.00     0.681 A 
ATOM     18  N   UNL d   1      -0.395   3.110  -3.964  0.00  0.00    -0.202 N 
ATOM     19  C   UNL d   1      -0.767   3.499  -5.198  0.00  0.00     0.107 A 
ATOM     20  HN  UNL d   1       0.230   3.678  -3.392  1.00  0.00     0.183 HD
ATOM     21  C   UNL d   1      -1.648   2.794  -5.981  0.00  0.00     0.035 A 
ATOM     22  C   UNL d   1      -2.110   1.625  -5.433  0.00  0.00     0.107 A 
ATOM     23  N   UNL d   1      -1.723   1.166  -4.228  0.00  0.00    -0.202 N 
ATOM     24  HN  UNL d   1      -2.052   0.271  -3.867  1.00  0.00     0.183 HD
ENDBRANCH  15  17
ENDBRANCH   2  15
TORSDOF 4
