REMARK  2 active torsions:
REMARK  status: ('A' for Active; 'I' for Inactive)
REMARK    1  A    between atoms: C_6  and  C_3 
REMARK    2  A    between atoms: C_8  and  C_4 
ROOT
ATOM      1  N   UNL d   1       1.417  -0.612   0.004  0.00  0.00    -0.348 N 
ATOM      2  HN  UNL d   1       2.301  -1.121   0.003  1.00  0.00     0.166 HD
ATOM      3  C   UNL d   1       0.222  -1.180   0.013  0.00  0.00     0.102 A 
ATOM      4  C   UNL d   1       1.302   0.772  -0.004  0.00  0.00     0.050 A 
ATOM      5  S   UNL d   1      -1.097  -0.065   0.045  0.00  0.00    -0.080 SA
ATOM      6  C   UNL d   1       0.005   1.241   0.037  0.00  0.00     0.082 A 
ENDROOT
BRANCH   3   7
ATOM      7  C   UNL d   1      -0.026  -2.630  -0.001  0.00  0.00     0.081 A 
ATOM      8  N   UNL d   1      -1.320  -3.058   0.027  0.00  0.00    -0.361 N 
ATOM      9  C   UNL d   1      -1.502  -4.399   0.014  0.00  0.00     0.105 A 
ATOM     10  HN  UNL d   1      -2.104  -2.407   0.055  1.00  0.00     0.165 HD
ATOM     11  C   UNL d   1      -0.447  -5.293  -0.023  0.00  0.00     0.104 A 
ATOM     12  N   UNL d   1       0.841  -4.887  -0.052  0.00  0.00    -0.372 N 
ATOM     13  C   UNL d   1       1.026  -3.540  -0.041  0.00  0.00     0.120 A 
ATOM     14  HN  UNL d   1       1.621  -5.545  -0.080  1.00  0.00     0.164 HD
ENDBRANCH   3   7
BRANCH   4  15
ATOM     15  C   UNL d   1       2.478   1.639  -0.032  0.00  0.00    -0.009 A 
ATOM     16  C   UNL d   1       2.427   2.928  -0.586  0.00  0.00     0.015 A 
ATOM     17  C   UNL d   1       3.561   3.746  -0.602  0.00  0.00     0.020 A 
ATOM     18  C   UNL d   1       4.758   3.277  -0.066  0.00  0.00     0.011 A 
ATOM     19  C   UNL d   1       4.830   1.998   0.482  0.00  0.00     0.020 A 
ATOM     20 BR   UNL d   1       6.291   4.382  -0.089  0.00  0.00    -0.051 Br
ATOM     21  C   UNL d   1       3.694   1.182   0.495  0.00  0.00     0.015 A 
ENDBRANCH   4  15
TORSDOF 2
