REMARK  5 active torsions:
REMARK  status: ('A' for Active; 'I' for Inactive)
REMARK    1  A    between atoms: C_3  and  C_1 
REMARK    2  A    between atoms: C_9  and  C_2 
REMARK    3  A    between atoms: C_17  and  C_8 
REMARK    4  A    between atoms: C_13  and  C_18 
REMARK    5  A    between atoms: C_14  and  C_19 
ROOT
ATOM      1  C   UNL d   1       0.237  -2.682   0.118  0.00  0.00     0.187 A 
ATOM      2  N   UNL d   1       1.238  -3.233   0.774  0.00  0.00    -0.318 N 
ATOM      3  HN  UNL d   1       1.994  -2.775   1.282  1.00  0.00     0.169 HD
ATOM      4  C   UNL d   1       1.010  -4.584   0.603  0.00  0.00     0.138 A 
ATOM      5  N   UNL d   1      -0.039  -4.861  -0.182  0.00  0.00    -0.242 N 
ATOM      6  HN  UNL d   1      -0.369  -5.775  -0.491  1.00  0.00     0.196 HD
ATOM      7  O   UNL d   1      -0.570  -3.616  -0.475  0.00  0.00    -0.217 OA
ENDROOT
BRANCH   1   8
ATOM      8  C   UNL d   1      -0.042  -1.230   0.040  0.00  0.00     0.078 A 
ATOM      9  C   UNL d   1       0.801  -0.109   0.273  0.00  0.00     0.087 A 
ATOM     10  N   UNL d   1       0.106   1.026   0.070  0.00  0.00    -0.259 N 
ATOM     11  O   UNL d   1      -1.180   0.653  -0.254  0.00  0.00    -0.241 OA
ATOM     12  HN  UNL d   1       0.463   1.978   0.142  1.00  0.00     0.195 HD
ATOM     13  C   UNL d   1      -1.268  -0.701  -0.279  0.00  0.00     0.089 A 
ATOM     14  C   UNL d   1      -2.599  -1.269  -0.573  0.00  0.00     0.080 C 
BRANCH   9  15
ATOM     15  C   UNL d   1       2.228  -0.063   0.584  0.00  0.00     0.054 A 
ATOM     16  C   UNL d   1       3.119  -0.829  -0.181  0.00  0.00     0.130 A 
ATOM     17  F   UNL d   1       2.670  -1.577  -1.202  0.00  0.00    -0.205 F 
ATOM     18  C   UNL d   1       4.491  -0.832   0.067  0.00  0.00     0.043 A 
ATOM     19  C   UNL d   1       5.011  -0.031   1.076  0.00  0.00     0.005 A 
ATOM     20  C   UNL d   1       4.152   0.762   1.835  0.00  0.00     0.025 A 
ATOM     21  C   UNL d   1       2.768   0.745   1.599  0.00  0.00     0.049 A 
ATOM     22 CL   UNL d   1       1.798   1.728   2.644  0.00  0.00    -0.083 Cl
ENDBRANCH   9  15
ENDBRANCH   1   8
BRANCH   4  23
ATOM     23  C   UNL d   1       1.758  -5.612   1.318  0.00  0.00     0.011 A 
ATOM     24  C   UNL d   1       2.647  -5.266   2.342  0.00  0.00     0.031 A 
ATOM     25  C   UNL d   1       3.266  -6.255   3.129  0.00  0.00     0.049 A 
ATOM     26  C   UNL d   1       3.000  -7.608   2.858  0.00  0.00     0.032 A 
ATOM     27  C   UNL d   1       2.128  -7.979   1.824  0.00  0.00     0.049 A 
ATOM     28  C   UNL d   1       1.524  -6.970   1.054  0.00  0.00     0.031 A 
BRANCH  25  29
ATOM     29  C   UNL d   1       4.178  -5.848   4.264  0.00  0.00     0.417 C 
ATOM     30  F   UNL d   1       4.608  -6.899   5.015  0.00  0.00    -0.166 F 
ATOM     31  F   UNL d   1       5.299  -5.214   3.826  0.00  0.00    -0.166 F 
ATOM     32  F   UNL d   1       3.573  -4.991   5.132  0.00  0.00    -0.166 F 
ENDBRANCH  25  29
BRANCH  27  33
ATOM     33  C   UNL d   1       1.804  -9.427   1.539  0.00  0.00     0.417 C 
ATOM     34  F   UNL d   1       2.355 -10.290   2.434  0.00  0.00    -0.166 F 
ATOM     35  F   UNL d   1       0.465  -9.672   1.560  0.00  0.00    -0.166 F 
ATOM     36  F   UNL d   1       2.239  -9.825   0.313  0.00  0.00    -0.166 F 
ENDBRANCH  27  33
ENDBRANCH   4  23
TORSDOF 5
