REMARK  5 active torsions:
REMARK  status: ('A' for Active; 'I' for Inactive)
REMARK    1  A    between atoms: C_8  and  N_2 
REMARK    2  A    between atoms: C_7  and  O_12 
REMARK    3  A    between atoms: N_11  and  C_8 
REMARK    4  A    between atoms: C_17  and  N_11 
REMARK    5  A    between atoms: O_12  and  C_18 
ROOT
ATOM      1  N   UNL d   1       0.880   3.504  -0.078  0.00  0.00    -0.275 NA
ATOM      2  H   UNL d   1       0.171   3.221   0.599  0.00  0.00     0.129 HD
ENDROOT
BRANCH   1   3
ATOM      3  C   UNL d   1       1.948   2.503  -0.146  0.00  0.00     0.240 C 
BRANCH   3   4
ATOM      4  N   UNL d   1       1.443   1.133  -0.193  0.00  0.00    -0.260 N 
ATOM      5  N   UNL d   1       1.199   0.468   0.955  0.00  0.00    -0.018 NA
ATOM      6  N   UNL d   1       0.701  -0.719   0.630  0.00  0.00    -0.282 N 
ATOM      7  C   UNL d   1       0.615  -0.787  -0.736  0.00  0.00     0.075 A 
ATOM      8  HN  UNL d   1       0.430  -1.453   1.284  1.00  0.00     0.184 HD
ATOM      9  C   UNL d   1       0.147  -1.812  -1.566  0.00  0.00     0.056 A 
ATOM     10  C   UNL d   1       1.088   0.399  -1.292  0.00  0.00     0.078 A 
ATOM     11  C   UNL d   1       0.171  -1.598  -2.946  0.00  0.00     0.036 A 
ATOM     12 CL   UNL d   1      -0.397  -2.837  -4.000  0.00  0.00    -0.084 Cl
ATOM     13  C   UNL d   1       0.643  -0.400  -3.492  0.00  0.00     0.026 A 
ATOM     14  C   UNL d   1       1.111   0.633  -2.673  0.00  0.00     0.035 A 
ENDBRANCH   3   4
ENDBRANCH   1   3
BRANCH   1  15
ATOM     15  C   UNL d   1       1.206   4.855   0.047  0.00  0.00     0.009 A 
ATOM     16  C   UNL d   1       2.369   5.425  -0.477  0.00  0.00     0.026 A 
ATOM     17  C   UNL d   1       2.580   6.808  -0.419  0.00  0.00     0.039 A 
ATOM     18  C   UNL d   1       1.623   7.662   0.134  0.00  0.00     0.078 A 
ATOM     19  C   UNL d   1       0.468   7.109   0.673  0.00  0.00     0.039 A 
ATOM     20  C   UNL d   1       0.253   5.726   0.597  0.00  0.00     0.026 A 
BRANCH  18  21
ATOM     21  O   UNL d   1       1.953   8.980   0.093  0.00  0.00    -0.255 OA
BRANCH  21  22
ATOM     22  C   UNL d   1       0.931   9.966   0.109  0.00  0.00     0.530 C 
ATOM     23  F   UNL d   1      -0.296   9.495  -0.193  0.00  0.00    -0.144 F 
ATOM     24  F   UNL d   1       0.890  10.557   1.323  0.00  0.00    -0.144 F 
ATOM     25  F   UNL d   1       1.242  10.912  -0.807  0.00  0.00    -0.144 F 
ENDBRANCH  21  22
ENDBRANCH  18  21
ENDBRANCH   1  15
TORSDOF 5
