REMARK  2 active torsions:
REMARK  status: ('A' for Active; 'I' for Inactive)
REMARK    1  A    between atoms: C_13  and  C_3 
REMARK    2  A    between atoms: C_8  and  C_7 
ROOT
ATOM      1  N   UNL d   1       1.537  -0.089   0.011  0.00  0.00    -0.331 N 
ATOM      2  HN  UNL d   1       2.477  -0.484   0.014  1.00  0.00     0.168 HD
ATOM      3  C   UNL d   1       1.185   1.155  -0.010  0.00  0.00     0.162 A 
ATOM      4  C   UNL d   1       0.327  -0.749   0.028  0.00  0.00     0.113 A 
ATOM      5  O   UNL d   1      -0.134   1.437   0.008  0.00  0.00    -0.256 OA
ATOM      6  C   UNL d   1      -0.790   0.248   0.052  0.00  0.00     0.316 A 
ATOM      7  C   UNL d   1       0.241  -2.085   0.048  0.00  0.00     0.073 C 
ATOM      8  O   UNL d   1      -1.994   0.121   0.147  0.00  0.00    -0.257 OA
ENDROOT
BRANCH   7   9
ATOM      9  C   UNL d   1      -0.976  -2.811   0.022  0.00  0.00     0.078 A 
ATOM     10  O   UNL d   1      -2.086  -2.426  -0.690  0.00  0.00    -0.316 OA
ATOM     11  C   UNL d   1      -3.074  -3.333  -0.487  0.00  0.00     0.050 A 
ATOM     12  C   UNL d   1      -4.367  -3.052  -1.141  0.00  0.00     0.076 C 
ATOM     13  C   UNL d   1      -2.618  -4.349   0.317  0.00  0.00     0.035 A 
ATOM     14  C   UNL d   1      -1.276  -4.025   0.629  0.00  0.00     0.040 A 
ENDBRANCH   7   9
BRANCH   3  15
ATOM     15  C   UNL d   1       2.054   2.338  -0.073  0.00  0.00     0.015 A 
ATOM     16  C   UNL d   1       3.439   2.167  -0.141  0.00  0.00     0.016 A 
ATOM     17  C   UNL d   1       4.271   3.280  -0.277  0.00  0.00     0.001 A 
ATOM     18  C   UNL d   1       3.720   4.561  -0.340  0.00  0.00     0.000 A 
ATOM     19  C   UNL d   1       2.341   4.736  -0.248  0.00  0.00     0.001 A 
ATOM     20  C   UNL d   1       1.507   3.628  -0.110  0.00  0.00     0.016 A 
ENDBRANCH   3  15
TORSDOF 2
