REMARK  7 active torsions:
REMARK  status: ('A' for Active; 'I' for Inactive)
REMARK    1  A    between atoms: N_7  and  S_1 
REMARK    2  A    between atoms: C_9  and  S_1 
REMARK    3  A    between atoms: C_2  and  N_7 
REMARK    4  A    between atoms: C_10  and  C_3 
REMARK    5  A    between atoms: C_14  and  C_6 
REMARK    6  A    between atoms: C_8  and  O_13 
REMARK    7  A    between atoms: O_13  and  C_21 
ROOT
ATOM      1  N   UNL d   1       0.600   1.375   0.780  0.00  0.00    -0.180 NA
ATOM      2  H   UNL d   1      -0.233   1.904   0.508  0.00  0.00     0.146 HD
ENDROOT
BRANCH   1   3
ATOM      3  C   UNL d   1       0.942   1.602   2.141  0.00  0.00     0.045 A 
ATOM      4  C   UNL d   1       2.201   1.521   2.715  0.00  0.00     0.073 A 
ATOM      5  S   UNL d   1       2.136   1.875   4.386  0.00  0.00    -0.084 SA
ATOM      6  C   UNL d   1       0.449   2.142   4.381  0.00  0.00     0.017 A 
ATOM      7  C   UNL d   1      -0.055   1.972   3.104  0.00  0.00     0.045 A 
BRANCH   4   8
ATOM      8  C   UNL d   1       3.484   1.247   2.078  0.00  0.00     0.164 C 
ATOM      9  O   UNL d   1       3.666   1.393   0.863  0.00  0.00    -0.292 OA
ATOM     10  C   UNL d   1       4.673   0.825   2.917  0.00  0.00     0.097 C 
ENDBRANCH   4   8
BRANCH   6  11
ATOM     11  C   UNL d   1      -0.252   2.462   5.639  0.00  0.00    -0.019 A 
ATOM     12  C   UNL d   1      -1.570   2.028   5.849  0.00  0.00     0.013 A 
ATOM     13  C   UNL d   1      -2.227   2.287   7.057  0.00  0.00     0.001 A 
ATOM     14  C   UNL d   1      -1.579   2.984   8.074  0.00  0.00     0.000 A 
ATOM     15  C   UNL d   1      -0.278   3.436   7.880  0.00  0.00     0.001 A 
ATOM     16  C   UNL d   1       0.375   3.184   6.671  0.00  0.00     0.013 A 
ENDBRANCH   6  11
ENDBRANCH   1   3
BRANCH   1  17
ATOM     17  S   UNL d   1       0.213  -0.241   0.353  0.00  0.00     0.245 S 
ATOM     18  O   UNL d   1      -1.235  -0.300   0.384  0.00  0.00    -0.206 OA
ATOM     19  O   UNL d   1       1.032  -1.162   1.113  0.00  0.00    -0.206 OA
BRANCH  17  20
ATOM     20  C   UNL d   1       0.724  -0.347  -1.344  0.00  0.00     0.075 A 
ATOM     21  C   UNL d   1       2.051  -0.076  -1.680  0.00  0.00     0.027 A 
ATOM     22  C   UNL d   1       2.494  -0.244  -2.997  0.00  0.00     0.038 A 
ATOM     23  C   UNL d   1       1.622  -0.733  -3.970  0.00  0.00     0.078 A 
ATOM     24  C   UNL d   1       0.277  -0.948  -3.639  0.00  0.00     0.038 A 
ATOM     25  C   UNL d   1      -0.174  -0.761  -2.328  0.00  0.00     0.027 A 
BRANCH  23  26
ATOM     26  O   UNL d   1       1.946  -1.010  -5.262  0.00  0.00    -0.255 OA
BRANCH  26  27
ATOM     27  C   UNL d   1       3.271  -1.427  -5.572  0.00  0.00     0.530 C 
ATOM     28  F   UNL d   1       4.003  -1.787  -4.498  0.00  0.00    -0.144 F 
ATOM     29  F   UNL d   1       3.199  -2.500  -6.394  0.00  0.00    -0.144 F 
ATOM     30  F   UNL d   1       3.913  -0.438  -6.229  0.00  0.00    -0.144 F 
ENDBRANCH  26  27
ENDBRANCH  23  26
ENDBRANCH  17  20
ENDBRANCH   1  17
TORSDOF 7
