REMARK  2 active torsions:
REMARK  status: ('A' for Active; 'I' for Inactive)
REMARK    1  A    between atoms: C_2  and  C_1 
REMARK    2  A    between atoms: O_8  and  C_2 
ROOT
ATOM      1  C   UNL d   1       0.982   0.028  -0.092  0.00  0.00     0.122 C 
ATOM      2  C   UNL d   1       0.293   1.273  -0.014  0.00  0.00     0.106 C 
ATOM      3  C   UNL d   1       2.338  -0.011  -0.084  0.00  0.00    -0.043 C 
ATOM      4  N   UNL d   1      -0.234   2.307   0.050  0.00  0.00    -0.191 NA
ATOM      5  S   UNL d   1       4.855  -0.723  -0.666  0.00  0.00    -0.164 SA
ATOM      6  C   UNL d   1       3.183  -1.259  -0.180  0.00  0.00     0.109 C 
ATOM      7  C   UNL d   1       3.218   1.223  -0.005  0.00  0.00     0.047 C 
ATOM      8  C   UNL d   1       4.401   1.002  -0.930  0.00  0.00     0.078 C 
ENDROOT
BRANCH   1   9
ATOM      9  C   UNL d   1       0.147  -1.212  -0.145  0.00  0.00     0.303 C 
ATOM     10  O   UNL d   1       0.583  -2.352  -0.159  0.00  0.00    -0.258 OA
BRANCH   9  11
ATOM     11  O   UNL d   1      -1.171  -0.884  -0.165  0.00  0.00    -0.322 OA
ATOM     12  C   UNL d   1      -2.077  -1.990  -0.195  0.00  0.00     0.213 C 
ENDBRANCH   9  11
ENDBRANCH   1   9
TORSDOF 2
