REMARK  3 active torsions:
REMARK  status: ('A' for Active; 'I' for Inactive)
REMARK    1  A    between atoms: N_3  and  S_1 
REMARK    2  A    between atoms: C_5  and  S_1 
REMARK    3  A    between atoms: C_6  and  N_3 
ROOT
ATOM      1  S   UNL d   1       1.001  -0.117   0.033  0.00  0.00     0.259 S 
ATOM      2  O   UNL d   1       2.220  -0.215   0.807  0.00  0.00    -0.201 OA
ATOM      3  O   UNL d   1       0.927  -0.491  -1.360  0.00  0.00    -0.201 OA
ENDROOT
BRANCH   1   4
ATOM      4  N   UNL d   1       0.436   1.475   0.153  0.00  0.00    -0.310 N 
ATOM      5  H   UNL d   1      -0.511   1.581  -0.213  0.00  0.00     0.172 HD
BRANCH   4   6
ATOM      6  C   UNL d   1       0.817   2.291   1.319  0.00  0.00     0.108 C 
ATOM      7  C   UNL d   1       0.300   1.752   2.640  0.00  0.00     0.166 C 
ATOM      8  S   UNL d   1       0.465   3.124   3.756  0.00  0.00     0.146 S 
ATOM      9  O   UNL d   1       1.779   3.065   4.359  0.00  0.00    -0.228 OA
ATOM     10  O   UNL d   1      -0.747   3.225   4.540  0.00  0.00    -0.228 OA
ATOM     11  C   UNL d   1       0.469   4.406   2.511  0.00  0.00     0.142 C 
ATOM     12  C   UNL d   1       0.210   3.695   1.187  0.00  0.00     0.041 C 
ENDBRANCH   4   6
ENDBRANCH   1   4
BRANCH   1  13
ATOM     13  C   UNL d   1      -0.275  -1.029   0.871  0.00  0.00     0.079 A 
ATOM     14  C   UNL d   1      -1.549  -1.086   0.291  0.00  0.00     0.027 A 
ATOM     15  C   UNL d   1      -2.567  -1.794   0.931  0.00  0.00     0.025 A 
ATOM     16  C   UNL d   1      -2.304  -2.449   2.135  0.00  0.00     0.034 A 
ATOM     17  C   UNL d   1      -1.029  -2.409   2.703  0.00  0.00     0.025 A 
ATOM     18 CL   UNL d   1      -3.562  -3.322   2.918  0.00  0.00    -0.084 Cl
ATOM     19  C   UNL d   1      -0.005  -1.702   2.067  0.00  0.00     0.027 A 
ENDBRANCH   1  13
TORSDOF 3
