REMARK  7 active torsions:
REMARK  status: ('A' for Active; 'I' for Inactive)
REMARK    1  A    between atoms: C_3  and  C_1 
REMARK    2  A    between atoms: N_4  and  C_2 
REMARK       I    between atoms: N_5  and  C_3 
REMARK       I    between atoms: C_6  and  N_4 
REMARK    3  A    between atoms: C_17  and  N_5 
REMARK    4  A    between atoms: C_18  and  C_6 
REMARK    5  A    between atoms: C_8  and  C_17 
REMARK    6  A    between atoms: S_15  and  C_18 
REMARK    7  A    between atoms: C_20  and  S_15 
ROOT
ATOM      1  C   UNL d   1       1.859   1.368   0.064  0.00  0.00     0.060 A 
ATOM      2  C   UNL d   1       2.618   0.230   0.403  0.00  0.00     0.050 A 
ATOM      3  C   UNL d   1       0.476   1.265  -0.166  0.00  0.00     0.043 A 
ATOM      4  C   UNL d   1       1.970  -1.012   0.429  0.00  0.00     0.032 A 
ATOM      5  C   UNL d   1      -0.143   0.021  -0.116  0.00  0.00     0.035 A 
ATOM      6  C   UNL d   1       0.600  -1.118   0.163  0.00  0.00     0.026 A 
ATOM      7 CL   UNL d   1      -1.831  -0.101  -0.419  0.00  0.00    -0.084 Cl
ENDROOT
BRANCH   2   8
ATOM      8  N   UNL d   1       3.985   0.361   0.756  0.00  0.00    -0.326 N 
ATOM      9  C   UNL d   1       4.933  -0.649   0.757  0.00  0.00     0.231 C 
ATOM     10  O   UNL d   1       4.787  -1.740   0.205  0.00  0.00    -0.272 OA
ATOM     11  H   UNL d   1       4.294   1.309   0.983  0.00  0.00     0.169 HD
BRANCH   9  12
ATOM     12  C   UNL d   1       6.249  -0.299   1.445  0.00  0.00     0.182 C 
BRANCH  12  13
ATOM     13  S   UNL d   1       5.952  -0.030   3.227  0.00  0.00    -0.121 SA
BRANCH  13  14
ATOM     14  C   UNL d   1       7.585   0.275   3.886  0.00  0.00     0.001 A 
ATOM     15  C   UNL d   1       7.671   1.138   4.990  0.00  0.00     0.020 A 
ATOM     16  C   UNL d   1       8.894   1.375   5.627  0.00  0.00     0.025 A 
ATOM     17  C   UNL d   1      10.043   0.742   5.167  0.00  0.00     0.034 A 
ATOM     18  C   UNL d   1       9.977  -0.119   4.073  0.00  0.00     0.025 A 
ATOM     19 CL   UNL d   1      11.544   1.007   5.964  0.00  0.00    -0.084 Cl
ATOM     20  C   UNL d   1       8.751  -0.354   3.436  0.00  0.00     0.020 A 
ENDBRANCH  13  14
ENDBRANCH  12  13
ENDBRANCH   9  12
ENDBRANCH   2   8
BRANCH   1  21
ATOM     21  C   UNL d   1       2.519   2.688  -0.157  0.00  0.00     0.254 C 
ATOM     22  N   UNL d   1       2.016   3.413  -1.214  0.00  0.00    -0.352 N 
ATOM     23  H   UNL d   1       1.424   2.942  -1.888  0.00  0.00     0.163 HD
ATOM     24  O   UNL d   1       3.472   3.031   0.526  0.00  0.00    -0.268 OA
BRANCH  22  25
ATOM     25  C   UNL d   1       2.643   4.635  -1.662  0.00  0.00     0.169 C 
BRANCH  25  26
ATOM     26  C   UNL d   1       1.802   5.210  -2.760  0.00  0.00     0.000 A 
ATOM     27  S   UNL d   1       2.122   4.804  -4.396  0.00  0.00    -0.105 SA
ATOM     28  C   UNL d   1       0.836   5.778  -4.959  0.00  0.00     0.050 A 
ATOM     29  C   UNL d   1       0.163   6.393  -3.929  0.00  0.00     0.008 A 
ATOM     30  C   UNL d   1       0.718   6.061  -2.657  0.00  0.00     0.017 A 
ENDBRANCH  25  26
ENDBRANCH  22  25
ENDBRANCH   1  21
TORSDOF 7
