REMARK  4 active torsions:
REMARK  status: ('A' for Active; 'I' for Inactive)
REMARK    1  A    between atoms: S_8  and  C_2 
REMARK    2  A    between atoms: C_12  and  S_8 
REMARK    3  A    between atoms: C_9  and  C_12 
REMARK       I    between atoms: N_10  and  C_9 
REMARK    4  A    between atoms: C_13  and  N_10 
ROOT
ATOM      1  C   UNL d   1       2.624   4.340  -0.392  0.00  0.00     0.231 C 
ATOM      2  N   UNL d   1       1.688   5.309  -0.065  0.00  0.00    -0.327 N 
ATOM      3  O   UNL d   1       3.780   4.568  -0.757  0.00  0.00    -0.272 OA
ATOM      4  H   UNL d   1       0.813   4.975   0.327  0.00  0.00     0.169 HD
ENDROOT
BRANCH   1   5
ATOM      5  C   UNL d   1       2.198   2.902  -0.158  0.00  0.00     0.185 C 
BRANCH   5   6
ATOM      6  S   UNL d   1       0.506   2.542  -0.723  0.00  0.00    -0.083 SA
BRANCH   6   7
ATOM      7  C   UNL d   1       0.477   0.840  -0.399  0.00  0.00     0.162 A 
ATOM      8  N   UNL d   1      -0.519  -0.012  -0.778  0.00  0.00    -0.326 N 
ATOM      9  C   UNL d   1      -0.163  -1.233  -0.281  0.00  0.00     0.201 A 
ATOM     10  C   UNL d   1      -1.709   0.249  -1.540  0.00  0.00     0.159 C 
ATOM     11  N   UNL d   1       0.990  -1.140   0.339  0.00  0.00    -0.294 N 
ATOM     12  N   UNL d   1       1.395   0.172   0.262  0.00  0.00    -0.279 N 
ATOM     13  HN  UNL d   1       1.493  -1.901   0.795  1.00  0.00     0.187 HD
ATOM     14  HN  UNL d   1       2.256   0.558   0.649  1.00  0.00     0.189 HD
ENDBRANCH   6   7
ENDBRANCH   5   6
ENDBRANCH   1   5
BRANCH   2  15
ATOM     15  C   UNL d   1       1.831   6.705  -0.220  0.00  0.00     0.034 A 
ATOM     16  C   UNL d   1       2.924   7.305  -0.859  0.00  0.00     0.031 A 
ATOM     17  C   UNL d   1       3.002   8.693  -1.002  0.00  0.00     0.021 A 
ATOM     18  C   UNL d   1       1.986   9.499  -0.503  0.00  0.00     0.011 A 
ATOM     19  C   UNL d   1       0.893   8.926   0.141  0.00  0.00     0.021 A 
ATOM     20 BR   UNL d   1       2.089  11.375  -0.710  0.00  0.00    -0.051 Br
ATOM     21  C   UNL d   1       0.816   7.532   0.277  0.00  0.00     0.031 A 
ENDBRANCH   2  15
TORSDOF 4
