REMARK  8 active torsions:
REMARK  status: ('A' for Active; 'I' for Inactive)
REMARK    1  A    between atoms: C_7  and  C_1 
REMARK    2  A    between atoms: O_11  and  C_1 
REMARK    3  A    between atoms: C_2  and  C_6 
REMARK    4  A    between atoms: O_10  and  C_2 
REMARK    5  A    between atoms: C_5  and  S_8 
REMARK    6  A    between atoms: S_9  and  C_5 
REMARK    7  A    between atoms: C_6  and  S_9 
REMARK    8  A    between atoms: S_8  and  C_7 
ROOT
ATOM      1  C   UNL d   1       2.326  -2.973  -0.588  0.00  0.00     0.149 C 
ENDROOT
BRANCH   1   2
ATOM      2  S   UNL d   1       0.522  -2.752  -0.399  0.00  0.00    -0.144 SA
BRANCH   2   3
ATOM      3  C   UNL d   1       0.352  -0.945  -0.710  0.00  0.00     0.141 C 
ATOM      4  C   UNL d   1       1.105  -0.120   0.326  0.00  0.00     0.032 C 
BRANCH   3   5
ATOM      5  C   UNL d   1       0.754  -0.589  -2.137  0.00  0.00     0.153 C 
ATOM      6  O   UNL d   1       1.245   0.479  -2.470  0.00  0.00    -0.649 OA
BRANCH   5   7
ATOM      7  O   UNL d   1       0.470  -1.557  -3.043  0.00  0.00    -0.776 OA
ATOM      8  H   UNL d   1       0.077  -2.348  -2.616  0.00  0.00     0.167 HD
ENDBRANCH   5   7
ENDBRANCH   3   5
ENDBRANCH   2   3
ENDBRANCH   1   2
BRANCH   1   9
ATOM      9  S   UNL d   1       2.701  -4.715  -0.184  0.00  0.00    -0.144 SA
BRANCH   9  10
ATOM     10  C   UNL d   1       4.513  -4.730  -0.487  0.00  0.00     0.141 C 
ATOM     11  C   UNL d   1       5.027  -6.149  -0.282  0.00  0.00     0.032 C 
BRANCH  10  12
ATOM     12  C   UNL d   1       5.252  -3.788   0.452  0.00  0.00     0.153 C 
ATOM     13  O   UNL d   1       6.307  -3.243   0.168  0.00  0.00    -0.649 OA
BRANCH  12  14
ATOM     14  O   UNL d   1       4.661  -3.626   1.661  0.00  0.00    -0.776 OA
ATOM     15  H   UNL d   1       3.829  -4.142   1.727  0.00  0.00     0.167 HD
ENDBRANCH  12  14
ENDBRANCH  10  12
ENDBRANCH   9  10
ENDBRANCH   1   9
TORSDOF 8
