REMARK  3 active torsions:
REMARK  status: ('A' for Active; 'I' for Inactive)
REMARK    1  A    between atoms: N_2  and  C_1 
REMARK    2  A    between atoms: N_5  and  N_2 
REMARK       I    between atoms: C_3  and  N_5 
REMARK    3  A    between atoms: C_4  and  C_3 
ROOT
ATOM      1  C   UNL d   1      -1.104   4.270  -0.088  0.00  0.00     0.266 C 
ATOM      2  N   UNL d   1      -1.126   2.902  -0.298  0.00  0.00    -0.283 N 
ATOM      3  O   UNL d   1      -0.216   4.856   0.524  0.00  0.00    -0.266 OA
ATOM      4  H   UNL d   1      -2.008   2.426  -0.477  0.00  0.00     0.184 HD
ENDROOT
BRANCH   2   5
ATOM      5  N   UNL d   1      -0.167   2.133   0.378  0.00  0.00    -0.200 NA
ATOM      6  H   UNL d   1       0.637   2.722   0.648  0.00  0.00     0.153 HD
BRANCH   5   7
ATOM      7  C   UNL d   1       0.276   0.973  -0.332  0.00  0.00     0.071 A 
ATOM      8  C   UNL d   1       1.632   0.583  -0.217  0.00  0.00     0.058 A 
ATOM      9 CL   UNL d   1       2.768   1.579   0.632  0.00  0.00    -0.082 Cl
ATOM     10  C   UNL d   1       2.114  -0.602  -0.785  0.00  0.00     0.026 A 
ATOM     11  C   UNL d   1       1.251  -1.445  -1.476  0.00  0.00     0.003 A 
ATOM     12  C   UNL d   1      -0.092  -1.100  -1.594  0.00  0.00     0.026 A 
ATOM     13  C   UNL d   1      -0.582   0.084  -1.021  0.00  0.00     0.058 A 
ATOM     14 CL   UNL d   1      -2.292   0.342  -1.177  0.00  0.00    -0.082 Cl
ENDBRANCH   5   7
ENDBRANCH   2   5
BRANCH   1  15
ATOM     15  C   UNL d   1      -2.257   5.020  -0.650  0.00  0.00     0.036 A 
ATOM     16  C   UNL d   1      -2.706   6.170   0.009  0.00  0.00     0.041 A 
ATOM     17  C   UNL d   1      -3.771   6.895  -0.525  0.00  0.00     0.036 A 
ATOM     18 CL   UNL d   1      -4.340   8.302   0.288  0.00  0.00    -0.084 Cl
ATOM     19  C   UNL d   1      -4.382   6.496  -1.712  0.00  0.00     0.047 A 
ATOM     20  C   UNL d   1      -3.919   5.358  -2.368  0.00  0.00     0.036 A 
ATOM     21  C   UNL d   1      -2.862   4.614  -1.846  0.00  0.00     0.041 A 
ATOM     22 CL   UNL d   1      -4.649   4.868  -3.847  0.00  0.00    -0.084 Cl
ENDBRANCH   1  15
TORSDOF 3
