REMARK  8 active torsions:
REMARK  status: ('A' for Active; 'I' for Inactive)
REMARK    1  A    between atoms: S_11  and  C_3 
REMARK    2  A    between atoms: C_4  and  C_10 
REMARK    3  A    between atoms: N_5  and  C_12 
REMARK    4  A    between atoms: S_15  and  C_7 
REMARK    5  A    between atoms: O_20  and  C_8 
REMARK    6  A    between atoms: O_21  and  C_9 
REMARK    7  A    between atoms: C_19  and  S_11 
REMARK    8  A    between atoms: C_23  and  S_15 
ROOT
ATOM      1  N   UNL d   1      -1.232  -0.046   0.037  0.00  0.00    -0.343 N 
ATOM      2  HN  UNL d   1      -2.250  -0.027  -0.029  1.00  0.00     0.167 HD
ATOM      3  C   UNL d   1      -0.515   1.101   0.169  0.00  0.00     0.102 A 
ATOM      4  C   UNL d   1      -0.551  -1.209  -0.002  0.00  0.00     0.075 A 
ATOM      5  C   UNL d   1       0.891   1.143   0.272  0.00  0.00     0.066 A 
ATOM      6  C   UNL d   1       1.554  -0.087   0.223  0.00  0.00     0.035 A 
ATOM      7  C   UNL d   1       0.833  -1.271   0.067  0.00  0.00     0.039 A 
ENDROOT
BRANCH   5   8
ATOM      8  N   UNL d   1       1.568   2.367   0.490  0.00  0.00    -0.363 N 
ATOM      9  C   UNL d   1       2.738   2.579  -0.022  0.00  0.00     0.102 C 
ATOM     10  HN  UNL d   1       1.128   3.091   1.057  1.00  0.00     0.165 HD
BRANCH   9  11
ATOM     11  C   UNL d   1       3.419   3.884   0.152  0.00  0.00     0.017 A 
ATOM     12  C   UNL d   1       2.811   4.972   0.812  0.00  0.00     0.110 A 
ATOM     13  C   UNL d   1       3.475   6.205   0.878  0.00  0.00     0.103 A 
ATOM     14  C   UNL d   1       4.744   6.327   0.294  0.00  0.00     0.058 A 
ATOM     15  C   UNL d   1       5.345   5.241  -0.339  0.00  0.00     0.014 A 
ATOM     16  C   UNL d   1       4.691   4.016  -0.414  0.00  0.00     0.034 A 
ATOM     17 BR   UNL d   1       7.054   5.440  -1.123  0.00  0.00    -0.051 Br
BRANCH  12  18
ATOM     18  O   UNL d   1       1.573   4.831   1.383  0.00  0.00    -0.357 OA
ATOM     19  H   UNL d   1       1.242   3.923   1.199  0.00  0.00     0.217 HD
ENDBRANCH  12  18
BRANCH  13  20
ATOM     20  O   UNL d   1       3.049   7.377   1.446  0.00  0.00    -0.353 OA
ATOM     21  C   UNL d   1       1.758   7.415   2.038  0.00  0.00     0.210 C 
ENDBRANCH  13  20
ENDBRANCH   9  11
ENDBRANCH   5   8
BRANCH   3  22
ATOM     22  S   UNL d   1      -1.482   2.603   0.116  0.00  0.00    -0.070 SA
BRANCH  22  23
ATOM     23  C   UNL d   1      -2.038   2.866   1.792  0.00  0.00     0.007 A 
ATOM     24  C   UNL d   1      -1.650   2.099   2.895  0.00  0.00     0.019 A 
ATOM     25  C   UNL d   1      -2.122   2.402   4.178  0.00  0.00     0.001 A 
ATOM     26  C   UNL d   1      -2.988   3.477   4.372  0.00  0.00     0.000 A 
ATOM     27  C   UNL d   1      -3.389   4.245   3.285  0.00  0.00     0.001 A 
ATOM     28  C   UNL d   1      -2.916   3.942   2.005  0.00  0.00     0.019 A 
ENDBRANCH  22  23
ENDBRANCH   3  22
BRANCH   4  29
ATOM     29  S   UNL d   1      -1.506  -2.702  -0.163  0.00  0.00    -0.073 SA
BRANCH  29  30
ATOM     30  C   UNL d   1      -1.689  -3.173   1.550  0.00  0.00     0.007 A 
ATOM     31  C   UNL d   1      -2.307  -2.324   2.477  0.00  0.00     0.019 A 
ATOM     32  C   UNL d   1      -2.462  -2.728   3.806  0.00  0.00     0.001 A 
ATOM     33  C   UNL d   1      -2.009  -3.980   4.214  0.00  0.00     0.000 A 
ATOM     34  C   UNL d   1      -1.403  -4.834   3.295  0.00  0.00     0.001 A 
ATOM     35  C   UNL d   1      -1.245  -4.434   1.966  0.00  0.00     0.019 A 
ENDBRANCH  29  30
ENDBRANCH   4  29
TORSDOF 8
