REMARK  4 active torsions:
REMARK  status: ('A' for Active; 'I' for Inactive)
REMARK    1  A    between atoms: C_16  and  C_1 
REMARK    2  A    between atoms: C_2  and  C_14 
REMARK    3  A    between atoms: O_17  and  C_6 
REMARK    4  A    between atoms: N_10  and  C_16 
ROOT
ATOM      1  N   UNL d   1      -0.344  -3.776  -0.322  0.00  0.00    -0.394 N 
ATOM      2  HN  UNL d   1      -0.863  -3.543  -1.168  1.00  0.00     0.159 HD
ATOM      3  C   UNL d   1      -0.823  -4.573   0.568  0.00  0.00     0.097 C 
ENDROOT
BRANCH   1   4
ATOM      4  C   UNL d   1       0.988  -3.220  -0.054  0.00  0.00     0.159 C 
BRANCH   4   5
ATOM      5  C   UNL d   1       0.893  -1.714  -0.041  0.00  0.00    -0.022 A 
ATOM      6  C   UNL d   1      -0.024  -0.997  -0.789  0.00  0.00     0.060 A 
ATOM      7  S   UNL d   1       0.066   0.680  -0.546  0.00  0.00    -0.101 SA
ATOM      8  C   UNL d   1       1.373   0.517   0.557  0.00  0.00     0.015 A 
ATOM      9  C   UNL d   1       1.737  -0.823   0.735  0.00  0.00    -0.011 A 
ATOM     10  C   UNL d   1       2.034   1.567   1.227  0.00  0.00     0.019 A 
ATOM     11  C   UNL d   1       2.821  -1.093   1.611  0.00  0.00     0.013 A 
ATOM     12  C   UNL d   1       3.486  -0.053   2.272  0.00  0.00     0.001 A 
ATOM     13  C   UNL d   1       3.091   1.264   2.084  0.00  0.00     0.001 A 
ENDBRANCH   4   5
ENDBRANCH   1   4
BRANCH   3  14
ATOM     14  C   UNL d   1      -2.219  -5.055   0.471  0.00  0.00     0.015 A 
ATOM     15  C   UNL d   1      -2.743  -5.923   1.436  0.00  0.00     0.093 A 
ATOM     16  C   UNL d   1      -4.092  -6.294   1.371  0.00  0.00     0.041 A 
ATOM     17  I   UNL d   1      -4.935  -7.569   2.799  0.00  0.00    -0.042 I 
ATOM     18  C   UNL d   1      -4.916  -5.804   0.354  0.00  0.00     0.039 A 
ATOM     19  C   UNL d   1      -4.383  -4.945  -0.607  0.00  0.00     0.008 A 
ATOM     20  C   UNL d   1      -3.041  -4.572  -0.557  0.00  0.00     0.033 A 
ATOM     21  I   UNL d   1      -5.606  -4.191  -2.110  0.00  0.00    -0.045 I 
BRANCH  15  22
ATOM     22  O   UNL d   1      -1.925  -6.382   2.434  0.00  0.00    -0.358 OA
ATOM     23  H   UNL d   1      -2.459  -6.953   3.018  0.00  0.00     0.217 HD
ENDBRANCH  15  22
ENDBRANCH   3  14
TORSDOF 4
