REMARK  5 active torsions:
REMARK  status: ('A' for Active; 'I' for Inactive)
REMARK    1  A    between atoms: C_7  and  C_1 
REMARK    2  A    between atoms: C_2  and  C_5 
REMARK    3  A    between atoms: C_3  and  C_4 
REMARK    4  A    between atoms: C_14  and  C_9 
REMARK    5  A    between atoms: O_23  and  N_15 
ROOT
ATOM      1  C   UNL d   1      -0.401   4.663  -1.071  0.00  0.00     0.049 A 
ATOM      2  C   UNL d   1      -1.506   4.408   1.086  0.00  0.00     0.049 A 
ATOM      3  C   UNL d   1      -0.503   2.457  -0.013  0.00  0.00    -0.001 A 
ATOM      4  C   UNL d   1      -1.101   5.213   0.014  0.00  0.00     0.032 A 
ATOM      5  C   UNL d   1      -0.116   3.285  -1.076  0.00  0.00     0.030 A 
ATOM      6  C   UNL d   1      -1.215   3.033   1.051  0.00  0.00     0.030 A 
ENDROOT
BRANCH   3   7
ATOM      7  C   UNL d   1      -0.122   1.046   0.044  0.00  0.00     0.086 A 
ATOM      8  O   UNL d   1       0.763   0.603  -0.903  0.00  0.00    -0.309 OA
ATOM      9  C   UNL d   1       1.060  -0.698  -0.613  0.00  0.00     0.093 A 
ATOM     10  C   UNL d   1       0.353  -1.100   0.502  0.00  0.00     0.041 A 
ATOM     11  C   UNL d   1      -0.412   0.014   0.915  0.00  0.00     0.041 A 
BRANCH   9  12
ATOM     12  C   UNL d   1       2.011  -1.397  -1.430  0.00  0.00     0.151 C 
ATOM     13  N   UNL d   1       2.348  -2.618  -1.150  0.00  0.00    -0.278 N 
ATOM     14  HN  UNL d   1       1.982  -3.166  -0.371  1.00  0.00     0.193 HD
BRANCH  13  15
ATOM     15  O   UNL d   1       3.291  -3.066  -2.082  0.00  0.00    -0.290 OA
ATOM     16  H   UNL d   1       3.479  -3.972  -1.768  0.00  0.00     0.244 HD
ENDBRANCH  13  15
ENDBRANCH   9  12
ENDBRANCH   3   7
BRANCH   1  17
ATOM     17  C   UNL d   1       0.088   5.536  -2.204  0.00  0.00     0.417 C 
ATOM     18  F   UNL d   1      -0.202   6.856  -2.032  0.00  0.00    -0.166 F 
ATOM     19  F   UNL d   1       1.439   5.471  -2.361  0.00  0.00    -0.166 F 
ATOM     20  F   UNL d   1      -0.450   5.187  -3.404  0.00  0.00    -0.166 F 
ENDBRANCH   1  17
BRANCH   2  21
ATOM     21  C   UNL d   1      -2.202   4.993   2.292  0.00  0.00     0.417 C 
ATOM     22  F   UNL d   1      -2.314   6.349   2.251  0.00  0.00    -0.166 F 
ATOM     23  F   UNL d   1      -3.465   4.514   2.451  0.00  0.00    -0.166 F 
ATOM     24  F   UNL d   1      -1.545   4.709   3.451  0.00  0.00    -0.166 F 
ENDBRANCH   2  21
TORSDOF 5
