REMARK  5 active torsions:
REMARK  status: ('A' for Active; 'I' for Inactive)
REMARK    1  A    between atoms: C_2  and  S_1 
REMARK    2  A    between atoms: N_3  and  S_1 
REMARK    3  A    between atoms: C_7  and  N_3 
REMARK    4  A    between atoms: O_14  and  C_8 
REMARK    5  A    between atoms: O_15  and  C_12 
ROOT
ATOM      1  C   UNL d   1       0.391  -0.283  -1.701  0.00  0.00     0.115 A 
ATOM      2  C   UNL d   1       0.370  -1.571  -2.270  0.00  0.00     0.065 A 
ATOM      3  C   UNL d   1      -0.062   0.827  -2.421  0.00  0.00     0.091 A 
ATOM      4  C   UNL d   1      -0.519   0.626  -3.730  0.00  0.00     0.041 A 
ATOM      5  C   UNL d   1      -0.104  -1.761  -3.564  0.00  0.00     0.069 A 
ATOM      6  C   UNL d   1      -0.547  -0.657  -4.288  0.00  0.00     0.039 A 
ENDROOT
BRANCH   1   7
ATOM      7  S   UNL d   1       0.950  -0.169  -0.016  0.00  0.00     0.262 S 
ATOM      8  O   UNL d   1       0.773  -1.470   0.598  0.00  0.00    -0.200 OA
ATOM      9  O   UNL d   1       0.407   1.012   0.621  0.00  0.00    -0.200 OA
BRANCH   7  10
ATOM     10  N   UNL d   1       2.597   0.100  -0.220  0.00  0.00    -0.311 N 
ATOM     11  H   UNL d   1       2.941   0.969   0.183  0.00  0.00     0.172 HD
BRANCH  10  12
ATOM     12  C   UNL d   1       3.485  -1.026  -0.467  0.00  0.00     0.093 A 
ATOM     13  C   UNL d   1       4.977  -0.850  -0.468  0.00  0.00     0.028 A 
ATOM     14  C   UNL d   1       4.252  -1.094  -1.757  0.00  0.00     0.028 A 
ENDBRANCH  10  12
ENDBRANCH   7  10
ENDBRANCH   1   7
BRANCH   3  15
ATOM     15  O   UNL d   1       0.012   2.062  -1.846  0.00  0.00    -0.354 OA
ATOM     16  C   UNL d   1      -0.865   3.063  -2.354  0.00  0.00     0.210 C 
ENDBRANCH   3  15
BRANCH   5  17
ATOM     17  O   UNL d   1      -0.187  -2.956  -4.222  0.00  0.00    -0.356 OA
ATOM     18  C   UNL d   1       0.243  -4.112  -3.512  0.00  0.00     0.210 C 
ENDBRANCH   5  17
TORSDOF 5
