REMARK  3 active torsions:
REMARK  status: ('A' for Active; 'I' for Inactive)
REMARK    1  A    between atoms: C_2  and  C_1 
REMARK    2  A    between atoms: C_5  and  C_4 
REMARK    3  A    between atoms: O_14  and  C_5 
ROOT
ATOM      1  C   UNL d   1      -2.452  -1.741   0.076  0.00  0.00     0.038 C 
ATOM      2  C   UNL d   1      -2.990  -1.395  -1.347  0.00  0.00     0.096 C 
ATOM      3  C   UNL d   1      -3.926   0.197   0.840  0.00  0.00    -0.030 C 
ATOM      4  C   UNL d   1      -3.713   0.814  -0.328  0.00  0.00    -0.030 C 
ATOM      5  C   UNL d   1      -3.496  -1.222   1.109  0.00  0.00     0.037 C 
ATOM      6  C   UNL d   1      -3.099   0.131  -1.520  0.00  0.00     0.042 C 
ENDROOT
BRANCH   1   7
ATOM      7  C   UNL d   1      -0.992  -1.292   0.338  0.00  0.00    -0.031 A 
ATOM      8  C   UNL d   1       0.106  -1.800  -0.391  0.00  0.00     0.042 A 
ATOM      9  C   UNL d   1       1.424  -1.415  -0.096  0.00  0.00     0.048 A 
ATOM     10 CL   UNL d   1      -0.073  -2.982  -1.642  0.00  0.00    -0.084 Cl
ATOM     11  C   UNL d   1       1.679  -0.548   0.959  0.00  0.00     0.035 A 
ATOM     12  C   UNL d   1       0.628  -0.038   1.703  0.00  0.00     0.024 A 
ATOM     13 CL   UNL d   1       3.297  -0.129   1.363  0.00  0.00    -0.084 Cl
ATOM     14  C   UNL d   1      -0.687  -0.395   1.387  0.00  0.00     0.011 A 
ENDBRANCH   1   7
BRANCH   2  15
ATOM     15  C   UNL d   1      -4.347  -2.059  -1.621  0.00  0.00     0.144 C 
ATOM     16  O   UNL d   1      -5.364  -1.477  -1.964  0.00  0.00    -0.650 OA
BRANCH  15  17
ATOM     17  O   UNL d   1      -4.329  -3.408  -1.500  0.00  0.00    -0.776 OA
ATOM     18  H   UNL d   1      -3.458  -3.802  -1.316  0.00  0.00     0.167 HD
ENDBRANCH  15  17
ENDBRANCH   2  15
TORSDOF 3
