REMARK  6 active torsions:
REMARK  status: ('A' for Active; 'I' for Inactive)
REMARK    1  A    between atoms: C_3  and  C_1 
REMARK    2  A    between atoms: C_2  and  C_3 
REMARK       I    between atoms: N_6  and  C_2 
REMARK    3  A    between atoms: N_5  and  C_4 
REMARK       I    between atoms: C_7  and  N_5 
REMARK    4  A    between atoms: C_13  and  N_6 
REMARK    5  A    between atoms: O_22  and  C_15 
REMARK    6  A    between atoms: C_24  and  O_22 
ROOT
ATOM      1  C   UNL d   1       3.010  -2.630  -0.057  0.00  0.00     0.252 C 
ATOM      2  O   UNL d   1       2.973  -2.333   1.137  0.00  0.00    -0.281 OA
ENDROOT
BRANCH   1   3
ATOM      3  C   UNL d   1       4.348  -2.922  -0.728  0.00  0.00     0.297 C 
ATOM      4  N   UNL d   1       5.186  -3.712   0.027  0.00  0.00    -0.320 N 
ATOM      5  H   UNL d   1       4.982  -3.749   1.021  0.00  0.00     0.169 HD
ATOM      6  O   UNL d   1       4.554  -2.453  -1.838  0.00  0.00    -0.264 OA
BRANCH   4   7
ATOM      7  C   UNL d   1       6.450  -4.137  -0.418  0.00  0.00     0.035 A 
ATOM      8  C   UNL d   1       7.458  -4.293   0.530  0.00  0.00     0.032 A 
ATOM      9  C   UNL d   1       8.765  -4.587   0.124  0.00  0.00     0.039 A 
ATOM     10  C   UNL d   1       9.061  -4.780  -1.226  0.00  0.00     0.068 A 
ATOM     11  C   UNL d   1       8.031  -4.717  -2.163  0.00  0.00     0.039 A 
ATOM     12  C   UNL d   1       6.732  -4.384  -1.765  0.00  0.00     0.032 A 
BRANCH  10  13
ATOM     13  O   UNL d   1      10.304  -5.033  -1.740  0.00  0.00    -0.352 OA
BRANCH  13  14
ATOM     14  C   UNL d   1      11.402  -4.839  -0.848  0.00  0.00     0.171 C 
ATOM     15  C   UNL d   1      12.697  -5.017  -1.618  0.00  0.00     0.034 C 
ENDBRANCH  13  14
ENDBRANCH  10  13
ENDBRANCH   4   7
ENDBRANCH   1   3
BRANCH   1  16
ATOM     16  C   UNL d   1       1.798  -2.716  -0.902  0.00  0.00     0.048 A 
ATOM     17  C   UNL d   1       0.715  -1.837  -0.724  0.00  0.00     0.049 A 
ATOM     18  C   UNL d   1      -0.365  -1.925  -1.614  0.00  0.00     0.032 A 
ATOM     19  C   UNL d   1      -0.365  -2.842  -2.668  0.00  0.00     0.021 A 
ATOM     20  C   UNL d   1       0.716  -3.694  -2.841  0.00  0.00     0.012 A 
ATOM     21  C   UNL d   1       1.791  -3.645  -1.961  0.00  0.00     0.037 A 
ATOM     22 BR   UNL d   1       0.744  -4.909  -4.284  0.00  0.00    -0.051 Br
BRANCH  17  23
ATOM     23  N   UNL d   1       0.704  -0.899   0.337  0.00  0.00    -0.327 N 
ATOM     24  C   UNL d   1       0.033   0.310   0.300  0.00  0.00     0.218 C 
ATOM     25  O   UNL d   1      -0.493   0.804  -0.693  0.00  0.00    -0.274 OA
ATOM     26  C   UNL d   1      -0.047   1.006   1.632  0.00  0.00     0.117 C 
ATOM     27  H   UNL d   1       1.385  -1.043   1.083  0.00  0.00     0.169 HD
ENDBRANCH  17  23
ENDBRANCH   1  16
TORSDOF 6
