REMARK  6 active torsions:
REMARK  status: ('A' for Active; 'I' for Inactive)
REMARK    1  A    between atoms: C_2  and  S_1 
REMARK    2  A    between atoms: C_7  and  S_1 
REMARK    3  A    between atoms: C_3  and  C_5 
REMARK    4  A    between atoms: C_4  and  C_6 
REMARK    5  A    between atoms: N_16  and  C_8 
REMARK    6  A    between atoms: C_17  and  N_16 
ROOT
ATOM      1  C   UNL d   1       0.741  -1.767  -0.132  0.00  0.00     0.160 C 
ATOM      2  C   UNL d   1      -0.196  -2.246   0.707  0.00  0.00     0.123 C 
ATOM      3  C   UNL d   1       1.417  -0.545   0.093  0.00  0.00     0.113 C 
ATOM      4  N   UNL d   1       1.935   0.463   0.344  0.00  0.00    -0.191 NA
ENDROOT
BRANCH   1   5
ATOM      5  S   UNL d   1       1.074  -2.614  -1.607  0.00  0.00     0.233 S 
ATOM      6  O   UNL d   1       0.817  -1.721  -2.724  0.00  0.00    -0.215 OA
ATOM      7  O   UNL d   1       0.435  -3.924  -1.583  0.00  0.00    -0.215 OA
BRANCH   5   8
ATOM      8  C   UNL d   1       2.829  -2.945  -1.624  0.00  0.00     0.134 A 
ATOM      9  N   UNL d   1       3.513  -2.541  -0.525  0.00  0.00    -0.356 N 
ATOM     10  C   UNL d   1       4.839  -2.796  -0.536  0.00  0.00     0.089 A 
ATOM     11  HN  UNL d   1       3.055  -2.074   0.259  1.00  0.00     0.166 HD
ATOM     12  C   UNL d   1       5.492  -3.453  -1.570  0.00  0.00     0.017 A 
ATOM     13  C   UNL d   1       4.749  -3.866  -2.674  0.00  0.00     0.004 A 
ATOM     14  C   UNL d   1       3.384  -3.603  -2.713  0.00  0.00     0.042 A 
ENDBRANCH   5   8
ENDBRANCH   1   5
BRANCH   2  15
ATOM     15  N   UNL d   1      -0.704  -1.672   1.855  0.00  0.00    -0.364 N 
ATOM     16  H   UNL d   1      -0.426  -0.712   2.054  0.00  0.00     0.165 HD
BRANCH  15  17
ATOM     17  C   UNL d   1      -1.441  -2.290   2.882  0.00  0.00     0.033 A 
ATOM     18  C   UNL d   1      -1.503  -3.678   3.050  0.00  0.00     0.045 A 
ATOM     19  C   UNL d   1      -2.255  -4.263   4.085  0.00  0.00     0.050 A 
ATOM     20  C   UNL d   1      -2.996  -3.435   4.940  0.00  0.00     0.032 A 
ATOM     21  C   UNL d   1      -2.974  -2.043   4.784  0.00  0.00     0.050 A 
ATOM     22  C   UNL d   1      -2.198  -1.488   3.750  0.00  0.00     0.045 A 
BRANCH  19  23
ATOM     23  C   UNL d   1      -2.225  -5.760   4.276  0.00  0.00     0.417 C 
ATOM     24  F   UNL d   1      -2.963  -6.186   5.339  0.00  0.00    -0.166 F 
ATOM     25  F   UNL d   1      -2.697  -6.436   3.196  0.00  0.00    -0.166 F 
ATOM     26  F   UNL d   1      -0.963  -6.226   4.491  0.00  0.00    -0.166 F 
ENDBRANCH  19  23
BRANCH  21  27
ATOM     27  C   UNL d   1      -3.747  -1.140   5.716  0.00  0.00     0.417 C 
ATOM     28  F   UNL d   1      -4.437  -1.815   6.677  0.00  0.00    -0.166 F 
ATOM     29  F   UNL d   1      -2.936  -0.271   6.381  0.00  0.00    -0.166 F 
ATOM     30  F   UNL d   1      -4.664  -0.375   5.064  0.00  0.00    -0.166 F 
ENDBRANCH  21  27
ENDBRANCH  15  17
ENDBRANCH   2  15
TORSDOF 6
