REMARK  3 active torsions:
REMARK  status: ('A' for Active; 'I' for Inactive)
REMARK    1  A    between atoms: N_9  and  C_3 
REMARK    2  A    between atoms: C_17  and  C_4 
REMARK       I    between atoms: C_7  and  N_10 
REMARK       I    between atoms: N_11  and  C_7 
REMARK    3  A    between atoms: C_18  and  N_11 
ROOT
ATOM      1  C   UNL d   1      -0.944  -6.617   0.004  0.00  0.00     0.323 C 
ATOM      2  N   UNL d   1       0.242  -2.545   0.046  0.00  0.00    -0.357 N 
ATOM      3  N   UNL d   1      -0.485  -5.327  -0.228  0.00  0.00    -0.331 N 
ATOM      4  N   UNL d   1      -2.123  -6.952  -0.621  0.00  0.00    -0.309 N 
ATOM      5  O   UNL d   1      -0.311  -7.378   0.733  0.00  0.00    -0.247 OA
ATOM      6  C   UNL d   1       0.831  -3.555   0.952  0.00  0.00     0.145 C 
ATOM      7  C   UNL d   1      -1.088  -2.926  -0.468  0.00  0.00     0.145 C 
ATOM      8  C   UNL d   1       0.828  -4.956   0.316  0.00  0.00     0.147 C 
ATOM      9  C   UNL d   1      -1.049  -4.311  -1.130  0.00  0.00     0.147 C 
ATOM     10  H   UNL d   1      -2.498  -6.299  -1.282  0.00  0.00     0.170 HD
ENDROOT
BRANCH   2  11
ATOM     11  C   UNL d   1       0.383  -1.220   0.365  0.00  0.00     0.165 A 
ATOM     12  N   UNL d   1      -0.502  -0.284   0.084  0.00  0.00    -0.321 N 
ATOM     13  C   UNL d   1      -0.070   0.952   0.571  0.00  0.00     0.123 A 
ATOM     14  HN  UNL d   1      -1.376  -0.440  -0.417  1.00  0.00     0.169 HD
ATOM     15  N   UNL d   1       1.126   1.010   1.171  0.00  0.00    -0.309 N 
ATOM     16  S   UNL d   1       1.761  -0.519   1.155  0.00  0.00     0.024 SA
ATOM     17  HN  UNL d   1       1.564   1.843   1.566  1.00  0.00     0.176 HD
BRANCH  13  18
ATOM     18  C   UNL d   1      -0.928   2.136   0.456  0.00  0.00     0.009 A 
ATOM     19  C   UNL d   1      -2.101   2.107  -0.309  0.00  0.00     0.015 A 
ATOM     20  C   UNL d   1      -2.929   3.231  -0.388  0.00  0.00     0.001 A 
ATOM     21  C   UNL d   1      -2.594   4.397   0.298  0.00  0.00     0.000 A 
ATOM     22  C   UNL d   1      -1.429   4.443   1.059  0.00  0.00     0.001 A 
ATOM     23  C   UNL d   1      -0.600   3.322   1.135  0.00  0.00     0.015 A 
ENDBRANCH  13  18
ENDBRANCH   2  11
BRANCH   4  24
ATOM     24  C   UNL d   1      -2.798  -8.192  -0.588  0.00  0.00     0.036 A 
ATOM     25  C   UNL d   1      -2.400  -9.283   0.186  0.00  0.00     0.029 A 
ATOM     26  C   UNL d   1      -3.064 -10.508   0.078  0.00  0.00     0.002 A 
ATOM     27  C   UNL d   1      -4.145 -10.648  -0.789  0.00  0.00     0.000 A 
ATOM     28  C   UNL d   1      -4.584  -9.551  -1.526  0.00  0.00     0.002 A 
ATOM     29  C   UNL d   1      -3.917  -8.329  -1.421  0.00  0.00     0.029 A 
ENDBRANCH   4  24
TORSDOF 3
