REMARK  6 active torsions:
REMARK  status: ('A' for Active; 'I' for Inactive)
REMARK    1  A    between atoms: C_5  and  C_1 
REMARK    2  A    between atoms: C_2  and  C_4 
REMARK    3  A    between atoms: C_3  and  N_8 
REMARK    4  A    between atoms: N_9  and  C_3 
REMARK    5  A    between atoms: N_8  and  C_7 
REMARK    6  A    between atoms: C_13  and  N_9 
ROOT
ATOM      1  C   UNL d   1       0.023  -0.862   1.886  0.00  0.00     0.050 A 
ATOM      2  C   UNL d   1      -1.476  -2.472   2.931  0.00  0.00     0.050 A 
ATOM      3  C   UNL d   1      -1.055  -1.151   2.738  0.00  0.00     0.032 A 
ATOM      4  C   UNL d   1       0.274  -3.240   1.393  0.00  0.00     0.035 A 
ATOM      5  C   UNL d   1       0.672  -1.917   1.212  0.00  0.00     0.045 A 
ATOM      6  C   UNL d   1      -0.789  -3.501   2.271  0.00  0.00     0.045 A 
ENDROOT
BRANCH   4   7
ATOM      7  N   UNL d   1       0.821  -4.370   0.760  0.00  0.00    -0.333 N 
ATOM      8  H   UNL d   1       0.518  -5.244   1.160  0.00  0.00     0.168 HD
BRANCH   7   9
ATOM      9  C   UNL d   1       1.753  -4.572  -0.217  0.00  0.00     0.172 C 
ATOM     10  S   UNL d   1       2.786  -3.487  -0.945  0.00  0.00    -0.041 SA
BRANCH   9  11
ATOM     11  N   UNL d   1       1.891  -5.885  -0.606  0.00  0.00    -0.359 N 
ATOM     12  H   UNL d   1       2.692  -5.936  -1.229  0.00  0.00     0.162 HD
BRANCH  11  13
ATOM     13  C   UNL d   1       0.854  -6.882  -1.000  0.00  0.00     0.021 C 
ATOM     14  C   UNL d   1       0.325  -6.527  -2.399  0.00  0.00     0.037 C 
ATOM     15  C   UNL d   1       1.557  -8.251  -1.056  0.00  0.00     0.037 C 
ATOM     16  C   UNL d   1      -0.346  -7.019  -0.049  0.00  0.00     0.037 C 
ENDBRANCH  11  13
ENDBRANCH   9  11
ENDBRANCH   7   9
ENDBRANCH   4   7
BRANCH   2  17
ATOM     17  C   UNL d   1      -2.657  -2.814   3.806  0.00  0.00     0.417 C 
ATOM     18  F   UNL d   1      -3.269  -1.726   4.349  0.00  0.00    -0.166 F 
ATOM     19  F   UNL d   1      -2.314  -3.616   4.851  0.00  0.00    -0.166 F 
ATOM     20  F   UNL d   1      -3.624  -3.486   3.122  0.00  0.00    -0.166 F 
ENDBRANCH   2  17
BRANCH   1  21
ATOM     21  C   UNL d   1       0.500   0.558   1.688  0.00  0.00     0.417 C 
ATOM     22  F   UNL d   1      -0.286   1.481   2.309  0.00  0.00    -0.166 F 
ATOM     23  F   UNL d   1       1.757   0.757   2.167  0.00  0.00    -0.166 F 
ATOM     24  F   UNL d   1       0.532   0.922   0.376  0.00  0.00    -0.166 F 
ENDBRANCH   1  21
TORSDOF 6
