REMARK  7 active torsions:
REMARK  status: ('A' for Active; 'I' for Inactive)
REMARK    1  A    between atoms: C_6  and  C_1 
REMARK    2  A    between atoms: N_5  and  C_2 
REMARK    3  A    between atoms: C_3  and  C_9 
REMARK    4  A    between atoms: C_4  and  N_5 
REMARK    5  A    between atoms: N_10  and  C_4 
REMARK    6  A    between atoms: O_19  and  C_6 
REMARK    7  A    between atoms: C_14  and  N_10 
ROOT
ATOM      1  C   UNL d   1       2.967   2.608  -0.720  0.00  0.00     0.176 C 
ATOM      2  S   UNL d   1       4.461   3.210  -0.276  0.00  0.00    -0.041 SA
ENDROOT
BRANCH   1   3
ATOM      3  N   UNL d   1       2.615   1.283  -0.855  0.00  0.00    -0.332 N 
ATOM      4  H   UNL d   1       1.710   1.080  -0.445  0.00  0.00     0.168 HD
BRANCH   3   5
ATOM      5  C   UNL d   1       3.408   0.171  -1.116  0.00  0.00     0.058 C 
ATOM      6  C   UNL d   1       4.489   0.060  -1.982  0.00  0.00     0.106 C 
ATOM      7  S   UNL d   1       5.178  -1.522  -1.906  0.00  0.00    -0.094 SA
ATOM      8  C   UNL d   1       3.942  -2.096  -0.887  0.00  0.00     0.053 C 
ATOM      9  C   UNL d   1       3.062  -1.099  -0.546  0.00  0.00     0.038 C 
BRANCH   6  10
ATOM     10  C   UNL d   1       5.053   0.958  -2.974  0.00  0.00     0.302 C 
ATOM     11  O   UNL d   1       6.194   0.917  -3.422  0.00  0.00    -0.259 OA
BRANCH  10  12
ATOM     12  O   UNL d   1       4.081   1.788  -3.455  0.00  0.00    -0.322 OA
ATOM     13  C   UNL d   1       4.461   2.607  -4.563  0.00  0.00     0.213 C 
ENDBRANCH  10  12
ENDBRANCH   6  10
ENDBRANCH   3   5
ENDBRANCH   1   3
BRANCH   1  14
ATOM     14  N   UNL d   1       1.896   3.477  -0.802  0.00  0.00    -0.333 N 
ATOM     15  H   UNL d   1       2.026   4.375  -0.347  0.00  0.00     0.168 HD
BRANCH  14  16
ATOM     16  C   UNL d   1       0.747   3.328  -1.610  0.00  0.00     0.035 A 
ATOM     17  C   UNL d   1       0.748   2.511  -2.745  0.00  0.00     0.045 A 
ATOM     18  C   UNL d   1      -0.377   2.410  -3.575  0.00  0.00     0.050 A 
ATOM     19  C   UNL d   1      -1.530   3.122  -3.229  0.00  0.00     0.016 A 
ATOM     20  C   UNL d   1      -1.538   3.946  -2.101  0.00  0.00     0.003 A 
ATOM     21  C   UNL d   1      -0.393   4.069  -1.307  0.00  0.00     0.029 A 
BRANCH  18  22
ATOM     22  C   UNL d   1      -0.326   1.571  -4.828  0.00  0.00     0.417 C 
ATOM     23  F   UNL d   1       0.889   1.005  -5.060  0.00  0.00    -0.166 F 
ATOM     24  F   UNL d   1      -1.217   0.540  -4.800  0.00  0.00    -0.166 F 
ATOM     25  F   UNL d   1      -0.618   2.291  -5.946  0.00  0.00    -0.166 F 
ENDBRANCH  18  22
ENDBRANCH  14  16
ENDBRANCH   1  14
TORSDOF 7
