REMARK  7 active torsions:
REMARK  status: ('A' for Active; 'I' for Inactive)
REMARK    1  A    between atoms: N_2  and  C_1 
REMARK    2  A    between atoms: C_3  and  C_1 
REMARK    3  A    between atoms: C_4  and  C_1 
REMARK    4  A    between atoms: N_5  and  C_1 
REMARK       I    between atoms: C_6  and  N_2 
REMARK    5  A    between atoms: C_7  and  N_5 
REMARK    6  A    between atoms: O_17  and  C_6 
REMARK    7  A    between atoms: C_23  and  O_17 
ROOT
ATOM      1  C   UNL d   1       0.918   0.035   0.151  0.00  0.00     0.308 C 
ENDROOT
BRANCH   1   2
ATOM      2  N   UNL d   1       0.523   1.485   0.067  0.00  0.00    -0.295 N 
ATOM      3  C   UNL d   1      -0.042   2.224   1.055  0.00  0.00     0.362 C 
ATOM      4  O   UNL d   1      -0.918   3.041   0.803  0.00  0.00    -0.238 OA
ATOM      5  H   UNL d   1       0.123   1.751  -0.827  0.00  0.00     0.168 HD
BRANCH   3   6
ATOM      6  O   UNL d   1       0.497   1.992   2.266  0.00  0.00    -0.304 OA
BRANCH   6   7
ATOM      7  C   UNL d   1      -0.069   2.740   3.357  0.00  0.00     0.176 C 
ATOM      8  C   UNL d   1       0.424   4.176   3.355  0.00  0.00     0.034 C 
ENDBRANCH   6   7
ENDBRANCH   3   6
ENDBRANCH   1   2
BRANCH   1   9
ATOM      9  C   UNL d   1       0.240  -0.677  -1.066  0.00  0.00     0.441 C 
ATOM     10  F   UNL d   1      -0.995  -0.146  -1.287  0.00  0.00    -0.166 F 
ATOM     11  F   UNL d   1       0.933  -0.463  -2.215  0.00  0.00    -0.166 F 
ATOM     12  F   UNL d   1       0.067  -2.006  -0.951  0.00  0.00    -0.166 F 
ENDBRANCH   1   9
BRANCH   1  13
ATOM     13  C   UNL d   1       0.380  -0.725   1.407  0.00  0.00     0.441 C 
ATOM     14  F   UNL d   1      -0.934  -0.467   1.616  0.00  0.00    -0.166 F 
ATOM     15  F   UNL d   1       0.499  -2.070   1.323  0.00  0.00    -0.166 F 
ATOM     16  F   UNL d   1       1.044  -0.379   2.538  0.00  0.00    -0.166 F 
ENDBRANCH   1  13
BRANCH   1  17
ATOM     17  N   UNL d   1       2.400   0.182   0.073  0.00  0.00    -0.348 N 
ATOM     18  H   UNL d   1       2.681   0.956   0.668  0.00  0.00     0.162 HD
BRANCH  17  19
ATOM     19  C   UNL d   1       3.375  -0.806  -0.014  0.00  0.00     0.038 A 
ATOM     20  C   UNL d   1       4.748  -0.436  -0.075  0.00  0.00    -0.014 A 
ATOM     21  C   UNL d   1       5.733  -1.436  -0.263  0.00  0.00     0.042 A 
ATOM     22  C   UNL d   1       5.172   1.017  -0.051  0.00  0.00     0.052 C 
ATOM     23 CL   UNL d   1       7.418  -1.063  -0.411  0.00  0.00    -0.084 Cl
ATOM     24  C   UNL d   1       5.386  -2.781  -0.369  0.00  0.00     0.024 A 
ATOM     25  C   UNL d   1       4.052  -3.144  -0.330  0.00  0.00     0.004 A 
ATOM     26  C   UNL d   1       3.067  -2.165  -0.178  0.00  0.00     0.030 A 
ENDBRANCH  17  19
ENDBRANCH   1  17
TORSDOF 7
