REMARK  7 active torsions:
REMARK  status: ('A' for Active; 'I' for Inactive)
REMARK    1  A    between atoms: C_2  and  S_1 
REMARK    2  A    between atoms: N_5  and  S_1 
REMARK    3  A    between atoms: C_6  and  C_3 
REMARK    4  A    between atoms: S_4  and  C_9 
REMARK    5  A    between atoms: N_15  and  S_4 
REMARK    6  A    between atoms: C_17  and  N_5 
REMARK    7  A    between atoms: O_20  and  C_6 
ROOT
ATOM      1  N   UNL d   1       0.532   0.810   1.499  0.00  0.00    -0.181 NA
ATOM      2  H   UNL d   1      -0.475   0.975   1.379  0.00  0.00     0.146 HD
ENDROOT
BRANCH   1   3
ATOM      3  S   UNL d   1       1.120   0.056   0.104  0.00  0.00     0.247 S 
ATOM      4  O   UNL d   1       0.514   0.698  -1.045  0.00  0.00    -0.205 OA
ATOM      5  O   UNL d   1       2.552  -0.121   0.206  0.00  0.00    -0.205 OA
BRANCH   3   6
ATOM      6  C   UNL d   1       0.483  -1.565   0.023  0.00  0.00     0.098 A 
ATOM      7  C   UNL d   1      -0.867  -1.872  -0.049  0.00  0.00     0.102 A 
ATOM      8  S   UNL d   1      -1.101  -3.575  -0.124  0.00  0.00    -0.094 SA
ATOM      9  C   UNL d   1       0.575  -3.887  -0.086  0.00  0.00     0.052 A 
ATOM     10  C   UNL d   1       1.313  -2.729  -0.009  0.00  0.00     0.033 A 
BRANCH   7  11
ATOM     11  C   UNL d   1      -2.002  -0.969  -0.004  0.00  0.00     0.301 C 
ATOM     12  O   UNL d   1      -1.990   0.132   0.538  0.00  0.00    -0.259 OA
BRANCH  11  13
ATOM     13  O   UNL d   1      -3.090  -1.524  -0.607  0.00  0.00    -0.322 OA
ATOM     14  C   UNL d   1      -4.277  -0.732  -0.602  0.00  0.00     0.213 C 
ENDBRANCH  11  13
ENDBRANCH   7  11
ENDBRANCH   3   6
ENDBRANCH   1   3
BRANCH   1  15
ATOM     15  C   UNL d   1       0.904   0.224   2.744  0.00  0.00     0.022 A 
ATOM     16  C   UNL d   1       2.126   0.550   3.336  0.00  0.00     0.026 A 
ATOM     17  C   UNL d   1       2.483  -0.022   4.561  0.00  0.00     0.026 A 
ATOM     18  C   UNL d   1       1.615  -0.934   5.171  0.00  0.00     0.074 A 
ATOM     19  C   UNL d   1       0.424  -1.312   4.549  0.00  0.00     0.026 A 
ATOM     20  C   UNL d   1       0.063  -0.721   3.340  0.00  0.00     0.026 A 
BRANCH  18  21
ATOM     21  S   UNL d   1       2.005  -1.605   6.760  0.00  0.00     0.239 S 
ATOM     22  O   UNL d   1       1.319  -2.866   6.922  0.00  0.00    -0.206 OA
ATOM     23  O   UNL d   1       3.416  -1.446   7.018  0.00  0.00    -0.206 OA
BRANCH  21  24
ATOM     24  N   UNL d   1       1.219  -0.514   7.765  0.00  0.00    -0.225 NA
ATOM     25  H   UNL d   1       0.481  -0.983   8.291  0.00  0.00     0.136 HD
ATOM     26  H   UNL d   1       1.895  -0.016   8.343  0.00  0.00     0.136 HD
ENDBRANCH  21  24
ENDBRANCH  18  21
ENDBRANCH   1  15
TORSDOF 7
