REMARK  4 active torsions:
REMARK  status: ('A' for Active; 'I' for Inactive)
REMARK    1  A    between atoms: S_3  and  C_1 
REMARK    2  A    between atoms: C_7  and  C_2 
REMARK    3  A    between atoms: N_10  and  S_3 
REMARK    4  A    between atoms: O_15  and  C_7 
ROOT
ATOM      1  C   UNL d   1      -0.127  -1.199   0.020  0.00  0.00     0.114 A 
ATOM      2  C   UNL d   1       1.214  -0.673  -0.000  0.00  0.00     0.086 A 
ATOM      3  C   UNL d   1      -1.016  -0.124   0.010  0.00  0.00     0.031 A 
ATOM      4  C   UNL d   1       1.071   0.722  -0.019  0.00  0.00     0.025 A 
ATOM      5  N   UNL d   1      -0.273   1.029  -0.003  0.00  0.00    -0.356 N 
ATOM      6  C   UNL d   1      -0.799   2.382  -0.003  0.00  0.00     0.156 C 
ATOM      7  C   UNL d   1       2.099   1.812  -0.030  0.00  0.00     0.069 C 
ATOM      8  C   UNL d   1      -2.510  -0.117   0.003  0.00  0.00     0.070 C 
ENDROOT
BRANCH   1   9
ATOM      9  S   UNL d   1      -0.682  -2.848  -0.009  0.00  0.00     0.242 S 
ATOM     10  O   UNL d   1      -1.360  -2.999   1.262  0.00  0.00    -0.206 OA
ATOM     11  O   UNL d   1      -1.358  -2.959  -1.279  0.00  0.00    -0.206 OA
BRANCH   9  12
ATOM     12  N   UNL d   1       0.544  -3.969  -0.031  0.00  0.00    -0.225 NA
ATOM     13  H   UNL d   1       1.105  -3.920   0.819  0.00  0.00     0.136 HD
ATOM     14  H   UNL d   1       1.075  -3.947  -0.898  0.00  0.00     0.136 HD
ENDBRANCH   9  12
ENDBRANCH   1   9
BRANCH   2  15
ATOM     15  C   UNL d   1       2.520  -1.336  -0.023  0.00  0.00     0.296 C 
ATOM     16  O   UNL d   1       3.513  -0.853  -0.558  0.00  0.00    -0.259 OA
BRANCH  15  17
ATOM     17  O   UNL d   1       2.550  -2.523   0.654  0.00  0.00    -0.322 OA
ATOM     18  C   UNL d   1       3.841  -3.147   0.660  0.00  0.00     0.213 C 
ENDBRANCH  15  17
ENDBRANCH   2  15
TORSDOF 4
