REMARK  5 active torsions:
REMARK  status: ('A' for Active; 'I' for Inactive)
REMARK    1  A    between atoms: C_3  and  C_1 
REMARK    2  A    between atoms: C_2  and  C_4 
REMARK       I    between atoms: C_5  and  N_8 
REMARK       I    between atoms: N_13  and  C_5 
REMARK    3  A    between atoms: N_8  and  C_7 
REMARK    4  A    between atoms: N_9  and  N_13 
REMARK    5  A    between atoms: C_22  and  C_21 
ROOT
ATOM      1  C   UNL d   1       0.879   6.022   0.739  0.00  0.00     0.339 C 
ATOM      2  N   UNL d   1       1.587   4.915   0.295  0.00  0.00    -0.308 N 
ATOM      3  N   UNL d   1       1.735   7.126   0.893  0.00  0.00    -0.252 N 
ATOM      4  O   UNL d   1      -0.333   6.067   0.900  0.00  0.00    -0.245 OA
ATOM      5  H   UNL d   1       2.574   5.062   0.147  0.00  0.00     0.170 HD
ATOM      6  H   UNL d   1       2.656   6.918   1.260  0.00  0.00     0.191 HD
ENDROOT
BRANCH   2   7
ATOM      7  C   UNL d   1       1.033   3.737  -0.250  0.00  0.00     0.037 A 
ATOM      8  C   UNL d   1      -0.327   3.415  -0.218  0.00  0.00     0.045 A 
ATOM      9  C   UNL d   1      -0.830   2.317  -0.936  0.00  0.00     0.050 A 
ATOM     10  C   UNL d   1       0.057   1.535  -1.691  0.00  0.00     0.032 A 
ATOM     11  C   UNL d   1       1.424   1.841  -1.730  0.00  0.00     0.050 A 
ATOM     12  C   UNL d   1       1.909   2.908  -0.958  0.00  0.00     0.045 A 
BRANCH   9  13
ATOM     13  C   UNL d   1      -2.318   2.044  -0.952  0.00  0.00     0.417 C 
ATOM     14  F   UNL d   1      -2.653   0.953  -1.698  0.00  0.00    -0.166 F 
ATOM     15  F   UNL d   1      -3.028   3.080  -1.476  0.00  0.00    -0.166 F 
ATOM     16  F   UNL d   1      -2.829   1.818   0.287  0.00  0.00    -0.166 F 
ENDBRANCH   9  13
BRANCH  11  17
ATOM     17  C   UNL d   1       2.362   1.097  -2.647  0.00  0.00     0.417 C 
ATOM     18  F   UNL d   1       1.723   0.486  -3.682  0.00  0.00    -0.166 F 
ATOM     19  F   UNL d   1       3.284   1.922  -3.219  0.00  0.00    -0.166 F 
ATOM     20  F   UNL d   1       3.070   0.128  -2.009  0.00  0.00    -0.166 F 
ENDBRANCH  11  17
ENDBRANCH   2   7
BRANCH   3  21
ATOM     21  N   UNL d   1       1.258   8.343   1.342  0.00  0.00    -0.307 N 
ATOM     22  C   UNL d   1       0.174   8.757   0.761  0.00  0.00     0.118 C 
ATOM     23  HN  UNL d   1       1.724   8.876   2.076  1.00  0.00     0.186 HD
BRANCH  22  24
ATOM     24  C   UNL d   1      -0.621   9.874   1.296  0.00  0.00    -0.019 A 
ATOM     25  C   UNL d   1      -0.114  10.720   2.285  0.00  0.00     0.014 A 
ATOM     26  C   UNL d   1      -0.961  11.648   2.897  0.00  0.00     0.024 A 
ATOM     27  C   UNL d   1      -2.303  11.718   2.518  0.00  0.00     0.034 A 
ATOM     28  C   UNL d   1      -2.800  10.900   1.505  0.00  0.00     0.024 A 
ATOM     29 CL   UNL d   1      -3.365  12.796   3.337  0.00  0.00    -0.084 Cl
ATOM     30  C   UNL d   1      -1.955   9.978   0.884  0.00  0.00     0.014 A 
ENDBRANCH  22  24
ENDBRANCH   3  21
TORSDOF 5
