REMARK  4 active torsions:
REMARK  status: ('A' for Active; 'I' for Inactive)
REMARK    1  A    between atoms: S_7  and  C_1 
REMARK       I    between atoms: N_5  and  C_11 
REMARK    2  A    between atoms: C_9  and  N_5 
REMARK    3  A    between atoms: C_15  and  S_7 
REMARK    4  A    between atoms: C_11  and  C_15 
ROOT
ATOM      1  N   UNL d   1       0.504   6.098   3.707  0.00  0.00    -0.191 NA
ATOM      2  C   UNL d   1       0.875   6.660   2.765  0.00  0.00     0.102 C 
ATOM      3  C   UNL d   1       1.779   6.595   0.458  0.00  0.00     0.055 A 
ATOM      4  C   UNL d   1       1.337   7.323   1.579  0.00  0.00     0.071 A 
ATOM      5  C   UNL d   1       1.393   8.726   1.578  0.00  0.00     0.025 A 
ATOM      6  C   UNL d   1       2.234   7.309  -0.662  0.00  0.00     0.031 A 
ATOM      7  C   UNL d   1       1.858   9.416   0.458  0.00  0.00     0.002 A 
ATOM      8  C   UNL d   1       2.270   8.705  -0.663  0.00  0.00     0.002 A 
ENDROOT
BRANCH   3   9
ATOM      9  N   UNL d   1       1.736   5.175   0.453  0.00  0.00    -0.325 N 
ATOM     10  C   UNL d   1       2.538   4.354  -0.322  0.00  0.00     0.231 C 
ATOM     11  O   UNL d   1       3.494   4.755  -0.987  0.00  0.00    -0.272 OA
ATOM     12  H   UNL d   1       1.176   4.706   1.159  0.00  0.00     0.169 HD
BRANCH  10  13
ATOM     13  C   UNL d   1       2.274   2.860  -0.217  0.00  0.00     0.185 C 
BRANCH  13  14
ATOM     14  S   UNL d   1       0.534   2.436   0.092  0.00  0.00    -0.084 SA
BRANCH  14  15
ATOM     15  C   UNL d   1       0.665   0.706   0.077  0.00  0.00     0.146 A 
ATOM     16  N   UNL d   1      -0.408  -0.145   0.107  0.00  0.00    -0.341 N 
ATOM     17  C   UNL d   1       0.090  -1.424   0.119  0.00  0.00     0.109 A 
ATOM     18  C   UNL d   1      -1.813   0.176   0.122  0.00  0.00     0.158 C 
ATOM     19  C   UNL d   1       1.456  -1.279   0.073  0.00  0.00     0.107 A 
ATOM     20  N   UNL d   1       1.801   0.046   0.047  0.00  0.00    -0.345 N 
ATOM     21  HN  UNL d   1       2.742   0.438   0.012  1.00  0.00     0.167 HD
ENDBRANCH  14  15
ENDBRANCH  13  14
ENDBRANCH  10  13
ENDBRANCH   3   9
TORSDOF 4
