REMARK  4 active torsions:
REMARK  status: ('A' for Active; 'I' for Inactive)
REMARK    1  A    between atoms: C_2  and  S_1 
REMARK    2  A    between atoms: N_3  and  S_1 
REMARK    3  A    between atoms: C_4  and  C_9 
REMARK    4  A    between atoms: C_9  and  N_8 
ROOT
ATOM      1  N   UNL d   1       0.527   0.051   1.624  0.00  0.00    -0.205 NA
ATOM      2  N   UNL d   1      -1.355   1.547   3.762  0.00  0.00     0.093 N 
ATOM      3  C   UNL d   1       0.304   1.526   1.787  0.00  0.00     0.138 C 
ATOM      4  C   UNL d   1      -0.075   1.981   3.198  0.00  0.00     0.288 C 
ATOM      5  C   UNL d   1      -0.987  -0.994   3.367  0.00  0.00     0.046 C 
ATOM      6  C   UNL d   1      -0.682  -0.777   1.889  0.00  0.00     0.109 C 
ATOM      7  C   UNL d   1      -1.249   0.193   4.300  0.00  0.00     0.274 C 
ENDROOT
BRANCH   1   8
ATOM      8  S   UNL d   1       1.159  -0.298   0.029  0.00  0.00     0.245 S 
ATOM      9  O   UNL d   1       1.285  -1.731  -0.151  0.00  0.00    -0.206 OA
ATOM     10  O   UNL d   1       0.342   0.462  -0.902  0.00  0.00    -0.206 OA
BRANCH   8  11
ATOM     11  C   UNL d   1       2.775   0.423   0.033  0.00  0.00     0.102 A 
ATOM     12  C   UNL d   1       3.765  -0.150   0.829  0.00  0.00     0.065 A 
ATOM     13  N   UNL d   1       3.534  -1.206   1.639  0.00  0.00    -0.364 N 
ATOM     14  C   UNL d   1       5.051   0.433   0.760  0.00  0.00    -0.008 A 
ATOM     15  C   UNL d   1       4.546  -1.728   2.358  0.00  0.00     0.088 A 
ATOM     16  HN  UNL d   1       2.597  -1.605   1.706  1.00  0.00     0.165 HD
ATOM     17  C   UNL d   1       5.829  -1.230   2.334  0.00  0.00     0.018 A 
ATOM     18  C   UNL d   1       6.081  -0.129   1.527  0.00  0.00     0.015 A 
ATOM     19  C   UNL d   1       5.297   1.550  -0.060  0.00  0.00     0.014 A 
ATOM     20  C   UNL d   1       4.281   2.103  -0.833  0.00  0.00     0.003 A 
ATOM     21  C   UNL d   1       3.016   1.535  -0.796  0.00  0.00     0.027 A 
ENDBRANCH   8  11
ENDBRANCH   1   8
BRANCH   2  22
ATOM     22  C   UNL d   1      -2.564   1.746   2.956  0.00  0.00     0.315 C 
BRANCH  22  23
ATOM     23  C   UNL d   1      -2.874   3.154   2.502  0.00  0.00     0.030 A 
ATOM     24  C   UNL d   1      -2.862   3.441   1.127  0.00  0.00     0.126 A 
ATOM     25  F   UNL d   1      -2.506   2.494   0.248  0.00  0.00    -0.205 F 
ATOM     26  C   UNL d   1      -3.251   4.678   0.620  0.00  0.00     0.043 A 
ATOM     27  C   UNL d   1      -3.682   5.670   1.491  0.00  0.00     0.005 A 
ATOM     28  C   UNL d   1      -3.700   5.417   2.863  0.00  0.00     0.024 A 
ATOM     29  C   UNL d   1      -3.297   4.171   3.367  0.00  0.00     0.045 A 
ATOM     30 CL   UNL d   1      -3.402   3.936   5.075  0.00  0.00    -0.084 Cl
ENDBRANCH  22  23
ENDBRANCH   2  22
TORSDOF 4
