REMARK  3 active torsions:
REMARK  status: ('A' for Active; 'I' for Inactive)
REMARK    1  A    between atoms: C_7  and  C_3 
REMARK    2  A    between atoms: C_14  and  C_4 
REMARK    3  A    between atoms: C_8  and  C_10 
ROOT
ATOM      1  N   UNL d   1       1.283   0.167  -0.002  0.00  0.00    -0.317 N 
ATOM      2  HN  UNL d   1       2.293   0.312  -0.015  1.00  0.00     0.169 HD
ATOM      3  C   UNL d   1       0.622  -0.965   0.011  0.00  0.00     0.184 A 
ATOM      4  C   UNL d   1       0.280   1.115   0.009  0.00  0.00     0.154 A 
ATOM      5  N   UNL d   1      -0.957   0.589   0.036  0.00  0.00    -0.241 N 
ATOM      6  HN  UNL d   1      -1.850   1.080   0.053  1.00  0.00     0.196 HD
ATOM      7  O   UNL d   1      -0.732  -0.787   0.038  0.00  0.00    -0.217 OA
ENDROOT
BRANCH   4   8
ATOM      8  C   UNL d   1       0.583   2.548   0.008  0.00  0.00     0.078 A 
ATOM      9  N   UNL d   1      -0.458   3.420   0.059  0.00  0.00    -0.362 N 
ATOM     10  C   UNL d   1      -0.169   4.742   0.077  0.00  0.00     0.104 A 
ATOM     11  HN  UNL d   1      -1.422   3.090   0.082  1.00  0.00     0.165 HD
ATOM     12  C   UNL d   1       1.119   5.256   0.049  0.00  0.00     0.063 A 
ATOM     13  C   UNL d   1       2.177   4.344  -0.009  0.00  0.00     0.020 A 
ATOM     14  C   UNL d   1       1.908   2.978  -0.030  0.00  0.00     0.034 A 
BRANCH  12  15
ATOM     15  C   UNL d   1       1.360   6.733   0.088  0.00  0.00     0.418 C 
ATOM     16  F   UNL d   1       0.218   7.472   0.147  0.00  0.00    -0.166 F 
ATOM     17  F   UNL d   1       2.103   7.108   1.166  0.00  0.00    -0.166 F 
ATOM     18  F   UNL d   1       2.037   7.179  -1.005  0.00  0.00    -0.166 F 
ENDBRANCH  12  15
ENDBRANCH   4   8
BRANCH   3  19
ATOM     19  C   UNL d   1       1.109  -2.339   0.032  0.00  0.00     0.039 A 
ATOM     20  C   UNL d   1       2.343  -2.709  -0.541  0.00  0.00     0.051 A 
ATOM     21  C   UNL d   1       2.802  -4.028  -0.456  0.00  0.00     0.067 A 
ATOM     22 CL   UNL d   1       3.353  -1.599  -1.406  0.00  0.00    -0.083 Cl
ATOM     23  C   UNL d   1       2.036  -4.981   0.199  0.00  0.00     0.118 A 
ATOM     24  C   UNL d   1       0.813  -4.650   0.763  0.00  0.00     0.043 A 
ATOM     25  F   UNL d   1       2.484  -6.239   0.287  0.00  0.00    -0.206 F 
ATOM     26  C   UNL d   1       0.350  -3.335   0.679  0.00  0.00     0.020 A 
ENDBRANCH   3  19
TORSDOF 3
