REMARK  3 active torsions:
REMARK  status: ('A' for Active; 'I' for Inactive)
REMARK    1  A    between atoms: C_10  and  C_3 
REMARK    2  A    between atoms: C_12  and  C_4 
REMARK       I    between atoms: C_8  and  N_9 
REMARK    3  A    between atoms: C_11  and  C_8 
ROOT
ATOM      1  C   UNL d   1       4.144  -4.618   1.485  0.00  0.00     0.253 C 
ATOM      2  N   UNL d   1       3.550  -3.545   0.812  0.00  0.00    -0.348 N 
ATOM      3  C   UNL d   1       0.939  -2.381   0.434  0.00  0.00     0.066 C 
ATOM      4  C   UNL d   1       2.963  -3.744  -0.516  0.00  0.00     0.127 C 
ATOM      5  C   UNL d   1       3.294  -2.219   1.337  0.00  0.00     0.127 C 
ATOM      6  O   UNL d   1       4.279  -5.724   0.966  0.00  0.00    -0.267 OA
ATOM      7  C   UNL d   1       1.812  -2.161   1.681  0.00  0.00     0.033 C 
ATOM      8  C   UNL d   1       1.448  -3.486  -0.512  0.00  0.00     0.033 C 
ENDROOT
BRANCH   3   9
ATOM      9  C   UNL d   1       0.691  -1.057  -0.209  0.00  0.00     0.152 A 
ATOM     10  N   UNL d   1       1.529  -0.074  -0.453  0.00  0.00    -0.322 N 
ATOM     11  C   UNL d   1       0.686   1.014  -0.572  0.00  0.00     0.137 A 
ATOM     12  HN  UNL d   1       2.546  -0.107  -0.534  1.00  0.00     0.169 HD
ATOM     13  N   UNL d   1      -0.617   0.703  -0.490  0.00  0.00    -0.242 N 
ATOM     14  O   UNL d   1      -0.617  -0.666  -0.256  0.00  0.00    -0.222 OA
ATOM     15  HN  UNL d   1      -1.419   1.327  -0.578  1.00  0.00     0.196 HD
BRANCH  11  16
ATOM     16  C   UNL d   1       1.184   2.380  -0.673  0.00  0.00     0.010 A 
ATOM     17  C   UNL d   1       2.468   2.630  -1.174  0.00  0.00     0.017 A 
ATOM     18  C   UNL d   1       2.957   3.938  -1.256  0.00  0.00     0.025 A 
ATOM     19  C   UNL d   1       2.167   5.002  -0.823  0.00  0.00     0.034 A 
ATOM     20  C   UNL d   1       0.893   4.771  -0.310  0.00  0.00     0.025 A 
ATOM     21 CL   UNL d   1       2.771   6.611  -0.921  0.00  0.00    -0.084 Cl
ATOM     22  C   UNL d   1       0.402   3.464  -0.238  0.00  0.00     0.017 A 
ENDBRANCH  11  16
ENDBRANCH   3   9
BRANCH   1  23
ATOM     23  C   UNL d   1       4.698  -4.454   2.871  0.00  0.00     0.032 A 
ATOM     24  C   UNL d   1       4.020  -3.797   3.908  0.00  0.00     0.018 A 
ATOM     25  C   UNL d   1       4.609  -3.640   5.165  0.00  0.00     0.025 A 
ATOM     26  C   UNL d   1       5.855  -4.200   5.420  0.00  0.00     0.034 A 
ATOM     27  C   UNL d   1       6.509  -4.930   4.430  0.00  0.00     0.025 A 
ATOM     28 CL   UNL d   1       6.577  -4.004   6.968  0.00  0.00    -0.084 Cl
ATOM     29  C   UNL d   1       5.931  -5.057   3.160  0.00  0.00     0.018 A 
ENDBRANCH   1  23
TORSDOF 3
