REMARK  1 active torsions:
REMARK  status: ('A' for Active; 'I' for Inactive)
REMARK    1  A    between atoms: C_4  and  C_1 
ROOT
ATOM      1  C   UNL d   1      -1.373  -2.452   0.076  0.00  0.00     0.064 C 
ATOM      2  C   UNL d   1      -0.924  -3.605   0.614  0.00  0.00     0.126 C 
ATOM      3  N   UNL d   1       1.435  -3.845   1.631  0.00  0.00    -0.191 NA
ATOM      4  N   UNL d   1      -2.475  -5.673   0.582  0.00  0.00    -0.191 NA
ATOM      5  C   UNL d   1       0.358  -3.757   1.208  0.00  0.00     0.111 C 
ATOM      6  C   UNL d   1      -1.775  -4.747   0.599  0.00  0.00     0.111 C 
ENDROOT
BRANCH   1   7
ATOM      7  C   UNL d   1      -0.699  -1.197   0.032  0.00  0.00     0.040 A 
ATOM      8  N   UNL d   1       0.676  -1.111  -0.034  0.00  0.00    -0.359 N 
ATOM      9  C   UNL d   1       1.078   0.200  -0.021  0.00  0.00     0.006 A 
ATOM     10  H   UNL d   1       1.327  -1.885  -0.062  0.00  0.00     0.166 HD
ATOM     11  C   UNL d   1       2.513   0.576  -0.004  0.00  0.00     0.068 C 
ATOM     12  C   UNL d   1      -0.058   0.976  -0.027  0.00  0.00     0.033 A 
ATOM     13  C   UNL d   1      -1.186   0.106  -0.010  0.00  0.00    -0.033 A 
ATOM     14  C   UNL d   1      -2.603   0.563  -0.007  0.00  0.00     0.050 C 
ENDBRANCH   1   7
TORSDOF 1
