REMARK  2 active torsions:
REMARK  status: ('A' for Active; 'I' for Inactive)
REMARK    1  A    between atoms: N_6  and  C_1 
REMARK       I    between atoms: C_8  and  N_6 
REMARK    2  A    between atoms: C_10  and  C_8 
ROOT
ATOM      1  C   UNL d   1       2.357  -0.479  -0.341  0.00  0.00     0.155 C 
ATOM      2  S   UNL d   1       2.311   1.105  -1.037  0.00  0.00    -0.011 SA
ATOM      3  C   UNL d   1       0.913   1.689  -0.188  0.00  0.00     0.228 C 
ATOM      4  N   UNL d   1       1.330  -1.156   0.061  0.00  0.00    -0.336 N 
ATOM      5  HN  UNL d   1       1.460  -2.097   0.431  1.00  0.00     0.168 HD
ATOM      6  C   UNL d   1      -0.216   0.764  -0.069  0.00  0.00     0.048 A 
ATOM      7  C   UNL d   1       0.036  -0.607  -0.007  0.00  0.00     0.048 A 
ATOM      8  O   UNL d   1       0.833   2.846   0.203  0.00  0.00    -0.279 OA
ATOM      9  C   UNL d   1      -1.519   1.277  -0.040  0.00  0.00     0.018 A 
ATOM     10  C   UNL d   1      -1.063  -1.471   0.055  0.00  0.00     0.030 A 
ATOM     11  C   UNL d   1      -2.599   0.403   0.015  0.00  0.00     0.001 A 
ATOM     12  C   UNL d   1      -2.371  -0.972   0.055  0.00  0.00     0.002 A 
ENDROOT
BRANCH   1  13
ATOM     13  N   UNL d   1       3.585  -1.097  -0.200  0.00  0.00    -0.301 N 
ATOM     14  C   UNL d   1       4.869  -0.675  -0.542  0.00  0.00     0.281 C 
ATOM     15  O   UNL d   1       5.128   0.350  -1.162  0.00  0.00    -0.265 OA
ATOM     16  H   UNL d   1       3.531  -1.994   0.262  0.00  0.00     0.171 HD
BRANCH  14  17
ATOM     17  C   UNL d   1       5.920  -1.582  -0.125  0.00  0.00     0.142 A 
ATOM     18  O   UNL d   1       5.619  -2.709   0.595  0.00  0.00    -0.317 OA
ATOM     19  C   UNL d   1       6.796  -3.346   0.839  0.00  0.00     0.143 A 
ATOM     20  C   UNL d   1       7.848  -2.655   0.285  0.00  0.00     0.027 A 
ATOM     21  C   UNL d   1       7.285  -1.516  -0.332  0.00  0.00     0.045 A 
ENDBRANCH  14  17
ENDBRANCH   1  13
TORSDOF 2
