REMARK  6 active torsions:
REMARK  status: ('A' for Active; 'I' for Inactive)
REMARK    1  A    between atoms: N_7  and  N_1 
REMARK    2  A    between atoms: O_15  and  C_3 
REMARK       I    between atoms: C_4  and  N_7 
REMARK    3  A    between atoms: C_10  and  C_4 
REMARK    4  A    between atoms: O_17  and  C_5 
REMARK    5  A    between atoms: C_8  and  C_10 
REMARK    6  A    between atoms: C_13  and  C_12 
ROOT
ATOM      1  C   UNL d   1      -1.061   0.780   0.601  0.00  0.00     0.240 C 
ATOM      2  N   UNL d   1      -0.732  -0.528   0.947  0.00  0.00    -0.270 N 
ATOM      3  O   UNL d   1      -0.799   1.312  -0.478  0.00  0.00    -0.272 OA
ATOM      4  H   UNL d   1      -1.046  -0.937   1.819  0.00  0.00     0.190 HD
ENDROOT
BRANCH   1   5
ATOM      5  C   UNL d   1      -1.775   1.547   1.700  0.00  0.00     0.143 C 
BRANCH   5   6
ATOM      6  C   UNL d   1      -3.282   1.462   1.632  0.00  0.00    -0.047 A 
ATOM      7  C   UNL d   1      -4.020   0.958   2.718  0.00  0.00     0.047 A 
ATOM      8  C   UNL d   1      -5.426   0.927   2.702  0.00  0.00     0.102 A 
ATOM      9  C   UNL d   1      -6.104   1.444   1.585  0.00  0.00     0.101 A 
ATOM     10  C   UNL d   1      -5.368   1.916   0.491  0.00  0.00     0.040 A 
ATOM     11  C   UNL d   1      -3.973   1.930   0.511  0.00  0.00     0.010 A 
BRANCH   8  12
ATOM     12  O   UNL d   1      -6.178   0.388   3.713  0.00  0.00    -0.353 OA
ATOM     13  C   UNL d   1      -5.505  -0.162   4.836  0.00  0.00     0.210 C 
ENDBRANCH   8  12
BRANCH   9  14
ATOM     14  O   UNL d   1      -7.460   1.507   1.388  0.00  0.00    -0.353 OA
ATOM     15  C   UNL d   1      -8.274   1.714   2.536  0.00  0.00     0.210 C 
ENDBRANCH   9  14
ENDBRANCH   5   6
ENDBRANCH   1   5
BRANCH   2  16
ATOM     16  N   UNL d   1      -0.106  -1.299   0.023  0.00  0.00    -0.308 N 
ATOM     17  C   UNL d   1       0.167  -2.521   0.340  0.00  0.00     0.118 C 
ATOM     18  HN  UNL d   1       0.142  -0.925  -0.893  1.00  0.00     0.186 HD
BRANCH  17  19
ATOM     19  C   UNL d   1       0.792  -3.430  -0.644  0.00  0.00    -0.019 A 
ATOM     20  C   UNL d   1       1.101  -2.972  -1.929  0.00  0.00     0.013 A 
ATOM     21  C   UNL d   1       1.627  -3.852  -2.876  0.00  0.00     0.007 A 
ATOM     22  C   UNL d   1       1.845  -5.196  -2.549  0.00  0.00    -0.062 A 
ATOM     23  C   UNL d   1       1.557  -5.639  -1.251  0.00  0.00     0.007 A 
ATOM     24  C   UNL d   1       2.364  -6.141  -3.593  0.00  0.00     0.048 C 
ATOM     25  C   UNL d   1       1.033  -4.761  -0.297  0.00  0.00     0.013 A 
ENDBRANCH  17  19
ENDBRANCH   2  16
TORSDOF 6
