REMARK  1 active torsions:
REMARK  status: ('A' for Active; 'I' for Inactive)
REMARK    1  A    between atoms: C_18  and  N_4 
ROOT
ATOM      1  C   UNL d   1       2.707  -0.688  -0.007  0.00  0.00     0.139 A 
ATOM      2  C   UNL d   1       1.749   0.276   0.023  0.00  0.00     0.105 A 
ATOM      3  N   UNL d   1       4.059  -0.277  -0.114  0.00  0.00    -0.288 N 
ATOM      4  N   UNL d   1       2.300  -2.063   0.011  0.00  0.00    -0.262 N 
ATOM      5  N   UNL d   1       3.491   2.000   0.082  0.00  0.00    -0.270 N 
ATOM      6  C   UNL d   1       4.473   1.048   0.043  0.00  0.00     0.332 C 
ATOM      7  C   UNL d   1       2.149   1.719  -0.021  0.00  0.00     0.267 C 
ATOM      8  C   UNL d   1       0.937  -2.446  -0.015  0.00  0.00     0.266 A 
ATOM      9  C   UNL d   1      -0.075  -1.395  -0.006  0.00  0.00     0.061 A 
ATOM     10  C   UNL d   1       0.315  -0.084   0.034  0.00  0.00     0.068 A 
ATOM     11  N   UNL d   1      -0.614   0.904   0.061  0.00  0.00    -0.354 N 
ATOM     12  HN  UNL d   1      -0.310   1.877   0.103  1.00  0.00     0.166 HD
ATOM     13  C   UNL d   1      -1.929   0.623   0.034  0.00  0.00     0.046 A 
ATOM     14  C   UNL d   1      -2.416  -0.695  -0.001  0.00  0.00     0.013 A 
ATOM     15  C   UNL d   1      -1.442  -1.712  -0.018  0.00  0.00     0.035 A 
ATOM     16  C   UNL d   1      -3.817  -0.911  -0.019  0.00  0.00     0.048 A 
ATOM     17  C   UNL d   1      -2.832   1.676   0.036  0.00  0.00     0.054 A 
ATOM     18  C   UNL d   1      -4.709   0.160  -0.011  0.00  0.00     0.048 A 
ATOM     19  O   UNL d   1       5.667   1.354   0.104  0.00  0.00    -0.246 OA
ATOM     20  O   UNL d   1       1.333   2.628  -0.147  0.00  0.00    -0.267 OA
ATOM     21  O   UNL d   1       0.519  -3.606  -0.010  0.00  0.00    -0.267 OA
ATOM     22  C   UNL d   1      -4.208   1.452   0.012  0.00  0.00     0.037 A 
ATOM     23  C   UNL d   1       5.177  -1.152  -0.440  0.00  0.00     0.163 C 
ATOM     24  C   UNL d   1       3.877   3.404   0.065  0.00  0.00     0.164 C 
ATOM     25 CL   UNL d   1      -4.497  -2.503  -0.050  0.00  0.00    -0.083 Cl
ATOM     26 CL   UNL d   1      -5.293   2.786   0.013  0.00  0.00    -0.084 Cl
ENDROOT
BRANCH   4  27
ATOM     27  C   UNL d   1       3.183  -3.190   0.118  0.00  0.00     0.044 A 
ATOM     28  C   UNL d   1       3.188  -4.160  -0.900  0.00  0.00     0.030 A 
ATOM     29  C   UNL d   1       4.110  -5.206  -0.877  0.00  0.00     0.002 A 
ATOM     30  C   UNL d   1       5.021  -5.302   0.171  0.00  0.00     0.000 A 
ATOM     31  C   UNL d   1       4.981  -4.381   1.219  0.00  0.00     0.002 A 
ATOM     32  C   UNL d   1       4.051  -3.337   1.206  0.00  0.00     0.030 A 
ENDBRANCH   4  27
TORSDOF 1
