REMARK  2 active torsions:
REMARK  status: ('A' for Active; 'I' for Inactive)
REMARK    1  A    between atoms: C_6  and  C_1 
REMARK    2  A    between atoms: C_8  and  C_3 
ROOT
ATOM      1  C   UNL d   1       0.490  -0.830  -0.787  0.00  0.00     0.134 A 
ATOM      2  C   UNL d   1      -0.089   0.343  -1.217  0.00  0.00     0.067 A 
ATOM      3  C   UNL d   1      -0.331   1.112  -0.042  0.00  0.00     0.061 A 
ATOM      4  N   UNL d   1       0.092   0.435   1.039  0.00  0.00    -0.300 N 
ATOM      5  HN  UNL d   1       0.068   0.744   2.011  1.00  0.00     0.187 HD
ATOM      6  N   UNL d   1       0.550  -0.731   0.567  0.00  0.00    -0.296 N 
ATOM      7  H   UNL d   1       0.902  -1.411   1.235  0.00  0.00     0.187 HD
ENDROOT
BRANCH   3   8
ATOM      8  C   UNL d   1      -0.890   2.474   0.035  0.00  0.00     0.003 A 
ATOM      9  C   UNL d   1      -1.743   2.920   1.096  0.00  0.00    -0.013 A 
ATOM     10  C   UNL d   1      -2.191   4.268   1.080  0.00  0.00    -0.025 A 
ATOM     11  C   UNL d   1      -2.195   2.114   2.174  0.00  0.00     0.013 A 
ATOM     12  C   UNL d   1      -3.015   4.758   2.108  0.00  0.00     0.012 A 
ATOM     13  C   UNL d   1      -1.819   5.126   0.036  0.00  0.00     0.012 A 
ATOM     14  C   UNL d   1      -3.420   3.939   3.159  0.00  0.00     0.001 A 
ATOM     15  C   UNL d   1      -3.014   2.615   3.190  0.00  0.00     0.001 A 
ATOM     16  C   UNL d   1      -1.006   4.681  -1.000  0.00  0.00     0.002 A 
ATOM     17  C   UNL d   1      -0.544   3.369  -0.998  0.00  0.00     0.014 A 
ENDBRANCH   3   8
BRANCH   1  18
ATOM     18  C   UNL d   1       0.997  -2.024  -1.474  0.00  0.00     0.434 C 
ATOM     19  F   UNL d   1       0.913  -1.921  -2.821  0.00  0.00    -0.165 F 
ATOM     20  F   UNL d   1       2.298  -2.253  -1.169  0.00  0.00    -0.165 F 
ATOM     21  F   UNL d   1       0.310  -3.134  -1.110  0.00  0.00    -0.165 F 
ENDBRANCH   1  18
TORSDOF 2
