REMARK  3 active torsions:
REMARK  status: ('A' for Active; 'I' for Inactive)
REMARK    1  A    between atoms: C_2  and  C_1 
REMARK    2  A    between atoms: O_17  and  C_10 
REMARK    3  A    between atoms: O_18  and  C_12 
ROOT
ATOM      1  C   UNL d   1      -2.452   0.661  -0.414  0.00  0.00     0.220 C 
ATOM      2  C   UNL d   1      -1.288  -1.408   0.102  0.00  0.00     0.258 C 
ATOM      3  N   UNL d   1      -2.403  -0.613   0.237  0.00  0.00    -0.331 N 
ATOM      4  C   UNL d   1      -0.005  -0.696  -0.033  0.00  0.00     0.097 A 
ATOM      5  N   UNL d   1      -1.247   1.409  -0.107  0.00  0.00    -0.364 N 
ATOM      6  C   UNL d   1      -0.044   0.705  -0.023  0.00  0.00     0.048 A 
ATOM      7  O   UNL d   1      -1.391  -2.627   0.155  0.00  0.00    -0.267 OA
ATOM      8  C   UNL d   1       1.212  -1.373  -0.051  0.00  0.00     0.134 A 
ATOM      9  F   UNL d   1       1.273  -2.712  -0.067  0.00  0.00    -0.205 F 
ATOM     10  C   UNL d   1       1.166   1.409  -0.004  0.00  0.00     0.030 A 
ATOM     11  C   UNL d   1       2.388   0.730  -0.008  0.00  0.00     0.005 A 
ATOM     12  C   UNL d   1       2.410  -0.663  -0.043  0.00  0.00     0.043 A 
ATOM     13  H   UNL d   1      -3.251  -1.159   0.232  0.00  0.00     0.165 HD
ATOM     14  H   UNL d   1      -1.337   2.175   0.552  0.00  0.00     0.162 HD
ENDROOT
BRANCH   1  15
ATOM     15  C   UNL d   1      -3.690   1.436   0.004  0.00  0.00     0.005 A 
ATOM     16  C   UNL d   1      -4.708   1.828  -0.893  0.00  0.00     0.041 A 
ATOM     17  C   UNL d   1      -5.833   2.540  -0.419  0.00  0.00     0.065 A 
ATOM     18 BR   UNL d   1      -4.548   1.429  -2.759  0.00  0.00    -0.049 Br
ATOM     19 BR   UNL d   1      -7.225   3.132  -1.595  0.00  0.00    -0.046 Br
ATOM     20  C   UNL d   1      -5.929   2.885   0.941  0.00  0.00     0.117 A 
ATOM     21  C   UNL d   1      -4.936   2.501   1.841  0.00  0.00     0.103 A 
ATOM     22  C   UNL d   1      -3.836   1.782   1.369  0.00  0.00     0.052 A 
BRANCH  20  23
ATOM     23  O   UNL d   1      -6.983   3.657   1.350  0.00  0.00    -0.357 OA
ATOM     24  H   UNL d   1      -6.626   4.302   1.982  0.00  0.00     0.218 HD
ENDBRANCH  20  23
BRANCH  21  25
ATOM     25  O   UNL d   1      -4.867   2.869   3.157  0.00  0.00    -0.353 OA
ATOM     26  C   UNL d   1      -6.050   2.688   3.932  0.00  0.00     0.210 C 
ENDBRANCH  21  25
ENDBRANCH   1  15
TORSDOF 3
