REMARK  4 active torsions:
REMARK  status: ('A' for Active; 'I' for Inactive)
REMARK    1  A    between atoms: C_5  and  N_1 
REMARK    2  A    between atoms: C_10  and  C_4 
REMARK       I    between atoms: N_17  and  C_10 
REMARK    3  A    between atoms: C_11  and  C_20 
REMARK    4  A    between atoms: N_14  and  N_17 
ROOT
ATOM      1  N   UNL d   1       0.898  -0.601  -0.091  0.00  0.00    -0.257 N 
ATOM      2  N   UNL d   1       0.931   0.761  -0.170  0.00  0.00    -0.288 N 
ATOM      3  HN  UNL d   1       1.756   1.360  -0.208  1.00  0.00     0.188 HD
ATOM      4  C   UNL d   1      -0.360   1.144  -0.187  0.00  0.00     0.119 A 
ATOM      5  C   UNL d   1      -0.402  -1.071   0.055  0.00  0.00     0.033 A 
ATOM      6  C   UNL d   1      -1.218   0.028  -0.079  0.00  0.00     0.063 A 
ATOM      7  C   UNL d   1      -0.807  -2.464   0.378  0.00  0.00     0.070 C 
ENDROOT
BRANCH   4   8
ATOM      8  C   UNL d   1      -0.808   2.543  -0.260  0.00  0.00     0.288 C 
ATOM      9  N   UNL d   1       0.214   3.477  -0.159  0.00  0.00    -0.265 N 
ATOM     10  H   UNL d   1       1.165   3.146  -0.023  0.00  0.00     0.190 HD
ATOM     11  O   UNL d   1      -2.001   2.820  -0.373  0.00  0.00    -0.264 OA
BRANCH   9  12
ATOM     12  N   UNL d   1      -0.107   4.802  -0.118  0.00  0.00    -0.308 N 
ATOM     13  C   UNL d   1       0.847   5.646   0.087  0.00  0.00     0.122 C 
ATOM     14  HN  UNL d   1      -1.069   5.115  -0.246  1.00  0.00     0.186 HD
BRANCH  13  15
ATOM     15  C   UNL d   1       0.567   7.100   0.146  0.00  0.00     0.024 A 
ATOM     16  C   UNL d   1      -0.592   7.612   0.755  0.00  0.00     0.047 A 
ATOM     17 CL   UNL d   1      -1.720   6.644   1.642  0.00  0.00    -0.083 Cl
ATOM     18  C   UNL d   1      -0.855   8.989   0.731  0.00  0.00     0.025 A 
ATOM     19  C   UNL d   1       0.035   9.867   0.117  0.00  0.00     0.003 A 
ATOM     20  C   UNL d   1       1.200   9.371  -0.463  0.00  0.00     0.025 A 
ATOM     21  C   UNL d   1       1.469   7.996  -0.449  0.00  0.00     0.047 A 
ATOM     22 CL   UNL d   1       2.928   7.477  -1.221  0.00  0.00    -0.083 Cl
ENDBRANCH  13  15
ENDBRANCH   9  12
ENDBRANCH   4   8
BRANCH   1  23
ATOM     23  C   UNL d   1       2.104  -1.350  -0.117  0.00  0.00     0.100 A 
ATOM     24  C   UNL d   1       3.188  -0.984   0.704  0.00  0.00     0.066 A 
ATOM     25  C   UNL d   1       4.351  -1.768   0.731  0.00  0.00     0.050 A 
ATOM     26 CL   UNL d   1       3.167   0.346   1.815  0.00  0.00    -0.082 Cl
ATOM     27  C   UNL d   1       4.439  -2.914  -0.052  0.00  0.00     0.037 A 
ATOM     28  C   UNL d   1       3.394  -3.268  -0.895  0.00  0.00     0.050 A 
ATOM     29 CL   UNL d   1       5.853  -3.890   0.015  0.00  0.00    -0.084 Cl
ATOM     30  C   UNL d   1       2.239  -2.478  -0.949  0.00  0.00     0.066 A 
ATOM     31 CL   UNL d   1       1.110  -2.898  -2.194  0.00  0.00    -0.082 Cl
ENDBRANCH   1  23
TORSDOF 4
