REMARK  7 active torsions:
REMARK  status: ('A' for Active; 'I' for Inactive)
REMARK    1  A    between atoms: C_13  and  C_1 
REMARK    2  A    between atoms: C_2  and  N_12 
REMARK    3  A    between atoms: N_8  and  C_2 
REMARK    4  A    between atoms: O_15  and  C_4 
REMARK    5  A    between atoms: N_12  and  N_6 
REMARK    6  A    between atoms: C_17  and  N_8 
REMARK    7  A    between atoms: C_18  and  C_17 
ROOT
ATOM      1  N   UNL d   1      -0.810   5.834   0.284  0.00  0.00    -0.309 N 
ATOM      2  HN  UNL d   1      -1.129   6.800   0.353  1.00  0.00     0.186 HD
ATOM      3  C   UNL d   1      -1.630   4.839   0.167  0.00  0.00     0.121 C 
ENDROOT
BRANCH   1   4
ATOM      4  N   UNL d   1       0.510   5.495   0.309  0.00  0.00    -0.277 N 
ATOM      5  H   UNL d   1       0.755   4.540   0.538  0.00  0.00     0.189 HD
BRANCH   4   6
ATOM      6  C   UNL d   1       1.503   6.443   0.259  0.00  0.00     0.186 C 
ATOM      7  S   UNL d   1       1.297   8.100   0.357  0.00  0.00    -0.040 SA
BRANCH   6   8
ATOM      8  N   UNL d   1       2.776   5.974   0.063  0.00  0.00    -0.362 N 
ATOM      9  H   UNL d   1       3.446   6.732  -0.013  0.00  0.00     0.162 HD
BRANCH   8  10
ATOM     10  C   UNL d   1       3.186   4.699  -0.531  0.00  0.00     0.079 C 
ATOM     11  C   UNL d   1       4.504   4.254   0.099  0.00  0.00     0.032 C 
BRANCH  10  12
ATOM     12  C   UNL d   1       3.357   4.821  -2.058  0.00  0.00     0.020 C 
ATOM     13  C   UNL d   1       2.070   5.113  -2.817  0.00  0.00     0.007 C 
ENDBRANCH  10  12
ENDBRANCH   8  10
ENDBRANCH   6   8
ENDBRANCH   4   6
ENDBRANCH   1   4
BRANCH   3  14
ATOM     14  C   UNL d   1      -3.089   5.066   0.113  0.00  0.00     0.017 A 
ATOM     15  C   UNL d   1      -3.954   4.017  -0.209  0.00  0.00     0.099 A 
ATOM     16  C   UNL d   1      -5.333   4.254  -0.261  0.00  0.00     0.069 A 
ATOM     17 CL   UNL d   1      -6.419   2.973  -0.662  0.00  0.00    -0.081 Cl
ATOM     18  C   UNL d   1      -5.848   5.518   0.010  0.00  0.00     0.050 A 
ATOM     19  C   UNL d   1      -4.975   6.555   0.327  0.00  0.00     0.036 A 
ATOM     20  C   UNL d   1      -3.601   6.342   0.375  0.00  0.00     0.039 A 
ATOM     21 CL   UNL d   1      -5.606   8.123   0.669  0.00  0.00    -0.084 Cl
BRANCH  15  22
ATOM     22  O   UNL d   1      -3.448   2.774  -0.476  0.00  0.00    -0.358 OA
ATOM     23  H   UNL d   1      -4.200   2.192  -0.708  0.00  0.00     0.217 HD
ENDBRANCH  15  22
ENDBRANCH   3  14
TORSDOF 7
