REMARK  2 active torsions:
REMARK  status: ('A' for Active; 'I' for Inactive)
REMARK    1  A    between atoms: N_3  and  S_1 
REMARK    2  A    between atoms: C_9  and  S_1 
ROOT
ATOM      1  C   UNL d   1      -1.613  -2.765  -0.499  0.00  0.00    -0.009 A 
ATOM      2  N   UNL d   1       0.324  -1.424   0.309  0.00  0.00    -0.202 NA
ATOM      3  C   UNL d   1      -0.886  -3.917  -0.295  0.00  0.00     0.019 A 
ATOM      4  N   UNL d   1      -1.636  -4.997  -0.655  0.00  0.00    -0.358 N 
ATOM      5  C   UNL d   1      -2.877  -3.169  -1.027  0.00  0.00     0.003 A 
ATOM      6  C   UNL d   1      -1.071  -1.385  -0.267  0.00  0.00     0.149 C 
ATOM      7  C   UNL d   1      -2.856  -4.566  -1.132  0.00  0.00     0.043 A 
ATOM      8  C   UNL d   1       0.512  -3.942   0.190  0.00  0.00     0.073 C 
ATOM      9  C   UNL d   1       1.157  -2.592  -0.174  0.00  0.00     0.114 C 
ATOM     10  C   UNL d   1      -4.027  -2.479  -1.456  0.00  0.00     0.056 A 
ATOM     11  C   UNL d   1      -3.926  -5.305  -1.656  0.00  0.00     0.033 A 
ATOM     12  C   UNL d   1      -5.095  -3.212  -1.976  0.00  0.00     0.117 A 
ATOM     13  C   UNL d   1      -5.052  -4.596  -2.081  0.00  0.00     0.044 A 
ATOM     14  F   UNL d   1      -6.189  -2.559  -2.392  0.00  0.00    -0.206 F 
ATOM     15  H   UNL d   1      -1.342  -5.963  -0.620  0.00  0.00     0.166 HD
ENDROOT
BRANCH   2  16
ATOM     16  S   UNL d   1       1.179   0.050   0.114  0.00  0.00     0.243 S 
ATOM     17  O   UNL d   1       1.074   0.432  -1.280  0.00  0.00    -0.206 OA
ATOM     18  O   UNL d   1       2.472  -0.092   0.748  0.00  0.00    -0.206 OA
BRANCH  16  19
ATOM     19  C   UNL d   1       0.268   1.226   1.083  0.00  0.00     0.074 A 
ATOM     20  C   UNL d   1       0.217   1.064   2.472  0.00  0.00     0.026 A 
ATOM     21  C   UNL d   1      -0.395   2.044   3.256  0.00  0.00     0.025 A 
ATOM     22  C   UNL d   1      -0.944   3.176   2.651  0.00  0.00     0.034 A 
ATOM     23  C   UNL d   1      -0.895   3.334   1.265  0.00  0.00     0.025 A 
ATOM     24 CL   UNL d   1      -1.669   4.397   3.622  0.00  0.00    -0.084 Cl
ATOM     25  C   UNL d   1      -0.286   2.357   0.474  0.00  0.00     0.026 A 
ENDBRANCH  16  19
ENDBRANCH   2  16
TORSDOF 2
