REMARK  4 active torsions:
REMARK  status: ('A' for Active; 'I' for Inactive)
REMARK    1  A    between atoms: C_9  and  N_1 
REMARK    2  A    between atoms: C_6  and  C_3 
REMARK    3  A    between atoms: O_11  and  C_6 
REMARK    4  A    between atoms: C_14  and  O_11 
ROOT
ATOM      1  N   UNL d   1      -0.649  -0.966  -0.266  0.00  0.00    -0.340 N 
ATOM      2  C   UNL d   1       0.731  -0.965  -0.234  0.00  0.00     0.290 C 
ATOM      3  C   UNL d   1      -0.060   1.341  -0.309  0.00  0.00     0.183 C 
ATOM      4  C   UNL d   1       1.133   0.492  -0.037  0.00  0.00     0.231 C 
ATOM      5  C   UNL d   1      -1.176   0.361   0.004  0.00  0.00     0.149 C 
ATOM      6  O   UNL d   1       1.535  -1.865  -0.355  0.00  0.00    -0.264 OA
ATOM      7  O   UNL d   1       2.242   0.880   0.272  0.00  0.00    -0.286 OA
ENDROOT
BRANCH   1   8
ATOM      8  C   UNL d   1      -1.552  -2.081  -0.576  0.00  0.00     0.087 C 
ATOM      9  C   UNL d   1      -1.426  -3.282   0.369  0.00  0.00     0.025 C 
ATOM     10  C   UNL d   1      -0.349  -4.293  -0.009  0.00  0.00     0.002 C 
ATOM     11  C   UNL d   1      -0.377  -4.664  -1.488  0.00  0.00     0.000 C 
ATOM     12  C   UNL d   1      -0.388  -3.450  -2.407  0.00  0.00     0.002 C 
ATOM     13  C   UNL d   1      -1.510  -2.480  -2.056  0.00  0.00     0.025 C 
ENDBRANCH   1   8
BRANCH   3  14
ATOM     14  C   UNL d   1      -0.113   1.734  -1.752  0.00  0.00     0.272 C 
ATOM     15  O   UNL d   1       0.476   1.160  -2.656  0.00  0.00    -0.264 OA
BRANCH  14  16
ATOM     16  O   UNL d   1      -0.893   2.839  -1.903  0.00  0.00    -0.321 OA
BRANCH  16  17
ATOM     17  C   UNL d   1      -0.679   3.554  -3.130  0.00  0.00     0.174 C 
ATOM     18  C   UNL d   1       0.479   4.510  -2.909  0.00  0.00     0.034 C 
ENDBRANCH  16  17
ENDBRANCH  14  16
ENDBRANCH   3  14
TORSDOF 4
