REMARK  8 active torsions:
REMARK  status: ('A' for Active; 'I' for Inactive)
REMARK    1  A    between atoms: C_9  and  C_1 
REMARK    2  A    between atoms: C_11  and  N_4 
REMARK    3  A    between atoms: C_8  and  C_10 
REMARK    4  A    between atoms: C_13  and  C_11 
REMARK    5  A    between atoms: C_12  and  N_17 
REMARK    6  A    between atoms: N_16  and  C_12 
REMARK       I    between atoms: N_18  and  C_13 
REMARK    7  A    between atoms: C_20  and  N_16 
REMARK    8  A    between atoms: N_17  and  N_18 
ROOT
ATOM      1  C   UNL d   1       1.768   1.246  -0.163  0.00  0.00     0.271 C 
ENDROOT
BRANCH   1   2
ATOM      2  N   UNL d   1       0.539   0.516   0.040  0.00  0.00    -0.207 N 
ATOM      3  N   UNL d   1      -0.617   1.000  -0.462  0.00  0.00    -0.268 N 
ATOM      4  C   UNL d   1      -1.509   0.278   0.239  0.00  0.00     0.145 A 
ATOM      5  HN  UNL d   1      -0.772   1.714  -1.174  1.00  0.00     0.190 HD
ATOM      6  N   UNL d   1      -0.914  -0.555   1.150  0.00  0.00    -0.266 N 
ATOM      7  N   UNL d   1       0.394  -0.368   1.043  0.00  0.00    -0.002 NA
ATOM      8  HN  UNL d   1      -1.387  -1.196   1.787  1.00  0.00     0.186 HD
BRANCH   4   9
ATOM      9  C   UNL d   1      -2.940   0.527   0.200  0.00  0.00     0.025 A 
ATOM     10  C   UNL d   1      -3.921  -0.482   0.201  0.00  0.00     0.061 A 
ATOM     11  C   UNL d   1      -5.281  -0.095   0.213  0.00  0.00     0.017 A 
ATOM     12  C   UNL d   1      -5.662   1.247   0.211  0.00  0.00     0.001 A 
ATOM     13  C   UNL d   1      -4.691   2.238   0.197  0.00  0.00     0.001 A 
ATOM     14  C   UNL d   1      -3.346   1.879   0.190  0.00  0.00     0.016 A 
BRANCH  10  15
ATOM     15  C   UNL d   1      -3.640  -1.966   0.174  0.00  0.00     0.418 C 
ATOM     16  F   UNL d   1      -2.354  -2.334  -0.044  0.00  0.00    -0.166 F 
ATOM     17  F   UNL d   1      -4.025  -2.577   1.329  0.00  0.00    -0.166 F 
ATOM     18  F   UNL d   1      -4.355  -2.586  -0.813  0.00  0.00    -0.166 F 
ENDBRANCH  10  15
ENDBRANCH   4   9
ENDBRANCH   1   2
BRANCH   1  19
ATOM     19  C   UNL d   1       2.907   0.373  -0.604  0.00  0.00     0.257 C 
ATOM     20  N   UNL d   1       4.057   1.120  -0.857  0.00  0.00    -0.266 N 
ATOM     21  H   UNL d   1       3.998   2.101  -1.114  0.00  0.00     0.190 HD
ATOM     22  O   UNL d   1       2.859  -0.847  -0.730  0.00  0.00    -0.270 OA
BRANCH  20  23
ATOM     23  N   UNL d   1       5.240   0.463  -1.216  0.00  0.00    -0.273 N 
ATOM     24  H   UNL d   1       5.285   0.123  -2.175  0.00  0.00     0.189 HD
BRANCH  23  25
ATOM     25  C   UNL d   1       5.952  -0.312  -0.302  0.00  0.00     0.191 C 
ATOM     26  S   UNL d   1       5.676  -0.476   1.337  0.00  0.00    -0.039 SA
BRANCH  25  27
ATOM     27  N   UNL d   1       6.998  -0.984  -0.901  0.00  0.00    -0.332 N 
ATOM     28  H   UNL d   1       7.223  -1.883  -0.486  0.00  0.00     0.168 HD
BRANCH  27  29
ATOM     29  C   UNL d   1       8.117  -0.307  -1.458  0.00  0.00     0.035 A 
ATOM     30  C   UNL d   1       9.098  -1.065  -2.093  0.00  0.00     0.054 A 
ATOM     31  C   UNL d   1      10.251  -0.442  -2.604  0.00  0.00     0.053 A 
ATOM     32 CL   UNL d   1      11.397  -1.441  -3.422  0.00  0.00    -0.083 Cl
ATOM     33  C   UNL d   1      10.430   0.933  -2.436  0.00  0.00     0.032 A 
ATOM     34  C   UNL d   1       9.463   1.687  -1.779  0.00  0.00     0.023 A 
ATOM     35 BR   UNL d   1      11.973   1.853  -3.053  0.00  0.00    -0.049 Br
ATOM     36  C   UNL d   1       8.297   1.069  -1.307  0.00  0.00     0.031 A 
ENDBRANCH  27  29
ENDBRANCH  25  27
ENDBRANCH  23  25
ENDBRANCH  20  23
ENDBRANCH   1  19
TORSDOF 8
