REMARK  8 active torsions:
REMARK  status: ('A' for Active; 'I' for Inactive)
REMARK    1  A    between atoms: N_12  and  C_1 
REMARK    2  A    between atoms: C_17  and  N_2 
REMARK    3  A    between atoms: C_3  and  C_9 
REMARK    4  A    between atoms: C_7  and  C_6 
REMARK       I    between atoms: C_9  and  N_12 
REMARK    5  A    between atoms: C_27  and  C_13 
REMARK    6  A    between atoms: C_28  and  C_15 
REMARK    7  A    between atoms: C_20  and  C_22 
REMARK    8  A    between atoms: C_21  and  C_23 
ROOT
ATOM      1  C   UNL d   1      -0.439   1.120  -0.261  0.00  0.00     0.132 A 
ATOM      2  N   UNL d   1       0.907   0.746  -0.283  0.00  0.00    -0.239 N 
ATOM      3  N   UNL d   1       1.044  -0.597  -0.269  0.00  0.00    -0.291 N 
ATOM      4  HN  UNL d   1       1.912  -1.131  -0.318  1.00  0.00     0.187 HD
ATOM      5  C   UNL d   1      -0.189  -1.074  -0.176  0.00  0.00     0.065 A 
ATOM      6  C   UNL d   1      -1.156  -0.062  -0.228  0.00  0.00     0.082 A 
ENDROOT
BRANCH   1   7
ATOM      7  N   UNL d   1      -0.919   2.416  -0.143  0.00  0.00    -0.307 N 
ATOM      8  C   UNL d   1      -1.801   2.740   0.880  0.00  0.00     0.259 C 
ATOM      9  O   UNL d   1      -2.294   1.942   1.679  0.00  0.00    -0.267 OA
ATOM     10  H   UNL d   1      -0.337   3.185  -0.433  0.00  0.00     0.170 HD
BRANCH   8  11
ATOM     11  C   UNL d   1      -1.998   4.178   0.993  0.00  0.00     0.064 A 
ATOM     12  C   UNL d   1      -1.949   5.152  -0.053  0.00  0.00     0.057 A 
ATOM     13  C   UNL d   1      -2.121   6.387   0.528  0.00  0.00     0.087 A 
ATOM     14  O   UNL d   1      -2.312   6.233   1.869  0.00  0.00    -0.314 OA
ATOM     15  C   UNL d   1      -2.241   4.899   2.150  0.00  0.00     0.065 A 
ATOM     16  C   UNL d   1      -2.388   4.555   3.582  0.00  0.00     0.077 C 
BRANCH  13  17
ATOM     17  C   UNL d   1      -2.113   7.752   0.016  0.00  0.00    -0.002 A 
ATOM     18  C   UNL d   1      -2.721   8.798   0.724  0.00  0.00     0.016 A 
ATOM     19  C   UNL d   1      -2.708  10.104   0.222  0.00  0.00     0.024 A 
ATOM     20  C   UNL d   1      -2.080  10.373  -0.992  0.00  0.00     0.034 A 
ATOM     21  C   UNL d   1      -1.468   9.349  -1.708  0.00  0.00     0.024 A 
ATOM     22 CL   UNL d   1      -2.058  11.979  -1.608  0.00  0.00    -0.084 Cl
ATOM     23  C   UNL d   1      -1.486   8.044  -1.206  0.00  0.00     0.016 A 
ENDBRANCH  13  17
ENDBRANCH   8  11
ENDBRANCH   1   7
BRANCH   2  24
ATOM     24  C   UNL d   1       2.105   1.511  -0.202  0.00  0.00     0.060 A 
ATOM     25  C   UNL d   1       3.242   0.882   0.342  0.00  0.00     0.047 A 
ATOM     26  C   UNL d   1       4.482   1.526   0.393  0.00  0.00     0.051 A 
ATOM     27  C   UNL d   1       4.573   2.833  -0.105  0.00  0.00     0.032 A 
ATOM     28  C   UNL d   1       3.451   3.477  -0.661  0.00  0.00     0.051 A 
ATOM     29  C   UNL d   1       2.213   2.809  -0.698  0.00  0.00     0.047 A 
BRANCH  26  30
ATOM     30  C   UNL d   1       5.700   0.806   0.923  0.00  0.00     0.417 C 
ATOM     31  F   UNL d   1       5.450  -0.465   1.342  0.00  0.00    -0.166 F 
ATOM     32  F   UNL d   1       6.680   0.702  -0.017  0.00  0.00    -0.166 F 
ATOM     33  F   UNL d   1       6.262   1.447   1.983  0.00  0.00    -0.166 F 
ENDBRANCH  26  30
BRANCH  28  34
ATOM     34  C   UNL d   1       3.598   4.848  -1.281  0.00  0.00     0.417 C 
ATOM     35  F   UNL d   1       2.435   5.312  -1.823  0.00  0.00    -0.166 F 
ATOM     36  F   UNL d   1       3.997   5.789  -0.386  0.00  0.00    -0.166 F 
ATOM     37  F   UNL d   1       4.511   4.862  -2.288  0.00  0.00    -0.166 F 
ENDBRANCH  28  34
ENDBRANCH   2  24
BRANCH   5  38
ATOM     38  C   UNL d   1      -0.424  -2.479   0.087  0.00  0.00     0.024 A 
ATOM     39  C   UNL d   1      -1.416  -2.956   0.970  0.00  0.00     0.049 A 
ATOM     40  C   UNL d   1      -1.232  -4.319   1.060  0.00  0.00     0.061 A 
ATOM     41  O   UNL d   1      -0.193  -4.701   0.258  0.00  0.00    -0.318 OA
ATOM     42  C   UNL d   1       0.309  -3.572  -0.323  0.00  0.00     0.062 A 
ATOM     43  C   UNL d   1       1.480  -3.763  -1.206  0.00  0.00     0.077 C 
BRANCH  40  44
ATOM     44  C   UNL d   1      -1.927  -5.405   1.832  0.00  0.00    -0.002 C 
ATOM     45  C   UNL d   1      -3.079  -4.817   2.671  0.00  0.00     0.021 C 
ATOM     46  C   UNL d   1      -2.505  -6.429   0.844  0.00  0.00     0.021 C 
ATOM     47  C   UNL d   1      -0.938  -6.097   2.785  0.00  0.00     0.021 C 
ENDBRANCH  40  44
ENDBRANCH   5  38
TORSDOF 8
