REMARK  8 active torsions:
REMARK  status: ('A' for Active; 'I' for Inactive)
REMARK    1  A    between atoms: C_7  and  C_1 
REMARK    2  A    between atoms: N_15  and  C_3 
REMARK    3  A    between atoms: C_9  and  C_7 
REMARK    4  A    between atoms: C_10  and  C_7 
REMARK    5  A    between atoms: N_8  and  C_10 
REMARK    6  A    between atoms: C_25  and  C_10 
REMARK    7  A    between atoms: O_23  and  C_19 
REMARK    8  A    between atoms: O_24  and  C_20 
ROOT
ATOM      1  C   UNL d   1      -0.031   3.142  -0.057  0.00  0.00     0.089 C 
ENDROOT
BRANCH   1   2
ATOM      2  C   UNL d   1      -0.221   1.592  -0.048  0.00  0.00     0.059 C 
ATOM      3  C   UNL d   1      -1.268   0.829  -0.464  0.00  0.00     0.096 C 
ATOM      4  N   UNL d   1      -1.209  -0.558  -0.310  0.00  0.00    -0.294 N 
ATOM      5  C   UNL d   1      -2.303  -1.452  -0.685  0.00  0.00     0.162 C 
ATOM      6  C   UNL d   1      -0.087  -1.242   0.150  0.00  0.00     0.332 C 
ATOM      7  N   UNL d   1       0.999  -0.478   0.497  0.00  0.00    -0.270 N 
ATOM      8  O   UNL d   1      -0.065  -2.473   0.244  0.00  0.00    -0.246 OA
ATOM      9  C   UNL d   1       0.983   0.893   0.527  0.00  0.00     0.261 C 
ATOM     10  C   UNL d   1       2.175  -1.188   0.969  0.00  0.00     0.164 C 
ATOM     11  O   UNL d   1       1.914   1.551   0.993  0.00  0.00    -0.267 OA
BRANCH   3  12
ATOM     12  N   UNL d   1      -2.389   1.370  -1.071  0.00  0.00    -0.288 NA
ATOM     13  H   UNL d   1      -3.235   0.837  -0.912  0.00  0.00     0.125 HD
ATOM     14  H   UNL d   1      -2.608   2.331  -0.887  0.00  0.00     0.125 HD
ENDBRANCH   3  12
ENDBRANCH   1   2
BRANCH   1  15
ATOM     15  C   UNL d   1       0.664   3.592  -1.350  0.00  0.00    -0.042 A 
ATOM     16  C   UNL d   1       0.077   3.374  -2.606  0.00  0.00     0.044 A 
ATOM     17  C   UNL d   1       0.689   3.840  -3.771  0.00  0.00     0.071 A 
ATOM     18  C   UNL d   1       1.897   4.538  -3.689  0.00  0.00     0.073 A 
ATOM     19  C   UNL d   1       2.497   4.771  -2.453  0.00  0.00     0.071 A 
ATOM     20  C   UNL d   1       1.886   4.283  -1.294  0.00  0.00     0.044 A 
BRANCH  17  21
ATOM     21  O   UNL d   1       0.198   3.687  -5.040  0.00  0.00    -0.356 OA
ATOM     22  C   UNL d   1      -1.029   2.980  -5.171  0.00  0.00     0.210 C 
ENDBRANCH  17  21
BRANCH  19  23
ATOM     23  O   UNL d   1       3.658   5.465  -2.242  0.00  0.00    -0.356 OA
ATOM     24  C   UNL d   1       4.288   6.029  -3.387  0.00  0.00     0.210 C 
ENDBRANCH  19  23
ENDBRANCH   1  15
BRANCH   1  25
ATOM     25  C   UNL d   1      -1.249   4.057   0.234  0.00  0.00     0.168 C 
BRANCH  25  26
ATOM     26  N   UNL d   1      -1.927   3.590   1.500  0.00  0.00    -0.150 N 
ATOM     27  O   UNL d   1      -1.231   3.362   2.496  0.00  0.00    -0.536 OA
ATOM     28  O   UNL d   1      -3.159   3.446   1.433  0.00  0.00    -0.536 OA
ENDBRANCH  25  26
BRANCH  25  29
ATOM     29  C   UNL d   1      -1.028   5.581   0.329  0.00  0.00     0.028 C 
ATOM     30  C   UNL d   1      -0.109   6.090   1.426  0.00  0.00     0.007 C 
ENDBRANCH  25  29
ENDBRANCH   1  25
TORSDOF 8
