REMARK  10 active torsions:
REMARK  status: ('A' for Active; 'I' for Inactive)
REMARK    1  A    between atoms: C_11  and  N_5 
REMARK    2  A    between atoms: C_12  and  C_11 
REMARK    3  A    between atoms: C_15  and  C_12 
REMARK    4  A    between atoms: N_13  and  C_15 
REMARK    5  A    between atoms: C_17  and  N_13 
REMARK    6  A    between atoms: C_18  and  N_13 
REMARK    7  A    between atoms: C_20  and  C_17 
REMARK    8  A    between atoms: C_21  and  C_18 
REMARK    9  A    between atoms: C_22  and  C_20 
REMARK   10  A    between atoms: C_23  and  C_21 
ROOT
ATOM      1  C   UNL d   1       2.806  -1.932   0.159  0.00  0.00     0.262 A 
ATOM      2  N   UNL d   1       0.779  -0.591   1.610  0.00  0.00    -0.338 N 
ATOM      3  HN  UNL d   1       0.055  -0.081   2.116  1.00  0.00     0.168 HD
ATOM      4  C   UNL d   1       1.437  -2.454   0.173  0.00  0.00     0.076 A 
ATOM      5  N   UNL d   1       3.039  -0.809   0.943  0.00  0.00    -0.310 N 
ATOM      6  C   UNL d   1       0.486  -1.757   0.900  0.00  0.00     0.121 A 
ATOM      7  C   UNL d   1       2.006  -0.187   1.600  0.00  0.00     0.187 A 
ATOM      8  N   UNL d   1      -0.802  -2.163   0.978  0.00  0.00    -0.351 N 
ATOM      9  HN  UNL d   1      -1.493  -1.638   1.513  1.00  0.00     0.166 HD
ATOM     10  O   UNL d   1       3.659  -2.485  -0.532  0.00  0.00    -0.267 OA
ATOM     11  C   UNL d   1       1.077  -3.613  -0.508  0.00  0.00     0.022 A 
ATOM     12  C   UNL d   1      -1.134  -3.295   0.314  0.00  0.00     0.090 A 
ATOM     13  C   UNL d   1      -0.243  -4.047  -0.432  0.00  0.00     0.018 A 
ENDROOT
BRANCH   5  14
ATOM     14  C   UNL d   1       4.388  -0.246   0.971  0.00  0.00     0.135 C 
BRANCH  14  15
ATOM     15  C   UNL d   1       4.608   0.713  -0.200  0.00  0.00     0.050 C 
BRANCH  15  16
ATOM     16  C   UNL d   1       6.039   1.263  -0.281  0.00  0.00     0.274 C 
BRANCH  16  17
ATOM     17  N   UNL d   1       7.139   0.281  -0.432  0.00  0.00     0.088 N 
BRANCH  17  18
ATOM     18  C   UNL d   1       6.960  -0.537  -1.656  0.00  0.00     0.272 C 
BRANCH  18  19
ATOM     19  C   UNL d   1       8.025  -1.615  -1.939  0.00  0.00     0.030 C 
BRANCH  19  20
ATOM     20  C   UNL d   1       8.162  -2.668  -0.838  0.00  0.00    -0.003 C 
ATOM     21  C   UNL d   1       9.220  -3.702  -1.203  0.00  0.00     0.005 C 
ENDBRANCH  19  20
ENDBRANCH  18  19
ENDBRANCH  17  18
BRANCH  17  22
ATOM     22  C   UNL d   1       8.444   0.984  -0.461  0.00  0.00     0.272 C 
BRANCH  22  23
ATOM     23  C   UNL d   1       8.808   1.751   0.821  0.00  0.00     0.030 C 
BRANCH  23  24
ATOM     24  C   UNL d   1       8.823   0.854   2.059  0.00  0.00    -0.003 C 
ATOM     25  C   UNL d   1       9.155   1.648   3.310  0.00  0.00     0.005 C 
ENDBRANCH  23  24
ENDBRANCH  22  23
ENDBRANCH  17  22
ENDBRANCH  16  17
ENDBRANCH  15  16
ENDBRANCH  14  15
ENDBRANCH   5  14
TORSDOF 10
