REMARK  3 active torsions:
REMARK  status: ('A' for Active; 'I' for Inactive)
REMARK    1  A    between atoms: C_12  and  C_1 
REMARK       I    between atoms: C_4  and  N_10 
REMARK       I    between atoms: N_8  and  C_4 
REMARK    2  A    between atoms: C_11  and  N_8 
REMARK    3  A    between atoms: N_10  and  C_12 
ROOT
ATOM      1  C   UNL d   1      -0.195  -5.184   0.260  0.00  0.00     0.320 C 
ATOM      2  N   UNL d   1      -1.419  -5.797   0.445  0.00  0.00    -0.309 N 
ATOM      3  N   UNL d   1      -0.311  -3.824   0.085  0.00  0.00    -0.339 N 
ATOM      4  O   UNL d   1       0.891  -5.748   0.224  0.00  0.00    -0.247 OA
ATOM      5  H   UNL d   1      -2.230  -5.213   0.318  0.00  0.00     0.170 HD
ATOM      6  H   UNL d   1      -1.189  -3.362   0.266  0.00  0.00     0.164 HD
ENDROOT
BRANCH   3   7
ATOM      7  C   UNL d   1       0.871  -2.996  -0.023  0.00  0.00     0.164 C 
BRANCH   7   8
ATOM      8  C   UNL d   1       0.834  -2.181  -1.283  0.00  0.00    -0.022 A 
ATOM      9  C   UNL d   1       0.678  -2.721  -2.544  0.00  0.00     0.060 A 
ATOM     10  S   UNL d   1       0.795  -1.563  -3.787  0.00  0.00    -0.101 SA
ATOM     11  C   UNL d   1       1.090  -0.288  -2.671  0.00  0.00     0.015 A 
ATOM     12  C   UNL d   1       1.061  -0.747  -1.349  0.00  0.00    -0.011 A 
ATOM     13  C   UNL d   1       1.346   1.062  -2.986  0.00  0.00     0.019 A 
ATOM     14  C   UNL d   1       1.281   0.209  -0.323  0.00  0.00     0.013 A 
ATOM     15  C   UNL d   1       1.527   1.552  -0.630  0.00  0.00     0.001 A 
ATOM     16  C   UNL d   1       1.564   1.971  -1.951  0.00  0.00     0.001 A 
ENDBRANCH   7   8
ENDBRANCH   3   7
BRANCH   2  17
ATOM     17  C   UNL d   1      -1.643  -7.189   0.546  0.00  0.00     0.038 A 
ATOM     18  C   UNL d   1      -0.623  -8.131   0.718  0.00  0.00     0.055 A 
ATOM     19  C   UNL d   1      -0.897  -9.504   0.676  0.00  0.00     0.058 A 
ATOM     20 CL   UNL d   1       0.433 -10.596   0.846  0.00  0.00    -0.082 Cl
ATOM     21  C   UNL d   1      -2.207  -9.947   0.483  0.00  0.00     0.055 A 
ATOM     22  C   UNL d   1      -3.241  -9.015   0.382  0.00  0.00     0.028 A 
ATOM     23 CL   UNL d   1      -2.610 -11.621   0.342  0.00  0.00    -0.083 Cl
ATOM     24  C   UNL d   1      -2.962  -7.644   0.425  0.00  0.00     0.031 A 
ENDBRANCH   2  17
TORSDOF 3
