REMARK  4 active torsions:
REMARK  status: ('A' for Active; 'I' for Inactive)
REMARK       I    between atoms: C_2  and  N_1 
REMARK    1  A    between atoms: C_4  and  N_1 
REMARK    2  A    between atoms: C_9  and  N_1 
REMARK    3  A    between atoms: C_7  and  C_2 
REMARK    4  A    between atoms: C_3  and  C_4 
ROOT
ATOM      1  N   UNL d   1       1.113  -0.012   0.034  0.00  0.00    -0.309 N 
ATOM      2  C   UNL d   1       0.390  -1.171  -0.308  0.00  0.00     0.258 C 
ATOM      3  O   UNL d   1      -0.803  -1.133  -0.641  0.00  0.00    -0.267 OA
ENDROOT
BRANCH   1   4
ATOM      4  C   UNL d   1       0.461   1.329   0.029  0.00  0.00     0.093 C 
ATOM      5  C   UNL d   1      -0.857   1.398   0.807  0.00  0.00     0.033 C 
BRANCH   4   6
ATOM      6  C   UNL d   1       0.286   1.833  -1.391  0.00  0.00     0.009 A 
ATOM      7  C   UNL d   1       1.478   2.210  -2.243  0.00  0.00     0.007 A 
ATOM      8  C   UNL d   1       0.560   3.281  -1.736  0.00  0.00     0.007 A 
ENDBRANCH   4   6
ENDBRANCH   1   4
BRANCH   1   9
ATOM      9  C   UNL d   1       2.538   0.041   0.030  0.00  0.00     0.037 A 
ATOM     10  C   UNL d   1       3.284  -0.478  -1.037  0.00  0.00     0.030 A 
ATOM     11  C   UNL d   1       4.678  -0.491  -0.973  0.00  0.00     0.002 A 
ATOM     12  C   UNL d   1       5.329   0.009   0.154  0.00  0.00     0.000 A 
ATOM     13  C   UNL d   1       4.594   0.551   1.208  0.00  0.00     0.002 A 
ATOM     14  C   UNL d   1       3.201   0.579   1.141  0.00  0.00     0.030 A 
ENDBRANCH   1   9
BRANCH   2  15
ATOM     15  C   UNL d   1       1.030  -2.542  -0.255  0.00  0.00     0.032 A 
ATOM     16  C   UNL d   1       2.134  -2.864   0.552  0.00  0.00     0.020 A 
ATOM     17  C   UNL d   1       2.774  -4.103   0.434  0.00  0.00     0.043 A 
ATOM     18  C   UNL d   1       2.251  -5.065  -0.413  0.00  0.00     0.116 A 
ATOM     19  C   UNL d   1       1.094  -4.816  -1.139  0.00  0.00     0.043 A 
ATOM     20  F   UNL d   1       2.862  -6.252  -0.524  0.00  0.00    -0.206 F 
ATOM     21  C   UNL d   1       0.488  -3.555  -1.065  0.00  0.00     0.020 A 
ENDBRANCH   2  15
TORSDOF 4
