REMARK  4 active torsions:
REMARK  status: ('A' for Active; 'I' for Inactive)
REMARK    1  A    between atoms: S_5  and  C_1 
REMARK    2  A    between atoms: O_12  and  C_4 
REMARK    3  A    between atoms: C_7  and  S_5 
REMARK    4  A    between atoms: N_10  and  C_7 
ROOT
ATOM      1  C   UNL d   1      -1.169  -1.705   0.097  0.00  0.00     0.110 A 
ATOM      2  C   UNL d   1      -1.889  -0.397  -0.088  0.00  0.00     0.267 A 
ATOM      3  N   UNL d   1      -1.112   0.765  -0.073  0.00  0.00    -0.317 N 
ATOM      4  C   UNL d   1       0.170  -1.736   0.196  0.00  0.00     0.101 A 
ATOM      5  C   UNL d   1       0.966  -0.512   0.074  0.00  0.00     0.025 A 
ATOM      6  C   UNL d   1       0.317   0.729  -0.022  0.00  0.00     0.050 A 
ATOM      7  O   UNL d   1      -3.113  -0.376  -0.217  0.00  0.00    -0.266 OA
ATOM      8  C   UNL d   1      -1.790   2.054  -0.133  0.00  0.00     0.159 C 
ATOM      9  C   UNL d   1       2.371  -0.564   0.077  0.00  0.00     0.016 A 
ATOM     10  C   UNL d   1       1.096   1.897  -0.081  0.00  0.00     0.031 A 
ATOM     11  C   UNL d   1       3.131   0.601   0.004  0.00  0.00     0.001 A 
ATOM     12  C   UNL d   1       2.493   1.833  -0.066  0.00  0.00     0.002 A 
ENDROOT
BRANCH   1  13
ATOM     13  S   UNL d   1      -2.136  -3.132   0.356  0.00  0.00    -0.052 SA
BRANCH  13  14
ATOM     14  C   UNL d   1      -2.312  -3.905  -1.237  0.00  0.00     0.141 C 
ATOM     15  S   UNL d   1      -1.046  -3.899  -2.354  0.00  0.00    -0.052 SA
BRANCH  14  16
ATOM     16  N   UNL d   1      -3.508  -4.630  -1.416  0.00  0.00    -0.375 N 
ATOM     17  C   UNL d   1      -3.656  -5.674  -2.435  0.00  0.00     0.150 C 
ATOM     18  C   UNL d   1      -4.690  -4.488  -0.563  0.00  0.00     0.150 C 
ENDBRANCH  14  16
ENDBRANCH  13  14
ENDBRANCH   1  13
BRANCH   4  19
ATOM     19  O   UNL d   1       0.889  -2.896   0.436  0.00  0.00    -0.358 OA
ATOM     20  H   UNL d   1       0.257  -3.638   0.400  0.00  0.00     0.217 HD
ENDBRANCH   4  19
TORSDOF 4
