REMARK  3 active torsions:
REMARK  status: ('A' for Active; 'I' for Inactive)
REMARK    1  A    between atoms: C_8  and  N_1 
REMARK    2  A    between atoms: C_5  and  C_3 
REMARK    3  A    between atoms: O_14  and  C_9 
ROOT
ATOM      1  N   UNL d   1       1.087  -0.002   0.274  0.00  0.00    -0.365 N 
ATOM      2  HN  UNL d   1       0.633  -0.835   0.649  1.00  0.00     0.165 HD
ATOM      3  C   UNL d   1       0.379   1.010  -0.121  0.00  0.00     0.102 C 
ENDROOT
BRANCH   1   4
ATOM      4  C   UNL d   1       2.489   0.066   0.178  0.00  0.00     0.033 A 
ATOM      5  C   UNL d   1       3.162   0.628  -0.913  0.00  0.00     0.055 A 
ATOM      6  C   UNL d   1       4.562   0.651  -0.958  0.00  0.00     0.058 A 
ATOM      7 CL   UNL d   1       5.306   1.397  -2.328  0.00  0.00    -0.082 Cl
ATOM      8  C   UNL d   1       5.304   0.083   0.082  0.00  0.00     0.055 A 
ATOM      9  C   UNL d   1       4.642  -0.507   1.159  0.00  0.00     0.028 A 
ATOM     10 CL   UNL d   1       7.031   0.072   0.090  0.00  0.00    -0.083 Cl
ATOM     11  C   UNL d   1       3.243  -0.513   1.202  0.00  0.00     0.031 A 
ENDBRANCH   1   4
BRANCH   3  12
ATOM     12  C   UNL d   1      -1.096   1.004  -0.040  0.00  0.00     0.012 A 
ATOM     13  C   UNL d   1      -1.806  -0.040   0.563  0.00  0.00     0.077 A 
ATOM     14  C   UNL d   1      -3.196   0.006   0.633  0.00  0.00     0.037 A 
ATOM     15  C   UNL d   1      -3.885   1.093   0.091  0.00  0.00     0.003 A 
ATOM     16  C   UNL d   1      -3.183   2.134  -0.519  0.00  0.00     0.001 A 
ATOM     17  C   UNL d   1      -1.788   2.093  -0.583  0.00  0.00     0.015 A 
BRANCH  13  18
ATOM     18  O   UNL d   1      -1.196  -1.135   1.109  0.00  0.00    -0.360 OA
ATOM     19  H   UNL d   1      -0.231  -1.039   0.944  0.00  0.00     0.217 HD
ENDBRANCH  13  18
ENDBRANCH   3  12
TORSDOF 3
