REMARK  6 active torsions:
REMARK  status: ('A' for Active; 'I' for Inactive)
REMARK    1  A    between atoms: N_8  and  C_1 
REMARK    2  A    between atoms: C_10  and  N_8 
REMARK    3  A    between atoms: C_9  and  C_10 
REMARK    4  A    between atoms: O_14  and  C_9 
REMARK    5  A    between atoms: C_16  and  O_14 
REMARK    6  A    between atoms: C_17  and  C_16 
ROOT
ATOM      1  C   UNL d   1       1.647  -1.940  -1.360  0.00  0.00     0.186 C 
ATOM      2  N   UNL d   1      -0.378  -2.861  -2.386  0.00  0.00    -0.271 N 
ATOM      3  C   UNL d   1       0.237  -2.533  -1.217  0.00  0.00     0.294 C 
ATOM      4  N   UNL d   1       2.106  -1.628  -2.542  0.00  0.00    -0.277 N 
ATOM      5  HN  UNL d   1       3.039  -1.230  -2.656  1.00  0.00     0.189 HD
ATOM      6  C   UNL d   1       0.078  -2.460  -3.600  0.00  0.00     0.341 C 
ATOM      7  N   UNL d   1       1.303  -1.849  -3.617  0.00  0.00    -0.250 N 
ATOM      8  O   UNL d   1      -0.260  -2.675  -0.108  0.00  0.00    -0.264 OA
ATOM      9  O   UNL d   1      -0.585  -2.617  -4.621  0.00  0.00    -0.245 OA
ATOM     10  H   UNL d   1      -1.308  -3.247  -2.347  0.00  0.00     0.174 HD
ATOM     11  H   UNL d   1       1.658  -1.548  -4.520  0.00  0.00     0.192 HD
ENDROOT
BRANCH   1  12
ATOM     12  N   UNL d   1       2.388  -1.763  -0.214  0.00  0.00    -0.357 N 
ATOM     13  H   UNL d   1       1.916  -1.868   0.686  0.00  0.00     0.162 HD
BRANCH  12  14
ATOM     14  C   UNL d   1       3.747  -1.233  -0.196  0.00  0.00     0.179 C 
ATOM     15  C   UNL d   1       4.736  -2.374  -0.400  0.00  0.00     0.043 C 
BRANCH  14  16
ATOM     16  C   UNL d   1       4.031  -0.494   1.117  0.00  0.00     0.281 C 
ATOM     17  O   UNL d   1       3.251  -0.427   2.061  0.00  0.00    -0.263 OA
BRANCH  16  18
ATOM     18  O   UNL d   1       5.242   0.133   1.045  0.00  0.00    -0.320 OA
BRANCH  18  19
ATOM     19  C   UNL d   1       5.525   1.119   2.050  0.00  0.00     0.178 C 
BRANCH  19  20
ATOM     20  C   UNL d   1       6.567   0.603   3.035  0.00  0.00     0.022 C 
ATOM     21  C   UNL d   1       6.970   1.693   4.016  0.00  0.00     0.007 C 
ENDBRANCH  19  20
ENDBRANCH  18  19
ENDBRANCH  16  18
ENDBRANCH  14  16
ENDBRANCH  12  14
ENDBRANCH   1  12
TORSDOF 6
