REMARK  1 active torsions:
REMARK  status: ('A' for Active; 'I' for Inactive)
REMARK    1  A    between atoms: O_13  and  C_12 
ROOT
ATOM      1  C   UNL d   1       1.224  -0.786  -0.098  0.00  0.00     0.022 A 
ATOM      2  C   UNL d   1       1.207   0.556  -0.125  0.00  0.00     0.064 A 
ATOM      3  O   UNL d   1       0.039   1.291  -0.137  0.00  0.00    -0.311 OA
ATOM      4  C   UNL d   1       2.526  -1.502  -0.102  0.00  0.00     0.159 C 
ATOM      5  C   UNL d   1      -1.181   0.662  -0.081  0.00  0.00     0.115 A 
ATOM      6  C   UNL d   1      -0.025  -1.596  -0.048  0.00  0.00     0.086 A 
ATOM      7  C   UNL d   1      -1.268  -0.743  -0.036  0.00  0.00    -0.017 A 
ATOM      8  C   UNL d   1       2.442   1.414  -0.101  0.00  0.00     0.075 C 
ATOM      9  C   UNL d   1       3.668   0.681   0.477  0.00  0.00    -0.035 C 
ATOM     10  C   UNL d   1       3.797  -0.682  -0.224  0.00  0.00     0.092 C 
ATOM     11  O   UNL d   1       2.558  -2.731  -0.061  0.00  0.00    -0.293 OA
ATOM     12  C   UNL d   1      -2.346   1.445  -0.066  0.00  0.00     0.102 A 
ATOM     13  C   UNL d   1      -2.526  -1.359   0.024  0.00  0.00     0.010 A 
ATOM     14  C   UNL d   1       3.526   0.493   2.004  0.00  0.00     0.015 C 
ATOM     15  C   UNL d   1       4.930   1.522   0.218  0.00  0.00     0.015 C 
ATOM     16  C   UNL d   1      -3.683  -0.588   0.038  0.00  0.00     0.003 A 
ATOM     17  C   UNL d   1      -3.590   0.803  -0.007  0.00  0.00     0.040 A 
ENDROOT
BRANCH  12  18
ATOM     18  O   UNL d   1      -2.459   2.811  -0.098  0.00  0.00    -0.353 OA
ATOM     19  C   UNL d   1      -1.280   3.599  -0.152  0.00  0.00     0.210 C 
ENDBRANCH  12  18
TORSDOF 1
