REMARK  6 active torsions:
REMARK  status: ('A' for Active; 'I' for Inactive)
REMARK    1  A    between atoms: C_10  and  C_1 
REMARK    2  A    between atoms: C_2  and  N_9 
REMARK    3  A    between atoms: N_6  and  C_2 
REMARK    4  A    between atoms: N_9  and  N_4 
REMARK    5  A    between atoms: C_12  and  N_6 
REMARK    6  A    between atoms: O_15  and  C_7 
ROOT
ATOM      1  N   UNL d   1       2.442  -2.841   0.021  0.00  0.00    -0.309 N 
ATOM      2  HN  UNL d   1       3.171  -2.144   0.172  1.00  0.00     0.186 HD
ATOM      3  C   UNL d   1       1.193  -2.509  -0.054  0.00  0.00     0.122 C 
ENDROOT
BRANCH   3   4
ATOM      4  C   UNL d   1       0.813  -1.076  -0.024  0.00  0.00     0.025 A 
ATOM      5  C   UNL d   1      -0.409  -0.645   0.565  0.00  0.00    -0.011 A 
ATOM      6  C   UNL d   1      -0.711   0.743   0.524  0.00  0.00    -0.025 A 
ATOM      7  C   UNL d   1      -1.339  -1.492   1.218  0.00  0.00     0.013 A 
ATOM      8  C   UNL d   1      -1.896   1.227   1.099  0.00  0.00     0.012 A 
ATOM      9  C   UNL d   1       0.178   1.643  -0.085  0.00  0.00     0.015 A 
ATOM     10  C   UNL d   1      -2.794   0.367   1.726  0.00  0.00     0.001 A 
ATOM     11  C   UNL d   1      -2.514  -0.993   1.786  0.00  0.00     0.001 A 
ATOM     12  C   UNL d   1       1.367   1.201  -0.656  0.00  0.00     0.038 A 
ATOM     13  C   UNL d   1       1.685  -0.148  -0.619  0.00  0.00     0.078 A 
BRANCH  13  14
ATOM     14  O   UNL d   1       2.869  -0.504  -1.211  0.00  0.00    -0.360 OA
ATOM     15  H   UNL d   1       3.095  -1.410  -0.900  0.00  0.00     0.217 HD
ENDBRANCH  13  14
ENDBRANCH   3   4
BRANCH   1  16
ATOM     16  N   UNL d   1       2.737  -4.163  -0.109  0.00  0.00    -0.277 N 
ATOM     17  H   UNL d   1       2.021  -4.799  -0.442  0.00  0.00     0.189 HD
BRANCH  16  18
ATOM     18  C   UNL d   1       3.827  -4.712   0.512  0.00  0.00     0.187 C 
ATOM     19  S   UNL d   1       4.663  -4.037   1.796  0.00  0.00    -0.040 SA
BRANCH  18  20
ATOM     20  N   UNL d   1       4.260  -5.927   0.051  0.00  0.00    -0.358 N 
ATOM     21  H   UNL d   1       5.042  -6.220   0.630  0.00  0.00     0.162 HD
BRANCH  20  22
ATOM     22  C   UNL d   1       4.410  -6.354  -1.361  0.00  0.00     0.021 C 
ATOM     23  C   UNL d   1       5.316  -5.363  -2.113  0.00  0.00     0.037 C 
ATOM     24  C   UNL d   1       5.078  -7.744  -1.343  0.00  0.00     0.037 C 
ATOM     25  C   UNL d   1       3.082  -6.496  -2.115  0.00  0.00     0.037 C 
ENDBRANCH  20  22
ENDBRANCH  18  20
ENDBRANCH  16  18
ENDBRANCH   1  16
TORSDOF 6
