REMARK  1 active torsions:
REMARK  status: ('A' for Active; 'I' for Inactive)
REMARK       I    between atoms: C_2  and  N_1 
REMARK    1  A    between atoms: C_6  and  C_2 
ROOT
ATOM      1  N   UNL d   1       0.950  -1.158   0.090  0.00  0.00    -0.243 N 
ATOM      2  C   UNL d   1       1.172  -2.525   0.292  0.00  0.00     0.265 C 
ATOM      3  C   UNL d   1       2.028  -0.282   0.115  0.00  0.00     0.255 C 
ATOM      4  C   UNL d   1      -0.376  -0.605   0.099  0.00  0.00     0.079 A 
ATOM      5  O   UNL d   1       0.463   1.694   0.015  0.00  0.00    -0.340 OA
ATOM      6  C   UNL d   1      -0.555   0.785   0.027  0.00  0.00     0.096 A 
ATOM      7  C   UNL d   1       1.712   1.139  -0.316  0.00  0.00     0.279 C 
ATOM      8  O   UNL d   1       0.523  -3.236   1.061  0.00  0.00    -0.267 OA
ATOM      9  O   UNL d   1       3.190  -0.602   0.379  0.00  0.00    -0.270 OA
ATOM     10  C   UNL d   1      -1.532  -1.402   0.153  0.00  0.00     0.033 A 
ATOM     11  C   UNL d   1      -1.834   1.354  -0.008  0.00  0.00     0.039 A 
ATOM     12  C   UNL d   1      -2.812  -0.832   0.128  0.00  0.00     0.002 A 
ATOM     13  C   UNL d   1      -2.964   0.546   0.034  0.00  0.00     0.003 A 
ENDROOT
BRANCH   2  14
ATOM     14  C   UNL d   1       2.291  -3.185  -0.463  0.00  0.00     0.033 A 
ATOM     15  C   UNL d   1       2.915  -4.304   0.107  0.00  0.00     0.018 A 
ATOM     16  C   UNL d   1       3.921  -4.985  -0.586  0.00  0.00     0.025 A 
ATOM     17  C   UNL d   1       4.302  -4.553  -1.854  0.00  0.00     0.034 A 
ATOM     18  C   UNL d   1       3.686  -3.446  -2.436  0.00  0.00     0.025 A 
ATOM     19 CL   UNL d   1       5.525  -5.402  -2.717  0.00  0.00    -0.084 Cl
ATOM     20  C   UNL d   1       2.672  -2.768  -1.748  0.00  0.00     0.018 A 
ENDBRANCH   2  14
TORSDOF 1
