REMARK  9 active torsions:
REMARK  status: ('A' for Active; 'I' for Inactive)
REMARK    1  A    between atoms: C_9  and  C_1 
REMARK    2  A    between atoms: C_8  and  C_2 
REMARK    3  A    between atoms: C_7  and  C_3 
REMARK    4  A    between atoms: O_18  and  C_8 
REMARK    5  A    between atoms: O_17  and  C_9 
REMARK    6  A    between atoms: O_21  and  C_11 
REMARK    7  A    between atoms: O_22  and  C_13 
REMARK    8  A    between atoms: C_24  and  O_17 
REMARK    9  A    between atoms: C_23  and  O_18 
ROOT
ATOM      1  C   UNL d   1       1.293  -1.004   0.176  0.00  0.00     0.052 C 
ATOM      2  C   UNL d   1      -1.261  -1.005   0.163  0.00  0.00     0.052 C 
ATOM      3  C   UNL d   1       0.020  -1.833  -0.026  0.00  0.00     0.101 C 
ATOM      4  C   UNL d   1       1.242   0.348   0.078  0.00  0.00     0.018 C 
ATOM      5  C   UNL d   1      -1.212   0.346   0.081  0.00  0.00     0.018 C 
ATOM      6  N   UNL d   1       0.014   0.971  -0.095  0.00  0.00    -0.362 N 
ATOM      7  C   UNL d   1      -2.398   1.274   0.159  0.00  0.00     0.069 C 
ATOM      8  C   UNL d   1       2.414   1.297   0.119  0.00  0.00     0.069 C 
ATOM      9  H   UNL d   1       0.020   1.988  -0.077  0.00  0.00     0.165 HD
ENDROOT
BRANCH   3  10
ATOM     10  C   UNL d   1      -0.001  -2.496  -1.420  0.00  0.00    -0.042 A 
ATOM     11  C   UNL d   1       0.010  -3.898  -1.548  0.00  0.00     0.047 A 
ATOM     12  C   UNL d   1      -0.007  -4.530  -2.807  0.00  0.00     0.102 A 
ATOM     13  C   UNL d   1      -0.045  -3.735  -3.966  0.00  0.00     0.101 A 
ATOM     14  C   UNL d   1      -0.066  -2.340  -3.838  0.00  0.00     0.040 A 
ATOM     15  C   UNL d   1      -0.043  -1.725  -2.588  0.00  0.00     0.011 A 
BRANCH  12  16
ATOM     16  O   UNL d   1       0.011  -5.891  -2.958  0.00  0.00    -0.353 OA
ATOM     17  C   UNL d   1       0.067  -6.699  -1.791  0.00  0.00     0.210 C 
ENDBRANCH  12  16
BRANCH  13  18
ATOM     18  O   UNL d   1      -0.061  -4.123  -5.281  0.00  0.00    -0.353 OA
ATOM     19  C   UNL d   1      -0.065  -5.505  -5.595  0.00  0.00     0.210 C 
ENDBRANCH  13  18
ENDBRANCH   3  10
BRANCH   2  20
ATOM     20  C   UNL d   1      -2.482  -1.837   0.366  0.00  0.00     0.292 C 
ATOM     21  O   UNL d   1      -2.445  -3.018   0.678  0.00  0.00    -0.259 OA
BRANCH  20  22
ATOM     22  O   UNL d   1      -3.601  -1.145   0.051  0.00  0.00    -0.318 OA
BRANCH  22  23
ATOM     23  C   UNL d   1      -4.772  -1.918  -0.233  0.00  0.00     0.174 C 
ATOM     24  C   UNL d   1      -4.751  -2.265  -1.710  0.00  0.00     0.034 C 
ENDBRANCH  22  23
ENDBRANCH  20  22
ENDBRANCH   2  20
BRANCH   1  25
ATOM     25  C   UNL d   1       2.552  -1.713   0.514  0.00  0.00     0.292 C 
ATOM     26  O   UNL d   1       3.491  -1.216   1.125  0.00  0.00    -0.259 OA
BRANCH  25  27
ATOM     27  O   UNL d   1       2.534  -2.970   0.016  0.00  0.00    -0.318 OA
BRANCH  27  28
ATOM     28  C   UNL d   1       3.817  -3.583  -0.172  0.00  0.00     0.174 C 
ATOM     29  C   UNL d   1       4.262  -3.285  -1.590  0.00  0.00     0.034 C 
ENDBRANCH  27  28
ENDBRANCH  25  27
ENDBRANCH   1  25
TORSDOF 9
