REMARK  6 active torsions:
REMARK  status: ('A' for Active; 'I' for Inactive)
REMARK    1  A    between atoms: N_5  and  C_1 
REMARK       I    between atoms: C_4  and  N_5 
REMARK       I    between atoms: N_11  and  C_4 
REMARK    2  A    between atoms: C_6  and  C_12 
REMARK    3  A    between atoms: O_24  and  C_9 
REMARK    4  A    between atoms: C_10  and  N_11 
REMARK    5  A    between atoms: C_27  and  C_17 
REMARK    6  A    between atoms: O_26  and  C_27 
ROOT
ATOM      1  C   UNL d   1       3.010  -2.239   0.017  0.00  0.00     0.691 C 
ATOM      2  N   UNL d   1       1.667  -2.050  -0.004  0.00  0.00    -0.022 N 
ATOM      3  N   UNL d   1       3.760  -1.153  -0.325  0.00  0.00    -0.190 N 
ATOM      4  N   UNL d   1       3.632  -3.348   0.261  0.00  0.00    -0.234 N 
ATOM      5  HN  UNL d   1       4.641  -3.496   0.238  1.00  0.00     0.174 HD
ATOM      6  H   UNL d   1       1.302  -1.234  -0.467  0.00  0.00     0.203 HD
ATOM      7  H   UNL d   1       4.741  -1.413  -0.409  0.00  0.00     0.184 HD
ATOM      8  H   UNL d   1       2.914  -4.054   0.484  0.00  0.00     0.174 HD
ENDROOT
BRANCH   2   9
ATOM      9  C   UNL d   1       0.669  -2.935   0.372  0.00  0.00     0.699 A 
ATOM     10  N   UNL d   1      -0.591  -2.557   0.130  0.00  0.00    -0.170 N 
ATOM     11  C   UNL d   1      -1.540  -3.416   0.521  0.00  0.00     0.157 A 
ATOM     12  HN  UNL d   1      -0.814  -1.671  -0.325  1.00  0.00     0.186 HD
ATOM     13  C   UNL d   1      -1.331  -4.606   1.151  0.00  0.00     0.084 A 
ATOM     14  C   UNL d   1      -0.009  -4.912   1.373  0.00  0.00     0.054 A 
ATOM     15  N   UNL d   1       0.993  -4.095   0.976  0.00  0.00    -0.193 N 
ATOM     16  HN  UNL d   1       1.969  -4.350   1.130  1.00  0.00     0.184 HD
BRANCH  11  17
ATOM     17  O   UNL d   1      -2.808  -3.014   0.240  0.00  0.00    -0.346 OA
ATOM     18  H   UNL d   1      -2.644  -2.167  -0.208  0.00  0.00     0.219 HD
ENDBRANCH  11  17
BRANCH  14  19
ATOM     19  C   UNL d   1       0.381  -6.215   2.029  0.00  0.00     0.224 C 
BRANCH  19  20
ATOM     20  O   UNL d   1       0.059  -7.359   1.232  0.00  0.00    -0.390 OA
ATOM     21  C   UNL d   1       0.757  -7.380  -0.009  0.00  0.00     0.201 C 
ENDBRANCH  19  20
ENDBRANCH  14  19
ENDBRANCH   2   9
BRANCH   3  22
ATOM     22  C   UNL d   1       3.651   0.157   0.211  0.00  0.00     0.071 A 
ATOM     23  C   UNL d   1       2.931   0.427   1.388  0.00  0.00     0.048 A 
ATOM     24  C   UNL d   1       2.846   1.729   1.916  0.00  0.00     0.050 A 
ATOM     25  C   UNL d   1       3.446   2.786   1.218  0.00  0.00     0.018 A 
ATOM     26  C   UNL d   1       4.178   2.538   0.058  0.00  0.00     0.027 A 
ATOM     27  C   UNL d   1       4.300   1.233  -0.426  0.00  0.00     0.061 A 
ATOM     28 CL   UNL d   1       5.285   0.977  -1.825  0.00  0.00    -0.082 Cl
BRANCH  24  29
ATOM     29  C   UNL d   1       2.149   1.993   3.230  0.00  0.00     0.417 C 
ATOM     30  F   UNL d   1       1.836   0.860   3.917  0.00  0.00    -0.166 F 
ATOM     31  F   UNL d   1       2.910   2.743   4.076  0.00  0.00    -0.166 F 
ATOM     32  F   UNL d   1       0.982   2.674   3.073  0.00  0.00    -0.166 F 
ENDBRANCH  24  29
ENDBRANCH   3  22
TORSDOF 6
