REMARK  3 active torsions:
REMARK  status: ('A' for Active; 'I' for Inactive)
REMARK    1  A    between atoms: S_2  and  N_1 
REMARK    2  A    between atoms: C_7  and  S_2 
REMARK    3  A    between atoms: N_4  and  C_3 
ROOT
ATOM      1  N   UNL d   1       0.981  -0.901   0.176  0.00  0.00    -0.103 N 
ATOM      2  C   UNL d   1      -0.385  -1.235   0.092  0.00  0.00     0.688 C 
ATOM      3  N   UNL d   1      -1.182  -0.210   0.115  0.00  0.00    -0.224 N 
ATOM      4  HN  UNL d   1      -2.201  -0.239   0.118  1.00  0.00     0.177 HD
ATOM      5  C   UNL d   1       1.099   0.561   0.346  0.00  0.00     0.181 C 
ATOM      6  C   UNL d   1      -0.341   1.007   0.137  0.00  0.00     0.159 C 
ENDROOT
BRANCH   1   7
ATOM      7  S   UNL d   1       2.328  -1.681  -0.450  0.00  0.00     0.278 S 
ATOM      8  O   UNL d   1       3.491  -1.004   0.090  0.00  0.00    -0.200 OA
ATOM      9  O   UNL d   1       2.209  -3.112  -0.357  0.00  0.00    -0.200 OA
BRANCH   7  10
ATOM     10  C   UNL d   1       2.338  -1.320  -2.198  0.00  0.00     0.080 A 
ATOM     11  C   UNL d   1       1.280  -0.678  -2.849  0.00  0.00     0.027 A 
ATOM     12  C   UNL d   1       1.398  -0.361  -4.205  0.00  0.00     0.025 A 
ATOM     13  C   UNL d   1       2.553  -0.707  -4.905  0.00  0.00     0.034 A 
ATOM     14  C   UNL d   1       3.590  -1.388  -4.269  0.00  0.00     0.025 A 
ATOM     15 CL   UNL d   1       2.704  -0.277  -6.563  0.00  0.00    -0.084 Cl
ATOM     16  C   UNL d   1       3.484  -1.694  -2.912  0.00  0.00     0.027 A 
ENDBRANCH   7  10
ENDBRANCH   1   7
BRANCH   2  17
ATOM     17  N   UNL d   1      -0.800  -2.522  -0.098  0.00  0.00    -0.212 N 
ATOM     18  C   UNL d   1      -0.399  -3.650   0.771  0.00  0.00     0.172 C 
ATOM     19  C   UNL d   1      -0.527  -4.954  -0.057  0.00  0.00     0.136 C 
ATOM     20  C   UNL d   1      -0.116  -6.199   0.714  0.00  0.00     0.041 C 
ATOM     21  O   UNL d   1      -1.903  -5.139  -0.464  0.00  0.00    -0.378 OA
ATOM     22  C   UNL d   1      -2.332  -4.045  -1.294  0.00  0.00     0.136 C 
ATOM     23  C   UNL d   1      -2.199  -2.706  -0.550  0.00  0.00     0.172 C 
ATOM     24  C   UNL d   1      -3.778  -4.293  -1.694  0.00  0.00     0.041 C 
ENDBRANCH   2  17
TORSDOF 3
