REMARK  2 active torsions:
REMARK  status: ('A' for Active; 'I' for Inactive)
REMARK    1  A    between atoms: N_5  and  C_13 
REMARK    2  A    between atoms: C_15  and  C_6 
ROOT
ATOM      1  N   UNL d   1       0.753   0.233  -1.125  0.00  0.00    -0.347 N 
ATOM      2  HN  UNL d   1       1.115   0.382  -2.067  1.00  0.00     0.167 HD
ATOM      3  C   UNL d   1      -0.301  -0.503  -0.828  0.00  0.00     0.111 A 
ATOM      4  C   UNL d   1      -1.090  -1.173  -1.821  0.00  0.00     0.134 A 
ATOM      5  C   UNL d   1       1.296   0.773   0.033  0.00  0.00     0.050 A 
ATOM      6  S   UNL d   1      -0.675  -0.617   0.844  0.00  0.00    -0.079 SA
ATOM      7  C   UNL d   1       0.663   0.390   1.200  0.00  0.00     0.082 A 
ATOM      8  N   UNL d   1      -2.755  -2.433  -2.688  0.00  0.00    -0.272 N 
ATOM      9  HN  UNL d   1      -3.588  -3.015  -2.773  1.00  0.00     0.194 HD
ATOM     10  O   UNL d   1      -2.215  -1.902  -1.530  0.00  0.00    -0.236 OA
ATOM     11  C   UNL d   1      -0.900  -1.226  -3.188  0.00  0.00     0.061 A 
ATOM     12  C   UNL d   1      -1.953  -2.019  -3.670  0.00  0.00     0.117 A 
ENDROOT
BRANCH   5  13
ATOM     13  C   UNL d   1       2.447   1.672  -0.010  0.00  0.00    -0.009 A 
ATOM     14  C   UNL d   1       2.650   2.645   0.983  0.00  0.00     0.016 A 
ATOM     15  C   UNL d   1       3.740   3.518   0.921  0.00  0.00     0.037 A 
ATOM     16  C   UNL d   1       4.641   3.423  -0.146  0.00  0.00     0.102 A 
ATOM     17  C   UNL d   1       4.457   2.459  -1.145  0.00  0.00     0.037 A 
ATOM     18  C   UNL d   1       3.360   1.591  -1.073  0.00  0.00     0.016 A 
BRANCH  16  19
ATOM     19  N   UNL d   1       5.777   4.351  -0.220  0.00  0.00    -0.116 N 
ATOM     20  O   UNL d   1       5.896   5.189   0.685  0.00  0.00    -0.532 OA
ATOM     21  O   UNL d   1       6.551   4.240  -1.182  0.00  0.00    -0.532 OA
ENDBRANCH  16  19
ENDBRANCH   5  13
TORSDOF 2
