REMARK  12 active torsions:
REMARK  status: ('A' for Active; 'I' for Inactive)
REMARK    1  A    between atoms: C10_7  and  C1_1 
REMARK    2  A    between atoms: C8_6  and  O1_8 
REMARK       I    between atoms: N_21  and  C8_6 
REMARK    3  A    between atoms: O1_8  and  C10_7 
REMARK    4  A    between atoms: C_18  and  S_20 
REMARK    5  A    between atoms: C_24  and  C_18 
REMARK    6  A    between atoms: C_25  and  C_18 
REMARK    7  A    between atoms: C_26  and  C_18 
REMARK    8  A    between atoms: C_23  and  C_19 
REMARK    9  A    between atoms: C_19  and  C_22 
REMARK   10  A    between atoms: C_19  and  N_21 
REMARK   11  A    between atoms: S_20  and  C_23 
REMARK   12  A    between atoms: O_28  and  C_22 
ROOT
ATOM      1  C   UNK d   1       0.658   3.366   3.436  0.00  0.00     0.194 C 
ENDROOT
BRANCH   1   2
ATOM      2  C   UNK d   1       1.583   3.912   4.549  0.00  0.00     0.112 C 
BRANCH   2   3
ATOM      3  S   UNK d   1       3.198   3.017   4.504  0.00  0.00    -0.141 SA
BRANCH   3   4
ATOM      4  C   UNK d   1       4.239   3.949   5.898  0.00  0.00     0.089 C 
BRANCH   4   5
ATOM      5  C   UNK d   1       3.417   3.654   7.202  0.00  0.00    -0.030 A 
ATOM      6  C   UNK d   1       3.314   2.315   7.657  0.00  0.00     0.009 A 
ATOM      7  C   UNK d   1       2.660   1.984   8.846  0.00  0.00     0.001 A 
ATOM      8  C   UNK d   1       2.096   2.985   9.625  0.00  0.00     0.000 A 
ATOM      9  C   UNK d   1       2.140   4.304   9.186  0.00  0.00     0.001 A 
ATOM     10  C   UNK d   1       2.760   4.630   7.973  0.00  0.00     0.009 A 
ENDBRANCH   4   5
BRANCH   4  11
ATOM     11  C   UNK d   1       5.674   3.305   5.985  0.00  0.00    -0.030 A 
ATOM     12  C   UNK d   1       6.350   2.802   4.856  0.00  0.00     0.009 A 
ATOM     13  C   UNK d   1       7.652   2.299   4.951  0.00  0.00     0.001 A 
ATOM     14  C   UNK d   1       8.320   2.303   6.171  0.00  0.00     0.000 A 
ATOM     15  C   UNK d   1       7.690   2.817   7.298  0.00  0.00     0.001 A 
ATOM     16  C   UNK d   1       6.389   3.321   7.205  0.00  0.00     0.009 A 
ENDBRANCH   4  11
BRANCH   4  17
ATOM     17  C   UNK d   1       4.465   5.439   5.474  0.00  0.00    -0.030 C 
ATOM     18  C   UNK d   1       4.775   6.439   6.417  0.00  0.00     0.009 C 
ATOM     19  C   UNK d   1       4.981   7.771   6.040  0.00  0.00     0.001 C 
ATOM     20  C   UNK d   1       4.967   8.127   4.697  0.00  0.00     0.000 C 
ATOM     21  C   UNK d   1       4.782   7.146   3.733  0.00  0.00     0.001 C 
ATOM     22  C   UNK d   1       4.549   5.822   4.117  0.00  0.00     0.009 C 
ENDBRANCH   4  17
ENDBRANCH   3   4
ENDBRANCH   2   3
ENDBRANCH   1   2
BRANCH   1  23
ATOM     23  C   UNK d   1      -0.157   2.143   3.903  0.00  0.00     0.164 C 
ATOM     24  O   UNK d   1       0.251   1.266   4.645  0.00  0.00    -0.648 OA
BRANCH  23  25
ATOM     25  O   UNK d   1      -1.369   2.055   3.295  0.00  0.00    -0.775 OA
ATOM     26  H   UNK d   1      -1.523   2.851   2.746  0.00  0.00     0.167 HD
ENDBRANCH  23  25
ENDBRANCH   1  23
BRANCH   1  27
ATOM     27  N   UNK d   1      -0.146   4.411   2.752  0.00  0.00    -0.322 N 
ATOM     28  C8  <1> d   1      -0.997   5.289   3.370  0.00  0.00     0.361 C 
ATOM     29  O2  <1> d   1      -1.129   6.432   2.968  0.00  0.00    -0.238 OA
ATOM     30  H   UNK d   1       0.350   4.896   2.011  0.00  0.00     0.165 HD
BRANCH  28  31
ATOM     31  O1  <1> d   1      -1.669   4.734   4.398  0.00  0.00    -0.303 OA
BRANCH  31  32
ATOM     32  C10 <1> d   1      -2.414   5.647   5.232  0.00  0.00     0.194 C 
BRANCH  32  33
ATOM     33  C1  <1> d   1      -3.709   6.243   4.635  0.00  0.00     0.078 A 
ATOM     34  C4  <1> d   1      -4.849   5.235   4.501  0.00  0.00    -0.036 A 
ATOM     35  C3  <1> d   1      -5.888   5.541   5.410  0.00  0.00    -0.018 A 
ATOM     36  C18 <1> d   1      -4.977   4.187   3.603  0.00  0.00     0.009 A 
ATOM     37  C16 <1> d   1      -7.037   4.767   5.466  0.00  0.00     0.013 A 
ATOM     38  C2  <1> d   1      -5.546   6.750   6.125  0.00  0.00    -0.018 A 
ATOM     39  C26 <1> d   1      -7.158   3.695   4.578  0.00  0.00     0.001 A 
ATOM     40  C27 <1> d   1      -6.143   3.417   3.647  0.00  0.00     0.001 A 
ATOM     41  C5  <1> d   1      -4.308   7.228   5.647  0.00  0.00    -0.036 A 
ATOM     42  C15 <1> d   1      -6.238   7.441   7.109  0.00  0.00     0.013 A 
ATOM     43  C17 <1> d   1      -3.773   8.421   6.110  0.00  0.00     0.009 A 
ATOM     44  C28 <1> d   1      -4.472   9.118   7.096  0.00  0.00     0.001 A 
ATOM     45  C25 <1> d   1      -5.688   8.628   7.599  0.00  0.00     0.001 A 
ENDBRANCH  32  33
ENDBRANCH  31  32
ENDBRANCH  28  31
ENDBRANCH   1  27
TORSDOF 12
