REMARK  4 active torsions:
REMARK  status: ('A' for Active; 'I' for Inactive)
REMARK    1  A    between atoms: C_6  and  N_1 
REMARK    2  A    between atoms: S_7  and  C_4 
REMARK    3  A    between atoms: C_8  and  S_7 
REMARK    4  A    between atoms: N_17  and  C_13 
ROOT
ATOM      1  N   UNL d   1       0.060   0.857  -0.001  0.00  0.00    -0.251 N 
ATOM      2  C   UNL d   1      -1.074   0.117   0.238  0.00  0.00     0.232 C 
ATOM      3  C   UNL d   1       1.164   0.043  -0.142  0.00  0.00     0.245 C 
ATOM      4  C   UNL d   1       0.721  -1.404  -0.182  0.00  0.00     0.154 C 
ATOM      5  C   UNL d   1      -0.745  -1.347   0.185  0.00  0.00     0.129 C 
ATOM      6  O   UNL d   1      -2.213   0.500   0.472  0.00  0.00    -0.273 OA
ATOM      7  O   UNL d   1       2.345   0.368  -0.181  0.00  0.00    -0.271 OA
ENDROOT
BRANCH   4   8
ATOM      8  S   UNL d   1       1.058  -2.051  -1.866  0.00  0.00    -0.113 SA
BRANCH   8   9
ATOM      9  C   UNL d   1       0.568  -3.773  -1.698  0.00  0.00     0.022 A 
ATOM     10  C   UNL d   1      -0.429  -4.299  -2.548  0.00  0.00     0.022 A 
ATOM     11  C   UNL d   1      -0.825  -5.633  -2.391  0.00  0.00     0.024 A 
ATOM     12  C   UNL d   1      -0.158  -6.472  -1.496  0.00  0.00     0.002 A 
ATOM     13  C   UNL d   1       0.879  -5.970  -0.716  0.00  0.00     0.001 A 
ATOM     14  C   UNL d   1       1.236  -4.622  -0.807  0.00  0.00     0.020 A 
BRANCH  10  15
ATOM     15  N   UNL d   1      -1.181  -3.464  -3.402  0.00  0.00    -0.302 NA
ATOM     16  H   UNL d   1      -0.626  -2.661  -3.700  0.00  0.00     0.124 HD
ATOM     17  H   UNL d   1      -1.589  -3.955  -4.189  0.00  0.00     0.124 HD
ENDBRANCH  10  15
ENDBRANCH   8   9
ENDBRANCH   4   8
BRANCH   1  18
ATOM     18  C   UNL d   1       0.105   2.288  -0.053  0.00  0.00     0.046 A 
ATOM     19  C   UNL d   1      -0.892   3.084   0.539  0.00  0.00     0.037 A 
ATOM     20  C   UNL d   1      -0.853   4.488   0.476  0.00  0.00    -0.059 A 
ATOM     21  C   UNL d   1      -1.914   5.320   1.137  0.00  0.00     0.048 C 
ATOM     22  C   UNL d   1       0.183   5.114  -0.220  0.00  0.00     0.013 A 
ATOM     23  C   UNL d   1       1.184   4.354  -0.831  0.00  0.00    -0.059 A 
ATOM     24  C   UNL d   1       1.141   2.954  -0.730  0.00  0.00     0.037 A 
ATOM     25  C   UNL d   1       2.277   5.039  -1.598  0.00  0.00     0.048 C 
ENDBRANCH   1  18
TORSDOF 4
