REMARK  2 active torsions:
REMARK  status: ('A' for Active; 'I' for Inactive)
REMARK    1  A    between atoms: C_12  and  C_7 
REMARK    2  A    between atoms: N_11  and  C_10 
ROOT
ATOM      1  C   UNL d   1      -2.466  -1.173  -1.212  0.00  0.00     0.115 C 
ATOM      2  C   UNL d   1      -1.859  -2.246  -0.411  0.00  0.00     0.302 C 
ATOM      3  C   UNL d   1      -3.130  -1.520  -2.477  0.00  0.00     0.302 C 
ATOM      4  O   UNL d   1      -2.364  -3.475  -0.637  0.00  0.00    -0.280 OA
ATOM      5  O   UNL d   1      -3.638  -2.767  -2.523  0.00  0.00    -0.280 OA
ATOM      6  C   UNL d   1      -3.596  -3.580  -1.351  0.00  0.00     0.175 C 
ATOM      7  C   UNL d   1      -2.436   0.072  -0.699  0.00  0.00     0.035 C 
ATOM      8  O   UNL d   1      -3.200  -0.774  -3.443  0.00  0.00    -0.259 OA
ATOM      9  O   UNL d   1      -0.971  -2.053   0.411  0.00  0.00    -0.259 OA
ATOM     10  C   UNL d   1      -4.785  -3.267  -0.434  0.00  0.00     0.080 C 
ATOM     11  C   UNL d   1      -3.705  -5.026  -1.835  0.00  0.00     0.080 C 
ENDROOT
BRANCH   7  12
ATOM     12  C   UNL d   1      -3.112   1.241  -1.265  0.00  0.00    -0.035 A 
ATOM     13  C   UNL d   1      -4.401   1.567  -0.849  0.00  0.00     0.013 A 
ATOM     14  C   UNL d   1      -5.061   2.682  -1.390  0.00  0.00     0.030 A 
ATOM     15  C   UNL d   1      -4.466   3.512  -2.353  0.00  0.00     0.029 A 
ATOM     16  C   UNL d   1      -3.163   3.155  -2.747  0.00  0.00     0.030 A 
ATOM     17  C   UNL d   1      -2.493   2.040  -2.220  0.00  0.00     0.013 A 
BRANCH  15  18
ATOM     18  N   UNL d   1      -5.087   4.649  -2.853  0.00  0.00    -0.390 N 
ATOM     19  C   UNL d   1      -4.858   5.084  -4.231  0.00  0.00     0.149 C 
ATOM     20  C   UNL d   1      -6.269   5.232  -2.226  0.00  0.00     0.149 C 
ENDBRANCH  15  18
ENDBRANCH   7  12
TORSDOF 2
