REMARK  6 active torsions:
REMARK  status: ('A' for Active; 'I' for Inactive)
REMARK    1  A    between atoms: C_4  and  C_1 
REMARK    2  A    between atoms: C_5  and  C_2 
REMARK    3  A    between atoms: N_3  and  C_7 
REMARK    4  A    between atoms: O_16  and  C_4 
REMARK    5  A    between atoms: C_13  and  N_9 
REMARK    6  A    between atoms: C_17  and  C_13 
ROOT
ATOM      1  C   UNL d   1      -1.139  -1.804  -0.149  0.00  0.00     0.120 C 
ATOM      2  C   UNL d   1      -0.398  -2.806  -0.668  0.00  0.00     0.042 C 
ATOM      3  C   UNL d   1      -2.007  -2.078   0.950  0.00  0.00     0.105 C 
ATOM      4  N   UNL d   1      -2.673  -2.341   1.860  0.00  0.00    -0.191 NA
ENDROOT
BRANCH   1   5
ATOM      5  C   UNL d   1      -1.045  -0.409  -0.650  0.00  0.00     0.303 C 
ATOM      6  O   UNL d   1      -0.818  -0.101  -1.810  0.00  0.00    -0.258 OA
BRANCH   5   7
ATOM      7  O   UNL d   1      -1.321   0.477   0.343  0.00  0.00    -0.322 OA
ATOM      8  C   UNL d   1      -1.405   1.830  -0.114  0.00  0.00     0.213 C 
ENDBRANCH   5   7
ENDBRANCH   1   5
BRANCH   2   9
ATOM      9  C   UNL d   1       0.719  -2.667  -1.618  0.00  0.00    -0.008 A 
ATOM     10  C   UNL d   1       2.096  -2.554  -1.255  0.00  0.00     0.040 A 
ATOM     11  C   UNL d   1       2.968  -2.367  -2.359  0.00  0.00     0.030 A 
ATOM     12  C   UNL d   1       2.545  -2.291  -3.694  0.00  0.00     0.002 A 
ATOM     13  C   UNL d   1       1.208  -2.430  -4.004  0.00  0.00     0.001 A 
ATOM     14  C   UNL d   1       0.303  -2.632  -2.972  0.00  0.00     0.014 A 
BRANCH  10  15
ATOM     15  N   UNL d   1       2.613  -2.590   0.041  0.00  0.00    -0.377 N 
ATOM     16  C   UNL d   1       1.861  -2.860   1.282  0.00  0.00     0.153 C 
ATOM     17  C   UNL d   1       2.096  -1.721   2.296  0.00  0.00     0.292 C 
ATOM     18  N   UNL d   1       3.510  -1.560   2.697  0.00  0.00     0.095 N 
ATOM     19  C   UNL d   1       4.305  -1.395   1.456  0.00  0.00     0.292 C 
ATOM     20  C   UNL d   1       4.064  -2.463   0.350  0.00  0.00     0.153 C 
BRANCH  18  21
ATOM     21  C   UNL d   1       4.009  -2.702   3.485  0.00  0.00     0.311 C 
BRANCH  21  22
ATOM     22  C   UNL d   1       3.224  -2.969   4.752  0.00  0.00    -0.030 A 
ATOM     23  C   UNL d   1       2.578  -4.200   4.947  0.00  0.00     0.009 A 
ATOM     24  C   UNL d   1       1.852  -4.442   6.114  0.00  0.00     0.001 A 
ATOM     25  C   UNL d   1       1.771  -3.461   7.100  0.00  0.00     0.000 A 
ATOM     26  C   UNL d   1       2.409  -2.235   6.918  0.00  0.00     0.001 A 
ATOM     27  C   UNL d   1       3.129  -1.988   5.749  0.00  0.00     0.009 A 
ENDBRANCH  21  22
ENDBRANCH  18  21
ENDBRANCH  10  15
ENDBRANCH   2   9
TORSDOF 6
