REMARK  1 active torsions:
REMARK  status: ('A' for Active; 'I' for Inactive)
REMARK    1  A    between atoms: C_2  and  C_3 
ROOT
ATOM      1  C   UNL d   1       0.807   1.157  -0.164  0.00  0.00     0.058 C 
ATOM      2  C   UNL d   1       1.388   2.183  -0.812  0.00  0.00     0.049 C 
ATOM      3  C   UNL d   1       1.448  -0.143   0.178  0.00  0.00     0.163 C 
ATOM      4  C   UNL d   1      -0.671   1.250   0.031  0.00  0.00     0.163 C 
ATOM      5  O   UNL d   1       2.526  -0.211   0.760  0.00  0.00    -0.292 OA
ATOM      6  O   UNL d   1      -1.225   2.313   0.297  0.00  0.00    -0.292 OA
ATOM      7  C   UNL d   1      -1.462  -0.015  -0.237  0.00  0.00     0.084 C 
ATOM      8  C   UNL d   1       0.672  -1.374  -0.215  0.00  0.00     0.084 C 
ATOM      9  C   UNL d   1      -0.761  -1.263   0.289  0.00  0.00     0.015 C 
ENDROOT
BRANCH   2  10
ATOM     10  C   UNL d   1       2.723   2.225  -1.301  0.00  0.00     0.039 A 
ATOM     11  N   UNL d   1       3.749   1.679  -0.571  0.00  0.00    -0.359 N 
ATOM     12  C   UNL d   1       4.945   1.842  -1.218  0.00  0.00     0.006 A 
ATOM     13  H   UNL d   1       3.633   1.166   0.299  0.00  0.00     0.166 HD
ATOM     14  C   UNL d   1       6.209   1.318  -0.648  0.00  0.00     0.068 C 
ATOM     15  C   UNL d   1       4.686   2.534  -2.380  0.00  0.00     0.033 A 
ATOM     16  C   UNL d   1       3.284   2.791  -2.439  0.00  0.00    -0.033 A 
ATOM     17  C   UNL d   1       2.597   3.516  -3.542  0.00  0.00     0.050 C 
ENDBRANCH   2  10
TORSDOF 1
