REMARK  7 active torsions:
REMARK  status: ('A' for Active; 'I' for Inactive)
REMARK    1  A    between atoms: C_8  and  C_1 
REMARK    2  A    between atoms: C_20  and  C_1 
REMARK    3  A    between atoms: C_10  and  N_2 
REMARK    4  A    between atoms: C_14  and  N_3 
REMARK    5  A    between atoms: C_13  and  N_4 
REMARK    6  A    between atoms: C_30  and  C_20 
REMARK    7  A    between atoms: C_31  and  C_30 
ROOT
ATOM      1  C   UNL d   1      -0.036  -1.183  -0.176  0.00  0.00     0.138 C 
ATOM      2  N   UNL d   1       0.658   1.078  -0.341  0.00  0.00    -0.213 N 
ATOM      3  N   UNL d   1      -0.688   1.087   0.045  0.00  0.00    -0.213 N 
ATOM      4  C   UNL d   1       1.165  -0.231  -0.232  0.00  0.00     0.262 C 
ATOM      5  C   UNL d   1      -1.179  -0.213   0.159  0.00  0.00     0.262 C 
ATOM      6  O   UNL d   1      -2.315  -0.570   0.444  0.00  0.00    -0.270 OA
ATOM      7  O   UNL d   1       2.331  -0.595  -0.298  0.00  0.00    -0.270 OA
ENDROOT
BRANCH   1   8
ATOM      8  C   UNL d   1       0.011  -2.226   0.987  0.00  0.00     0.114 C 
ATOM      9  C   UNL d   1       1.373  -2.765   1.336  0.00  0.00     0.237 C 
ATOM     10  N   UNL d   1       1.517  -4.021   0.799  0.00  0.00    -0.249 N 
ATOM     11  O   UNL d   1       2.131  -2.139   2.076  0.00  0.00    -0.272 OA
ATOM     12  C   UNL d   1       0.273  -4.557   0.501  0.00  0.00     0.232 C 
ATOM     13  C   UNL d   1      -0.767  -3.528   0.891  0.00  0.00     0.119 C 
ATOM     14  O   UNL d   1      -0.033  -5.690   0.176  0.00  0.00    -0.273 OA
BRANCH  10  15
ATOM     15  C   UNL d   1       2.712  -4.811   0.862  0.00  0.00     0.086 A 
ATOM     16  C   UNL d   1       3.722  -4.532   1.800  0.00  0.00     0.075 A 
ATOM     17  C   UNL d   1       4.860  -5.335   1.894  0.00  0.00     0.118 A 
ATOM     18  F   UNL d   1       5.785  -5.052   2.819  0.00  0.00    -0.206 F 
ATOM     19  C   UNL d   1       5.045  -6.425   1.059  0.00  0.00     0.045 A 
ATOM     20  C   UNL d   1       4.082  -6.704   0.097  0.00  0.00     0.047 A 
ATOM     21  C   UNL d   1       2.938  -5.900  -0.002  0.00  0.00     0.143 A 
ATOM     22  F   UNL d   1       2.108  -6.153  -1.023  0.00  0.00    -0.204 F 
ENDBRANCH  10  15
ENDBRANCH   1   8
BRANCH   1  23
ATOM     23  C   UNL d   1      -0.096  -1.652  -1.669  0.00  0.00     0.030 C 
BRANCH  23  24
ATOM     24  C   UNL d   1      -1.202  -2.622  -2.037  0.00  0.00     0.001 C 
BRANCH  24  25
ATOM     25  C   UNL d   1      -1.325  -2.977  -3.513  0.00  0.00    -0.005 C 
ATOM     26  C   UNL d   1      -2.498  -3.944  -3.656  0.00  0.00     0.005 C 
ENDBRANCH  24  25
ENDBRANCH  23  24
ENDBRANCH   1  23
BRANCH   2  27
ATOM     27  C   UNL d   1       1.536   2.190  -0.288  0.00  0.00     0.060 A 
ATOM     28  C   UNL d   1       2.555   2.292  -1.245  0.00  0.00     0.031 A 
ATOM     29  C   UNL d   1       3.429   3.380  -1.242  0.00  0.00     0.002 A 
ATOM     30  C   UNL d   1       3.308   4.367  -0.268  0.00  0.00     0.000 A 
ATOM     31  C   UNL d   1       2.306   4.273   0.695  0.00  0.00     0.002 A 
ATOM     32  C   UNL d   1       1.418   3.195   0.681  0.00  0.00     0.031 A 
ENDBRANCH   2  27
BRANCH   3  33
ATOM     33  C   UNL d   1      -1.505   2.240   0.093  0.00  0.00     0.060 A 
ATOM     34  C   UNL d   1      -2.201   2.527   1.274  0.00  0.00     0.031 A 
ATOM     35  C   UNL d   1      -2.857   3.752   1.425  0.00  0.00     0.002 A 
ATOM     36  C   UNL d   1      -2.876   4.670   0.377  0.00  0.00     0.000 A 
ATOM     37  C   UNL d   1      -2.233   4.367  -0.823  0.00  0.00     0.002 A 
ATOM     38  C   UNL d   1      -1.531   3.165  -0.959  0.00  0.00     0.031 A 
ENDBRANCH   3  33
TORSDOF 7
