REMARK  1 active torsions:
REMARK  status: ('A' for Active; 'I' for Inactive)
REMARK    1  A    between atoms: C_2  and  C_1 
ROOT
ATOM      1  C   UNL d   1       0.552  -2.496   0.079  0.00  0.00     0.053 C 
ATOM      2  C   UNL d   1       0.731  -3.188   1.220  0.00  0.00     0.126 C 
ATOM      3  N   UNL d   1       0.673  -2.107   3.568  0.00  0.00    -0.191 NA
ATOM      4  N   UNL d   1       1.188  -5.725   1.045  0.00  0.00    -0.191 NA
ATOM      5  C   UNL d   1       0.695  -2.584   2.510  0.00  0.00     0.111 C 
ATOM      6  C   UNL d   1       0.978  -4.588   1.140  0.00  0.00     0.111 C 
ENDROOT
BRANCH   1   7
ATOM      7  C   UNL d   1       0.316  -1.093   0.051  0.00  0.00     0.013 A 
ATOM      8  C   UNL d   1       1.227  -0.048  -0.047  0.00  0.00    -0.044 A 
ATOM      9  C   UNL d   1       0.561   1.224  -0.047  0.00  0.00     0.015 A 
ATOM     10  C   UNL d   1       2.714  -0.179  -0.137  0.00  0.00     0.049 C 
ATOM     11  C   UNL d   1      -0.807   1.110   0.021  0.00  0.00     0.051 A 
ATOM     12  S   UNL d   1      -1.305  -0.518   0.086  0.00  0.00    -0.102 SA
ENDBRANCH   1   7
TORSDOF 1
