REMARK  2 active torsions:
REMARK  status: ('A' for Active; 'I' for Inactive)
REMARK    1  A    between atoms: C_15  and  C_9 
REMARK    2  A    between atoms: C_16  and  C_10 
ROOT
ATOM      1  N   UNL d   1      -2.526  -1.438  -0.142  0.00  0.00    -0.356 N 
ATOM      2  HN  UNL d   1      -2.504  -2.450  -0.268  1.00  0.00     0.166 HD
ATOM      3  N   UNL d   1      -2.586   1.341   0.188  0.00  0.00    -0.356 N 
ATOM      4  HN  UNL d   1      -2.606   2.355   0.302  1.00  0.00     0.166 HD
ATOM      5  C   UNL d   1      -1.392  -0.724  -0.063  0.00  0.00     0.061 A 
ATOM      6  C   UNL d   1      -1.423   0.679   0.085  0.00  0.00     0.061 A 
ATOM      7  C   UNL d   1      -0.169  -1.375  -0.126  0.00  0.00     0.057 A 
ATOM      8  C   UNL d   1      -0.229   1.385   0.130  0.00  0.00     0.057 A 
ATOM      9  C   UNL d   1      -3.737   0.620   0.136  0.00  0.00     0.032 A 
ATOM     10  C   UNL d   1      -3.705  -0.766  -0.049  0.00  0.00     0.032 A 
ATOM     11  C   UNL d   1       1.029  -0.663  -0.062  0.00  0.00     0.058 A 
ATOM     12  C   UNL d   1       0.999   0.727   0.056  0.00  0.00     0.058 A 
ATOM     13 CL   UNL d   1       2.504  -1.558  -0.130  0.00  0.00    -0.082 Cl
ATOM     14 CL   UNL d   1       2.433   1.685   0.116  0.00  0.00    -0.082 Cl
ENDROOT
BRANCH   9  15
ATOM     15  C   UNL d   1      -5.036   1.371   0.306  0.00  0.00     0.054 C 
ATOM     16  C   UNL d   1      -4.881   2.865   0.571  0.00  0.00     0.011 C 
ENDBRANCH   9  15
BRANCH  10  17
ATOM     17  C   UNL d   1      -4.941  -1.612  -0.200  0.00  0.00     0.054 C 
ATOM     18  C   UNL d   1      -5.325  -1.785  -1.663  0.00  0.00     0.011 C 
ENDBRANCH  10  17
TORSDOF 2
