REMARK  3 active torsions:
REMARK  status: ('A' for Active; 'I' for Inactive)
REMARK    1  A    between atoms: N_7  and  C_1 
REMARK       I    between atoms: C_8  and  N_7 
REMARK    2  A    between atoms: O_10  and  C_8 
REMARK    3  A    between atoms: C_13  and  O_10 
ROOT
ATOM      1  C   UNL d   1       0.149   1.085  -0.000  0.00  0.00     0.092 A 
ATOM      2  N   UNL d   1      -0.774  -1.001  -0.097  0.00  0.00    -0.263 N 
ATOM      3  HN  UNL d   1      -1.446  -1.767  -0.136  1.00  0.00     0.194 HD
ATOM      4  C   UNL d   1       1.157   0.144  -0.010  0.00  0.00     0.101 A 
ATOM      5  C   UNL d   1      -1.042   0.309  -0.075  0.00  0.00     0.058 A 
ATOM      6  O   UNL d   1       0.600  -1.100  -0.056  0.00  0.00    -0.240 OA
ATOM      7  C   UNL d   1       2.632   0.145  -0.045  0.00  0.00     0.081 C 
ATOM      8  C   UNL d   1      -2.448   0.774  -0.073  0.00  0.00     0.072 C 
ENDROOT
BRANCH   1   9
ATOM      9  N   UNL d   1       0.201   2.467   0.050  0.00  0.00    -0.299 N 
ATOM     10  C   UNL d   1       1.209   3.218   0.583  0.00  0.00     0.365 C 
ATOM     11  O   UNL d   1       2.238   2.821   1.102  0.00  0.00    -0.238 OA
ATOM     12  H   UNL d   1      -0.651   2.983  -0.117  0.00  0.00     0.171 HD
BRANCH  10  13
ATOM     13  O   UNL d   1       0.825   4.522   0.534  0.00  0.00    -0.304 OA
BRANCH  13  14
ATOM     14  C   UNL d   1       1.636   5.428   1.294  0.00  0.00     0.176 C 
ATOM     15  C   UNL d   1       1.112   5.472   2.719  0.00  0.00     0.034 C 
ENDBRANCH  13  14
ENDBRANCH  10  13
ENDBRANCH   1   9
TORSDOF 3
