REMARK  9 active torsions:
REMARK  status: ('A' for Active; 'I' for Inactive)
REMARK    1  A    between atoms: C_8  and  N_2 
REMARK    2  A    between atoms: C_11  and  C_6 
REMARK    3  A    between atoms: N_12  and  C_6 
REMARK    4  A    between atoms: C_17  and  N_12 
REMARK    5  A    between atoms: C_18  and  C_17 
REMARK    6  A    between atoms: C_21  and  C_18 
REMARK    7  A    between atoms: C_19  and  C_20 
REMARK    8  A    between atoms: C_20  and  C_22 
REMARK    9  A    between atoms: C_22  and  C_21 
ROOT
ATOM      1  C   UNL d   1      -0.800  -0.999  -0.036  0.00  0.00     0.115 C 
ATOM      2  N   UNL d   1      -0.059   0.813   1.214  0.00  0.00    -0.241 N 
ATOM      3  C   UNL d   1      -1.123   0.380   0.454  0.00  0.00     0.272 C 
ATOM      4  C   UNL d   1       0.991  -0.061   1.185  0.00  0.00     0.306 C 
ATOM      5  C   UNL d   1       0.617  -1.192   0.274  0.00  0.00     0.258 C 
ATOM      6  C   UNL d   1      -1.571  -1.942  -0.630  0.00  0.00     0.058 C 
ATOM      7  O   UNL d   1      -2.110   1.033   0.157  0.00  0.00    -0.266 OA
ATOM      8  O   UNL d   1       2.033  -0.061   1.795  0.00  0.00    -0.263 OA
ATOM      9  O   UNL d   1       1.410  -2.031  -0.113  0.00  0.00    -0.281 OA
ENDROOT
BRANCH   6  10
ATOM     10  C   UNL d   1      -3.029  -1.716  -0.881  0.00  0.00    -0.009 A 
ATOM     11  C   UNL d   1      -3.681  -2.261  -1.996  0.00  0.00     0.014 A 
ATOM     12  C   UNL d   1      -5.058  -2.086  -2.179  0.00  0.00     0.001 A 
ATOM     13  C   UNL d   1      -5.808  -1.356  -1.259  0.00  0.00     0.000 A 
ATOM     14  C   UNL d   1      -5.186  -0.812  -0.149  0.00  0.00     0.001 A 
ATOM     15  C   UNL d   1      -3.828  -1.033   0.052  0.00  0.00     0.014 A 
ENDBRANCH   6  10
BRANCH   6  16
ATOM     16  N   UNL d   1      -1.116  -3.201  -1.022  0.00  0.00    -0.388 N 
ATOM     17  H   UNL d   1      -1.335  -3.494  -1.970  0.00  0.00     0.159 HD
BRANCH  16  18
ATOM     18  C   UNL d   1      -0.499  -4.213  -0.176  0.00  0.00     0.120 C 
BRANCH  18  19
ATOM     19  C   UNL d   1      -1.291  -5.523  -0.221  0.00  0.00     0.020 C 
BRANCH  19  20
ATOM     20  C   UNL d   1      -0.635  -6.561   0.695  0.00  0.00     0.002 C 
BRANCH  20  21
ATOM     21  C   UNL d   1      -1.377  -7.897   0.692  0.00  0.00     0.000 C 
BRANCH  21  22
ATOM     22  C   UNL d   1      -0.693  -8.907   1.618  0.00  0.00    -0.000 C 
BRANCH  22  23
ATOM     23  C   UNL d   1      -1.425 -10.248   1.622  0.00  0.00    -0.005 C 
ATOM     24  C   UNL d   1      -0.748 -11.252   2.541  0.00  0.00     0.005 C 
ENDBRANCH  22  23
ENDBRANCH  21  22
ENDBRANCH  20  21
ENDBRANCH  19  20
ENDBRANCH  18  19
ENDBRANCH  16  18
ENDBRANCH   6  16
BRANCH   2  25
ATOM     25  C   UNL d   1      -0.058   2.029   1.951  0.00  0.00     0.046 A 
ATOM     26  C   UNL d   1      -1.254   2.622   2.387  0.00  0.00     0.030 A 
ATOM     27  C   UNL d   1      -1.238   3.784   3.162  0.00  0.00     0.002 A 
ATOM     28  C   UNL d   1      -0.027   4.385   3.487  0.00  0.00     0.000 A 
ATOM     29  C   UNL d   1       1.164   3.829   3.038  0.00  0.00     0.002 A 
ATOM     30  C   UNL d   1       1.149   2.655   2.286  0.00  0.00     0.030 A 
ENDBRANCH   2  25
TORSDOF 9
