REMARK  4 active torsions:
REMARK  status: ('A' for Active; 'I' for Inactive)
REMARK       I    between atoms: N_2  and  C_1 
REMARK    1  A    between atoms: C_3  and  C_1 
REMARK    2  A    between atoms: C_6  and  N_2 
REMARK    3  A    between atoms: O_4  and  C_9 
REMARK    4  A    between atoms: C_5  and  O_4 
ROOT
ATOM      1  C   UNL d   1       1.063   1.882  -1.421  0.00  0.00     0.069 A 
ATOM      2  C   UNL d   1       2.115   1.383  -2.213  0.00  0.00     0.102 A 
ATOM      3  C   UNL d   1       0.586   3.179  -1.650  0.00  0.00     0.032 A 
ATOM      4  C   UNL d   1       2.644   2.188  -3.235  0.00  0.00     0.039 A 
ATOM      5  C   UNL d   1       1.188   3.999  -2.605  0.00  0.00     0.002 A 
ATOM      6  C   UNL d   1       2.214   3.503  -3.402  0.00  0.00     0.003 A 
ENDROOT
BRANCH   1   7
ATOM      7  N   UNL d   1       0.421   1.144  -0.401  0.00  0.00    -0.320 N 
ATOM      8  C   UNL d   1       1.076   0.396   0.558  0.00  0.00     0.263 C 
ATOM      9  O   UNL d   1       2.303   0.358   0.668  0.00  0.00    -0.267 OA
ATOM     10  H   UNL d   1      -0.527   1.413  -0.160  0.00  0.00     0.169 HD
BRANCH   8  11
ATOM     11  C   UNL d   1       0.211  -0.274   1.527  0.00  0.00     0.072 A 
ATOM     12  S   UNL d   1      -1.483  -0.424   1.310  0.00  0.00    -0.097 SA
ATOM     13  C   UNL d   1      -1.656  -1.343   2.744  0.00  0.00     0.050 A 
ATOM     14  C   UNL d   1      -0.459  -1.502   3.402  0.00  0.00     0.009 A 
ATOM     15  C   UNL d   1       0.614  -0.877   2.706  0.00  0.00     0.025 A 
ENDBRANCH   8  11
ENDBRANCH   1   7
BRANCH   2  16
ATOM     16  O   UNL d   1       2.519   0.070  -2.055  0.00  0.00    -0.307 OA
BRANCH  16  17
ATOM     17  C   UNL d   1       3.854  -0.231  -2.259  0.00  0.00     0.098 A 
ATOM     18  C   UNL d   1       4.188  -1.412  -2.934  0.00  0.00     0.069 A 
ATOM     19  C   UNL d   1       5.526  -1.711  -3.209  0.00  0.00     0.050 A 
ATOM     20 CL   UNL d   1       2.975  -2.516  -3.473  0.00  0.00    -0.081 Cl
ATOM     21  C   UNL d   1       6.527  -0.831  -2.802  0.00  0.00     0.035 A 
ATOM     22  C   UNL d   1       6.210   0.322  -2.086  0.00  0.00     0.026 A 
ATOM     23 CL   UNL d   1       8.170  -1.166  -3.187  0.00  0.00    -0.084 Cl
ATOM     24  C   UNL d   1       4.876   0.606  -1.789  0.00  0.00     0.041 A 
ENDBRANCH  16  17
ENDBRANCH   2  16
TORSDOF 4
