REMARK  5 active torsions:
REMARK  status: ('A' for Active; 'I' for Inactive)
REMARK    1  A    between atoms: N_2  and  S_1 
REMARK    2  A    between atoms: C_9  and  S_1 
REMARK    3  A    between atoms: C_3  and  N_2 
REMARK       I    between atoms: C_7  and  N_13 
REMARK       I    between atoms: N_14  and  C_7 
REMARK    4  A    between atoms: N_13  and  C_18 
REMARK    5  A    between atoms: C_19  and  N_14 
ROOT
ATOM      1  C   UNL d   1       0.029  -1.127   1.019  0.00  0.00     0.075 A 
ATOM      2  C   UNL d   1      -0.431  -2.280   0.375  0.00  0.00     0.027 A 
ATOM      3  C   UNL d   1       0.156  -1.104   2.404  0.00  0.00     0.027 A 
ATOM      4  C   UNL d   1      -0.451  -3.464   2.502  0.00  0.00     0.036 A 
ATOM      5  C   UNL d   1      -0.680  -3.442   1.120  0.00  0.00     0.031 A 
ATOM      6  C   UNL d   1      -0.100  -2.264   3.137  0.00  0.00     0.031 A 
ENDROOT
BRANCH   4   7
ATOM      7  N   UNL d   1      -0.495  -4.718   3.167  0.00  0.00    -0.309 N 
ATOM      8  C   UNL d   1      -0.047  -4.954   4.462  0.00  0.00     0.325 C 
ATOM      9  N   UNL d   1       0.049  -6.309   4.748  0.00  0.00    -0.309 N 
ATOM     10  O   UNL d   1       0.272  -4.070   5.245  0.00  0.00    -0.247 OA
ATOM     11  H   UNL d   1      -0.217  -6.957   4.027  0.00  0.00     0.170 HD
ATOM     12  H   UNL d   1      -0.728  -5.519   2.602  0.00  0.00     0.170 HD
BRANCH   9  13
ATOM     13  C   UNL d   1       0.611  -6.868   5.926  0.00  0.00     0.036 A 
ATOM     14  C   UNL d   1       1.042  -6.109   7.021  0.00  0.00     0.031 A 
ATOM     15  C   UNL d   1       1.650  -6.710   8.128  0.00  0.00     0.026 A 
ATOM     16  C   UNL d   1       1.825  -8.085   8.156  0.00  0.00     0.034 A 
ATOM     17  C   UNL d   1       1.381  -8.866   7.092  0.00  0.00     0.026 A 
ATOM     18 CL   UNL d   1       2.596  -8.821   9.505  0.00  0.00    -0.084 Cl
ATOM     19  C   UNL d   1       0.773  -8.260   5.981  0.00  0.00     0.031 A 
ENDBRANCH   9  13
ENDBRANCH   4   7
BRANCH   1  20
ATOM     20  S   UNL d   1       0.711   0.205   0.067  0.00  0.00     0.247 S 
ATOM     21  O   UNL d   1       1.663   0.910   0.904  0.00  0.00    -0.205 OA
ATOM     22  O   UNL d   1       1.123  -0.311  -1.220  0.00  0.00    -0.205 OA
BRANCH  20  23
ATOM     23  N   UNL d   1      -0.574   1.278  -0.130  0.00  0.00    -0.165 NA
ATOM     24  H   UNL d   1      -0.211   2.207   0.079  0.00  0.00     0.147 HD
BRANCH  23  25
ATOM     25  C   UNL d   1      -1.308   1.158  -1.302  0.00  0.00     0.117 A 
ATOM     26  N   UNL d   1      -2.391   0.384  -1.377  0.00  0.00    -0.249 N 
ATOM     27  O   UNL d   1      -2.857   0.525  -2.672  0.00  0.00    -0.241 OA
ATOM     28  HN  UNL d   1      -2.792  -0.190  -0.635  1.00  0.00     0.196 HD
ATOM     29  C   UNL d   1      -2.040   1.369  -3.357  0.00  0.00     0.075 A 
ATOM     30  C   UNL d   1      -1.048   1.818  -2.519  0.00  0.00     0.079 A 
ATOM     31  C   UNL d   1      -2.377   1.596  -4.773  0.00  0.00     0.079 C 
ENDBRANCH  23  25
ENDBRANCH  20  23
ENDBRANCH   1  20
TORSDOF 5
