REMARK  6 active torsions:
REMARK  status: ('A' for Active; 'I' for Inactive)
REMARK    1  A    between atoms: C_2  and  C_1 
REMARK    2  A    between atoms: O_6  and  C_1 
REMARK    3  A    between atoms: C_4  and  C_3 
REMARK    4  A    between atoms: O_13  and  C_4 
REMARK    5  A    between atoms: C_11  and  O_6 
REMARK    6  A    between atoms: C_10  and  C_11 
ROOT
ATOM      1  C   UNL d   1       1.224   3.174  -0.821  0.00  0.00    -0.081 C 
ATOM      2  C   UNL d   1       1.446   3.802  -1.819  0.00  0.00     0.015 C 
ATOM      3  C   UNL d   1       1.003   2.404   0.421  0.00  0.00     0.232 C 
ENDROOT
BRANCH   3   4
ATOM      4  C   UNL d   1       0.138   3.201   1.361  0.00  0.00     0.013 C 
ATOM      5  C   UNL d   1       0.527   3.589   2.590  0.00  0.00    -0.032 C 
ATOM      6  C   UNL d   1      -0.304   4.397   3.534  0.00  0.00     0.036 C 
ENDBRANCH   3   4
BRANCH   3   7
ATOM      7  O   UNL d   1       0.308   1.173   0.126  0.00  0.00    -0.295 OA
BRANCH   7   8
ATOM      8  C   UNL d   1       1.119   0.122  -0.119  0.00  0.00     0.295 C 
ATOM      9  O   UNL d   1       2.339   0.170  -0.155  0.00  0.00    -0.259 OA
BRANCH   8  10
ATOM     10  C   UNL d   1       0.383  -1.150  -0.336  0.00  0.00     0.056 A 
ATOM     11  C   UNL d   1      -0.936  -1.307  -0.788  0.00  0.00     0.053 A 
ATOM     12  C   UNL d   1      -1.440  -2.619  -0.961  0.00  0.00     0.019 A 
ATOM     13  C   UNL d   1      -0.662  -3.748  -0.696  0.00  0.00     0.001 A 
ATOM     14  C   UNL d   1       0.637  -3.591  -0.241  0.00  0.00     0.001 A 
ATOM     15  C   UNL d   1       1.152  -2.307  -0.065  0.00  0.00     0.018 A 
BRANCH  11  16
ATOM     16  C   UNL d   1      -1.923  -0.241  -1.116  0.00  0.00     0.177 C 
ATOM     17  O   UNL d   1      -3.120  -0.417  -0.941  0.00  0.00    -0.646 OA
BRANCH  16  18
ATOM     18  O   UNL d   1      -1.460   0.845  -1.758  0.00  0.00    -0.773 OA
ATOM     19  H   UNL d   1      -0.502   1.007  -1.716  0.00  0.00     0.167 HD
ENDBRANCH  16  18
ENDBRANCH  11  16
ENDBRANCH   8  10
ENDBRANCH   7   8
ENDBRANCH   3   7
TORSDOF 6
