REMARK  8 active torsions:
REMARK  status: ('A' for Active; 'I' for Inactive)
REMARK    1  A    between atoms: C_5  and  N_1 
REMARK    2  A    between atoms: C_2  and  O_6 
REMARK    3  A    between atoms: C_10  and  C_2 
REMARK    4  A    between atoms: O_6  and  N_3 
REMARK    5  A    between atoms: C_7  and  C_20 
REMARK    6  A    between atoms: N_21  and  C_7 
REMARK    7  A    between atoms: C_11  and  C_12 
REMARK    8  A    between atoms: C_20  and  C_22 
ROOT
ATOM      1  N   UNL d   1      -0.066   1.696   2.507  0.00  0.00    -0.245 N 
ATOM      2  HN  UNL d   1       0.274   1.420   1.586  1.00  0.00     0.196 HD
ATOM      3  C   UNL d   1      -1.093   1.155   3.083  0.00  0.00     0.100 C 
ENDROOT
BRANCH   1   4
ATOM      4  O   UNL d   1       0.536   2.710   3.290  0.00  0.00    -0.193 OA
BRANCH   4   5
ATOM      5  C   UNL d   1       1.513   3.320   2.544  0.00  0.00     0.315 C 
ATOM      6  O   UNL d   1       1.830   3.051   1.392  0.00  0.00    -0.257 OA
BRANCH   5   7
ATOM      7  C   UNL d   1       2.215   4.385   3.316  0.00  0.00     0.041 A 
ATOM      8  C   UNL d   1       3.325   4.992   2.716  0.00  0.00     0.018 A 
ATOM      9  C   UNL d   1       4.056   5.977   3.388  0.00  0.00     0.009 A 
ATOM     10  C   UNL d   1       3.708   6.394   4.686  0.00  0.00    -0.051 A 
ATOM     11  C   UNL d   1       2.573   5.794   5.265  0.00  0.00     0.009 A 
ATOM     12  C   UNL d   1       1.835   4.803   4.593  0.00  0.00     0.018 A 
BRANCH  10  13
ATOM     13  C   UNL d   1       4.573   7.444   5.412  0.00  0.00    -0.024 C 
ATOM     14  C   UNL d   1       4.077   7.783   6.835  0.00  0.00     0.019 C 
ATOM     15  C   UNL d   1       6.019   6.916   5.551  0.00  0.00     0.019 C 
ATOM     16  C   UNL d   1       4.599   8.764   4.611  0.00  0.00     0.019 C 
ENDBRANCH  10  13
ENDBRANCH   5   7
ENDBRANCH   4   5
ENDBRANCH   1   4
BRANCH   3  17
ATOM     17  C   UNL d   1      -1.847   0.086   2.291  0.00  0.00     0.116 C 
BRANCH  17  18
ATOM     18  C   UNL d   1      -1.366  -1.333   2.523  0.00  0.00    -0.051 A 
ATOM     19  C   UNL d   1      -2.254  -2.315   2.991  0.00  0.00     0.010 A 
ATOM     20  C   UNL d   1      -1.853  -3.652   3.090  0.00  0.00     0.036 A 
ATOM     21  C   UNL d   1      -0.554  -4.013   2.716  0.00  0.00     0.102 A 
ATOM     22  C   UNL d   1       0.350  -3.045   2.267  0.00  0.00     0.036 A 
ATOM     23  C   UNL d   1      -0.060  -1.709   2.171  0.00  0.00     0.010 A 
BRANCH  21  24
ATOM     24  N   UNL d   1      -0.148  -5.425   2.770  0.00  0.00    -0.116 N 
ATOM     25  O   UNL d   1       0.999  -5.712   2.396  0.00  0.00    -0.532 OA
ATOM     26  O   UNL d   1      -0.977  -6.248   3.183  0.00  0.00    -0.532 OA
ENDBRANCH  21  24
ENDBRANCH  17  18
ENDBRANCH   3  17
BRANCH   3  27
ATOM     27  N   UNL d   1      -1.562   1.479   4.333  0.00  0.00    -0.387 N 
ATOM     28  H   UNL d   1      -0.895   1.979   4.907  0.00  0.00     0.157 HD
ATOM     29  H   UNL d   1      -2.080   0.762   4.827  0.00  0.00     0.157 HD
ENDBRANCH   3  27
TORSDOF 8
