REMARK  6 active torsions:
REMARK  status: ('A' for Active; 'I' for Inactive)
REMARK    1  A    between atoms: C_10  and  C_1 
REMARK    2  A    between atoms: C_3  and  N_8 
REMARK    3  A    between atoms: N_7  and  C_3 
REMARK    4  A    between atoms: C_15  and  N_7 
REMARK    5  A    between atoms: N_8  and  C_10 
REMARK    6  A    between atoms: N_12  and  C_11 
ROOT
ATOM      1  C   UNL d   1      -0.395  -5.114   0.084  0.00  0.00     0.172 C 
ATOM      2  S   UNL d   1      -1.883  -5.869   0.183  0.00  0.00    -0.041 SA
ENDROOT
BRANCH   1   3
ATOM      3  N   UNL d   1      -0.166  -3.776   0.248  0.00  0.00    -0.363 N 
ATOM      4  H   UNL d   1       0.707  -3.428  -0.130  0.00  0.00     0.162 HD
BRANCH   3   5
ATOM      5  C   UNL d   1      -1.149  -2.804   0.685  0.00  0.00     0.162 C 
BRANCH   5   6
ATOM      6  C   UNL d   1      -0.646  -1.411   0.464  0.00  0.00    -0.022 A 
ATOM      7  C   UNL d   1       0.364  -0.826   1.205  0.00  0.00     0.060 A 
ATOM      8  S   UNL d   1       0.630   0.804   0.796  0.00  0.00    -0.101 SA
ATOM      9  C   UNL d   1      -0.610   0.785  -0.396  0.00  0.00     0.015 A 
ATOM     10  C   UNL d   1      -1.194  -0.481  -0.506  0.00  0.00    -0.011 A 
ATOM     11  C   UNL d   1      -1.033   1.869  -1.192  0.00  0.00     0.019 A 
ATOM     12  C   UNL d   1      -2.212  -0.650  -1.482  0.00  0.00     0.013 A 
ATOM     13  C   UNL d   1      -2.629   0.421  -2.280  0.00  0.00     0.001 A 
ATOM     14  C   UNL d   1      -2.050   1.671  -2.127  0.00  0.00     0.001 A 
ENDBRANCH   5   6
ENDBRANCH   3   5
ENDBRANCH   1   3
BRANCH   1  15
ATOM     15  N   UNL d   1       0.687  -5.879  -0.248  0.00  0.00    -0.333 N 
ATOM     16  H   UNL d   1       0.436  -6.777  -0.652  0.00  0.00     0.168 HD
BRANCH  15  17
ATOM     17  C   UNL d   1       2.015  -5.803   0.223  0.00  0.00     0.034 A 
ATOM     18  C   UNL d   1       2.417  -4.992   1.280  0.00  0.00     0.032 A 
ATOM     19  C   UNL d   1       3.720  -5.093   1.796  0.00  0.00     0.031 A 
ATOM     20  C   UNL d   1       4.665  -5.990   1.284  0.00  0.00     0.029 A 
ATOM     21  C   UNL d   1       4.246  -6.766   0.190  0.00  0.00     0.031 A 
ATOM     22  C   UNL d   1       2.943  -6.686  -0.326  0.00  0.00     0.032 A 
BRANCH  20  23
ATOM     23  N   UNL d   1       5.920  -6.140   1.848  0.00  0.00    -0.390 N 
ATOM     24  C   UNL d   1       6.585  -5.066   2.576  0.00  0.00     0.149 C 
ATOM     25  C   UNL d   1       6.697  -7.361   1.669  0.00  0.00     0.149 C 
ENDBRANCH  20  23
ENDBRANCH  15  17
ENDBRANCH   1  15
TORSDOF 6
