REMARK  2 active torsions:
REMARK  status: ('A' for Active; 'I' for Inactive)
REMARK    1  A    between atoms: C_7  and  N_1 
REMARK    2  A    between atoms: N_14  and  C_2 
ROOT
ATOM      1  C   UNL d   1       2.253  -2.407  -1.058  0.00  0.00     0.111 A 
ATOM      2  C   UNL d   1       2.078  -1.484  -0.005  0.00  0.00     0.082 A 
ATOM      3  C   UNL d   1       1.388  -2.524  -2.200  0.00  0.00     0.105 C 
ATOM      4  N   UNL d   1       0.738  -2.640  -3.155  0.00  0.00    -0.191 NA
ATOM      5  C   UNL d   1       3.393  -3.220  -1.053  0.00  0.00     0.139 A 
ATOM      6  F   UNL d   1       3.615  -4.081  -2.058  0.00  0.00    -0.204 F 
ATOM      7  C   UNL d   1       3.019  -1.452   1.045  0.00  0.00     0.033 A 
ATOM      8  C   UNL d   1       4.148  -2.274   1.023  0.00  0.00     0.005 A 
ATOM      9  C   UNL d   1       4.341  -3.152  -0.035  0.00  0.00     0.044 A 
ENDROOT
BRANCH   2  10
ATOM     10  N   UNL d   1       0.968  -0.587   0.026  0.00  0.00    -0.238 N 
ATOM     11  C   UNL d   1       0.870   0.688   0.615  0.00  0.00     0.143 A 
ATOM     12  C   UNL d   1      -0.428   1.101   0.391  0.00  0.00     0.106 A 
ATOM     13  C   UNL d   1      -1.012   2.346   0.762  0.00  0.00     0.104 C 
ATOM     14  C   UNL d   1      -1.032   0.071  -0.336  0.00  0.00     0.134 A 
ATOM     15  N   UNL d   1      -1.469   3.372   1.051  0.00  0.00    -0.191 NA
ATOM     16  N   UNL d   1      -0.198  -0.940  -0.569  0.00  0.00    -0.302 N 
ATOM     17  HN  UNL d   1      -0.395  -1.798  -1.084  1.00  0.00     0.186 HD
BRANCH  11  18
ATOM     18  N   UNL d   1       1.899   1.360   1.206  0.00  0.00    -0.383 N 
ATOM     19  H   UNL d   1       2.867   1.158   0.960  0.00  0.00     0.157 HD
ATOM     20  H   UNL d   1       1.784   2.343   1.457  0.00  0.00     0.157 HD
ENDBRANCH  11  18
ENDBRANCH   2  10
TORSDOF 2
