REMARK  7 active torsions:
REMARK  status: ('A' for Active; 'I' for Inactive)
REMARK    1  A    between atoms: C_11  and  N_6 
REMARK    2  A    between atoms: N_9  and  C_10 
REMARK       I    between atoms: C_13  and  N_9 
REMARK    3  A    between atoms: C_10  and  N_15 
REMARK    4  A    between atoms: C_12  and  C_11 
REMARK       I    between atoms: N_16  and  C_12 
REMARK    5  A    between atoms: C_14  and  C_13 
REMARK    6  A    between atoms: N_15  and  N_16 
REMARK    7  A    between atoms: C_21  and  C_18 
ROOT
ATOM      1  C   UNL d   1       1.965   0.296  -0.673  0.00  0.00     0.257 C 
ATOM      2  N   UNL d   1       2.087  -0.756   0.218  0.00  0.00    -0.266 N 
ATOM      3  O   UNL d   1       2.674   0.397  -1.676  0.00  0.00    -0.270 OA
ATOM      4  H   UNL d   1       1.739  -0.668   1.175  0.00  0.00     0.190 HD
ENDROOT
BRANCH   2   5
ATOM      5  N   UNL d   1       3.182  -1.608   0.038  0.00  0.00    -0.273 N 
ATOM      6  H   UNL d   1       3.926  -1.232  -0.567  0.00  0.00     0.189 HD
BRANCH   5   7
ATOM      7  C   UNL d   1       3.067  -2.980   0.097  0.00  0.00     0.193 C 
ATOM      8  S   UNL d   1       1.723  -3.828   0.617  0.00  0.00    -0.039 SA
BRANCH   7   9
ATOM      9  N   UNL d   1       4.206  -3.682  -0.250  0.00  0.00    -0.299 N 
ATOM     10  C   UNL d   1       5.376  -3.119  -0.720  0.00  0.00     0.247 C 
ATOM     11  O   UNL d   1       5.490  -1.934  -1.013  0.00  0.00    -0.268 OA
ATOM     12  H   UNL d   1       4.139  -4.684  -0.147  0.00  0.00     0.171 HD
BRANCH  10  13
ATOM     13  C   UNL d   1       6.495  -4.074  -0.910  0.00  0.00     0.075 C 
ATOM     14  C   UNL d   1       7.424  -3.698  -1.793  0.00  0.00     0.017 C 
BRANCH  14  15
ATOM     15  C   UNL d   1       8.643  -4.402  -2.217  0.00  0.00    -0.036 A 
ATOM     16  C   UNL d   1       8.937  -5.727  -1.883  0.00  0.00     0.011 A 
ATOM     17  C   UNL d   1      10.042  -6.367  -2.455  0.00  0.00     0.001 A 
ATOM     18  C   UNL d   1      10.864  -5.686  -3.354  0.00  0.00     0.000 A 
ATOM     19  C   UNL d   1      10.606  -4.351  -3.654  0.00  0.00     0.001 A 
ATOM     20  C   UNL d   1       9.508  -3.715  -3.081  0.00  0.00     0.011 A 
ENDBRANCH  14  15
ENDBRANCH  10  13
ENDBRANCH   7   9
ENDBRANCH   5   7
ENDBRANCH   2   5
BRANCH   1  21
ATOM     21  C   UNL d   1       0.823   1.237  -0.429  0.00  0.00     0.272 C 
BRANCH  21  22
ATOM     22  N   UNL d   1       0.828   1.853   0.878  0.00  0.00    -0.194 N 
ATOM     23  N   UNL d   1       0.283   3.072   1.030  0.00  0.00    -0.115 N 
ATOM     24  C   UNL d   1      -0.110   3.020   2.307  0.00  0.00     0.709 A 
ATOM     25  HN  UNL d   1       0.192   3.831   0.354  1.00  0.00     0.207 HD
ATOM     26  N   UNL d   1       0.281   1.851   2.919  0.00  0.00    -0.113 N 
ATOM     27  N   UNL d   1      -0.878   3.940   2.942  0.00  0.00    -0.215 N 
ATOM     28  N   UNL d   1       0.875   1.106   1.998  0.00  0.00     0.011 NA
ATOM     29  HN  UNL d   1       0.140   1.604   3.898  1.00  0.00     0.203 HD
ATOM     30  C   UNL d   1      -1.021   3.855   4.394  0.00  0.00     0.141 C 
ATOM     31  C   UNL d   1      -0.960   5.282   2.362  0.00  0.00     0.141 C 
ATOM     32  C   UNL d   1      -2.316   4.529   4.841  0.00  0.00     0.020 C 
ATOM     33  C   UNL d   1      -2.424   5.954   4.312  0.00  0.00     0.003 C 
ATOM     34  C   UNL d   1      -2.241   5.987   2.800  0.00  0.00     0.020 C 
ENDBRANCH  21  22
ENDBRANCH   1  21
TORSDOF 7
