REMARK  2 active torsions:
REMARK  status: ('A' for Active; 'I' for Inactive)
REMARK    1  A    between atoms: C_8  and  C_3 
REMARK    2  A    between atoms: C_5  and  C_9 
ROOT
ATOM      1  N   UNL d   1       1.554   1.261   0.115  0.00  0.00    -0.334 N 
ATOM      2  HN  UNL d   1       1.853   2.234   0.169  1.00  0.00     0.168 HD
ATOM      3  C   UNL d   1       2.310   0.179   0.045  0.00  0.00     0.159 A 
ATOM      4  O   UNL d   1       1.612  -1.005   0.010  0.00  0.00    -0.291 OA
ATOM      5  C   UNL d   1       0.304  -0.613   0.040  0.00  0.00     0.105 A 
ATOM      6  C   UNL d   1       0.277   0.770   0.099  0.00  0.00     0.068 A 
ATOM      7  C   UNL d   1      -0.827  -1.424   0.009  0.00  0.00     0.046 A 
ATOM      8  C   UNL d   1      -0.958   1.426   0.117  0.00  0.00     0.033 A 
ATOM      9  C   UNL d   1      -2.066  -0.759   0.026  0.00  0.00    -0.059 A 
ATOM     10  C   UNL d   1      -2.124   0.645   0.078  0.00  0.00     0.009 A 
ATOM     11  C   UNL d   1      -3.334  -1.566  -0.012  0.00  0.00     0.048 C 
ENDROOT
BRANCH   3  12
ATOM     12  C   UNL d   1       3.766   0.101  -0.048  0.00  0.00     0.015 A 
ATOM     13  C   UNL d   1       4.517   1.282   0.041  0.00  0.00     0.016 A 
ATOM     14  C   UNL d   1       5.906   1.269  -0.120  0.00  0.00     0.017 A 
ATOM     15  C   UNL d   1       6.578   0.068  -0.376  0.00  0.00     0.048 A 
ATOM     16  C   UNL d   1       5.835  -1.122  -0.434  0.00  0.00     0.017 A 
ATOM     17  C   UNL d   1       4.444  -1.106  -0.270  0.00  0.00     0.016 A 
BRANCH  15  18
ATOM     18  C   UNL d   1       8.069   0.045  -0.608  0.00  0.00     0.417 C 
ATOM     19  F   UNL d   1       8.650   1.277  -0.558  0.00  0.00    -0.166 F 
ATOM     20  F   UNL d   1       8.730  -0.716   0.308  0.00  0.00    -0.166 F 
ATOM     21  F   UNL d   1       8.396  -0.470  -1.827  0.00  0.00    -0.166 F 
ENDBRANCH  15  18
ENDBRANCH   3  12
TORSDOF 2
