REMARK  3 active torsions:
REMARK  status: ('A' for Active; 'I' for Inactive)
REMARK    1  A    between atoms: C_4  and  N_1 
REMARK    2  A    between atoms: C_3  and  C_4 
REMARK       I    between atoms: N_7  and  C_3 
REMARK    3  A    between atoms: C_8  and  N_7 
ROOT
ATOM      1  C   UNL d   1      -1.147   3.348   0.815  0.00  0.00     0.240 C 
ATOM      2  N   UNL d   1      -1.773   2.786   1.919  0.00  0.00    -0.326 N 
ATOM      3  O   UNL d   1      -0.478   4.385   0.822  0.00  0.00    -0.271 OA
ATOM      4  H   UNL d   1      -2.099   1.836   1.776  0.00  0.00     0.169 HD
ENDROOT
BRANCH   1   5
ATOM      5  C   UNL d   1      -1.388   2.604  -0.502  0.00  0.00     0.226 C 
BRANCH   5   6
ATOM      6  N   UNL d   1      -1.155   1.149  -0.414  0.00  0.00    -0.372 N 
ATOM      7  C   UNL d   1       0.120   0.609  -0.263  0.00  0.00     0.036 A 
ATOM      8  C   UNL d   1       0.315  -0.793  -0.252  0.00  0.00    -0.032 A 
ATOM      9  C   UNL d   1       1.275   1.399  -0.118  0.00  0.00     0.030 A 
ATOM     10  C   UNL d   1       1.585  -1.353  -0.031  0.00  0.00     0.009 A 
ATOM     11  C   UNL d   1      -0.849  -1.723  -0.466  0.00  0.00     0.042 C 
ATOM     12  C   UNL d   1       2.698  -0.539   0.139  0.00  0.00     0.001 A 
ATOM     13  C   UNL d   1       2.543   0.837   0.081  0.00  0.00     0.002 A 
ATOM     14  C   UNL d   1      -1.910  -1.041  -1.310  0.00  0.00     0.024 C 
ATOM     15  C   UNL d   1      -2.304   0.274  -0.661  0.00  0.00     0.124 C 
ENDBRANCH   5   6
ENDBRANCH   1   5
BRANCH   2  16
ATOM     16  C   UNL d   1      -1.700   3.265   3.247  0.00  0.00     0.036 A 
ATOM     17  C   UNL d   1      -1.242   4.545   3.578  0.00  0.00     0.055 A 
ATOM     18  C   UNL d   1      -1.050   4.917   4.915  0.00  0.00     0.058 A 
ATOM     19 CL   UNL d   1      -0.427   6.499   5.230  0.00  0.00    -0.082 Cl
ATOM     20  C   UNL d   1      -1.343   4.013   5.937  0.00  0.00     0.055 A 
ATOM     21  C   UNL d   1      -1.878   2.763   5.617  0.00  0.00     0.028 A 
ATOM     22 CL   UNL d   1      -1.050   4.366   7.602  0.00  0.00    -0.083 Cl
ATOM     23  C   UNL d   1      -2.068   2.396   4.278  0.00  0.00     0.031 A 
ENDBRANCH   2  16
TORSDOF 3
