REMARK  2 active torsions:
REMARK  status: ('A' for Active; 'I' for Inactive)
REMARK    1  A    between atoms: C_9  and  N_6 
REMARK    2  A    between atoms: C_10  and  C_9 
ROOT
ATOM      1  C   UNL d   1      -0.115  -1.368   0.073  0.00  0.00     0.709 A 
ATOM      2  N   UNL d   1       1.136  -0.906   0.201  0.00  0.00    -0.116 N 
ATOM      3  HN  UNL d   1       2.006  -1.416   0.356  1.00  0.00     0.207 HD
ATOM      4  N   UNL d   1      -1.023  -0.355  -0.139  0.00  0.00    -0.113 N 
ATOM      5  HN  UNL d   1      -2.030  -0.461  -0.265  1.00  0.00     0.203 HD
ATOM      6  N   UNL d   1       0.925   0.415   0.068  0.00  0.00    -0.199 N 
ATOM      7  N   UNL d   1      -0.347   0.784  -0.147  0.00  0.00     0.011 NA
ATOM      8  N   UNL d   1      -0.500  -2.673   0.100  0.00  0.00    -0.215 N 
ATOM      9  C   UNL d   1      -1.917  -2.976   0.313  0.00  0.00     0.141 C 
ATOM     10  C   UNL d   1       0.442  -3.653   0.644  0.00  0.00     0.141 C 
ATOM     11  C   UNL d   1       0.138  -5.044   0.090  0.00  0.00     0.020 C 
ATOM     12  C   UNL d   1      -2.252  -4.363  -0.236  0.00  0.00     0.020 C 
ATOM     13  C   UNL d   1      -1.318  -5.432   0.322  0.00  0.00     0.003 C 
ENDROOT
BRANCH   6  14
ATOM     14  C   UNL d   1       2.018   1.368   0.020  0.00  0.00     0.206 C 
BRANCH  14  15
ATOM     15  C   UNL d   1       2.349   1.899   1.391  0.00  0.00    -0.034 A 
ATOM     16  C   UNL d   1       3.313   1.262   2.188  0.00  0.00     0.051 A 
ATOM     17  C   UNL d   1       3.585   1.740   3.466  0.00  0.00     0.117 A 
ATOM     18  F   UNL d   1       4.506   1.122   4.218  0.00  0.00    -0.206 F 
ATOM     19  C   UNL d   1       2.916   2.846   3.976  0.00  0.00     0.042 A 
ATOM     20  C   UNL d   1       1.957   3.488   3.194  0.00  0.00     0.004 A 
ATOM     21  C   UNL d   1       1.675   3.017   1.908  0.00  0.00     0.009 A 
ENDBRANCH  14  15
ENDBRANCH   6  14
TORSDOF 2
