REMARK  6 active torsions:
REMARK  status: ('A' for Active; 'I' for Inactive)
REMARK    1  A    between atoms: C_9  and  C_3 
REMARK    2  A    between atoms: N_4  and  C_8 
REMARK    3  A    between atoms: C_11  and  C_5 
REMARK    4  A    between atoms: C_13  and  C_9 
REMARK    5  A    between atoms: C_23  and  C_20 
REMARK    6  A    between atoms: C_25  and  C_23 
ROOT
ATOM      1  N   UNL d   1       1.317  -0.504  -0.358  0.00  0.00    -0.352 N 
ATOM      2  HN  UNL d   1       2.122  -0.966  -0.779  1.00  0.00     0.166 HD
ATOM      3  C   UNL d   1       0.250  -1.125   0.108  0.00  0.00     0.059 A 
ATOM      4  C   UNL d   1       1.187   0.865  -0.192  0.00  0.00     0.049 A 
ATOM      5  S   UNL d   1      -0.960  -0.097   0.778  0.00  0.00    -0.086 SA
ATOM      6  C   UNL d   1       0.001   1.267   0.389  0.00  0.00     0.081 A 
ENDROOT
BRANCH   3   7
ATOM      7  C   UNL d   1       0.019  -2.620   0.044  0.00  0.00     0.071 C 
ATOM      8  C   UNL d   1       1.339  -3.395   0.166  0.00  0.00     0.022 C 
BRANCH   7   9
ATOM      9  C   UNL d   1      -0.720  -3.016  -1.227  0.00  0.00    -0.048 A 
ATOM     10  C   UNL d   1      -0.174  -2.741  -2.490  0.00  0.00     0.008 A 
ATOM     11  C   UNL d   1      -0.847  -3.107  -3.654  0.00  0.00     0.007 A 
ATOM     12  C   UNL d   1      -2.086  -3.753  -3.588  0.00  0.00    -0.058 A 
ATOM     13  C   UNL d   1      -2.638  -4.025  -2.330  0.00  0.00     0.007 A 
ATOM     14  C   UNL d   1      -1.966  -3.656  -1.161  0.00  0.00     0.008 A 
BRANCH  12  15
ATOM     15  C   UNL d   1      -2.778  -4.177  -4.861  0.00  0.00     0.042 C 
BRANCH  15  16
ATOM     16  C   UNL d   1      -4.185  -3.586  -5.073  0.00  0.00    -0.019 C 
ATOM     17  C   UNL d   1      -4.167  -2.058  -5.167  0.00  0.00     0.010 C 
ATOM     18  C   UNL d   1      -4.798  -4.170  -6.349  0.00  0.00     0.010 C 
ENDBRANCH  15  16
ENDBRANCH  12  15
ENDBRANCH   7   9
ENDBRANCH   3   7
BRANCH   4  19
ATOM     19  C   UNL d   1       2.237   1.776  -0.631  0.00  0.00    -0.009 A 
ATOM     20  C   UNL d   1       3.063   1.416  -1.708  0.00  0.00     0.016 A 
ATOM     21  C   UNL d   1       4.091   2.263  -2.140  0.00  0.00     0.037 A 
ATOM     22  C   UNL d   1       4.299   3.481  -1.483  0.00  0.00     0.102 A 
ATOM     23  C   UNL d   1       3.487   3.854  -0.405  0.00  0.00     0.037 A 
ATOM     24  C   UNL d   1       2.462   3.002   0.016  0.00  0.00     0.016 A 
BRANCH  22  25
ATOM     25  N   UNL d   1       5.381   4.373  -1.917  0.00  0.00    -0.116 N 
ATOM     26  O   UNL d   1       6.076   4.013  -2.879  0.00  0.00    -0.532 OA
ATOM     27  O   UNL d   1       5.537   5.434  -1.298  0.00  0.00    -0.532 OA
ENDBRANCH  22  25
ENDBRANCH   4  19
TORSDOF 6
