REMARK  2 active torsions:
REMARK  status: ('A' for Active; 'I' for Inactive)
REMARK    1  A    between atoms: C_7  and  C_4 
REMARK    2  A    between atoms: N_8  and  C_9 
ROOT
ATOM      1  C   UNL d   1      -3.235  -1.943   0.049  0.00  0.00    -0.009 A 
ATOM      2  C   UNL d   1      -3.817  -1.333  -1.086  0.00  0.00     0.040 A 
ATOM      3  C   UNL d   1      -4.045  -2.575   1.019  0.00  0.00     0.014 A 
ATOM      4  C   UNL d   1      -5.226  -1.411  -1.181  0.00  0.00     0.030 A 
ATOM      5  C   UNL d   1      -5.429  -2.620   0.890  0.00  0.00     0.001 A 
ATOM      6  C   UNL d   1      -6.022  -2.040  -0.218  0.00  0.00     0.002 A 
ENDROOT
BRANCH   1   7
ATOM      7  C   UNL d   1      -1.794  -2.007   0.339  0.00  0.00     0.031 C 
ATOM      8  C   UNL d   1      -0.961  -2.964  -0.090  0.00  0.00     0.045 A 
ATOM      9  C   UNL d   1      -1.279  -4.127  -0.994  0.00  0.00     0.257 A 
ATOM     10  C   UNL d   1       0.425  -3.135   0.362  0.00  0.00     0.006 A 
ATOM     11  N   UNL d   1      -0.141  -4.921  -0.960  0.00  0.00    -0.322 N 
ATOM     12  O   UNL d   1      -2.295  -4.355  -1.625  0.00  0.00    -0.267 OA
ATOM     13  C   UNL d   1       0.850  -4.359  -0.162  0.00  0.00     0.046 A 
ATOM     14  H   UNL d   1      -0.074  -5.790  -1.467  0.00  0.00     0.169 HD
ATOM     15  C   UNL d   1       2.090  -4.896   0.122  0.00  0.00     0.030 A 
ATOM     16  C   UNL d   1       2.932  -4.157   0.956  0.00  0.00     0.002 A 
ATOM     17  C   UNL d   1       2.529  -2.907   1.463  0.00  0.00     0.001 A 
ATOM     18  C   UNL d   1       1.265  -2.385   1.165  0.00  0.00     0.015 A 
ENDBRANCH   1   7
BRANCH   2  19
ATOM     19  N   UNL d   1      -3.143  -0.605  -2.058  0.00  0.00    -0.376 N 
ATOM     20  C   UNL d   1      -1.837   0.026  -1.849  0.00  0.00     0.149 C 
ATOM     21  C   UNL d   1      -1.780   1.323  -2.675  0.00  0.00     0.187 C 
ATOM     22  O   UNL d   1      -2.025   1.083  -4.071  0.00  0.00    -0.388 OA
ATOM     23  C   UNL d   1      -3.315   0.469  -4.252  0.00  0.00     0.187 C 
ATOM     24  C   UNL d   1      -3.420  -0.862  -3.486  0.00  0.00     0.149 C 
ENDBRANCH   2  19
TORSDOF 2
