REMARK  5 active torsions:
REMARK  status: ('A' for Active; 'I' for Inactive)
REMARK    1  A    between atoms: C_2  and  S_1 
REMARK    2  A    between atoms: N_5  and  S_1 
REMARK    3  A    between atoms: N_3  and  C_11 
REMARK    4  A    between atoms: O_6  and  C_4 
REMARK    5  A    between atoms: C_13  and  O_6 
ROOT
ATOM      1  C   UNL d   1       0.610   1.179  -1.569  0.00  0.00     0.078 A 
ATOM      2  C   UNL d   1      -0.240   2.373  -3.964  0.00  0.00     0.119 A 
ATOM      3  C   UNL d   1      -0.334   0.982  -3.791  0.00  0.00     0.071 A 
ATOM      4  C   UNL d   1       0.308   3.149  -2.926  0.00  0.00     0.071 A 
ATOM      5  C   UNL d   1       0.736   2.558  -1.733  0.00  0.00     0.051 A 
ATOM      6  C   UNL d   1       0.065   0.391  -2.588  0.00  0.00     0.051 A 
ATOM      7 CL   UNL d   1      -0.839  -0.088  -5.053  0.00  0.00    -0.081 Cl
ATOM      8 CL   UNL d   1       0.521   4.855  -3.105  0.00  0.00    -0.081 Cl
ENDROOT
BRANCH   2   9
ATOM      9  O   UNL d   1      -0.515   3.021  -5.149  0.00  0.00    -0.306 OA
BRANCH   9  10
ATOM     10  C   UNL d   1      -1.753   2.882  -5.742  0.00  0.00     0.098 A 
ATOM     11  C   UNL d   1      -1.812   3.013  -7.140  0.00  0.00     0.070 A 
ATOM     12  C   UNL d   1      -3.022   2.845  -7.821  0.00  0.00     0.062 A 
ATOM     13 CL   UNL d   1      -0.399   3.365  -8.068  0.00  0.00    -0.081 Cl
ATOM     14  C   UNL d   1      -4.176   2.552  -7.091  0.00  0.00     0.104 A 
ATOM     15  C   UNL d   1      -4.138   2.463  -5.693  0.00  0.00     0.039 A 
ATOM     16  C   UNL d   1      -2.928   2.648  -5.021  0.00  0.00     0.041 A 
BRANCH  14  17
ATOM     17  N   UNL d   1      -5.444   2.330  -7.798  0.00  0.00    -0.116 N 
ATOM     18  O   UNL d   1      -5.482   2.590  -9.009  0.00  0.00    -0.532 OA
ATOM     19  O   UNL d   1      -6.399   1.894  -7.140  0.00  0.00    -0.532 OA
ENDBRANCH  14  17
ENDBRANCH   9  10
ENDBRANCH   2   9
BRANCH   1  20
ATOM     20  S   UNL d   1       1.408   0.375  -0.193  0.00  0.00     0.243 S 
ATOM     21  O   UNL d   1       2.446   1.268   0.276  0.00  0.00    -0.206 OA
ATOM     22  O   UNL d   1       1.716  -0.970  -0.629  0.00  0.00    -0.206 OA
BRANCH  20  23
ATOM     23  N   UNL d   1       0.168   0.297   0.975  0.00  0.00    -0.202 NA
ATOM     24  C   UNL d   1       0.215   1.344   2.052  0.00  0.00     0.134 C 
ATOM     25  C   UNL d   1       1.256   0.984   3.130  0.00  0.00     0.183 C 
ATOM     26  O   UNL d   1       1.038  -0.331   3.666  0.00  0.00    -0.389 OA
ATOM     27  C   UNL d   1       1.075  -1.323   2.628  0.00  0.00     0.183 C 
ATOM     28  C   UNL d   1      -0.032  -1.050   1.606  0.00  0.00     0.134 C 
ENDBRANCH  20  23
ENDBRANCH   1  20
TORSDOF 5
