REMARK  4 active torsions:
REMARK  status: ('A' for Active; 'I' for Inactive)
REMARK    1  A    between atoms: N_2  and  C_1 
REMARK       I    between atoms: C_3  and  N_2 
REMARK    2  A    between atoms: C_5  and  C_3 
REMARK    3  A    between atoms: C_6  and  C_7 
REMARK    4  A    between atoms: O_13  and  C_6 
ROOT
ATOM      1  N   UNL d   1       6.512   0.046   0.085  0.00  0.00    -0.323 N 
ATOM      2  C   UNL d   1       7.642  -0.357   0.768  0.00  0.00     0.245 C 
ATOM      3  O   UNL d   1       8.517   0.336   1.265  0.00  0.00    -0.268 OA
ATOM      4  H   UNL d   1       5.895  -0.689  -0.232  0.00  0.00     0.169 HD
ENDROOT
BRANCH   1   5
ATOM      5  C   UNL d   1       6.057   1.371  -0.129  0.00  0.00     0.042 A 
ATOM      6  C   UNL d   1       6.774   2.489   0.316  0.00  0.00     0.054 A 
ATOM      7  C   UNL d   1       6.257   3.776   0.154  0.00  0.00     0.036 A 
ATOM      8 CL   UNL d   1       7.155   5.138   0.705  0.00  0.00    -0.084 Cl
ATOM      9  C   UNL d   1       5.018   3.971  -0.443  0.00  0.00     0.024 A 
ATOM     10  C   UNL d   1       4.307   2.873  -0.920  0.00  0.00     0.011 A 
ATOM     11  C   UNL d   1       4.825   1.571  -0.795  0.00  0.00    -0.035 A 
ATOM     12  C   UNL d   1       4.021   0.436  -1.375  0.00  0.00     0.050 C 
ENDBRANCH   1   5
BRANCH   2  13
ATOM     13  C   UNL d   1       7.744  -1.839   0.810  0.00  0.00     0.081 C 
ATOM     14  C   UNL d   1       8.112  -2.532   1.898  0.00  0.00     0.086 C 
BRANCH  14  15
ATOM     15  C   UNL d   1       8.358  -1.988   3.239  0.00  0.00     0.165 C 
ATOM     16  O   UNL d   1       9.167  -2.440   4.027  0.00  0.00    -0.647 OA
BRANCH  15  17
ATOM     17  O   UNL d   1       7.488  -1.026   3.577  0.00  0.00    -0.773 OA
ATOM     18  H   UNL d   1       7.785  -0.735   4.463  0.00  0.00     0.167 HD
ENDBRANCH  15  17
ENDBRANCH  14  15
ENDBRANCH   2  13
TORSDOF 4
