REMARK  4 active torsions:
REMARK  status: ('A' for Active; 'I' for Inactive)
REMARK    1  A    between atoms: C_3  and  C_1 
REMARK       I    between atoms: N_5  and  C_1 
REMARK       I    between atoms: C_2  and  N_6 
REMARK    2  A    between atoms: C_4  and  C_2 
REMARK    3  A    between atoms: C_10  and  N_5 
REMARK    4  A    between atoms: N_6  and  C_9 
ROOT
ATOM      1  N   UNL d   1      -1.899   2.137  -0.249  0.00  0.00    -0.329 N 
ATOM      2  HN  UNL d   1      -1.449   2.908  -0.742  1.00  0.00     0.169 HD
ATOM      3  C   UNL d   1      -3.240   2.045  -0.198  0.00  0.00     0.109 A 
ATOM      4  C   UNL d   1      -1.167   1.192   0.363  0.00  0.00     0.109 A 
ATOM      5  C   UNL d   1      -3.893   0.958   0.362  0.00  0.00     0.049 A 
ATOM      6  C   UNL d   1      -1.748   0.091   0.983  0.00  0.00     0.049 A 
ATOM      7  C   UNL d   1      -3.132  -0.037   0.961  0.00  0.00     0.007 A 
ENDROOT
BRANCH   3   8
ATOM      8  N   UNL d   1      -3.904   3.148  -0.738  0.00  0.00    -0.309 N 
ATOM      9  C   UNL d   1      -5.164   3.578  -0.386  0.00  0.00     0.263 C 
ATOM     10  O   UNL d   1      -5.903   3.004   0.409  0.00  0.00    -0.267 OA
ATOM     11  H   UNL d   1      -3.276   3.764  -1.243  0.00  0.00     0.170 HD
BRANCH   9  12
ATOM     12  C   UNL d   1      -5.621   4.855  -0.992  0.00  0.00     0.109 A 
ATOM     13  C   UNL d   1      -5.143   5.305  -2.219  0.00  0.00     0.135 A 
ATOM     14  F   UNL d   1      -4.219   4.614  -2.900  0.00  0.00    -0.205 F 
ATOM     15  C   UNL d   1      -5.620   6.489  -2.789  0.00  0.00     0.043 A 
ATOM     16  C   UNL d   1      -6.589   7.241  -2.128  0.00  0.00     0.006 A 
ATOM     17  C   UNL d   1      -7.071   6.809  -0.898  0.00  0.00     0.043 A 
ATOM     18  C   UNL d   1      -6.588   5.621  -0.334  0.00  0.00     0.135 A 
ATOM     19  F   UNL d   1      -7.073   5.268   0.862  0.00  0.00    -0.205 F 
ENDBRANCH   9  12
ENDBRANCH   3   8
BRANCH   4  20
ATOM     20  N   UNL d   1       0.234   1.263   0.361  0.00  0.00    -0.309 N 
ATOM     21  C   UNL d   1       0.978   2.300  -0.172  0.00  0.00     0.263 C 
ATOM     22  O   UNL d   1       0.531   3.387  -0.519  0.00  0.00    -0.267 OA
ATOM     23  H   UNL d   1       0.719   0.460   0.737  0.00  0.00     0.170 HD
BRANCH  21  24
ATOM     24  C   UNL d   1       2.439   2.040  -0.337  0.00  0.00     0.109 A 
ATOM     25  C   UNL d   1       3.008   0.781  -0.115  0.00  0.00     0.135 A 
ATOM     26  F   UNL d   1       2.270  -0.241   0.347  0.00  0.00    -0.205 F 
ATOM     27  C   UNL d   1       4.359   0.532  -0.367  0.00  0.00     0.043 A 
ATOM     28  C   UNL d   1       5.176   1.551  -0.846  0.00  0.00     0.006 A 
ATOM     29  C   UNL d   1       4.637   2.818  -1.052  0.00  0.00     0.043 A 
ATOM     30  C   UNL d   1       3.284   3.056  -0.798  0.00  0.00     0.135 A 
ATOM     31  F   UNL d   1       2.837   4.301  -1.016  0.00  0.00    -0.205 F 
ENDBRANCH  21  24
ENDBRANCH   4  20
TORSDOF 4
