REMARK  4 active torsions:
REMARK  status: ('A' for Active; 'I' for Inactive)
REMARK    1  A    between atoms: S_6  and  C_1 
REMARK    2  A    between atoms: C_2  and  C_5 
REMARK    3  A    between atoms: C_9  and  S_6 
REMARK    4  A    between atoms: N_16  and  C_10 
ROOT
ATOM      1  C   UNL d   1       0.042   1.355   0.021  0.00  0.00     0.149 A 
ATOM      2  N   UNL d   1      -0.058   0.750  -1.174  0.00  0.00    -0.333 N 
ATOM      3  HN  UNL d   1      -0.074   1.286  -2.041  1.00  0.00     0.168 HD
ATOM      4  C   UNL d   1      -0.136  -0.607  -1.178  0.00  0.00     0.119 A 
ATOM      5  N   UNL d   1       0.066   0.715   1.206  0.00  0.00    -0.346 N 
ATOM      6  HN  UNL d   1       0.131   1.221   2.088  1.00  0.00     0.167 HD
ATOM      7  C   UNL d   1      -0.103  -1.343  -0.005  0.00  0.00     0.051 A 
ATOM      8  C   UNL d   1      -0.001  -0.627   1.163  0.00  0.00     0.092 A 
ENDROOT
BRANCH   1   9
ATOM      9  S   UNL d   1       0.264   3.114   0.051  0.00  0.00    -0.052 SA
BRANCH   9  10
ATOM     10  C   UNL d   1      -1.436   3.682   0.078  0.00  0.00     0.029 A 
ATOM     11  C   UNL d   1      -2.323   3.403   1.139  0.00  0.00     0.023 A 
ATOM     12  C   UNL d   1      -3.600   3.983   1.117  0.00  0.00     0.024 A 
ATOM     13  C   UNL d   1      -4.021   4.764   0.037  0.00  0.00     0.002 A 
ATOM     14  C   UNL d   1      -3.154   5.008  -1.022  0.00  0.00     0.001 A 
ATOM     15  C   UNL d   1      -1.865   4.475  -0.999  0.00  0.00     0.021 A 
BRANCH  11  16
ATOM     16  N   UNL d   1      -1.900   2.774   2.327  0.00  0.00    -0.302 NA
ATOM     17  H   UNL d   1      -1.092   2.163   2.194  0.00  0.00     0.124 HD
ATOM     18  H   UNL d   1      -2.645   2.315   2.838  0.00  0.00     0.124 HD
ENDBRANCH  11  16
ENDBRANCH   9  10
ENDBRANCH   1   9
BRANCH   4  19
ATOM     19  C   UNL d   1      -0.251  -1.349  -2.501  0.00  0.00     0.432 C 
ATOM     20  F   UNL d   1      -0.268  -0.546  -3.600  0.00  0.00    -0.165 F 
ATOM     21  F   UNL d   1       0.778  -2.225  -2.693  0.00  0.00    -0.165 F 
ATOM     22  F   UNL d   1      -1.387  -2.104  -2.571  0.00  0.00    -0.165 F 
ENDBRANCH   4  19
TORSDOF 4
