REMARK  1 active torsions:
REMARK  status: ('A' for Active; 'I' for Inactive)
REMARK    1  A    between atoms: N_8  and  C_4 
ROOT
ATOM      1  C   UNL d   1       1.803   0.348   0.131  0.00  0.00     0.012 A 
ATOM      2  C   UNL d   1       0.829   1.479   0.299  0.00  0.00     0.190 A 
ATOM      3  C   UNL d   1      -0.483   0.874   0.577  0.00  0.00     0.021 A 
ATOM      4  C   UNL d   1       3.108   0.559  -0.083  0.00  0.00     0.096 C 
ATOM      5  C   UNL d   1       1.045  -0.941   0.278  0.00  0.00     0.083 A 
ATOM      6  C   UNL d   1      -0.354  -0.514   0.586  0.00  0.00    -0.040 A 
ATOM      7  O   UNL d   1       1.061   2.671   0.228  0.00  0.00    -0.287 OA
ATOM      8  C   UNL d   1      -1.694   1.500   0.817  0.00  0.00     0.016 A 
ATOM      9  C   UNL d   1      -1.447  -1.325   0.844  0.00  0.00     0.008 A 
ATOM     10  C   UNL d   1      -2.801   0.688   1.075  0.00  0.00     0.001 A 
ATOM     11  C   UNL d   1      -2.678  -0.713   1.092  0.00  0.00     0.001 A 
ENDROOT
BRANCH   4  12
ATOM     12  N   UNL d   1       4.180  -0.310  -0.270  0.00  0.00    -0.398 N 
ATOM     13  C   UNL d   1       4.109  -1.768  -0.211  0.00  0.00     0.148 C 
ATOM     14  C   UNL d   1       5.559   0.193  -0.295  0.00  0.00     0.148 C 
ENDBRANCH   4  12
TORSDOF 1
