REMARK  5 active torsions:
REMARK  status: ('A' for Active; 'I' for Inactive)
REMARK    1  A    between atoms: C_12  and  C_1 
REMARK    2  A    between atoms: C_7  and  N_2 
REMARK    3  A    between atoms: C_8  and  C_10 
REMARK    4  A    between atoms: C_9  and  C_11 
REMARK    5  A    between atoms: O_24  and  C_12 
ROOT
ATOM      1  C   UNL d   1      -0.719   2.526  -0.108  0.00  0.00     0.056 A 
ATOM      2  C   UNL d   1      -2.011   4.413   0.747  0.00  0.00     0.050 A 
ATOM      3  C   UNL d   1      -0.609   4.681  -1.240  0.00  0.00     0.050 A 
ATOM      4  C   UNL d   1      -0.233   3.331  -1.145  0.00  0.00     0.047 A 
ATOM      5  C   UNL d   1      -1.635   3.062   0.813  0.00  0.00     0.047 A 
ATOM      6  C   UNL d   1      -1.484   5.215  -0.279  0.00  0.00     0.032 A 
ENDROOT
BRANCH   1   7
ATOM      7  N   UNL d   1      -0.327   1.165   0.014  0.00  0.00    -0.242 N 
ATOM      8  C   UNL d   1       0.831   0.512  -0.385  0.00  0.00     0.063 A 
ATOM      9  C   UNL d   1       0.570  -0.824  -0.128  0.00  0.00     0.143 A 
ATOM     10  C   UNL d   1       2.096   1.131  -0.855  0.00  0.00     0.072 C 
ATOM     11  N   UNL d   1      -0.654  -0.942   0.473  0.00  0.00    -0.276 N 
ATOM     12  N   UNL d   1      -1.159   0.272   0.613  0.00  0.00    -0.014 NA
ATOM     13  HN  UNL d   1      -1.099  -1.814   0.761  1.00  0.00     0.184 HD
BRANCH   9  14
ATOM     14  C   UNL d   1       1.421  -1.981  -0.362  0.00  0.00     0.196 C 
ATOM     15  O   UNL d   1       2.523  -1.927  -0.889  0.00  0.00    -0.645 OA
BRANCH  14  16
ATOM     16  O   UNL d   1       0.873  -3.146   0.064  0.00  0.00    -0.772 OA
ATOM     17  H   UNL d   1      -0.010  -2.975   0.460  0.00  0.00     0.167 HD
ENDBRANCH  14  16
ENDBRANCH   9  14
ENDBRANCH   1   7
BRANCH   3  18
ATOM     18  C   UNL d   1      -0.095   5.554  -2.364  0.00  0.00     0.417 C 
ATOM     19  F   UNL d   1       0.728   4.894  -3.224  0.00  0.00    -0.166 F 
ATOM     20  F   UNL d   1      -1.101   6.066  -3.123  0.00  0.00    -0.166 F 
ATOM     21  F   UNL d   1       0.617   6.620  -1.907  0.00  0.00    -0.166 F 
ENDBRANCH   3  18
BRANCH   2  22
ATOM     22  C   UNL d   1      -2.959   5.015   1.760  0.00  0.00     0.417 C 
ATOM     23  F   UNL d   1      -3.407   4.126   2.687  0.00  0.00    -0.166 F 
ATOM     24  F   UNL d   1      -2.385   6.031   2.461  0.00  0.00    -0.166 F 
ATOM     25  F   UNL d   1      -4.070   5.543   1.177  0.00  0.00    -0.166 F 
ENDBRANCH   2  22
TORSDOF 5
