REMARK  8 active torsions:
REMARK  status: ('A' for Active; 'I' for Inactive)
REMARK    1  A    between atoms: C_3  and  S_1 
REMARK    2  A    between atoms: N_9  and  S_1 
REMARK    3  A    between atoms: C_2  and  N_6 
REMARK    4  A    between atoms: N_8  and  C_2 
REMARK    5  A    between atoms: N_6  and  N_10 
REMARK    6  A    between atoms: C_14  and  N_8 
REMARK    7  A    between atoms: N_10  and  C_13 
REMARK    8  A    between atoms: C_16  and  C_14 
ROOT
ATOM      1  N   UNL d   1      -1.359  -0.855   6.373  0.00  0.00    -0.293 N 
ATOM      2  H   UNL d   1      -1.507  -1.643   5.750  0.00  0.00     0.183 HD
ENDROOT
BRANCH   1   3
ATOM      3  C   UNL d   1      -1.625  -1.040   7.715  0.00  0.00     0.182 C 
ATOM      4  S   UNL d   1      -0.723  -0.479   9.005  0.00  0.00    -0.040 SA
BRANCH   3   5
ATOM      5  N   UNL d   1      -2.791  -1.710   7.978  0.00  0.00    -0.362 N 
ATOM      6  H   UNL d   1      -3.006  -1.816   8.963  0.00  0.00     0.162 HD
BRANCH   5   7
ATOM      7  C   UNL d   1      -3.866  -1.978   7.037  0.00  0.00     0.160 C 
BRANCH   7   8
ATOM      8  C   UNL d   1      -5.193  -1.376   7.440  0.00  0.00    -0.040 A 
ATOM      9  C   UNL d   1      -5.292  -0.181   8.172  0.00  0.00     0.012 A 
ATOM     10  C   UNL d   1      -6.543   0.363   8.475  0.00  0.00     0.043 A 
ATOM     11  C   UNL d   1      -7.696  -0.273   8.032  0.00  0.00     0.116 A 
ATOM     12  C   UNL d   1      -7.623  -1.441   7.285  0.00  0.00     0.043 A 
ATOM     13  F   UNL d   1      -8.894   0.251   8.320  0.00  0.00    -0.206 F 
ATOM     14  C   UNL d   1      -6.375  -1.988   6.985  0.00  0.00     0.012 A 
ENDBRANCH   7   8
ENDBRANCH   5   7
ENDBRANCH   3   5
ENDBRANCH   1   3
BRANCH   1  15
ATOM     15  N   UNL d   1      -0.436   0.084   5.893  0.00  0.00    -0.204 NA
ATOM     16  H   UNL d   1       0.512  -0.084   6.237  0.00  0.00     0.153 HD
BRANCH  15  17
ATOM     17  C   UNL d   1      -0.816   1.441   6.088  0.00  0.00     0.027 C 
ATOM     18  C   UNL d   1       0.178   2.427   6.006  0.00  0.00     0.026 C 
ATOM     19  C   UNL d   1      -0.126   3.768   6.253  0.00  0.00     0.026 C 
ATOM     20  C   UNL d   1      -1.431   4.130   6.562  0.00  0.00     0.074 C 
ATOM     21  C   UNL d   1      -2.454   3.182   6.563  0.00  0.00     0.026 C 
ATOM     22  C   UNL d   1      -2.146   1.848   6.290  0.00  0.00     0.026 C 
BRANCH  20  23
ATOM     23  S   UNL d   1      -1.792   5.813   6.974  0.00  0.00     0.239 S 
ATOM     24  O   UNL d   1      -3.143   5.901   7.474  0.00  0.00    -0.206 OA
ATOM     25  O   UNL d   1      -1.294   6.662   5.917  0.00  0.00    -0.206 OA
BRANCH  23  26
ATOM     26  N   UNL d   1      -0.805   6.080   8.307  0.00  0.00    -0.225 NA
ATOM     27  H   UNL d   1      -1.377   6.200   9.142  0.00  0.00     0.136 HD
ATOM     28  H   UNL d   1      -0.182   6.863   8.114  0.00  0.00     0.136 HD
ENDBRANCH  23  26
ENDBRANCH  20  23
ENDBRANCH  15  17
ENDBRANCH   1  15
TORSDOF 8
