REMARK  7 active torsions:
REMARK  status: ('A' for Active; 'I' for Inactive)
REMARK    1  A    between atoms: C_13  and  N_1 
REMARK    2  A    between atoms: C_2  and  C_3 
REMARK    3  A    between atoms: C_4  and  N_18 
REMARK    4  A    between atoms: C_16  and  C_5 
REMARK    5  A    between atoms: C_8  and  O_20 
REMARK    6  A    between atoms: N_18  and  N_11 
REMARK    7  A    between atoms: O_20  and  C_29 
ROOT
ATOM      1  N   UNL d   1       3.350  -1.071   0.405  0.00  0.00    -0.324 N 
ATOM      2  HN  UNL d   1       3.449  -0.103   0.712  1.00  0.00     0.180 HD
ATOM      3  C   UNL d   1       2.237  -1.540  -0.058  0.00  0.00     0.131 C 
ENDROOT
BRANCH   3   4
ATOM      4  C   UNL d   1       1.057  -0.710  -0.024  0.00  0.00     0.055 A 
ATOM      5  N   UNL d   1      -0.269  -1.137  -0.048  0.00  0.00    -0.321 N 
ATOM      6  C   UNL d   1      -1.067  -0.006  -0.145  0.00  0.00     0.097 A 
ATOM      7  C   UNL d   1      -0.283   1.119  -0.056  0.00  0.00     0.020 A 
ATOM      8  C   UNL d   1       1.047   0.678   0.035  0.00  0.00     0.033 A 
BRANCH   5   9
ATOM      9  C   UNL d   1      -0.783  -2.465   0.082  0.00  0.00     0.039 A 
ATOM     10  C   UNL d   1      -0.074  -3.456   0.773  0.00  0.00     0.033 A 
ATOM     11  C   UNL d   1      -0.619  -4.736   0.945  0.00  0.00     0.039 A 
ATOM     12  C   UNL d   1      -1.899  -5.023   0.479  0.00  0.00     0.078 A 
ATOM     13  C   UNL d   1      -2.593  -4.050  -0.241  0.00  0.00     0.039 A 
ATOM     14  C   UNL d   1      -2.048  -2.777  -0.433  0.00  0.00     0.033 A 
BRANCH  12  15
ATOM     15  O   UNL d   1      -2.545  -6.212   0.614  0.00  0.00    -0.255 OA
BRANCH  15  16
ATOM     16  C   UNL d   1      -2.364  -6.965   1.807  0.00  0.00     0.530 C 
ATOM     17  F   UNL d   1      -1.635  -6.342   2.756  0.00  0.00    -0.144 F 
ATOM     18  F   UNL d   1      -3.580  -7.236   2.333  0.00  0.00    -0.144 F 
ATOM     19  F   UNL d   1      -1.767  -8.138   1.502  0.00  0.00    -0.144 F 
ENDBRANCH  15  16
ENDBRANCH  12  15
ENDBRANCH   5   9
ENDBRANCH   3   4
BRANCH   1  20
ATOM     20  N   UNL d   1       4.383  -1.959   0.454  0.00  0.00    -0.189 NA
ATOM     21  H   UNL d   1       4.696  -2.365  -0.430  0.00  0.00     0.154 HD
BRANCH  20  22
ATOM     22  C   UNL d   1       5.550  -1.530   1.122  0.00  0.00     0.120 A 
ATOM     23  N   UNL d   1       6.712  -1.896   0.526  0.00  0.00    -0.353 N 
ATOM     24  C   UNL d   1       7.878  -1.499   1.093  0.00  0.00     0.105 A 
ATOM     25  HN  UNL d   1       6.708  -2.456  -0.326  1.00  0.00     0.166 HD
ATOM     26  C   UNL d   1       7.961  -0.734   2.244  0.00  0.00     0.065 A 
ATOM     27  C   UNL d   1       6.762  -0.389   2.869  0.00  0.00     0.044 A 
ATOM     28  C   UNL d   1       5.543  -0.801   2.325  0.00  0.00     0.074 A 
ATOM     29 CL   UNL d   1       4.120  -0.411   3.227  0.00  0.00    -0.081 Cl
BRANCH  26  30
ATOM     30  C   UNL d   1       9.296  -0.318   2.778  0.00  0.00     0.418 C 
ATOM     31  F   UNL d   1       9.217   0.462   3.891  0.00  0.00    -0.166 F 
ATOM     32  F   UNL d   1      10.073  -1.381   3.120  0.00  0.00    -0.166 F 
ATOM     33  F   UNL d   1      10.018   0.397   1.873  0.00  0.00    -0.166 F 
ENDBRANCH  26  30
ENDBRANCH  20  22
ENDBRANCH   1  20
TORSDOF 7
