REMARK  5 active torsions:
REMARK  status: ('A' for Active; 'I' for Inactive)
REMARK       I    between atoms: C_2  and  N_1 
REMARK    1  A    between atoms: O_11  and  C_2 
REMARK    2  A    between atoms: C_3  and  C_10 
REMARK    3  A    between atoms: C_8  and  C_9 
REMARK    4  A    between atoms: O_14  and  C_9 
REMARK    5  A    between atoms: C_10  and  O_11 
ROOT
ATOM      1  C   UNL d   1       2.605   2.413   1.210  0.00  0.00     0.194 C 
ENDROOT
BRANCH   1   2
ATOM      2  C   UNL d   1       3.604   3.433   1.779  0.00  0.00     0.078 A 
ATOM      3  C   UNL d   1       5.045   3.208   1.317  0.00  0.00    -0.036 A 
ATOM      4  C   UNL d   1       5.550   4.365   0.687  0.00  0.00    -0.018 A 
ATOM      5  C   UNL d   1       5.840   2.082   1.472  0.00  0.00     0.009 A 
ATOM      6  C   UNL d   1       6.846   4.397   0.193  0.00  0.00     0.013 A 
ATOM      7  C   UNL d   1       4.519   5.376   0.668  0.00  0.00    -0.018 A 
ATOM      8  C   UNL d   1       7.641   3.259   0.334  0.00  0.00     0.001 A 
ATOM      9  C   UNL d   1       7.140   2.109   0.967  0.00  0.00     0.001 A 
ATOM     10  C   UNL d   1       3.352   4.861   1.275  0.00  0.00    -0.036 A 
ATOM     11  C   UNL d   1       4.547   6.669   0.157  0.00  0.00     0.013 A 
ATOM     12  C   UNL d   1       2.203   5.631   1.366  0.00  0.00     0.009 A 
ATOM     13  C   UNL d   1       2.228   6.929   0.840  0.00  0.00     0.001 A 
ATOM     14  C   UNL d   1       3.390   7.445   0.245  0.00  0.00     0.001 A 
ENDBRANCH   1   2
BRANCH   1  15
ATOM     15  O   UNL d   1       2.929   1.047   1.564  0.00  0.00    -0.303 OA
BRANCH  15  16
ATOM     16  C   UNL d   1       2.481   0.565   2.748  0.00  0.00     0.363 C 
ATOM     17  N   UNL d   1       2.838  -0.761   2.953  0.00  0.00    -0.313 N 
ATOM     18  C   UNL d   1       2.510  -1.435   4.230  0.00  0.00     0.187 C 
ATOM     19  C   UNL d   1       3.703  -1.520   2.041  0.00  0.00     0.129 C 
ATOM     20  C   UNL d   1       3.789  -1.874   4.951  0.00  0.00     0.036 C 
ATOM     21  C   UNL d   1       4.732  -2.670   4.047  0.00  0.00     0.004 C 
ATOM     22  C   UNL d   1       4.998  -1.938   2.733  0.00  0.00     0.020 C 
ATOM     23  O   UNL d   1       1.807   1.215   3.536  0.00  0.00    -0.238 OA
BRANCH  18  24
ATOM     24  C   UNL d   1       1.528  -2.604   4.022  0.00  0.00     0.163 C 
ATOM     25  O   UNL d   1       1.422  -3.570   4.765  0.00  0.00    -0.648 OA
BRANCH  24  26
ATOM     26  O   UNL d   1       0.701  -2.422   2.962  0.00  0.00    -0.775 OA
ATOM     27  H   UNL d   1       0.876  -1.562   2.533  0.00  0.00     0.167 HD
ENDBRANCH  24  26
ENDBRANCH  18  24
ENDBRANCH  15  16
ENDBRANCH   1  15
TORSDOF 5
