REMARK  6 active torsions:
REMARK  status: ('A' for Active; 'I' for Inactive)
REMARK    1  A    between atoms: C_10  and  C_1 
REMARK    2  A    between atoms: C_13  and  N_4 
REMARK    3  A    between atoms: C_8  and  C_11 
REMARK    4  A    between atoms: C_9  and  C_12 
REMARK    5  A    between atoms: C_14  and  C_13 
REMARK       I    between atoms: N_19  and  C_14 
REMARK    6  A    between atoms: N_26  and  N_19 
ROOT
ATOM      1  C   UNL d   1      -0.056  -1.327   0.047  0.00  0.00     0.144 A 
ATOM      2  N   UNL d   1       0.807  -0.770   0.914  0.00  0.00    -0.268 N 
ATOM      3  HN  UNL d   1       1.256  -1.173   1.737  1.00  0.00     0.190 HD
ATOM      4  N   UNL d   1       0.915   0.462   0.396  0.00  0.00    -0.207 N 
ATOM      5  N   UNL d   1      -0.466  -0.442  -0.924  0.00  0.00    -0.266 N 
ATOM      6  HN  UNL d   1      -1.127  -0.630  -1.678  1.00  0.00     0.186 HD
ATOM      7  N   UNL d   1       0.165   0.702  -0.693  0.00  0.00    -0.002 NA
ENDROOT
BRANCH   1   8
ATOM      8  C   UNL d   1      -0.459  -2.727   0.091  0.00  0.00     0.012 A 
ATOM      9  C   UNL d   1       0.026  -3.561   1.111  0.00  0.00     0.031 A 
ATOM     10  C   UNL d   1      -0.296  -4.924   1.155  0.00  0.00     0.049 A 
ATOM     11  C   UNL d   1      -1.126  -5.452   0.154  0.00  0.00     0.032 A 
ATOM     12  C   UNL d   1      -1.636  -4.638  -0.871  0.00  0.00     0.049 A 
ATOM     13  C   UNL d   1      -1.297  -3.273  -0.892  0.00  0.00     0.031 A 
BRANCH  10  14
ATOM     14  C   UNL d   1       0.251  -5.814   2.246  0.00  0.00     0.417 C 
ATOM     15  F   UNL d   1       0.993  -5.146   3.174  0.00  0.00    -0.166 F 
ATOM     16  F   UNL d   1      -0.731  -6.449   2.938  0.00  0.00    -0.166 F 
ATOM     17  F   UNL d   1       1.060  -6.793   1.755  0.00  0.00    -0.166 F 
ENDBRANCH  10  14
BRANCH  12  18
ATOM     18  C   UNL d   1      -2.522  -5.241  -1.938  0.00  0.00     0.417 C 
ATOM     19  F   UNL d   1      -2.983  -4.336  -2.844  0.00  0.00    -0.166 F 
ATOM     20  F   UNL d   1      -1.880  -6.201  -2.659  0.00  0.00    -0.166 F 
ATOM     21  F   UNL d   1      -3.626  -5.842  -1.413  0.00  0.00    -0.166 F 
ENDBRANCH  12  18
ENDBRANCH   1   8
BRANCH   4  22
ATOM     22  C   UNL d   1       1.869   1.422   0.885  0.00  0.00     0.271 C 
BRANCH  22  23
ATOM     23  C   UNL d   1       3.200   1.260   0.199  0.00  0.00     0.252 C 
ATOM     24  O   UNL d   1       4.251   1.127   0.828  0.00  0.00    -0.270 OA
ATOM     25  N   UNL d   1       3.176   1.374  -1.189  0.00  0.00    -0.292 N 
ATOM     26  H   UNL d   1       2.293   1.295  -1.702  0.00  0.00     0.183 HD
BRANCH  25  27
ATOM     27  N   UNL d   1       4.377   1.184  -1.910  0.00  0.00    -0.247 NA
ATOM     28  H   UNL d   1       5.066   0.783  -1.257  0.00  0.00     0.143 HD
ATOM     29  H   UNL d   1       4.761   2.106  -2.135  0.00  0.00     0.143 HD
ENDBRANCH  25  27
ENDBRANCH  22  23
ENDBRANCH   4  22
TORSDOF 6
