REMARK  3 active torsions:
REMARK  status: ('A' for Active; 'I' for Inactive)
REMARK    1  A    between atoms: C_4  and  N_1 
REMARK    2  A    between atoms: N_5  and  C_4 
REMARK    3  A    between atoms: C_6  and  N_5 
ROOT
ATOM      1  N   UNL d   1      -1.326   2.850  -0.435  0.00  0.00    -0.274 NA
ATOM      2  H   UNL d   1      -2.040   2.460   0.187  0.00  0.00     0.129 HD
ENDROOT
BRANCH   1   3
ATOM      3  C   UNL d   1      -0.023   2.284  -0.117  0.00  0.00     0.229 C 
BRANCH   3   4
ATOM      4  N   UNL d   1      -0.115   0.850  -0.175  0.00  0.00    -0.275 N 
ATOM      5  C   UNL d   1      -0.817   0.108   0.723  0.00  0.00     0.227 C 
ATOM      6  C   UNL d   1      -0.574  -1.347   0.456  0.00  0.00     0.112 C 
ATOM      7  O   UNL d   1      -1.518   0.535   1.628  0.00  0.00    -0.273 OA
ATOM      8  C   UNL d   1       0.469  -1.358  -0.645  0.00  0.00     0.112 C 
ATOM      9  C   UNL d   1       0.741   0.091  -0.914  0.00  0.00     0.227 C 
ATOM     10  O   UNL d   1       1.636   0.491  -1.646  0.00  0.00    -0.273 OA
ENDBRANCH   3   4
ENDBRANCH   1   3
BRANCH   1  11
ATOM     11  C   UNL d   1      -1.431   4.261  -0.442  0.00  0.00     0.033 A 
ATOM     12  C   UNL d   1      -0.412   5.078  -0.957  0.00  0.00     0.049 A 
ATOM     13  C   UNL d   1      -0.560   6.467  -1.015  0.00  0.00     0.035 A 
ATOM     14 CL   UNL d   1       0.730   7.434  -1.620  0.00  0.00    -0.084 Cl
ATOM     15  C   UNL d   1      -1.738   7.075  -0.597  0.00  0.00     0.026 A 
ATOM     16  C   UNL d   1      -2.786   6.285  -0.127  0.00  0.00     0.027 A 
ATOM     17  C   UNL d   1      -2.637   4.894  -0.063  0.00  0.00     0.055 A 
ATOM     18 CL   UNL d   1      -3.973   3.965   0.529  0.00  0.00    -0.082 Cl
ENDBRANCH   1  11
TORSDOF 3
