REMARK  8 active torsions:
REMARK  status: ('A' for Active; 'I' for Inactive)
REMARK    1  A    between atoms: C9_7  and  C1_1 
REMARK    2  A    between atoms: C6_6  and  O1_8 
REMARK       I    between atoms: N_18  and  C6_6 
REMARK    3  A    between atoms: O1_8  and  C9_7 
REMARK    4  A    between atoms: CA_19  and  N_18 
REMARK    5  A    between atoms: CA_19  and  C_20 
REMARK    6  A    between atoms: CB_22  and  CA_19 
REMARK    7  A    between atoms: OXT_23  and  C_20 
REMARK    8  A    between atoms: CB_22  and  CG1_24 
ROOT
ATOM      1  C9  <1> d   1      -1.068   1.735   5.699  0.00  0.00     0.194 C 
ENDROOT
BRANCH   1   2
ATOM      2  C1  <1> d   1      -0.849   0.259   5.287  0.00  0.00     0.078 A 
ATOM      3  C4  <1> d   1      -1.001  -0.021   3.792  0.00  0.00    -0.036 A 
ATOM      4  C3  <1> d   1       0.249  -0.360   3.222  0.00  0.00    -0.018 A 
ATOM      5  C14 <1> d   1      -2.159  -0.063   3.032  0.00  0.00     0.009 A 
ATOM      6  C12 <1> d   1       0.358  -0.682   1.877  0.00  0.00     0.013 A 
ATOM      7  C2  <1> d   1       1.253  -0.378   4.260  0.00  0.00    -0.018 A 
ATOM      8  C20 <1> d   1      -0.804  -0.700   1.104  0.00  0.00     0.001 A 
ATOM      9  C17 <1> d   1      -2.051  -0.407   1.680  0.00  0.00     0.001 A 
ATOM     10  C5  <1> d   1       0.637  -0.084   5.495  0.00  0.00    -0.036 A 
ATOM     11  C11 <1> d   1       2.611  -0.649   4.193  0.00  0.00     0.013 A 
ATOM     12  C13 <1> d   1       1.364  -0.100   6.677  0.00  0.00     0.009 A 
ATOM     13  C18 <1> d   1       2.732  -0.373   6.608  0.00  0.00     0.001 A 
ATOM     14  C19 <1> d   1       3.353  -0.636   5.376  0.00  0.00     0.001 A 
ENDBRANCH   1   2
BRANCH   1  15
ATOM     15  O1  <1> d   1      -2.393   2.318   5.629  0.00  0.00    -0.303 OA
BRANCH  15  16
ATOM     16  C6  <1> d   1      -3.356   1.774   6.396  0.00  0.00     0.361 C 
ATOM     17  N   ILE d   1      -4.424   2.609   6.617  0.00  0.00    -0.322 N 
ATOM     18  H   ILE d   1      -5.114   2.139   7.191  0.00  0.00     0.165 HD
ATOM     19  O2  <1> d   1      -3.336   0.647   6.872  0.00  0.00    -0.238 OA
BRANCH  17  20
ATOM     20  CA  ILE d   1      -4.286   4.067   6.840  0.00  0.00     0.188 C 
BRANCH  20  21
ATOM     21  C   ILE d   1      -4.849   4.886   5.663  0.00  0.00     0.164 C 
ATOM     22  O   ILE d   1      -4.928   6.105   5.642  0.00  0.00    -0.648 OA
BRANCH  21  23
ATOM     23  OXT ILE d   1      -5.256   4.112   4.628  0.00  0.00    -0.775 OA
ATOM     24  HXT ILE d   1      -5.074   3.172   4.836  0.00  0.00     0.167 HD
ENDBRANCH  21  23
ENDBRANCH  20  21
BRANCH  20  25
ATOM     25  CB  ILE d   1      -4.938   4.527   8.182  0.00  0.00     0.014 C 
ATOM     26  CG2 ILE d   1      -6.451   4.268   8.234  0.00  0.00     0.012 C 
BRANCH  25  27
ATOM     27  CG1 ILE d   1      -4.214   3.895   9.392  0.00  0.00     0.002 C 
ATOM     28  CD1 ILE d   1      -4.668   4.445  10.740  0.00  0.00     0.005 C 
ENDBRANCH  25  27
ENDBRANCH  20  25
ENDBRANCH  17  20
ENDBRANCH  15  16
ENDBRANCH   1  15
TORSDOF 8
