REMARK  5 active torsions:
REMARK  status: ('A' for Active; 'I' for Inactive)
REMARK    1  A    between atoms: C_4  and  N_1 
REMARK    2  A    between atoms: C_5  and  C_11 
REMARK    3  A    between atoms: C_14  and  C_8 
REMARK    4  A    between atoms: O_26  and  C_15 
REMARK    5  A    between atoms: O_25  and  C_16 
ROOT
ATOM      1  N   UNL d   1       0.048  -0.951  -0.065  0.00  0.00    -0.252 N 
ATOM      2  C   UNL d   1       1.268  -0.255  -0.128  0.00  0.00     0.231 C 
ATOM      3  C   UNL d   1      -1.200  -0.355   0.177  0.00  0.00     0.231 C 
ATOM      4  C   UNL d   1      -1.197   1.111   0.534  0.00  0.00     0.113 C 
ATOM      5  C   UNL d   1       1.234   1.216   0.201  0.00  0.00     0.113 C 
ATOM      6  C   UNL d   1      -0.086   1.854  -0.186  0.00  0.00     0.036 C 
ATOM      7  O   UNL d   1      -2.285  -0.940   0.125  0.00  0.00    -0.273 OA
ATOM      8  O   UNL d   1       2.369  -0.773  -0.332  0.00  0.00    -0.273 OA
ENDROOT
BRANCH   1   9
ATOM      9  C   UNL d   1       0.079  -2.375  -0.291  0.00  0.00     0.050 A 
ATOM     10  C   UNL d   1       0.840  -2.920  -1.337  0.00  0.00     0.067 A 
ATOM     11  C   UNL d   1       0.898  -4.300  -1.536  0.00  0.00     0.073 A 
ATOM     12  C   UNL d   1       0.213  -5.153  -0.666  0.00  0.00     0.073 A 
ATOM     13  C   UNL d   1      -0.538  -4.635   0.388  0.00  0.00     0.073 A 
ATOM     14  C   UNL d   1      -0.623  -3.249   0.553  0.00  0.00     0.067 A 
BRANCH  11  15
ATOM     15  O   UNL d   1       1.591  -4.935  -2.532  0.00  0.00    -0.356 OA
ATOM     16  C   UNL d   1       2.287  -4.109  -3.458  0.00  0.00     0.210 C 
ENDBRANCH  11  15
BRANCH  13  17
ATOM     17  O   UNL d   1      -1.218  -5.366   1.324  0.00  0.00    -0.356 OA
ATOM     18  C   UNL d   1      -1.058  -6.779   1.274  0.00  0.00     0.210 C 
ENDBRANCH  13  17
ENDBRANCH   1   9
BRANCH   6  19
ATOM     19  C   UNL d   1      -0.090   3.337   0.139  0.00  0.00    -0.053 A 
ATOM     20  C   UNL d   1       0.027   3.798   1.459  0.00  0.00     0.008 A 
ATOM     21  C   UNL d   1       0.031   5.166   1.745  0.00  0.00     0.017 A 
ATOM     22  C   UNL d   1      -0.080   6.106   0.714  0.00  0.00     0.047 A 
ATOM     23  C   UNL d   1      -0.194   5.650  -0.607  0.00  0.00     0.017 A 
ATOM     24  C   UNL d   1      -0.198   4.280  -0.892  0.00  0.00     0.008 A 
BRANCH  22  25
ATOM     25  C   UNL d   1      -0.080   7.586   1.009  0.00  0.00     0.417 C 
ATOM     26  F   UNL d   1       0.040   7.879   2.335  0.00  0.00    -0.166 F 
ATOM     27  F   UNL d   1       0.941   8.240   0.390  0.00  0.00    -0.166 F 
ATOM     28  F   UNL d   1      -1.223   8.200   0.595  0.00  0.00    -0.166 F 
ENDBRANCH  22  25
ENDBRANCH   6  19
TORSDOF 5
