REMARK  5 active torsions:
REMARK  status: ('A' for Active; 'I' for Inactive)
REMARK    1  A    between atoms: C_5  and  C_1 
REMARK    2  A    between atoms: S_2  and  O_15 
REMARK    3  A    between atoms: N_16  and  S_2 
REMARK    4  A    between atoms: C_19  and  C_6 
REMARK    5  A    between atoms: O_15  and  C_22 
ROOT
ATOM      1  C   UNL d   1      -0.065  -0.888  -0.586  0.00  0.00     0.186 A 
ATOM      2  N   UNL d   1       0.600   0.203  -0.903  0.00  0.00    -0.318 N 
ATOM      3  HN  UNL d   1       1.253   0.348  -1.673  1.00  0.00     0.169 HD
ATOM      4  C   UNL d   1       0.198   1.098   0.061  0.00  0.00     0.138 A 
ATOM      5  N   UNL d   1      -0.623   0.570   0.983  0.00  0.00    -0.242 N 
ATOM      6  HN  UNL d   1      -1.018   1.023   1.807  1.00  0.00     0.196 HD
ATOM      7  O   UNL d   1      -0.807  -0.734   0.553  0.00  0.00    -0.217 OA
ENDROOT
BRANCH   4   8
ATOM      8  C   UNL d   1       0.556   2.509   0.021  0.00  0.00     0.010 A 
ATOM      9  C   UNL d   1       1.335   3.031  -1.022  0.00  0.00     0.018 A 
ATOM     10  C   UNL d   1       1.621   4.401  -1.077  0.00  0.00     0.039 A 
ATOM     11  C   UNL d   1       1.143   5.255  -0.081  0.00  0.00     0.090 A 
ATOM     12  C   UNL d   1       0.339   4.746   0.938  0.00  0.00     0.039 A 
ATOM     13  C   UNL d   1       0.067   3.381   1.000  0.00  0.00     0.018 A 
BRANCH  11  14
ATOM     14  O   UNL d   1       1.504   6.577  -0.158  0.00  0.00    -0.221 OA
BRANCH  14  15
ATOM     15  S   UNL d   1       1.557   7.500   1.194  0.00  0.00     0.344 S 
ATOM     16  O   UNL d   1       0.244   8.064   1.416  0.00  0.00    -0.180 OA
ATOM     17  O   UNL d   1       2.230   6.754   2.244  0.00  0.00    -0.180 OA
BRANCH  15  18
ATOM     18  N   UNL d   1       2.607   8.772   0.773  0.00  0.00    -0.196 NA
ATOM     19  C   UNL d   1       3.969   8.335   0.422  0.00  0.00     0.131 C 
ATOM     20  C   UNL d   1       2.049   9.765  -0.157  0.00  0.00     0.131 C 
ENDBRANCH  15  18
ENDBRANCH  14  15
ENDBRANCH  11  14
ENDBRANCH   4   8
BRANCH   1  21
ATOM     21  C   UNL d   1      -0.056  -2.125  -1.387  0.00  0.00     0.073 A 
ATOM     22  C   UNL d   1      -0.829  -3.237  -1.158  0.00  0.00     0.089 A 
ATOM     23  O   UNL d   1      -0.560  -4.161  -2.120  0.00  0.00    -0.242 OA
ATOM     24  C   UNL d   1      -1.849  -3.602  -0.156  0.00  0.00     0.080 C 
ATOM     25  N   UNL d   1       0.394  -3.661  -2.991  0.00  0.00    -0.265 N 
ATOM     26  C   UNL d   1       0.691  -2.433  -2.545  0.00  0.00     0.045 A 
ATOM     27  HN  UNL d   1       0.789  -4.131  -3.805  1.00  0.00     0.194 HD
ATOM     28  C   UNL d   1       1.693  -1.602  -3.252  0.00  0.00     0.071 C 
ENDBRANCH   1  21
TORSDOF 5
