REMARK  1 active torsions:
REMARK  status: ('A' for Active; 'I' for Inactive)
REMARK    1  A    between atoms: C_4  and  C_1 
ROOT
ATOM      1  C   UNL d   1       0.711   1.731  -0.758  0.00  0.00     0.018 C 
ATOM      2  C   UNL d   1       2.113   1.172  -0.443  0.00  0.00     0.000 C 
ATOM      3  C   UNL d   1       2.398   3.189  -1.685  0.00  0.00    -0.000 A 
ATOM      4  C   UNL d   1       3.128   3.833  -0.496  0.00  0.00    -0.001 A 
ATOM      5  C   UNL d   1       1.050   3.228  -0.907  0.00  0.00     0.001 A 
ATOM      6  C   UNL d   1       2.913   1.736  -1.645  0.00  0.00    -0.004 C 
ATOM      7  C   UNL d   1       3.954   2.655   0.078  0.00  0.00    -0.005 C 
ATOM      8  C   UNL d   1       2.844   1.841   0.785  0.00  0.00    -0.005 C 
ATOM      9  C   UNL d   1       1.800   3.908   0.289  0.00  0.00    -0.004 A 
ATOM     10  C   UNL d   1       4.335   1.838  -1.138  0.00  0.00     0.011 C 
ATOM     11  C   UNL d   1       2.083   2.984   1.466  0.00  0.00     0.011 C 
ENDROOT
BRANCH   1  12
ATOM     12  C   UNL d   1      -0.399   1.345   0.231  0.00  0.00     0.190 C 
ATOM     13  C   UNL d   1      -1.729   1.939  -0.122  0.00  0.00     0.275 C 
ATOM     14  O   UNL d   1      -2.775   1.092  -0.093  0.00  0.00    -0.283 OA
ATOM     15  O   UNL d   1      -1.904   3.146  -0.280  0.00  0.00    -0.264 OA
ATOM     16  C   UNL d   1      -2.585  -0.226  -0.612  0.00  0.00     0.175 C 
ATOM     17  O   UNL d   1      -1.242  -0.686  -0.664  0.00  0.00    -0.283 OA
ATOM     18  C   UNL d   1      -3.361  -1.202   0.272  0.00  0.00     0.079 C 
ATOM     19  C   UNL d   1      -3.143  -0.233  -2.033  0.00  0.00     0.079 C 
ATOM     20  C   UNL d   1      -0.462  -0.151   0.292  0.00  0.00     0.275 C 
ATOM     21  O   UNL d   1       0.246  -0.838   1.017  0.00  0.00    -0.264 OA
ENDBRANCH   1  12
TORSDOF 1
