REMARK  4 active torsions:
REMARK  status: ('A' for Active; 'I' for Inactive)
REMARK    1  A    between atoms: C_5  and  C_1 
REMARK    2  A    between atoms: N_9  and  C_2 
REMARK       I    between atoms: C_8  and  N_9 
REMARK    3  A    between atoms: O_10  and  C_8 
REMARK    4  A    between atoms: C_11  and  O_10 
ROOT
ATOM      1  C   UNL d   1      -1.668  -0.910  -0.165  0.00  0.00     0.092 C 
ATOM      2  C   UNL d   1      -0.260  -1.193  -0.294  0.00  0.00     0.078 C 
ATOM      3  N   UNL d   1      -1.871   0.405  -0.330  0.00  0.00    -0.258 N 
ATOM      4  HN  UNL d   1      -2.756   0.901  -0.229  1.00  0.00     0.195 HD
ATOM      5  C   UNL d   1       0.287  -0.014  -0.724  0.00  0.00     0.096 C 
ATOM      6  O   UNL d   1      -0.661   0.954  -0.659  0.00  0.00    -0.240 OA
ATOM      7  C   UNL d   1       1.537   0.439  -1.367  0.00  0.00     0.081 C 
ENDROOT
BRANCH   2   8
ATOM      8  N   UNL d   1       0.351  -2.456  -0.127  0.00  0.00    -0.199 NA
ATOM      9  C   UNL d   1       1.369  -2.630   0.783  0.00  0.00     0.348 C 
ATOM     10  O   UNL d   1       1.257  -3.404   1.728  0.00  0.00    -0.245 OA
ATOM     11  H   UNL d   1      -0.337  -3.189   0.043  0.00  0.00     0.139 HD
BRANCH   9  12
ATOM     12  O   UNL d   1       2.502  -1.909   0.476  0.00  0.00    -0.264 OA
BRANCH  12  13
ATOM     13  C   UNL d   1       3.357  -1.386   1.476  0.00  0.00     0.102 A 
ATOM     14  C   UNL d   1       4.652  -1.041   1.071  0.00  0.00     0.070 A 
ATOM     15  C   UNL d   1       5.375  -0.108   1.807  0.00  0.00     0.069 A 
ATOM     16 CL   UNL d   1       5.347  -1.693  -0.366  0.00  0.00    -0.081 Cl
ATOM     17  C   UNL d   1       4.803   0.440   2.948  0.00  0.00     0.118 A 
ATOM     18  C   UNL d   1       3.563   0.012   3.418  0.00  0.00     0.045 A 
ATOM     19  F   UNL d   1       5.441   1.427   3.591  0.00  0.00    -0.206 F 
ATOM     20  C   UNL d   1       2.832  -0.921   2.685  0.00  0.00     0.042 A 
ENDBRANCH  12  13
ENDBRANCH   9  12
ENDBRANCH   2   8
BRANCH   1  21
ATOM     21  C   UNL d   1      -2.822  -1.802   0.058  0.00  0.00     0.038 A 
ATOM     22  C   UNL d   1      -3.868  -1.454   0.945  0.00  0.00     0.048 A 
ATOM     23 CL   UNL d   1      -3.843  -0.048   1.962  0.00  0.00    -0.083 Cl
ATOM     24  C   UNL d   1      -5.015  -2.256   1.066  0.00  0.00     0.025 A 
ATOM     25  C   UNL d   1      -5.135  -3.436   0.342  0.00  0.00     0.003 A 
ATOM     26  C   UNL d   1      -4.115  -3.807  -0.522  0.00  0.00     0.025 A 
ATOM     27  C   UNL d   1      -2.985  -2.991  -0.685  0.00  0.00     0.048 A 
ATOM     28 CL   UNL d   1      -1.882  -3.524  -1.913  0.00  0.00    -0.083 Cl
ENDBRANCH   1  21
TORSDOF 4
