REMARK  2 active torsions:
REMARK  status: ('A' for Active; 'I' for Inactive)
REMARK    1  A    between atoms: C_7  and  N_1 
REMARK    2  A    between atoms: C_6  and  C_2 
ROOT
ATOM      1  N   UNL d   1      -0.589  -1.220   0.184  0.00  0.00    -0.299 N 
ATOM      2  C   UNL d   1       0.810  -1.362  -0.194  0.00  0.00     0.188 C 
ATOM      3  S   UNL d   1       1.504   0.303  -0.358  0.00  0.00    -0.129 SA
ATOM      4  C   UNL d   1      -1.114   0.071   0.155  0.00  0.00     0.235 C 
ATOM      5  C   UNL d   1      -0.103   1.102  -0.294  0.00  0.00     0.179 C 
ATOM      6  O   UNL d   1      -2.277   0.393   0.390  0.00  0.00    -0.272 OA
ENDROOT
BRANCH   2   7
ATOM      7  C   UNL d   1       1.626  -2.195   0.788  0.00  0.00    -0.025 A 
ATOM      8  C   UNL d   1       2.337  -3.319   0.332  0.00  0.00     0.012 A 
ATOM      9  C   UNL d   1       3.031  -4.138   1.227  0.00  0.00     0.024 A 
ATOM     10  C   UNL d   1       3.031  -3.836   2.587  0.00  0.00     0.034 A 
ATOM     11  C   UNL d   1       2.353  -2.717   3.060  0.00  0.00     0.024 A 
ATOM     12 CL   UNL d   1       3.872  -4.855   3.688  0.00  0.00    -0.084 Cl
ATOM     13  C   UNL d   1       1.648  -1.904   2.166  0.00  0.00     0.012 A 
ENDBRANCH   2   7
BRANCH   1  14
ATOM     14  C   UNL d   1      -1.387  -2.365   0.469  0.00  0.00     0.038 A 
ATOM     15  C   UNL d   1      -1.181  -3.576  -0.204  0.00  0.00     0.030 A 
ATOM     16  C   UNL d   1      -1.941  -4.708   0.107  0.00  0.00     0.002 A 
ATOM     17  C   UNL d   1      -2.900  -4.648   1.113  0.00  0.00     0.000 A 
ATOM     18  C   UNL d   1      -3.112  -3.453   1.795  0.00  0.00     0.002 A 
ATOM     19  C   UNL d   1      -2.372  -2.315   1.464  0.00  0.00     0.030 A 
ENDBRANCH   1  14
TORSDOF 2
