REMARK  3 active torsions:
REMARK  status: ('A' for Active; 'I' for Inactive)
REMARK    1  A    between atoms: C_4  and  C_1 
REMARK    2  A    between atoms: C_14  and  C_5 
REMARK    3  A    between atoms: C_7  and  C_10 
ROOT
ATOM      1  C   UNL d   1       0.198  -1.144  -0.041  0.00  0.00     0.088 A 
ATOM      2  N   UNL d   1       1.367  -0.565  -0.246  0.00  0.00    -0.349 N 
ATOM      3  HN  UNL d   1       2.222  -1.063  -0.495  1.00  0.00     0.166 HD
ATOM      4  C   UNL d   1       1.278   0.806  -0.078  0.00  0.00     0.050 A 
ATOM      5  S   UNL d   1      -1.059  -0.044   0.402  0.00  0.00    -0.081 SA
ATOM      6  C   UNL d   1       0.010   1.274   0.191  0.00  0.00     0.082 A 
ENDROOT
BRANCH   1   7
ATOM      7  C   UNL d   1      -0.025  -2.608  -0.067  0.00  0.00     0.041 A 
ATOM      8  C   UNL d   1       0.909  -3.479   0.541  0.00  0.00     0.049 A 
ATOM      9  C   UNL d   1       0.741  -4.875   0.517  0.00  0.00     0.041 A 
ATOM     10 CL   UNL d   1       2.313  -2.923   1.397  0.00  0.00    -0.083 Cl
ATOM     11  C   UNL d   1      -0.373  -5.454  -0.094  0.00  0.00     0.051 A 
ATOM     12  C   UNL d   1      -1.309  -4.608  -0.695  0.00  0.00     0.041 A 
ATOM     13  C   UNL d   1      -1.131  -3.213  -0.704  0.00  0.00     0.049 A 
ATOM     14 CL   UNL d   1      -2.325  -2.339  -1.608  0.00  0.00    -0.083 Cl
BRANCH  11  15
ATOM     15  C   UNL d   1      -0.574  -6.949  -0.121  0.00  0.00     0.417 C 
ATOM     16  F   UNL d   1       0.452  -7.647   0.437  0.00  0.00    -0.166 F 
ATOM     17  F   UNL d   1      -1.696  -7.329   0.550  0.00  0.00    -0.166 F 
ATOM     18  F   UNL d   1      -0.712  -7.429  -1.387  0.00  0.00    -0.166 F 
ENDBRANCH  11  15
ENDBRANCH   1   7
BRANCH   4  19
ATOM     19  C   UNL d   1       2.462   1.660  -0.104  0.00  0.00    -0.009 A 
ATOM     20  C   UNL d   1       2.422   2.968  -0.602  0.00  0.00     0.014 A 
ATOM     21  C   UNL d   1       3.561   3.781  -0.554  0.00  0.00     0.007 A 
ATOM     22  C   UNL d   1       4.758   3.302  -0.009  0.00  0.00    -0.062 A 
ATOM     23  C   UNL d   1       4.803   1.995   0.480  0.00  0.00     0.007 A 
ATOM     24  C   UNL d   1       5.963   4.195   0.053  0.00  0.00     0.048 C 
ATOM     25  C   UNL d   1       3.668   1.178   0.428  0.00  0.00     0.014 A 
ENDBRANCH   4  19
TORSDOF 3
