REMARK  7 active torsions:
REMARK  status: ('A' for Active; 'I' for Inactive)
REMARK    1  A    between atoms: C_14  and  C_3 
REMARK    2  A    between atoms: C_18  and  C_6 
REMARK    3  A    between atoms: C_7  and  C_15 
REMARK    4  A    between atoms: C_9  and  C_10 
REMARK       I    between atoms: C_10  and  N_13 
REMARK    5  A    between atoms: C_12  and  C_11 
REMARK    6  A    between atoms: O_26  and  C_12 
REMARK    7  A    between atoms: N_13  and  C_18 
ROOT
ATOM      1  N   UNL d   1       0.420   0.034   1.138  0.00  0.00    -0.321 N 
ATOM      2  HN  UNL d   1       0.691   0.058   2.121  1.00  0.00     0.169 HD
ATOM      3  C   UNL d   1      -0.144   1.036   0.374  0.00  0.00     0.137 A 
ATOM      4  N   UNL d   1      -0.371   0.680  -0.902  0.00  0.00    -0.242 N 
ATOM      5  HN  UNL d   1      -0.774   1.244  -1.650  1.00  0.00     0.196 HD
ATOM      6  C   UNL d   1       0.520  -0.956   0.281  0.00  0.00     0.166 A 
ATOM      7  O   UNL d   1       0.072  -0.638  -0.965  0.00  0.00    -0.221 OA
ENDROOT
BRANCH   6   8
ATOM      8  C   UNL d   1       1.077  -2.322   0.456  0.00  0.00     0.209 C 
BRANCH   8   9
ATOM      9  N   UNL d   1       2.498  -2.285   0.187  0.00  0.00    -0.349 N 
ATOM     10  C   UNL d   1       3.215  -3.390  -0.185  0.00  0.00     0.253 C 
ATOM     11  O   UNL d   1       2.682  -4.464  -0.433  0.00  0.00    -0.268 OA
ATOM     12  H   UNL d   1       2.990  -1.489   0.600  0.00  0.00     0.163 HD
BRANCH  10  13
ATOM     13  C   UNL d   1       4.692  -3.231  -0.391  0.00  0.00     0.048 A 
ATOM     14  C   UNL d   1       5.574  -2.404   0.332  0.00  0.00     0.053 A 
ATOM     15  C   UNL d   1       6.919  -2.306  -0.083  0.00  0.00     0.019 A 
ATOM     16  C   UNL d   1       7.412  -3.071  -1.141  0.00  0.00     0.001 A 
ATOM     17  C   UNL d   1       6.563  -3.935  -1.814  0.00  0.00     0.001 A 
ATOM     18  C   UNL d   1       5.216  -4.008  -1.448  0.00  0.00     0.018 A 
BRANCH  14  19
ATOM     19  C   UNL d   1       5.180  -1.598   1.518  0.00  0.00     0.177 C 
ATOM     20  O   UNL d   1       4.114  -1.017   1.622  0.00  0.00    -0.646 OA
BRANCH  19  21
ATOM     21  O   UNL d   1       6.120  -1.531   2.486  0.00  0.00    -0.773 OA
ATOM     22  H   UNL d   1       6.905  -2.100   2.375  0.00  0.00     0.167 HD
ENDBRANCH  19  21
ENDBRANCH  14  19
ENDBRANCH  10  13
ENDBRANCH   8   9
ENDBRANCH   6   8
BRANCH   3  23
ATOM     23  C   UNL d   1      -0.503   2.341   0.926  0.00  0.00     0.010 A 
ATOM     24  C   UNL d   1      -0.249   2.643   2.272  0.00  0.00     0.016 A 
ATOM     25  C   UNL d   1      -0.636   3.874   2.814  0.00  0.00     0.017 A 
ATOM     26  C   UNL d   1      -1.283   4.832   2.021  0.00  0.00     0.048 A 
ATOM     27  C   UNL d   1      -1.523   4.538   0.671  0.00  0.00     0.017 A 
ATOM     28  C   UNL d   1      -1.135   3.308   0.131  0.00  0.00     0.016 A 
BRANCH  26  29
ATOM     29  C   UNL d   1      -1.724   6.159   2.590  0.00  0.00     0.417 C 
ATOM     30  F   UNL d   1      -1.442   6.308   3.915  0.00  0.00    -0.166 F 
ATOM     31  F   UNL d   1      -1.139   7.216   1.963  0.00  0.00    -0.166 F 
ATOM     32  F   UNL d   1      -3.068   6.354   2.473  0.00  0.00    -0.166 F 
ENDBRANCH  26  29
ENDBRANCH   3  23
TORSDOF 7
