REMARK  2 active torsions:
REMARK  status: ('A' for Active; 'I' for Inactive)
REMARK    1  A    between atoms: C_8  and  C_2 
REMARK    2  A    between atoms: O_17  and  C_8 
ROOT
ATOM      1  C   UNL d   1      -0.337  -0.119   0.118  0.00  0.00     0.017 A 
ATOM      2  C   UNL d   1       0.688  -1.069  -0.105  0.00  0.00     0.063 A 
ATOM      3  C   UNL d   1      -1.803  -0.409   0.152  0.00  0.00    -0.004 A 
ATOM      4  C   UNL d   1       0.114   1.200   0.261  0.00  0.00     0.031 A 
ATOM      5  N   UNL d   1       1.425   1.560   0.285  0.00  0.00    -0.357 N 
ATOM      6  HN  UNL d   1       1.686   2.537   0.425  1.00  0.00     0.166 HD
ATOM      7  C   UNL d   1       2.071  -0.725  -0.081  0.00  0.00     0.008 A 
ATOM      8  S   UNL d   1      -2.244   2.201  -0.762  0.00  0.00    -0.123 SA
ATOM      9  C   UNL d   1       2.370   0.631   0.124  0.00  0.00     0.043 A 
ATOM     10  C   UNL d   1      -2.743   0.544  -0.308  0.00  0.00     0.012 A 
ATOM     11  C   UNL d   1      -0.863   2.339   0.408  0.00  0.00     0.137 C 
ATOM     12  C   UNL d   1      -2.323  -1.623   0.646  0.00  0.00     0.037 A 
ATOM     13  C   UNL d   1      -4.112   0.244  -0.381  0.00  0.00     0.021 A 
ATOM     14  C   UNL d   1      -3.687  -1.919   0.565  0.00  0.00     0.035 A 
ATOM     15  C   UNL d   1      -4.582  -0.997   0.038  0.00  0.00     0.025 A 
ATOM     16 CL   UNL d   1      -4.261  -3.447   1.108  0.00  0.00    -0.084 Cl
ATOM     17  C   UNL d   1       3.156  -1.627  -0.260  0.00  0.00     0.015 A 
ATOM     18  C   UNL d   1       3.698   1.044   0.148  0.00  0.00     0.030 A 
ATOM     19  C   UNL d   1       4.482  -1.193  -0.226  0.00  0.00     0.001 A 
ATOM     20  C   UNL d   1       4.753   0.150  -0.023  0.00  0.00     0.002 A 
ENDROOT
BRANCH   2  21
ATOM     21  C   UNL d   1       0.351  -2.467  -0.438  0.00  0.00     0.178 C 
ATOM     22  O   UNL d   1       0.668  -3.456   0.193  0.00  0.00    -0.646 OA
BRANCH  21  23
ATOM     23  O   UNL d   1      -0.367  -2.534  -1.571  0.00  0.00    -0.773 OA
ATOM     24  H   UNL d   1      -0.573  -3.486  -1.686  0.00  0.00     0.167 HD
ENDBRANCH  21  23
ENDBRANCH   2  21
TORSDOF 2
