REMARK  8 active torsions:
REMARK  status: ('A' for Active; 'I' for Inactive)
REMARK    1  A    between atoms: C_5  and  N_1 
REMARK       I    between atoms: C_2  and  N_3 
REMARK    2  A    between atoms: C_4  and  C_2 
REMARK    3  A    between atoms: N_3  and  C_11 
REMARK    4  A    between atoms: C_16  and  C_4 
REMARK    5  A    between atoms: C_4  and  N_13 
REMARK    6  A    between atoms: S_12  and  C_16 
REMARK    7  A    between atoms: C_18  and  S_12 
REMARK    8  A    between atoms: C_17  and  C_18 
ROOT
ATOM      1  C   UNL d   1       0.453   6.585   2.499  0.00  0.00     0.256 C 
ATOM      2  N   UNL d   1      -0.283   7.379   3.373  0.00  0.00    -0.325 N 
ATOM      3  O   UNL d   1       1.676   6.536   2.414  0.00  0.00    -0.271 OA
ATOM      4  H   UNL d   1      -1.291   7.229   3.302  0.00  0.00     0.169 HD
ENDROOT
BRANCH   1   5
ATOM      5  C   UNL d   1      -0.454   5.781   1.538  0.00  0.00     0.318 C 
BRANCH   5   6
ATOM      6  C   UNL d   1       0.250   4.511   1.003  0.00  0.00     0.119 C 
BRANCH   6   7
ATOM      7  S   UNL d   1      -0.856   3.684  -0.213  0.00  0.00    -0.162 SA
BRANCH   7   8
ATOM      8  C   UNL d   1       0.175   2.263  -0.705  0.00  0.00     0.112 C 
BRANCH   8   9
ATOM      9  C   UNL d   1      -0.562   1.400  -1.705  0.00  0.00    -0.049 A 
ATOM     10  C   UNL d   1      -0.449   1.639  -3.084  0.00  0.00     0.008 A 
ATOM     11  C   UNL d   1      -1.152   0.856  -4.004  0.00  0.00     0.001 A 
ATOM     12  C   UNL d   1      -1.982  -0.170  -3.559  0.00  0.00     0.000 A 
ATOM     13  C   UNL d   1      -2.118  -0.409  -2.192  0.00  0.00     0.001 A 
ATOM     14  C   UNL d   1      -1.416   0.373  -1.271  0.00  0.00     0.008 A 
ENDBRANCH   8   9
ENDBRANCH   7   8
ENDBRANCH   6   7
ENDBRANCH   5   6
BRANCH   5  15
ATOM     15  N   UNL d   1      -1.752   5.472   2.210  0.00  0.00     0.092 N 
ATOM     16  H   UNL d   1      -1.569   4.791   2.951  0.00  0.00     0.313 HD
ATOM     17  H   UNL d   1      -2.297   4.936   1.521  0.00  0.00     0.313 HD
ENDBRANCH   5  15
ENDBRANCH   1   5
BRANCH   2  18
ATOM     18  C   UNL d   1       0.196   8.269   4.353  0.00  0.00     0.034 A 
ATOM     19  C   UNL d   1       1.555   8.541   4.540  0.00  0.00     0.032 A 
ATOM     20  C   UNL d   1       1.986   9.428   5.534  0.00  0.00     0.038 A 
ATOM     21  C   UNL d   1       1.049  10.059   6.355  0.00  0.00     0.103 A 
ATOM     22  C   UNL d   1      -0.319   9.806   6.178  0.00  0.00     0.038 A 
ATOM     23  C   UNL d   1      -0.737   8.917   5.181  0.00  0.00     0.032 A 
BRANCH  21  24
ATOM     24  N   UNL d   1       1.506  10.983   7.401  0.00  0.00    -0.116 N 
ATOM     25  O   UNL d   1       0.642  11.523   8.109  0.00  0.00    -0.532 OA
ATOM     26  O   UNL d   1       2.724  11.169   7.519  0.00  0.00    -0.532 OA
ENDBRANCH  21  24
ENDBRANCH   2  18
TORSDOF 8
