REMARK  0 active torsions:
REMARK  status: ('A' for Active; 'I' for Inactive)
ROOT
ATOM      1  C   UNL d   1      -0.805   0.096  -0.253  0.00  0.00     0.089 C 
ATOM      2  N   UNL d   1      -1.754  -0.987  -0.414  0.00  0.00    -0.341 N 
ATOM      3  S   UNL d   1      -1.895   1.578  -0.324  0.00  0.00    -0.128 SA
ATOM      4  C   UNL d   1       0.273   0.115  -1.370  0.00  0.00     0.025 C 
ATOM      5  C   UNL d   1      -0.085  -0.002   1.125  0.00  0.00     0.025 C 
ATOM      6  C   UNL d   1      -3.037  -0.789   0.037  0.00  0.00     0.228 C 
ATOM      7  C   UNL d   1       1.947   1.190   0.202  0.00  0.00    -0.013 C 
ATOM      8  C   UNL d   1       1.800  -1.317   0.056  0.00  0.00    -0.013 C 
ATOM      9  C   UNL d   1       0.747  -1.308   1.178  0.00  0.00     0.012 C 
ATOM     10  C   UNL d   1       1.252   1.297  -1.169  0.00  0.00     0.012 C 
ATOM     11  C   UNL d   1       1.109  -1.186  -1.313  0.00  0.00     0.012 C 
ATOM     12  C   UNL d   1       0.894   1.177   1.324  0.00  0.00     0.012 C 
ATOM     13  C   UNL d   1      -3.367   0.672   0.215  0.00  0.00     0.179 C 
ATOM     14  O   UNL d   1      -3.805  -1.712   0.262  0.00  0.00    -0.273 OA
ATOM     15  C   UNL d   1       2.747  -0.122   0.255  0.00  0.00     0.009 C 
ATOM     16  H   UNL d   1      -1.459  -1.952  -0.474  0.00  0.00     0.164 HD
ENDROOT
TORSDOF 0
