REMARK  3 active torsions:
REMARK  status: ('A' for Active; 'I' for Inactive)
REMARK    1  A    between atoms: C_2  and  N_1 
REMARK    2  A    between atoms: O_7  and  C_3 
REMARK    3  A    between atoms: N_4  and  O_7 
ROOT
ATOM      1  C   UNL d   1       0.233   1.181  -0.004  0.00  0.00     0.138 A 
ATOM      2  C   UNL d   1       0.618   2.104  -0.978  0.00  0.00     0.131 A 
ATOM      3  C   UNL d   1      -0.889   1.399   0.813  0.00  0.00     0.039 A 
ATOM      4  C   UNL d   1      -0.123   3.290  -1.091  0.00  0.00     0.042 A 
ATOM      5  C   UNL d   1      -1.633   2.570   0.655  0.00  0.00     0.003 A 
ATOM      6  C   UNL d   1      -1.244   3.516  -0.289  0.00  0.00     0.003 A 
ENDROOT
BRANCH   2   7
ATOM      7  O   UNL d   1       1.725   1.868  -1.765  0.00  0.00    -0.236 OA
BRANCH   7   8
ATOM      8  N   UNL d   1       1.531   2.479  -3.011  0.00  0.00    -0.270 N 
ATOM      9  C   UNL d   1       2.579   2.446  -3.773  0.00  0.00     0.003 C 
ATOM     10  C   UNL d   1       3.910   1.829  -3.433  0.00  0.00     0.065 C 
ATOM     11  C   UNL d   1       2.461   3.115  -5.122  0.00  0.00     0.065 C 
ATOM     12  HN  UNL d   1       0.649   2.909  -3.291  1.00  0.00     0.194 HD
ENDBRANCH   7   8
ENDBRANCH   2   7
BRANCH   1  13
ATOM     13  N   UNL d   1       0.993  -0.036   0.198  0.00  0.00    -0.113 N 
ATOM     14  O   UNL d   1       1.186  -0.768  -0.781  0.00  0.00    -0.532 OA
ATOM     15  O   UNL d   1       1.363  -0.278   1.359  0.00  0.00    -0.532 OA
ENDBRANCH   1  13
TORSDOF 3
