REMARK  4 active torsions:
REMARK  status: ('A' for Active; 'I' for Inactive)
REMARK    1  A    between atoms: S_15  and  C_2 
REMARK    2  A    between atoms: C_17  and  C_8 
REMARK    3  A    between atoms: C_11  and  C_20 
REMARK    4  A    between atoms: C_20  and  S_15 
ROOT
ATOM      1  S   UNL d   1      -2.211  -3.405   0.025  0.00  0.00    -0.102 SA
ENDROOT
BRANCH   1   2
ATOM      2  C   UNL d   1      -1.103  -2.063   0.014  0.00  0.00     0.098 A 
ATOM      3  C   UNL d   1      -1.738  -0.766   0.006  0.00  0.00     0.073 A 
ATOM      4  N   UNL d   1      -0.952   0.364   0.001  0.00  0.00    -0.318 N 
ATOM      5  C   UNL d   1      -3.060  -0.350   0.001  0.00  0.00     0.034 A 
ATOM      6  C   UNL d   1       0.451   0.272   0.001  0.00  0.00     0.066 A 
ATOM      7  C   UNL d   1      -1.756   1.479  -0.004  0.00  0.00     0.098 A 
ATOM      8  C   UNL d   1       0.986  -1.032   0.005  0.00  0.00     0.060 A 
ATOM      9  C   UNL d   1       1.267   1.409  -0.004  0.00  0.00     0.032 A 
ATOM     10  N   UNL d   1       0.185  -2.208   0.013  0.00  0.00    -0.347 N 
ATOM     11  C   UNL d   1       2.377  -1.160   0.003  0.00  0.00     0.032 A 
ATOM     12  HN  UNL d   1       0.611  -3.135   0.018  1.00  0.00     0.167 HD
ATOM     13  C   UNL d   1       3.204  -0.029  -0.002  0.00  0.00     0.002 A 
ATOM     14  C   UNL d   1       2.651   1.252  -0.005  0.00  0.00     0.002 A 
ATOM     15  C   UNL d   1      -3.069   1.063  -0.005  0.00  0.00     0.020 A 
ENDBRANCH   1   2
BRANCH   1  16
ATOM     16  C   UNL d   1      -1.150  -4.879   0.024  0.00  0.00     0.167 C 
BRANCH  16  17
ATOM     17  C   UNL d   1      -1.947  -6.156   0.012  0.00  0.00     0.158 A 
ATOM     18  N   UNL d   1      -1.545  -7.414  -0.024  0.00  0.00    -0.322 N 
ATOM     19  C   UNL d   1      -2.740  -8.120  -0.035  0.00  0.00     0.137 A 
ATOM     20  HN  UNL d   1      -0.592  -7.777  -0.039  1.00  0.00     0.169 HD
ATOM     21  N   UNL d   1      -3.825  -7.332   0.002  0.00  0.00    -0.242 N 
ATOM     22  O   UNL d   1      -3.310  -6.050   0.033  0.00  0.00    -0.222 OA
ATOM     23  HN  UNL d   1      -4.805  -7.615   0.007  1.00  0.00     0.196 HD
BRANCH  19  24
ATOM     24  C   UNL d   1      -2.830  -9.580  -0.103  0.00  0.00     0.010 A 
ATOM     25  C   UNL d   1      -1.678 -10.379  -0.140  0.00  0.00     0.017 A 
ATOM     26  C   UNL d   1      -1.780 -11.774  -0.230  0.00  0.00     0.025 A 
ATOM     27  C   UNL d   1      -3.035 -12.381  -0.284  0.00  0.00     0.034 A 
ATOM     28  C   UNL d   1      -4.189 -11.607  -0.239  0.00  0.00     0.025 A 
ATOM     29 CL   UNL d   1      -3.159 -14.092  -0.411  0.00  0.00    -0.084 Cl
ATOM     30  C   UNL d   1      -4.086 -10.215  -0.148  0.00  0.00     0.017 A 
ENDBRANCH  19  24
ENDBRANCH  16  17
ENDBRANCH   1  16
TORSDOF 4
