REMARK  3 active torsions:
REMARK  status: ('A' for Active; 'I' for Inactive)
REMARK    1  A    between atoms: C_12  and  C_4 
REMARK       I    between atoms: C_9  and  N_7 
REMARK    2  A    between atoms: C_8  and  N_11 
REMARK       I    between atoms: N_13  and  C_9 
REMARK    3  A    between atoms: N_11  and  N_13 
ROOT
ATOM      1  N   UNL d   1       1.052   0.265   0.031  0.00  0.00    -0.304 N 
ATOM      2  HN  UNL d   1       2.033   0.543   0.052  1.00  0.00     0.171 HD
ATOM      3  C   UNL d   1       0.549  -0.939  -0.075  0.00  0.00     0.253 A 
ATOM      4  C   UNL d   1      -0.066   1.066   0.105  0.00  0.00     0.139 A 
ATOM      5  N   UNL d   1      -1.223   0.387   0.032  0.00  0.00    -0.240 N 
ATOM      6  HN  UNL d   1      -2.174   0.756   0.052  1.00  0.00     0.196 HD
ATOM      7  N   UNL d   1       1.152  -2.157  -0.133  0.00  0.00    -0.272 N 
ATOM      8  C   UNL d   1       2.510  -2.283  -0.278  0.00  0.00     0.338 C 
ATOM      9  O   UNL d   1      -0.816  -0.942  -0.078  0.00  0.00    -0.199 OA
ATOM     10  N   UNL d   1       2.907  -3.612  -0.147  0.00  0.00    -0.268 N 
ATOM     11  O   UNL d   1       3.319  -1.390  -0.513  0.00  0.00    -0.246 OA
ATOM     12  H   UNL d   1       0.559  -2.966  -0.198  0.00  0.00     0.174 HD
ATOM     13  H   UNL d   1       2.390  -4.173   0.523  0.00  0.00     0.185 HD
ENDROOT
BRANCH  10  14
ATOM     14  N   UNL d   1       4.286  -3.843  -0.081  0.00  0.00    -0.199 NA
ATOM     15  H   UNL d   1       4.829  -3.006  -0.345  0.00  0.00     0.153 HD
BRANCH  14  16
ATOM     16  C   UNL d   1       4.798  -5.018  -0.707  0.00  0.00     0.071 A 
ATOM     17  C   UNL d   1       4.064  -6.186  -1.019  0.00  0.00     0.058 A 
ATOM     18 CL   UNL d   1       2.346  -6.344  -0.820  0.00  0.00    -0.082 Cl
ATOM     19  C   UNL d   1       4.706  -7.335  -1.515  0.00  0.00     0.026 A 
ATOM     20  C   UNL d   1       6.087  -7.372  -1.677  0.00  0.00     0.003 A 
ATOM     21  C   UNL d   1       6.840  -6.252  -1.353  0.00  0.00     0.026 A 
ATOM     22  C   UNL d   1       6.206  -5.098  -0.876  0.00  0.00     0.058 A 
ATOM     23 CL   UNL d   1       7.226  -3.750  -0.479  0.00  0.00    -0.082 Cl
ENDBRANCH  14  16
ENDBRANCH  10  14
BRANCH   4  24
ATOM     24  C   UNL d   1       0.034   2.510   0.297  0.00  0.00     0.010 A 
ATOM     25  C   UNL d   1      -1.112   3.314   0.408  0.00  0.00     0.022 A 
ATOM     26  C   UNL d   1      -1.003   4.696   0.630  0.00  0.00    -0.061 A 
ATOM     27  C   UNL d   1      -2.224   5.556   0.771  0.00  0.00     0.048 C 
ATOM     28  C   UNL d   1       0.268   5.272   0.741  0.00  0.00     0.007 A 
ATOM     29  C   UNL d   1       1.412   4.485   0.623  0.00  0.00     0.002 A 
ATOM     30  C   UNL d   1       1.296   3.112   0.401  0.00  0.00     0.015 A 
ENDBRANCH   4  24
TORSDOF 3
