REMARK  4 active torsions:
REMARK  status: ('A' for Active; 'I' for Inactive)
REMARK    1  A    between atoms: C_7  and  C_1 
REMARK    2  A    between atoms: C_9  and  N_2 
REMARK    3  A    between atoms: O_12  and  C_3 
REMARK    4  A    between atoms: C_8  and  C_7 
ROOT
ATOM      1  C   UNL d   1      -0.138  -1.305  -0.091  0.00  0.00     0.022 C 
ATOM      2  N   UNL d   1       1.040   0.593  -0.061  0.00  0.00    -0.234 N 
ATOM      3  C   UNL d   1       1.151  -0.793  -0.116  0.00  0.00     0.170 C 
ATOM      4  N   UNL d   1      -0.234   0.975   0.168  0.00  0.00    -0.296 N 
ATOM      5  HN  UNL d   1      -0.574   1.917   0.363  1.00  0.00     0.187 HD
ATOM      6  C   UNL d   1      -0.954  -0.147   0.084  0.00  0.00     0.033 C 
ATOM      7  C   UNL d   1      -2.426  -0.045   0.242  0.00  0.00     0.070 C 
ENDROOT
BRANCH   1   8
ATOM      8  C   UNL d   1      -0.531  -2.756  -0.049  0.00  0.00     0.087 C 
BRANCH   8   9
ATOM      9  C   UNL d   1      -0.821  -3.221  -1.462  0.00  0.00    -0.010 A 
ATOM     10  C   UNL d   1       0.198  -3.685  -2.318  0.00  0.00     0.042 A 
ATOM     11 CL   UNL d   1       1.826  -3.949  -1.791  0.00  0.00    -0.084 Cl
ATOM     12  C   UNL d   1      -0.067  -4.053  -3.644  0.00  0.00     0.024 A 
ATOM     13  C   UNL d   1      -1.361  -4.002  -4.145  0.00  0.00     0.003 A 
ATOM     14  C   UNL d   1      -2.396  -3.623  -3.303  0.00  0.00     0.024 A 
ATOM     15  C   UNL d   1      -2.138  -3.257  -1.974  0.00  0.00     0.042 A 
ATOM     16 CL   UNL d   1      -3.534  -2.970  -0.993  0.00  0.00    -0.084 Cl
ENDBRANCH   8   9
ENDBRANCH   1   8
BRANCH   3  17
ATOM     17  O   UNL d   1       2.308  -1.456  -0.083  0.00  0.00    -0.344 OA
ATOM     18  H   UNL d   1       3.016  -0.864   0.226  0.00  0.00     0.219 HD
ENDBRANCH   3  17
BRANCH   2  19
ATOM     19  C   UNL d   1       2.075   1.562  -0.139  0.00  0.00     0.059 A 
ATOM     20  C   UNL d   1       3.212   1.341  -0.928  0.00  0.00     0.031 A 
ATOM     21  C   UNL d   1       4.238   2.288  -0.947  0.00  0.00     0.002 A 
ATOM     22  C   UNL d   1       4.137   3.446  -0.174  0.00  0.00     0.000 A 
ATOM     23  C   UNL d   1       2.996   3.679   0.593  0.00  0.00     0.002 A 
ATOM     24  C   UNL d   1       1.954   2.751   0.595  0.00  0.00     0.031 A 
ENDBRANCH   2  19
TORSDOF 4
