REMARK  6 active torsions:
REMARK  status: ('A' for Active; 'I' for Inactive)
REMARK    1  A    between atoms: C_6  and  C_3 
REMARK    2  A    between atoms: S_4  and  C_10 
REMARK    3  A    between atoms: C_11  and  S_4 
REMARK    4  A    between atoms: C_10  and  C_5 
REMARK    5  A    between atoms: C_12  and  C_11 
REMARK    6  A    between atoms: O_25  and  C_22 
ROOT
ATOM      1  N   UNL d   1       1.309   0.136   0.150  0.00  0.00    -0.322 N 
ATOM      2  HN  UNL d   1       2.314   0.269   0.257  1.00  0.00     0.169 HD
ATOM      3  C   UNL d   1       0.639  -0.992   0.075  0.00  0.00     0.183 A 
ATOM      4  C   UNL d   1       0.331   1.087   0.051  0.00  0.00     0.118 A 
ATOM      5  N   UNL d   1      -0.903   0.595  -0.121  0.00  0.00    -0.246 N 
ATOM      6  HN  UNL d   1      -1.777   1.106  -0.244  1.00  0.00     0.196 HD
ATOM      7  O   UNL d   1      -0.704  -0.791  -0.093  0.00  0.00    -0.217 OA
ENDROOT
BRANCH   4   8
ATOM      8  C   UNL d   1       0.647   2.526   0.035  0.00  0.00     0.218 C 
BRANCH   8   9
ATOM      9  S   UNL d   1       0.670   3.244   1.665  0.00  0.00     0.157 S 
ATOM     10  O   UNL d   1       1.128   4.621   1.532  0.00  0.00    -0.227 OA
ATOM     11  O   UNL d   1      -0.624   3.004   2.288  0.00  0.00    -0.227 OA
BRANCH   9  12
ATOM     12  C   UNL d   1       1.884   2.339   2.610  0.00  0.00     0.205 C 
BRANCH  12  13
ATOM     13  C   UNL d   1       3.233   2.504   2.027  0.00  0.00     0.066 A 
ATOM     14  O   UNL d   1       3.597   1.600   1.078  0.00  0.00    -0.326 OA
ATOM     15  C   UNL d   1       4.882   1.863   0.735  0.00  0.00     0.142 A 
ATOM     16  C   UNL d   1       5.350   2.944   1.441  0.00  0.00     0.027 A 
ATOM     17  C   UNL d   1       4.283   3.365   2.273  0.00  0.00     0.035 A 
ENDBRANCH  12  13
ENDBRANCH   9  12
ENDBRANCH   8   9
ENDBRANCH   4   8
BRANCH   3  18
ATOM     18  C   UNL d   1       1.117  -2.371   0.091  0.00  0.00     0.037 A 
ATOM     19  C   UNL d   1       2.250  -2.768   0.824  0.00  0.00     0.025 A 
ATOM     20  C   UNL d   1       2.733  -4.077   0.735  0.00  0.00     0.023 A 
ATOM     21 BR   UNL d   1       3.180  -1.631   2.032  0.00  0.00    -0.050 Br
ATOM     22  C   UNL d   1       2.079  -5.010  -0.065  0.00  0.00     0.038 A 
ATOM     23  C   UNL d   1       0.935  -4.654  -0.776  0.00  0.00     0.069 A 
ATOM     24  C   UNL d   1       0.459  -3.341  -0.699  0.00  0.00     0.054 A 
BRANCH  23  25
ATOM     25  O   UNL d   1       0.391  -5.673  -1.506  0.00  0.00    -0.356 OA
ATOM     26  C   UNL d   1      -0.784  -5.388  -2.252  0.00  0.00     0.210 C 
ENDBRANCH  23  25
ENDBRANCH   3  18
TORSDOF 6
