REMARK  4 active torsions:
REMARK  status: ('A' for Active; 'I' for Inactive)
REMARK    1  A    between atoms: C_8  and  C_5 
REMARK    2  A    between atoms: C_9  and  C_6 
REMARK    3  A    between atoms: O_17  and  C_8 
REMARK    4  A    between atoms: O_16  and  C_9 
ROOT
ATOM      1  C   UNL d   1      -0.647   0.168   0.131  0.00  0.00     0.117 C 
ATOM      2  C   UNL d   1       0.907  -0.118   0.338  0.00  0.00     0.117 C 
ATOM      3  C   UNL d   1      -0.248   1.472  -0.581  0.00  0.00     0.315 C 
ATOM      4  C   UNL d   1       0.888   1.484   0.483  0.00  0.00     0.315 C 
ATOM      5  C   UNL d   1      -1.341  -0.998  -0.519  0.00  0.00     0.230 C 
ATOM      6  C   UNL d   1       0.884  -1.486  -0.423  0.00  0.00     0.230 C 
ATOM      7  O   UNL d   1      -0.429  -2.080  -0.339  0.00  0.00    -0.358 OA
ATOM      8  F   UNL d   1       0.167   1.347  -1.864  0.00  0.00    -0.199 F 
ATOM      9  F   UNL d   1       2.031   2.125   0.144  0.00  0.00    -0.199 F 
ATOM     10  F   UNL d   1       0.560   1.922   1.726  0.00  0.00    -0.199 F 
ATOM     11  F   UNL d   1      -1.145   2.479  -0.537  0.00  0.00    -0.199 F 
ENDROOT
BRANCH   5  12
ATOM     12  C   UNL d   1      -1.782  -0.841  -1.969  0.00  0.00     0.170 C 
ATOM     13  O   UNL d   1      -2.256   0.178  -2.443  0.00  0.00    -0.648 OA
BRANCH  12  14
ATOM     14  O   UNL d   1      -1.647  -1.991  -2.671  0.00  0.00    -0.774 OA
ATOM     15  H   UNL d   1      -1.284  -2.712  -2.112  0.00  0.00     0.167 HD
ENDBRANCH  12  14
ENDBRANCH   5  12
BRANCH   6  16
ATOM     16  C   UNL d   1       1.915  -2.466   0.146  0.00  0.00     0.170 C 
ATOM     17  O   UNL d   1       3.107  -2.225   0.250  0.00  0.00    -0.648 OA
BRANCH  16  18
ATOM     18  O   UNL d   1       1.359  -3.639   0.526  0.00  0.00    -0.774 OA
ATOM     19  H   UNL d   1       0.388  -3.604   0.388  0.00  0.00     0.167 HD
ENDBRANCH  16  18
ENDBRANCH   6  16
TORSDOF 4
