REMARK  2 active torsions:
REMARK  status: ('A' for Active; 'I' for Inactive)
REMARK    1  A    between atoms: C_2  and  C_1 
REMARK    2  A    between atoms: C_13  and  N_3 
ROOT
ATOM      1  C   UNL d   1      -0.437  -0.849  -0.088  0.00  0.00     0.157 C 
ATOM      2  N   UNL d   1       0.940  -0.682  -0.211  0.00  0.00    -0.222 N 
ATOM      3  N   UNL d   1       1.155   0.576  -0.698  0.00  0.00    -0.219 N 
ATOM      4  HN  UNL d   1       2.043   1.077  -0.729  1.00  0.00     0.210 HD
ATOM      5  N   UNL d   1      -0.014   1.012  -1.117  0.00  0.00    -0.226 N 
ATOM      6  HN  UNL d   1      -0.159   1.878  -1.636  1.00  0.00     0.210 HD
ATOM      7  N   UNL d   1      -1.000   0.147  -0.763  0.00  0.00    -0.268 N 
ATOM      8  HN  UNL d   1      -1.992   0.245  -0.977  1.00  0.00     0.190 HD
ENDROOT
BRANCH   1   9
ATOM      9  C   UNL d   1      -1.304  -1.671   0.836  0.00  0.00     0.039 C 
ATOM     10  C   UNL d   1      -2.590  -1.196   1.059  0.00  0.00     0.104 C 
ATOM     11  N   UNL d   1      -3.153  -1.895   2.080  0.00  0.00    -0.364 N 
ATOM     12  C   UNL d   1      -2.303  -2.891   2.484  0.00  0.00     0.043 A 
ATOM     13  H   UNL d   1      -4.059  -1.708   2.488  0.00  0.00     0.165 HD
ATOM     14  C   UNL d   1      -1.151  -2.824   1.678  0.00  0.00     0.006 A 
ATOM     15  C   UNL d   1      -2.489  -3.830   3.507  0.00  0.00     0.030 A 
ATOM     16  C   UNL d   1      -0.195  -3.840   1.892  0.00  0.00     0.014 A 
ATOM     17  C   UNL d   1      -0.394  -4.829   2.871  0.00  0.00     0.001 A 
ATOM     18  C   UNL d   1      -1.516  -4.803   3.687  0.00  0.00     0.002 A 
ENDBRANCH   1   9
BRANCH   2  19
ATOM     19  C   UNL d   1       2.069  -1.514  -0.065  0.00  0.00     0.060 A 
ATOM     20  C   UNL d   1       2.035  -2.855  -0.447  0.00  0.00     0.032 A 
ATOM     21  C   UNL d   1       3.219  -3.607  -0.426  0.00  0.00     0.009 A 
ATOM     22  C   UNL d   1       4.440  -3.021  -0.067  0.00  0.00    -0.062 A 
ATOM     23  C   UNL d   1       4.466  -1.677   0.310  0.00  0.00     0.009 A 
ATOM     24  C   UNL d   1       5.709  -3.826  -0.067  0.00  0.00     0.048 C 
ATOM     25  C   UNL d   1       3.292  -0.925   0.296  0.00  0.00     0.032 A 
ENDBRANCH   2  19
TORSDOF 2
