REMARK  6 active torsions:
REMARK  status: ('A' for Active; 'I' for Inactive)
REMARK    1  A    between atoms: C_7  and  C_1 
REMARK       I    between atoms: C_2  and  N_5 
REMARK       I    between atoms: N_6  and  C_2 
REMARK    2  A    between atoms: N_3  and  C_8 
REMARK    3  A    between atoms: C_15  and  N_4 
REMARK    4  A    between atoms: N_5  and  C_22 
REMARK    5  A    between atoms: C_23  and  N_6 
REMARK    6  A    between atoms: C_28  and  C_15 
ROOT
ATOM      1  C   UNL d   1      -0.797   0.179   2.994  0.00  0.00     0.030 C 
ATOM      2  C   UNL d   1       0.128   1.213   3.189  0.00  0.00     0.031 C 
ATOM      3  C   UNL d   1      -2.139   0.508   3.215  0.00  0.00     0.031 C 
ATOM      4  C   UNL d   1      -1.631   2.868   3.483  0.00  0.00     0.036 C 
ATOM      5  C   UNL d   1      -2.553   1.823   3.451  0.00  0.00     0.032 C 
ATOM      6  C   UNL d   1      -0.278   2.542   3.414  0.00  0.00     0.032 C 
ENDROOT
BRANCH   4   7
ATOM      7  N   UNL d   1      -2.010   4.235   3.489  0.00  0.00    -0.309 N 
ATOM      8  C   UNL d   1      -3.290   4.698   3.733  0.00  0.00     0.325 C 
ATOM      9  N   UNL d   1      -3.453   6.035   3.403  0.00  0.00    -0.309 N 
ATOM     10  O   UNL d   1      -4.179   3.993   4.208  0.00  0.00    -0.247 OA
ATOM     11  H   UNL d   1      -2.627   6.546   3.130  0.00  0.00     0.170 HD
ATOM     12  H   UNL d   1      -1.277   4.917   3.376  0.00  0.00     0.170 HD
BRANCH   9  13
ATOM     13  C   UNL d   1      -4.614   6.803   3.679  0.00  0.00     0.036 C 
ATOM     14  C   UNL d   1      -5.813   6.244   4.128  0.00  0.00     0.030 C 
ATOM     15  C   UNL d   1      -6.800   7.040   4.709  0.00  0.00     0.018 C 
ATOM     16  C   UNL d   1      -6.605   8.417   4.832  0.00  0.00     0.048 C 
ATOM     17  C   UNL d   1      -5.506   9.000   4.183  0.00  0.00     0.018 C 
ATOM     18  C   UNL d   1      -4.518   8.195   3.601  0.00  0.00     0.030 C 
BRANCH  16  19
ATOM     19  C   UNL d   1      -7.486   9.204   5.772  0.00  0.00     0.417 C 
ATOM     20  F   UNL d   1      -7.108  10.506   5.908  0.00  0.00    -0.166 F 
ATOM     21  F   UNL d   1      -7.457   8.683   7.033  0.00  0.00    -0.166 F 
ATOM     22  F   UNL d   1      -8.795   9.224   5.407  0.00  0.00    -0.166 F 
ENDBRANCH  16  19
ENDBRANCH   9  13
ENDBRANCH   4   7
BRANCH   1  23
ATOM     23  N   UNL d   1      -0.434  -1.071   2.528  0.00  0.00    -0.378 N 
ATOM     24  C   UNL d   1       0.851  -1.709   2.837  0.00  0.00     0.153 C 
ATOM     25  C   UNL d   1       1.464  -2.336   1.564  0.00  0.00     0.292 C 
ATOM     26  N   UNL d   1       0.581  -3.276   0.832  0.00  0.00     0.095 N 
ATOM     27  C   UNL d   1      -0.676  -2.552   0.521  0.00  0.00     0.292 C 
ATOM     28  C   UNL d   1      -1.380  -1.870   1.725  0.00  0.00     0.153 C 
BRANCH  26  29
ATOM     29  C   UNL d   1       0.271  -4.500   1.589  0.00  0.00     0.311 C 
BRANCH  29  30
ATOM     30  C   UNL d   1       1.469  -5.343   1.965  0.00  0.00    -0.030 A 
ATOM     31  C   UNL d   1       1.762  -5.587   3.316  0.00  0.00     0.009 A 
ATOM     32  C   UNL d   1       2.837  -6.401   3.674  0.00  0.00     0.001 A 
ATOM     33  C   UNL d   1       3.625  -6.988   2.686  0.00  0.00     0.000 A 
ATOM     34  C   UNL d   1       3.342  -6.756   1.341  0.00  0.00     0.001 A 
ATOM     35  C   UNL d   1       2.273  -5.934   0.981  0.00  0.00     0.009 A 
ENDBRANCH  29  30
ENDBRANCH  26  29
ENDBRANCH   1  23
TORSDOF 6
