REMARK  7 active torsions:
REMARK  status: ('A' for Active; 'I' for Inactive)
REMARK    1  A    between atoms: C_25  and  C_2 
REMARK    2  A    between atoms: C_6  and  C_19 
REMARK    3  A    between atoms: C_8  and  C_13 
REMARK       I    between atoms: N_18  and  C_8 
REMARK    4  A    between atoms: N_10  and  N_18 
REMARK    5  A    between atoms: C_13  and  O_14 
REMARK    6  A    between atoms: O_14  and  C_15 
REMARK    7  A    between atoms: C_30  and  C_25 
ROOT
ATOM      1  C   UNL d   1       3.571   3.232  -0.559  0.00  0.00     0.218 C 
ATOM      2  C   UNL d   1       4.995   3.535  -1.023  0.00  0.00     0.050 C 
ENDROOT
BRANCH   1   3
ATOM      3  C   UNL d   1       3.038   4.450   0.220  0.00  0.00     0.265 C 
ATOM      4  N   UNL d   1       2.561   4.162   1.490  0.00  0.00    -0.268 N 
ATOM      5  H   UNL d   1       2.642   3.220   1.866  0.00  0.00     0.190 HD
ATOM      6  O   UNL d   1       3.030   5.571  -0.291  0.00  0.00    -0.269 OA
BRANCH   4   7
ATOM      7  N   UNL d   1       2.002   5.160   2.231  0.00  0.00    -0.308 N 
ATOM      8  C   UNL d   1       1.578   4.854   3.413  0.00  0.00     0.123 C 
ATOM      9  HN  UNL d   1       1.922   6.109   1.868  1.00  0.00     0.186 HD
BRANCH   8  10
ATOM     10  C   UNL d   1       1.000   5.885   4.302  0.00  0.00     0.041 A 
ATOM     11  C   UNL d   1       0.330   6.985   3.758  0.00  0.00     0.129 A 
ATOM     12  F   UNL d   1       0.107   7.084   2.441  0.00  0.00    -0.205 F 
ATOM     13  C   UNL d   1      -0.166   8.003   4.573  0.00  0.00     0.043 A 
ATOM     14  C   UNL d   1       0.001   7.932   5.953  0.00  0.00     0.005 A 
ATOM     15  C   UNL d   1       0.647   6.829   6.512  0.00  0.00     0.025 A 
ATOM     16  C   UNL d   1       1.141   5.803   5.692  0.00  0.00     0.048 A 
ATOM     17 CL   UNL d   1       1.946   4.488   6.472  0.00  0.00    -0.083 Cl
ENDBRANCH   8  10
ENDBRANCH   4   7
ENDBRANCH   1   3
BRANCH   1  18
ATOM     18  O   UNL d   1       3.634   2.009   0.175  0.00  0.00    -0.337 OA
BRANCH  18  19
ATOM     19  C   UNL d   1       2.591   1.141   0.012  0.00  0.00     0.072 A 
ATOM     20  C   UNL d   1       1.266   1.521  -0.164  0.00  0.00     0.075 A 
ATOM     21  C   UNL d   1       0.273   0.538  -0.175  0.00  0.00     0.092 A 
ATOM     22  O   UNL d   1      -1.050   1.013  -0.260  0.00  0.00    -0.275 OA
ATOM     23  C   UNL d   1       0.557  -0.825  -0.057  0.00  0.00     0.004 A 
ATOM     24  C   UNL d   1      -2.122   0.149  -0.137  0.00  0.00     0.288 C 
ATOM     25  O   UNL d   1      -3.280   0.541  -0.086  0.00  0.00    -0.260 OA
ATOM     26  C   UNL d   1      -1.810  -1.287  -0.096  0.00  0.00     0.090 C 
ATOM     27  C   UNL d   1      -0.562  -1.780  -0.066  0.00  0.00    -0.039 C 
ATOM     28  C   UNL d   1       1.900  -1.190   0.086  0.00  0.00     0.017 A 
ATOM     29  C   UNL d   1       2.905  -0.213   0.137  0.00  0.00     0.038 A 
BRANCH  27  30
ATOM     30  C   UNL d   1      -0.327  -3.271  -0.079  0.00  0.00     0.039 C 
BRANCH  30  31
ATOM     31  C   UNL d   1      -0.181  -3.861   1.326  0.00  0.00     0.000 C 
ATOM     32  C   UNL d   1       0.068  -5.361   1.268  0.00  0.00     0.005 C 
ENDBRANCH  30  31
ENDBRANCH  27  30
ENDBRANCH  18  19
ENDBRANCH   1  18
TORSDOF 7
