REMARK  4 active torsions:
REMARK  status: ('A' for Active; 'I' for Inactive)
REMARK    1  A    between atoms: C_11  and  N_1 
REMARK    2  A    between atoms: N_5  and  C_3 
REMARK    3  A    between atoms: N_15  and  C_11 
REMARK    4  A    between atoms: C_12  and  N_15 
ROOT
ATOM      1  C   UNL d   1      -2.105   7.058  -0.504  0.00  0.00    -0.009 A 
ATOM      2  C   UNL d   1      -1.157   6.465  -1.349  0.00  0.00     0.118 A 
ATOM      3  C   UNL d   1      -2.797   6.230   0.393  0.00  0.00    -0.039 A 
ATOM      4  C   UNL d   1      -2.562   8.501  -0.358  0.00  0.00    -0.017 C 
ATOM      5  C   UNL d   1      -0.894   5.067  -1.314  0.00  0.00    -0.007 A 
ATOM      6  C   UNL d   1      -3.806   6.990   1.226  0.00  0.00    -0.019 C 
ATOM      7  C   UNL d   1      -1.547   4.265  -0.342  0.00  0.00     0.018 A 
ATOM      8  C   UNL d   1      -2.534   4.859   0.464  0.00  0.00     0.032 A 
ATOM      9  C   UNL d   1      -3.328   8.441   0.998  0.00  0.00     0.027 C 
ATOM     10  C   UNL d   1      -3.516   8.943  -1.480  0.00  0.00     0.020 C 
ATOM     11  C   UNL d   1      -1.423   9.524  -0.217  0.00  0.00     0.020 C 
ATOM     12  C   UNL d   1       0.114   4.425  -2.244  0.00  0.00     0.052 C 
ATOM     13  C   UNL d   1      -5.242   6.760   0.736  0.00  0.00     0.020 C 
ATOM     14  C   UNL d   1      -3.736   6.650   2.723  0.00  0.00     0.020 C 
ENDROOT
BRANCH   7  15
ATOM     15  N   UNL d   1      -1.280   2.878  -0.312  0.00  0.00    -0.275 NA
ATOM     16  H   UNL d   1      -1.823   2.428  -1.054  0.00  0.00     0.129 HD
BRANCH  15  17
ATOM     17  C   UNL d   1      -1.496   2.153   0.936  0.00  0.00     0.229 C 
BRANCH  17  18
ATOM     18  N   UNL d   1      -1.271   0.749   0.703  0.00  0.00    -0.275 N 
ATOM     19  C   UNL d   1      -0.394  -0.002   1.426  0.00  0.00     0.227 A 
ATOM     20  C   UNL d   1      -0.560  -1.448   1.052  0.00  0.00     0.112 A 
ATOM     21  O   UNL d   1       0.386   0.392   2.280  0.00  0.00    -0.273 OA
ATOM     22  C   UNL d   1      -1.709  -1.456   0.065  0.00  0.00     0.112 A 
ATOM     23  C   UNL d   1      -2.099  -0.014  -0.060  0.00  0.00     0.227 A 
ATOM     24  O   UNL d   1      -3.039   0.391  -0.734  0.00  0.00    -0.273 OA
ENDBRANCH  17  18
ENDBRANCH  15  17
ENDBRANCH   7  15
BRANCH   2  25
ATOM     25  N   UNL d   1      -0.397   7.293  -2.273  0.00  0.00    -0.114 N 
ATOM     26  O   UNL d   1      -1.016   7.832  -3.197  0.00  0.00    -0.532 OA
ATOM     27  O   UNL d   1       0.823   7.385  -2.077  0.00  0.00    -0.532 OA
ENDBRANCH   2  25
TORSDOF 4
