REMARK  4 active torsions:
REMARK  status: ('A' for Active; 'I' for Inactive)
REMARK    1  A    between atoms: N_2  and  S_1 
REMARK    2  A    between atoms: C_5  and  S_1 
REMARK    3  A    between atoms: C_3  and  N_2 
REMARK    4  A    between atoms: C_11  and  C_4 
ROOT
ATOM      1  N   UNL d   1       0.464   1.118  -0.850  0.00  0.00    -0.280 N 
ATOM      2  H   UNL d   1      -0.111   0.879  -1.653  0.00  0.00     0.179 HD
ENDROOT
BRANCH   1   3
ATOM      3  S   UNL d   1       0.099   0.158   0.505  0.00  0.00     0.263 S 
ATOM      4  O   UNL d   1       0.692   0.721   1.700  0.00  0.00    -0.200 OA
ATOM      5  O   UNL d   1       0.361  -1.212   0.113  0.00  0.00    -0.200 OA
BRANCH   3   6
ATOM      6  C   UNL d   1      -1.672   0.303   0.648  0.00  0.00     0.079 A 
ATOM      7  C   UNL d   1      -2.494  -0.580  -0.062  0.00  0.00     0.026 A 
ATOM      8  C   UNL d   1      -3.882  -0.430  -0.006  0.00  0.00     0.008 A 
ATOM      9  C   UNL d   1      -4.453   0.595   0.761  0.00  0.00    -0.062 A 
ATOM     10  C   UNL d   1      -3.623   1.424   1.524  0.00  0.00     0.008 A 
ATOM     11  C   UNL d   1      -5.943   0.792   0.747  0.00  0.00     0.048 C 
ATOM     12  C   UNL d   1      -2.232   1.275   1.481  0.00  0.00     0.026 A 
ENDBRANCH   3   6
ENDBRANCH   1   3
BRANCH   1  13
ATOM     13  C   UNL d   1       0.726   2.518  -0.675  0.00  0.00     0.055 A 
ATOM     14  C   UNL d   1       2.056   2.930  -0.402  0.00  0.00    -0.027 A 
ATOM     15  C   UNL d   1       2.319   4.307  -0.260  0.00  0.00     0.010 A 
ATOM     16  C   UNL d   1       1.305   5.252  -0.364  0.00  0.00     0.001 A 
ATOM     17  C   UNL d   1       0.009   4.839  -0.644  0.00  0.00     0.009 A 
ATOM     18  C   UNL d   1      -0.297   3.478  -0.825  0.00  0.00    -0.034 A 
ATOM     19  C   UNL d   1      -1.711   3.170  -1.228  0.00  0.00     0.050 C 
BRANCH  14  20
ATOM     20  C   UNL d   1       3.226   1.946  -0.400  0.00  0.00     0.013 C 
ATOM     21  C   UNL d   1       3.810   1.843  -1.815  0.00  0.00     0.015 C 
ATOM     22  C   UNL d   1       4.335   2.286   0.606  0.00  0.00     0.015 C 
ENDBRANCH  14  20
ENDBRANCH   1  13
TORSDOF 4
