REMARK  3 active torsions:
REMARK  status: ('A' for Active; 'I' for Inactive)
REMARK    1  A    between atoms: C_7  and  C_4 
REMARK    2  A    between atoms: C_9  and  C_14 
REMARK    3  A    between atoms: C_12  and  C_10 
ROOT
ATOM      1  C   UNL d   1      -4.498   2.986  -1.675  0.00  0.00     0.088 A 
ATOM      2  O   UNL d   1      -4.304   1.859  -0.928  0.00  0.00    -0.310 OA
ATOM      3  C   UNL d   1      -3.078   1.314  -1.244  0.00  0.00     0.077 A 
ATOM      4  C   UNL d   1      -3.394   3.187  -2.474  0.00  0.00     0.041 A 
ATOM      5  C   UNL d   1      -2.482   2.147  -2.180  0.00  0.00     0.040 A 
ENDROOT
BRANCH   1   6
ATOM      6  C   UNL d   1      -5.756   3.697  -1.447  0.00  0.00     0.020 A 
ATOM      7  C   UNL d   1      -6.928   2.958  -1.166  0.00  0.00     0.032 A 
ATOM      8  C   UNL d   1      -8.161   3.592  -0.911  0.00  0.00     0.048 A 
ATOM      9  C   UNL d   1      -8.222   4.991  -0.952  0.00  0.00     0.018 A 
ATOM     10  C   UNL d   1      -7.082   5.737  -1.238  0.00  0.00     0.026 A 
ATOM     11  C   UNL d   1      -5.858   5.101  -1.481  0.00  0.00     0.047 A 
ATOM     12 CL   UNL d   1      -4.508   6.148  -1.766  0.00  0.00    -0.083 Cl
BRANCH   8  13
ATOM     13  C   UNL d   1      -9.409   2.810  -0.577  0.00  0.00     0.417 C 
ATOM     14  F   UNL d   1      -9.238   1.461  -0.580  0.00  0.00    -0.166 F 
ATOM     15  F   UNL d   1      -9.891   3.122   0.660  0.00  0.00    -0.166 F 
ATOM     16  F   UNL d   1     -10.429   3.063  -1.444  0.00  0.00    -0.166 F 
ENDBRANCH   8  13
ENDBRANCH   1   6
BRANCH   3  17
ATOM     17  C   UNL d   1      -2.547   0.147  -0.637  0.00  0.00     0.061 C 
ATOM     18  C   UNL d   1      -3.298  -0.913  -0.279  0.00  0.00     0.117 C 
ATOM     19  C   UNL d   1      -2.627  -1.964   0.496  0.00  0.00     0.302 C 
ATOM     20  C   UNL d   1      -4.720  -1.072  -0.602  0.00  0.00     0.302 C 
ATOM     21  O   UNL d   1      -3.457  -2.712   1.256  0.00  0.00    -0.280 OA
ATOM     22  O   UNL d   1      -1.417  -2.155   0.477  0.00  0.00    -0.259 OA
ATOM     23  C   UNL d   1      -4.783  -2.229   1.493  0.00  0.00     0.175 C 
ATOM     24  O   UNL d   1      -5.432  -1.757   0.313  0.00  0.00    -0.280 OA
ATOM     25  C   UNL d   1      -4.778  -1.144   2.575  0.00  0.00     0.080 C 
ATOM     26  C   UNL d   1      -5.609  -3.421   1.974  0.00  0.00     0.080 C 
ATOM     27  O   UNL d   1      -5.234  -0.683  -1.643  0.00  0.00    -0.259 OA
ENDBRANCH   3  17
TORSDOF 3
