REMARK  5 active torsions:
REMARK  status: ('A' for Active; 'I' for Inactive)
REMARK    1  A    between atoms: N_2  and  C_1 
REMARK    2  A    between atoms: N_3  and  C_5 
REMARK    3  A    between atoms: N_10  and  C_6 
REMARK    4  A    between atoms: C_9  and  C_19 
REMARK    5  A    between atoms: C_19  and  N_10 
ROOT
ATOM      1  C   UNL d   1       1.370  -0.315   0.096  0.00  0.00     0.131 A 
ATOM      2  C   UNL d   1       0.474  -1.396   0.116  0.00  0.00     0.074 A 
ATOM      3  C   UNL d   1      -0.894  -1.128   0.057  0.00  0.00     0.105 A 
ATOM      4  C   UNL d   1       0.950   1.030  -0.029  0.00  0.00     0.061 A 
ATOM      5  C   UNL d   1      -1.353   0.194   0.006  0.00  0.00     0.038 A 
ATOM      6  C   UNL d   1      -0.435   1.252  -0.027  0.00  0.00     0.034 A 
ENDROOT
BRANCH   4   7
ATOM      7  N   UNL d   1       1.867   2.080  -0.097  0.00  0.00    -0.382 N 
ATOM      8  H   UNL d   1       2.314   2.260   0.803  0.00  0.00     0.160 HD
BRANCH   7   9
ATOM      9  C   UNL d   1       1.541   3.319  -0.814  0.00  0.00     0.184 C 
BRANCH   9  10
ATOM     10  C   UNL d   1       1.339   4.535   0.023  0.00  0.00     0.070 A 
ATOM     11  O   UNL d   1       0.083   4.754   0.513  0.00  0.00    -0.325 OA
ATOM     12  C   UNL d   1       0.115   5.944   1.166  0.00  0.00     0.142 A 
ATOM     13  C   UNL d   1       1.373   6.494   1.108  0.00  0.00     0.027 A 
ATOM     14  C   UNL d   1       2.170   5.577   0.381  0.00  0.00     0.036 A 
ENDBRANCH   9  10
ENDBRANCH   7   9
ENDBRANCH   4   7
BRANCH   1  15
ATOM     15  N   UNL d   1       2.786  -0.632   0.175  0.00  0.00    -0.113 N 
ATOM     16  O   UNL d   1       3.230  -1.435  -0.657  0.00  0.00    -0.532 OA
ATOM     17  O   UNL d   1       3.430  -0.135   1.111  0.00  0.00    -0.532 OA
ENDBRANCH   1  15
BRANCH   3  18
ATOM     18  N   UNL d   1      -1.860  -2.234   0.055  0.00  0.00    -0.116 N 
ATOM     19  O   UNL d   1      -1.411  -3.386   0.126  0.00  0.00    -0.532 OA
ATOM     20  O   UNL d   1      -3.062  -1.948  -0.019  0.00  0.00    -0.532 OA
ENDBRANCH   3  18
TORSDOF 5
