REMARK  0 active torsions:
REMARK  status: ('A' for Active; 'I' for Inactive)
ROOT
ATOM      1  S   UNL d   1      -0.858  -0.497  -1.474  0.00  0.00     0.179 S 
ATOM      2  C   UNL d   1      -0.237   0.148   0.139  0.00  0.00     0.137 C 
ATOM      3  N   UNL d   1      -1.445   0.519   0.867  0.00  0.00    -0.338 N 
ATOM      4  C   UNL d   1      -2.515  -0.718  -0.917  0.00  0.00     0.245 C 
ATOM      5  C   UNL d   1      -2.644   0.135   0.315  0.00  0.00     0.233 C 
ATOM      6  O   UNL d   1      -0.860   0.562  -2.468  0.00  0.00    -0.225 OA
ATOM      7  O   UNL d   1      -0.309  -1.803  -1.777  0.00  0.00    -0.225 OA
ATOM      8  O   UNL d   1      -3.714   0.430   0.828  0.00  0.00    -0.273 OA
ATOM      9  C   UNL d   1       0.518  -0.944   0.921  0.00  0.00     0.047 C 
ATOM     10  C   UNL d   1       0.648   1.388  -0.052  0.00  0.00     0.047 C 
ATOM     11  C   UNL d   1       1.913  -1.251   0.368  0.00  0.00     0.004 C 
ATOM     12  C   UNL d   1       2.002   1.056  -0.672  0.00  0.00     0.004 C 
ATOM     13  C   UNL d   1       2.747   0.004   0.143  0.00  0.00     0.000 C 
ATOM     14  H   UNL d   1      -1.451   1.093   1.702  0.00  0.00     0.164 HD
ENDROOT
TORSDOF 0
