REMARK  4 active torsions:
REMARK  status: ('A' for Active; 'I' for Inactive)
REMARK    1  A    between atoms: N_3  and  C_1 
REMARK    2  A    between atoms: N_4  and  C_1 
REMARK    3  A    between atoms: C_2  and  N_3 
REMARK    4  A    between atoms: C_6  and  N_4 
ROOT
ATOM      1  C   UNL d   1       1.081  -0.510  -2.083  0.00  0.00     0.176 C 
ATOM      2  S   UNL d   1       2.516  -1.084  -1.445  0.00  0.00    -0.041 SA
ENDROOT
BRANCH   1   3
ATOM      3  N   UNL d   1       0.755  -0.426  -3.417  0.00  0.00    -0.332 N 
ATOM      4  H   UNL d   1       0.309   0.454  -3.664  0.00  0.00     0.168 HD
BRANCH   3   5
ATOM      5  C   UNL d   1       1.202  -1.211  -4.501  0.00  0.00     0.058 A 
ATOM      6  C   UNL d   1       1.460  -2.577  -4.348  0.00  0.00     0.057 A 
ATOM      7  C   UNL d   1       1.791  -3.363  -5.458  0.00  0.00     0.058 A 
ATOM      8 CL   UNL d   1       2.031  -5.055  -5.198  0.00  0.00    -0.082 Cl
ATOM      9  C   UNL d   1       1.882  -2.781  -6.727  0.00  0.00     0.057 A 
ATOM     10  C   UNL d   1       1.627  -1.418  -6.889  0.00  0.00     0.051 A 
ATOM     11 CL   UNL d   1       2.279  -3.695  -8.138  0.00  0.00    -0.082 Cl
ATOM     12  C   UNL d   1       1.270  -0.643  -5.784  0.00  0.00     0.062 A 
ATOM     13 CL   UNL d   1       0.941   1.036  -6.035  0.00  0.00    -0.082 Cl
ENDBRANCH   3   5
ENDBRANCH   1   3
BRANCH   1  14
ATOM     14  N   UNL d   1       0.181   0.084  -1.233  0.00  0.00    -0.333 N 
ATOM     15  H   UNL d   1       0.559   0.319  -0.322  0.00  0.00     0.168 HD
BRANCH  14  16
ATOM     16  C   UNL d   1      -1.231   0.117  -1.340  0.00  0.00     0.040 A 
ATOM     17  C   UNL d   1      -1.970   1.019  -0.552  0.00  0.00    -0.035 A 
ATOM     18  C   UNL d   1      -3.374   0.959  -0.591  0.00  0.00     0.009 A 
ATOM     19  C   UNL d   1      -1.347   2.066   0.330  0.00  0.00     0.050 C 
ATOM     20  C   UNL d   1      -4.038   0.025  -1.388  0.00  0.00     0.007 A 
ATOM     21  C   UNL d   1      -3.311  -0.875  -2.166  0.00  0.00    -0.060 A 
ATOM     22  C   UNL d   1      -1.912  -0.815  -2.140  0.00  0.00     0.037 A 
ATOM     23  C   UNL d   1      -4.023  -1.915  -2.980  0.00  0.00     0.048 C 
ENDBRANCH  14  16
ENDBRANCH   1  14
TORSDOF 4
