REMARK  5 active torsions:
REMARK  status: ('A' for Active; 'I' for Inactive)
REMARK    1  A    between atoms: N_2  and  C_1 
REMARK    2  A    between atoms: N_5  and  C_1 
REMARK    3  A    between atoms: C_3  and  N_2 
REMARK    4  A    between atoms: O_12  and  C_8 
REMARK    5  A    between atoms: O_11  and  C_9 
ROOT
ATOM      1  C   UNL d   1       1.025   2.635   0.219  0.00  0.00     0.039 A 
ATOM      2  C   UNL d   1       2.027   2.843  -0.733  0.00  0.00     0.066 A 
ATOM      3  C   UNL d   1       0.452   3.736   0.863  0.00  0.00     0.066 A 
ATOM      4  C   UNL d   1       0.920   5.027   0.616  0.00  0.00     0.073 A 
ATOM      5  C   UNL d   1       2.494   4.130  -0.996  0.00  0.00     0.073 A 
ATOM      6  C   UNL d   1       1.949   5.217  -0.306  0.00  0.00     0.073 A 
ENDROOT
BRANCH   1   7
ATOM      7  N   UNL d   1       0.530   1.355   0.547  0.00  0.00    -0.333 N 
ATOM      8  H   UNL d   1      -0.437   1.325   0.853  0.00  0.00     0.168 HD
BRANCH   7   9
ATOM      9  C   UNL d   1       1.070   0.122   0.290  0.00  0.00     0.173 C 
ATOM     10  S   UNL d   1      -0.016  -1.135   0.044  0.00  0.00    -0.041 SA
BRANCH   9  11
ATOM     11  N   UNL d   1       2.450  -0.018   0.335  0.00  0.00    -0.367 N 
ATOM     12  C   UNL d   1       3.248   0.717   1.318  0.00  0.00     0.151 C 
ATOM     13  C   UNL d   1       3.140  -1.151  -0.272  0.00  0.00     0.151 C 
ENDBRANCH   9  11
ENDBRANCH   7   9
ENDBRANCH   1   7
BRANCH   5  14
ATOM     14  O   UNL d   1       3.480   4.458  -1.889  0.00  0.00    -0.356 OA
ATOM     15  C   UNL d   1       3.967   3.412  -2.722  0.00  0.00     0.210 C 
ENDBRANCH   5  14
BRANCH   4  16
ATOM     16  O   UNL d   1       0.308   6.006   1.351  0.00  0.00    -0.356 OA
ATOM     17  C   UNL d   1       0.650   7.350   1.038  0.00  0.00     0.210 C 
ENDBRANCH   4  16
TORSDOF 5
