REMARK  1 active torsions:
REMARK  status: ('A' for Active; 'I' for Inactive)
REMARK    1  A    between atoms: C_6  and  N_1 
ROOT
ATOM      1  N   UNL d   1      -2.281  -0.039  -0.286  0.00  0.00    -0.236 N 
ATOM      2  C   UNL d   1      -1.586  -1.159   0.106  0.00  0.00     0.237 C 
ATOM      3  C   UNL d   1      -1.507   1.093  -0.216  0.00  0.00     0.237 C 
ATOM      4  C   UNL d   1      -0.278  -0.732   0.746  0.00  0.00     0.096 C 
ATOM      5  C   UNL d   1      -0.297   0.785   0.634  0.00  0.00     0.095 C 
ATOM      6  C   UNL d   1       0.961   1.509   0.172  0.00  0.00     0.042 C 
ATOM      7  C   UNL d   1       0.921  -1.500   0.180  0.00  0.00     0.048 C 
ATOM      8  O   UNL d   1      -1.880  -2.338  -0.045  0.00  0.00    -0.272 OA
ATOM      9  O   UNL d   1      -1.752   2.213  -0.639  0.00  0.00    -0.272 OA
ATOM     10  C   UNL d   1       2.017   0.658  -0.444  0.00  0.00    -0.023 C 
ATOM     11  C   UNL d   1       2.022  -0.682  -0.436  0.00  0.00    -0.087 C 
ATOM     12  C   UNL d   1       3.192  -1.438  -1.003  0.00  0.00     0.043 C 
ENDROOT
BRANCH   1  13
ATOM     13  C   UNL d   1      -3.647  -0.069  -0.665  0.00  0.00     0.117 A 
ATOM     14  N   UNL d   1      -4.404  -1.081  -0.180  0.00  0.00    -0.352 N 
ATOM     15  C   UNL d   1      -5.734  -1.077  -0.424  0.00  0.00     0.089 A 
ATOM     16  HN  UNL d   1      -3.979  -1.834   0.360  1.00  0.00     0.166 HD
ATOM     17  C   UNL d   1      -6.375  -0.103  -1.162  0.00  0.00     0.017 A 
ATOM     18  C   UNL d   1      -5.602   0.924  -1.677  0.00  0.00     0.005 A 
ATOM     19  C   UNL d   1      -4.229   0.949  -1.419  0.00  0.00     0.049 A 
ENDBRANCH   1  13
TORSDOF 1
