REMARK  6 active torsions:
REMARK  status: ('A' for Active; 'I' for Inactive)
REMARK    1  A    between atoms: C_7  and  C_1 
REMARK    2  A    between atoms: C_8  and  C_2 
REMARK    3  A    between atoms: O_12  and  C_7 
REMARK    4  A    between atoms: O_11  and  C_8 
REMARK    5  A    between atoms: C_17  and  O_11 
REMARK    6  A    between atoms: C_16  and  O_12 
ROOT
ATOM      1  C   UNL d   1       0.501  -1.386  -0.059  0.00  0.00     0.048 C 
ATOM      2  C   UNL d   1       0.946   1.136  -0.073  0.00  0.00     0.048 C 
ATOM      3  C   UNL d   1      -0.822  -1.099  -0.123  0.00  0.00     0.018 C 
ATOM      4  C   UNL d   1      -0.396   1.323  -0.122  0.00  0.00     0.018 C 
ATOM      5  C   UNL d   1       1.514  -0.261   0.161  0.00  0.00     0.064 C 
ATOM      6  N   UNL d   1      -1.234   0.223  -0.039  0.00  0.00    -0.362 N 
ATOM      7  C   UNL d   1      -1.944  -2.092  -0.294  0.00  0.00     0.069 C 
ATOM      8  C   UNL d   1      -1.110   2.640  -0.297  0.00  0.00     0.069 C 
ATOM      9  C   UNL d   1       2.045  -0.329   1.601  0.00  0.00     0.020 C 
ATOM     10  H   UNL d   1      -2.232   0.399  -0.136  0.00  0.00     0.165 HD
ENDROOT
BRANCH   1  11
ATOM     11  C   UNL d   1       1.039  -2.773  -0.112  0.00  0.00     0.291 C 
ATOM     12  O   UNL d   1       0.436  -3.774   0.249  0.00  0.00    -0.260 OA
BRANCH  11  13
ATOM     13  O   UNL d   1       2.337  -2.748  -0.511  0.00  0.00    -0.318 OA
BRANCH  13  14
ATOM     14  C   UNL d   1       3.091  -3.943  -0.254  0.00  0.00     0.174 C 
ATOM     15  C   UNL d   1       3.593  -3.906   1.179  0.00  0.00     0.034 C 
ENDBRANCH  13  14
ENDBRANCH  11  13
ENDBRANCH   1  11
BRANCH   2  16
ATOM     16  C   UNL d   1       1.921   2.245  -0.259  0.00  0.00     0.291 C 
ATOM     17  O   UNL d   1       1.742   3.410   0.051  0.00  0.00    -0.260 OA
BRANCH  16  18
ATOM     18  O   UNL d   1       3.015   1.758  -0.900  0.00  0.00    -0.318 OA
BRANCH  18  19
ATOM     19  C   UNL d   1       3.867   2.722  -1.532  0.00  0.00     0.174 C 
ATOM     20  C   UNL d   1       3.472   2.779  -2.995  0.00  0.00     0.034 C 
ENDBRANCH  18  19
ENDBRANCH  16  18
ENDBRANCH   2  16
TORSDOF 6
