REMARK  2 active torsions:
REMARK  status: ('A' for Active; 'I' for Inactive)
REMARK    1  A    between atoms: C_16  and  N_2 
REMARK    2  A    between atoms: C_18  and  N_5 
ROOT
ATOM      1  C   UNL d   1       2.680  -0.726  -0.016  0.00  0.00     0.139 A 
ATOM      2  N   UNL d   1       4.053  -0.374  -0.012  0.00  0.00    -0.248 N 
ATOM      3  C   UNL d   1       1.746   0.260  -0.068  0.00  0.00     0.105 A 
ATOM      4  C   UNL d   1       4.497   0.971   0.020  0.00  0.00     0.342 A 
ATOM      5  N   UNL d   1       3.522   1.957   0.025  0.00  0.00    -0.229 N 
ATOM      6  N   UNL d   1       2.227  -2.074   0.078  0.00  0.00    -0.302 N 
ATOM      7  C   UNL d   1       2.170   1.700  -0.095  0.00  0.00     0.272 A 
ATOM      8  C   UNL d   1      -0.120  -1.385  -0.086  0.00  0.00     0.061 A 
ATOM      9  C   UNL d   1       0.300  -0.076  -0.070  0.00  0.00     0.068 A 
ATOM     10  C   UNL d   1       0.880  -2.447  -0.063  0.00  0.00     0.261 C 
ATOM     11  N   UNL d   1      -0.612   0.927  -0.044  0.00  0.00    -0.354 N 
ATOM     12  HN  UNL d   1      -0.295   1.896  -0.031  1.00  0.00     0.166 HD
ATOM     13  C   UNL d   1      -1.483  -1.688  -0.079  0.00  0.00     0.033 A 
ATOM     14  C   UNL d   1      -2.420  -0.659  -0.049  0.00  0.00    -0.005 A 
ATOM     15  C   UNL d   1      -1.932   0.660  -0.036  0.00  0.00     0.043 A 
ATOM     16  O   UNL d   1       5.699   1.264  -0.038  0.00  0.00    -0.245 OA
ATOM     17  O   UNL d   1       1.340   2.605  -0.173  0.00  0.00    -0.266 OA
ATOM     18  O   UNL d   1       0.487  -3.611  -0.127  0.00  0.00    -0.267 OA
ATOM     19  C   UNL d   1      -3.802  -0.911  -0.028  0.00  0.00     0.056 A 
ATOM     20  C   UNL d   1       3.076  -3.221   0.373  0.00  0.00     0.161 C 
ATOM     21  C   UNL d   1      -2.854   1.701  -0.011  0.00  0.00     0.033 A 
ATOM     22  C   UNL d   1      -4.693   0.153   0.000  0.00  0.00     0.117 A 
ATOM     23  C   UNL d   1      -4.232   1.460   0.007  0.00  0.00     0.044 A 
ATOM     24  F   UNL d   1      -6.010  -0.088   0.024  0.00  0.00    -0.206 F 
ENDROOT
BRANCH   2  25
ATOM     25  C   UNL d   1       5.150  -1.286  -0.215  0.00  0.00     0.045 A 
ATOM     26  C   UNL d   1       6.188  -1.341   0.734  0.00  0.00     0.030 A 
ATOM     27  C   UNL d   1       7.333  -2.098   0.495  0.00  0.00     0.002 A 
ATOM     28  C   UNL d   1       7.451  -2.815  -0.692  0.00  0.00     0.000 A 
ATOM     29  C   UNL d   1       6.423  -2.780  -1.636  0.00  0.00     0.002 A 
ATOM     30  C   UNL d   1       5.276  -2.013  -1.405  0.00  0.00     0.030 A 
ENDBRANCH   2  25
BRANCH   5  31
ATOM     31  C   UNL d   1       3.976   3.324  -0.003  0.00  0.00     0.047 A 
ATOM     32  C   UNL d   1       3.552   4.206  -1.007  0.00  0.00     0.030 A 
ATOM     33  C   UNL d   1       4.059   5.507  -1.069  0.00  0.00     0.002 A 
ATOM     34  C   UNL d   1       4.972   5.949  -0.114  0.00  0.00     0.000 A 
ATOM     35  C   UNL d   1       5.386   5.089   0.900  0.00  0.00     0.002 A 
ATOM     36  C   UNL d   1       4.901   3.781   0.949  0.00  0.00     0.030 A 
ENDBRANCH   5  31
TORSDOF 2
