REMARK  1 active torsions:
REMARK  status: ('A' for Active; 'I' for Inactive)
REMARK    1  A    between atoms: C_4  and  C_2 
ROOT
ATOM      1  C   UNL d   1       1.867   0.482   0.064  0.00  0.00    -0.002 A 
ATOM      2  C   UNL d   1       3.157   0.788  -0.121  0.00  0.00     0.027 C 
ATOM      3  C   UNL d   1       0.816   1.540   0.206  0.00  0.00     0.189 A 
ATOM      4  C   UNL d   1      -0.440   0.847   0.513  0.00  0.00     0.021 A 
ATOM      5  C   UNL d   1      -0.215  -0.531   0.531  0.00  0.00    -0.040 A 
ATOM      6  C   UNL d   1       1.211  -0.867   0.218  0.00  0.00     0.082 A 
ATOM      7  O   UNL d   1       0.967   2.740   0.104  0.00  0.00    -0.287 OA
ATOM      8  C   UNL d   1      -1.680   1.401   0.774  0.00  0.00     0.016 A 
ATOM      9  C   UNL d   1      -1.253  -1.402   0.818  0.00  0.00     0.008 A 
ATOM     10  C   UNL d   1      -2.728   0.526   1.067  0.00  0.00     0.001 A 
ATOM     11  C   UNL d   1      -2.515  -0.864   1.089  0.00  0.00     0.001 A 
ENDROOT
BRANCH   2  12
ATOM     12  C   UNL d   1       4.215  -0.228  -0.197  0.00  0.00     0.025 A 
ATOM     13  C   UNL d   1       4.845  -0.641   0.984  0.00  0.00     0.128 A 
ATOM     14  F   UNL d   1       4.465  -0.129   2.165  0.00  0.00    -0.205 F 
ATOM     15  C   UNL d   1       5.867  -1.588   0.976  0.00  0.00     0.043 A 
ATOM     16  C   UNL d   1       6.279  -2.150  -0.229  0.00  0.00     0.005 A 
ATOM     17  C   UNL d   1       5.654  -1.768  -1.417  0.00  0.00     0.025 A 
ATOM     18  C   UNL d   1       4.627  -0.815  -1.403  0.00  0.00     0.047 A 
ATOM     19 CL   UNL d   1       3.891  -0.405  -2.913  0.00  0.00    -0.083 Cl
ENDBRANCH   2  12
TORSDOF 1
