REMARK  3 active torsions:
REMARK  status: ('A' for Active; 'I' for Inactive)
REMARK    1  A    between atoms: C_6  and  N_1 
REMARK    2  A    between atoms: C_13  and  C_6 
REMARK    3  A    between atoms: C_14  and  C_6 
ROOT
ATOM      1  N   UNL d   1      -2.328  -0.794  -0.119  0.00  0.00    -0.264 N 
ATOM      2  C   UNL d   1      -1.384  -1.010  -1.090  0.00  0.00     0.280 A 
ATOM      3  C   UNL d   1      -1.796  -0.114   0.950  0.00  0.00     0.280 A 
ATOM      4  C   UNL d   1      -0.147  -0.401  -0.612  0.00  0.00     0.134 A 
ATOM      5  C   UNL d   1      -0.391   0.135   0.623  0.00  0.00     0.134 A 
ATOM      6  N   UNL d   1       1.059  -0.409  -1.213  0.00  0.00    -0.358 N 
ATOM      7  HN  UNL d   1       1.229  -0.819  -2.132  1.00  0.00     0.165 HD
ATOM      8  N   UNL d   1       0.548   0.726   1.388  0.00  0.00    -0.358 N 
ATOM      9  HN  UNL d   1       0.359   1.122   2.309  1.00  0.00     0.165 HD
ATOM     10  O   UNL d   1      -1.473  -1.628  -2.135  0.00  0.00    -0.265 OA
ATOM     11  O   UNL d   1      -2.348   0.218   1.982  0.00  0.00    -0.265 OA
ATOM     12  C   UNL d   1       2.023   0.185  -0.465  0.00  0.00     0.105 A 
ATOM     13  C   UNL d   1       1.775   0.737   0.800  0.00  0.00     0.105 A 
ENDROOT
BRANCH   1  14
ATOM     14  C   UNL d   1      -3.712  -1.274  -0.147  0.00  0.00     0.162 C 
BRANCH  14  15
ATOM     15  C   UNL d   1      -4.476  -0.657  -1.325  0.00  0.00    -0.030 A 
ATOM     16  C   UNL d   1      -4.510  -1.286  -2.584  0.00  0.00     0.009 A 
ATOM     17  C   UNL d   1      -5.266  -0.761  -3.631  0.00  0.00     0.001 A 
ATOM     18  C   UNL d   1      -5.983   0.416  -3.446  0.00  0.00     0.000 A 
ATOM     19  C   UNL d   1      -5.933   1.075  -2.218  0.00  0.00     0.001 A 
ATOM     20  C   UNL d   1      -5.182   0.546  -1.163  0.00  0.00     0.009 A 
ENDBRANCH  14  15
BRANCH  14  21
ATOM     21  C   UNL d   1      -3.873  -2.801  -0.043  0.00  0.00    -0.030 A 
ATOM     22  C   UNL d   1      -2.793  -3.683   0.124  0.00  0.00     0.009 A 
ATOM     23  C   UNL d   1      -2.983  -5.066   0.078  0.00  0.00     0.001 A 
ATOM     24  C   UNL d   1      -4.257  -5.595  -0.106  0.00  0.00     0.000 A 
ATOM     25  C   UNL d   1      -5.351  -4.743  -0.202  0.00  0.00     0.001 A 
ATOM     26  C   UNL d   1      -5.164  -3.361  -0.151  0.00  0.00     0.009 A 
ENDBRANCH  14  21
ENDBRANCH   1  14
TORSDOF 3
