REMARK  6 active torsions:
REMARK  status: ('A' for Active; 'I' for Inactive)
REMARK    1  A    between atoms: N_6  and  C_1 
REMARK    2  A    between atoms: C_2  and  C_3 
REMARK       I    between atoms: C_9  and  N_7 
REMARK    3  A    between atoms: C_17  and  C_9 
REMARK    4  A    between atoms: C_10  and  S_27 
REMARK    5  A    between atoms: C_29  and  C_17 
REMARK    6  A    between atoms: S_27  and  C_29 
ROOT
ATOM      1  N   UNL d   1       0.778   2.174   0.005  0.00  0.00    -0.265 NA
ATOM      2  N   UNL d   1       2.251   4.611  -0.361  0.00  0.00    -0.350 N 
ATOM      3  C   UNL d   1       3.088   5.709  -0.529  0.00  0.00     0.220 C 
ATOM      4  C   UNL d   1       1.483   2.392  -1.274  0.00  0.00     0.117 C 
ATOM      5  C   UNL d   1       0.208   3.433   0.517  0.00  0.00     0.117 C 
ATOM      6  C   UNL d   1       2.652   3.367  -1.041  0.00  0.00     0.140 C 
ATOM      7  C   UNL d   1       1.361   4.422   0.801  0.00  0.00     0.140 C 
ATOM      8  O   UNL d   1       4.008   5.710  -1.350  0.00  0.00    -0.273 OA
ENDROOT
BRANCH   3   9
ATOM      9  C   UNL d   1       2.820   6.960   0.281  0.00  0.00     0.113 C 
BRANCH   9  10
ATOM     10  C   UNL d   1       1.701   7.766  -0.364  0.00  0.00     0.089 C 
BRANCH  10  11
ATOM     11  S   UNL d   1       1.323   9.219   0.679  0.00  0.00    -0.128 SA
BRANCH  11  12
ATOM     12  C   UNL d   1       0.052  10.018  -0.320  0.00  0.00     0.012 A 
ATOM     13  C   UNL d   1      -1.250   9.471  -0.415  0.00  0.00    -0.044 A 
ATOM     14  C   UNL d   1      -2.233  10.151  -1.158  0.00  0.00     0.014 A 
ATOM     15  C   UNL d   1      -1.664   8.165   0.213  0.00  0.00     0.049 C 
ATOM     16  C   UNL d   1      -1.973  11.381  -1.763  0.00  0.00    -0.061 A 
ATOM     17  C   UNL d   1      -0.691  11.922  -1.654  0.00  0.00     0.014 A 
ATOM     18  C   UNL d   1      -3.060  12.098  -2.507  0.00  0.00     0.048 C 
ATOM     19  C   UNL d   1       0.330  11.255  -0.951  0.00  0.00    -0.044 A 
ATOM     20  C   UNL d   1       1.657  11.966  -0.850  0.00  0.00     0.049 C 
ENDBRANCH  11  12
ENDBRANCH  10  11
ENDBRANCH   9  10
ENDBRANCH   3   9
BRANCH   1  21
ATOM     21  C   UNL d   1      -0.075   1.064   0.029  0.00  0.00     0.104 A 
ATOM     22  N   UNL d   1      -0.468   0.533  -1.159  0.00  0.00    -0.354 N 
ATOM     23  C   UNL d   1      -1.186  -0.619  -1.161  0.00  0.00     0.105 A 
ATOM     24  HN  UNL d   1      -0.227   0.993  -2.037  1.00  0.00     0.166 HD
ATOM     25  C   UNL d   1      -1.560  -1.300  -0.014  0.00  0.00     0.065 A 
ATOM     26  C   UNL d   1      -1.185  -0.743   1.208  0.00  0.00     0.044 A 
ATOM     27  C   UNL d   1      -0.434   0.436   1.236  0.00  0.00     0.073 A 
ATOM     28 CL   UNL d   1       0.107   0.982   2.788  0.00  0.00    -0.081 Cl
BRANCH  25  29
ATOM     29  C   UNL d   1      -2.294  -2.599  -0.120  0.00  0.00     0.418 C 
ATOM     30  F   UNL d   1      -2.611  -3.139   1.088  0.00  0.00    -0.166 F 
ATOM     31  F   UNL d   1      -3.468  -2.483  -0.798  0.00  0.00    -0.166 F 
ATOM     32  F   UNL d   1      -1.573  -3.549  -0.776  0.00  0.00    -0.166 F 
ENDBRANCH  25  29
ENDBRANCH   1  21
TORSDOF 6
