REMARK  10 active torsions:
REMARK  status: ('A' for Active; 'I' for Inactive)
REMARK    1  A    between atoms: C_2  and  N_1 
REMARK    2  A    between atoms: C_5  and  O_13 
REMARK    3  A    between atoms: C_6  and  O_12 
REMARK    4  A    between atoms: C_7  and  O_14 
REMARK    5  A    between atoms: C_11  and  C_21 
REMARK    6  A    between atoms: C_17  and  O_12 
REMARK    7  A    between atoms: C_18  and  O_13 
REMARK    8  A    between atoms: C_19  and  O_14 
REMARK    9  A    between atoms: C_20  and  O_22 
REMARK   10  A    between atoms: O_22  and  C_21 
ROOT
ATOM      1  C   UNL d   1       3.348  -0.075  -0.393  0.00  0.00     0.184 C 
ATOM      2  C   UNL d   1       3.924   0.368   0.981  0.00  0.00     0.192 C 
ATOM      3  C   UNL d   1       3.928   0.754  -1.563  0.00  0.00     0.295 C 
ATOM      4  C   UNL d   1       5.435   0.690   0.949  0.00  0.00     0.194 C 
ATOM      5  O   UNL d   1       5.354   0.809  -1.470  0.00  0.00    -0.348 OA
ATOM      6  C   UNL d   1       5.810   1.504  -0.299  0.00  0.00     0.181 C 
ENDROOT
BRANCH   1   7
ATOM      7  N   UNL d   1       1.874  -0.068  -0.376  0.00  0.00    -0.268 N 
ATOM      8  C   UNL d   1       1.114   1.065  -0.264  0.00  0.00     0.262 A 
ATOM      9  C   UNL d   1      -0.279   0.635  -0.189  0.00  0.00     0.048 A 
ATOM     10  O   UNL d   1       1.482   2.219  -0.185  0.00  0.00    -0.267 OA
ATOM     11  C   UNL d   1      -1.440   1.375  -0.074  0.00  0.00     0.018 A 
ATOM     12  C   UNL d   1      -0.288  -0.748  -0.212  0.00  0.00     0.048 A 
ATOM     13  C   UNL d   1      -2.642   0.665   0.011  0.00  0.00     0.001 A 
ATOM     14  C   UNL d   1      -2.654  -0.745  -0.019  0.00  0.00     0.001 A 
ATOM     15  C   UNL d   1      -1.462  -1.470  -0.133  0.00  0.00     0.018 A 
ATOM     16  C   UNL d   1       1.102  -1.194  -0.293  0.00  0.00     0.262 A 
ATOM     17  O   UNL d   1       1.444  -2.360  -0.244  0.00  0.00    -0.267 OA
ENDBRANCH   1   7
BRANCH   2  18
ATOM     18  O   UNL d   1       3.598  -0.608   2.022  0.00  0.00    -0.311 OA
BRANCH  18  19
ATOM     19  C   UNL d   1       4.101  -1.869   1.919  0.00  0.00     0.255 C 
ATOM     20  O   UNL d   1       4.891  -2.245   1.065  0.00  0.00    -0.266 OA
ATOM     21  C   UNL d   1       3.603  -2.742   3.026  0.00  0.00     0.126 C 
ENDBRANCH  18  19
ENDBRANCH   2  18
BRANCH   3  22
ATOM     22  O   UNL d   1       3.618   0.047  -2.783  0.00  0.00    -0.288 OA
BRANCH  22  23
ATOM     23  C   UNL d   1       2.847   0.687  -3.692  0.00  0.00     0.257 C 
ATOM     24  O   UNL d   1       2.356   1.798  -3.557  0.00  0.00    -0.266 OA
ATOM     25  C   UNL d   1       2.616  -0.174  -4.899  0.00  0.00     0.126 C 
ENDBRANCH  22  23
ENDBRANCH   3  22
BRANCH   4  26
ATOM     26  O   UNL d   1       5.943   1.261   2.186  0.00  0.00    -0.311 OA
BRANCH  26  27
ATOM     27  C   UNL d   1       5.548   2.502   2.576  0.00  0.00     0.255 C 
ATOM     28  O   UNL d   1       4.702   3.175   2.011  0.00  0.00    -0.266 OA
ATOM     29  C   UNL d   1       6.359   2.953   3.759  0.00  0.00     0.126 C 
ENDBRANCH  26  27
ENDBRANCH   4  26
BRANCH   6  30
ATOM     30  C   UNL d   1       7.338   1.637  -0.407  0.00  0.00     0.213 C 
BRANCH  30  31
ATOM     31  O   UNL d   1       7.707   2.396  -1.573  0.00  0.00    -0.319 OA
BRANCH  31  32
ATOM     32  C   UNL d   1       7.602   3.743  -1.447  0.00  0.00     0.254 C 
ATOM     33  O   UNL d   1       7.275   4.331  -0.426  0.00  0.00    -0.266 OA
ATOM     34  C   UNL d   1       7.950   4.423  -2.735  0.00  0.00     0.126 C 
ENDBRANCH  31  32
ENDBRANCH  30  31
ENDBRANCH   6  30
TORSDOF 10
