REMARK  6 active torsions:
REMARK  status: ('A' for Active; 'I' for Inactive)
REMARK    1  A    between atoms: S_2  and  C_1 
REMARK    2  A    between atoms: N_4  and  S_2 
REMARK    3  A    between atoms: C_10  and  C_3 
REMARK       I    between atoms: C_7  and  N_6 
REMARK    4  A    between atoms: O_19  and  C_7 
REMARK    5  A    between atoms: O_20  and  C_10 
REMARK    6  A    between atoms: C_22  and  O_19 
ROOT
ATOM      1  S   UNL d   1      -3.018  -1.513  -0.116  0.00  0.00     0.246 S 
ATOM      2  O   UNL d   1      -2.199  -2.683   0.100  0.00  0.00    -0.206 OA
ATOM      3  O   UNL d   1      -2.474  -0.314  -0.716  0.00  0.00    -0.206 OA
ENDROOT
BRANCH   1   4
ATOM      4  C   UNL d   1      -4.193  -2.062  -1.244  0.00  0.00     0.115 A 
ATOM      5  C   UNL d   1      -5.030  -3.220  -1.171  0.00  0.00     0.093 A 
ATOM      6  C   UNL d   1      -5.658  -3.276  -2.412  0.00  0.00     0.066 A 
ATOM      7  C   UNL d   1      -6.575  -4.235  -3.071  0.00  0.00     0.078 C 
ATOM      8  O   UNL d   1      -5.301  -2.210  -3.181  0.00  0.00    -0.325 OA
ATOM      9  C   UNL d   1      -4.410  -1.481  -2.470  0.00  0.00     0.168 A 
BRANCH   5  10
ATOM     10  C   UNL d   1      -5.220  -4.200  -0.111  0.00  0.00     0.297 C 
ATOM     11  O   UNL d   1      -5.866  -5.232  -0.258  0.00  0.00    -0.259 OA
BRANCH  10  12
ATOM     12  O   UNL d   1      -4.656  -3.839   1.071  0.00  0.00    -0.322 OA
ATOM     13  C   UNL d   1      -4.853  -4.774   2.133  0.00  0.00     0.213 C 
ENDBRANCH  10  12
ENDBRANCH   5  10
ENDBRANCH   1   4
BRANCH   1  14
ATOM     14  N   UNL d   1      -3.794  -1.083   1.327  0.00  0.00    -0.203 NA
ATOM     15  C   UNL d   1      -4.301   0.320   1.427  0.00  0.00     0.127 C 
ATOM     16  C   UNL d   1      -3.194   1.311   1.844  0.00  0.00     0.143 C 
ATOM     17  N   UNL d   1      -2.412   0.827   2.988  0.00  0.00    -0.326 N 
ATOM     18  C   UNL d   1      -1.945  -0.554   2.914  0.00  0.00     0.143 C 
ATOM     19  C   UNL d   1      -1.958   1.634   4.009  0.00  0.00     0.362 C 
ATOM     20  C   UNL d   1      -3.099  -1.499   2.582  0.00  0.00     0.127 C 
ATOM     21  O   UNL d   1      -1.236   1.240   4.917  0.00  0.00    -0.238 OA
BRANCH  19  22
ATOM     22  O   UNL d   1      -2.463   2.894   3.936  0.00  0.00    -0.304 OA
BRANCH  22  23
ATOM     23  C   UNL d   1      -2.304   3.686   5.120  0.00  0.00     0.176 C 
ATOM     24  C   UNL d   1      -3.435   3.356   6.080  0.00  0.00     0.034 C 
ENDBRANCH  22  23
ENDBRANCH  19  22
ENDBRANCH   1  14
TORSDOF 6
