REMARK  2 active torsions:
REMARK  status: ('A' for Active; 'I' for Inactive)
REMARK    1  A    between atoms: C_10  and  C_2 
REMARK    2  A    between atoms: C_9  and  C_6 
ROOT
ATOM      1  C   UNL d   1      -0.469  -0.380   0.022  0.00  0.00     0.123 A 
ATOM      2  C   UNL d   1       0.286  -1.506  -0.009  0.00  0.00     0.003 A 
ATOM      3  C   UNL d   1       0.219   0.948   0.049  0.00  0.00     0.267 A 
ATOM      4  N   UNL d   1       1.593   0.932   0.070  0.00  0.00    -0.322 N 
ATOM      5  C   UNL d   1       1.743  -1.403   0.013  0.00  0.00     0.044 A 
ATOM      6  C   UNL d   1       2.348  -0.208   0.056  0.00  0.00     0.046 A 
ATOM      7  C   UNL d   1      -1.892  -0.383   0.031  0.00  0.00     0.106 C 
ATOM      8  N   UNL d   1      -3.053  -0.417   0.043  0.00  0.00    -0.191 NA
ATOM      9  O   UNL d   1      -0.395   2.010   0.051  0.00  0.00    -0.266 OA
ATOM     10  H   UNL d   1       2.048   1.838   0.091  0.00  0.00     0.169 HD
ENDROOT
BRANCH   2  11
ATOM     11  C   UNL d   1      -0.347  -2.841  -0.069  0.00  0.00    -0.024 A 
ATOM     12  C   UNL d   1      -0.647  -3.419  -1.310  0.00  0.00     0.012 A 
ATOM     13  C   UNL d   1      -1.195  -4.701  -1.373  0.00  0.00     0.001 A 
ATOM     14  C   UNL d   1      -1.438  -5.414  -0.200  0.00  0.00     0.000 A 
ATOM     15  C   UNL d   1      -1.143  -4.845   1.038  0.00  0.00     0.001 A 
ATOM     16  C   UNL d   1      -0.599  -3.560   1.106  0.00  0.00     0.012 A 
ENDBRANCH   2  11
BRANCH   6  17
ATOM     17  C   UNL d   1       3.807  -0.080   0.088  0.00  0.00    -0.009 A 
ATOM     18  C   UNL d   1       4.534   0.016  -1.107  0.00  0.00     0.017 A 
ATOM     19  C   UNL d   1       5.925   0.137  -1.074  0.00  0.00     0.043 A 
ATOM     20  C   UNL d   1       6.582   0.161   0.151  0.00  0.00     0.116 A 
ATOM     21  C   UNL d   1       5.877   0.067   1.345  0.00  0.00     0.043 A 
ATOM     22  F   UNL d   1       7.917   0.277   0.180  0.00  0.00    -0.206 F 
ATOM     23  C   UNL d   1       4.486  -0.054   1.315  0.00  0.00     0.017 A 
ENDBRANCH   6  17
TORSDOF 2
