REMARK  3 active torsions:
REMARK  status: ('A' for Active; 'I' for Inactive)
REMARK    1  A    between atoms: N_2  and  C_10 
REMARK    2  A    between atoms: C_7  and  C_5 
REMARK    3  A    between atoms: C_13  and  C_7 
ROOT
ATOM      1  C   UNL d   1      -2.313   0.539  -0.295  0.00  0.00     0.113 C 
ATOM      2  C   UNL d   1      -2.282  -0.842   0.303  0.00  0.00     0.315 C 
ATOM      3  N   UNL d   1      -1.193   1.334  -0.082  0.00  0.00    -0.349 N 
ATOM      4  C   UNL d   1      -3.375   0.950  -1.012  0.00  0.00     0.091 C 
ATOM      5  O   UNL d   1      -1.035  -1.464   0.243  0.00  0.00    -0.272 OA
ATOM      6  C   UNL d   1       0.060   0.701  -0.046  0.00  0.00     0.067 A 
ATOM      7  C   UNL d   1       0.134  -0.690   0.080  0.00  0.00     0.106 A 
ATOM      8  O   UNL d   1      -3.243  -1.354   0.868  0.00  0.00    -0.257 OA
ATOM      9  C   UNL d   1       1.249   1.432  -0.063  0.00  0.00     0.032 A 
ATOM     10  C   UNL d   1       1.352  -1.363   0.098  0.00  0.00     0.040 A 
ATOM     11  C   UNL d   1       2.532  -0.625   0.035  0.00  0.00     0.003 A 
ATOM     12  C   UNL d   1       2.481   0.770  -0.029  0.00  0.00     0.002 A 
ATOM     13  H   UNL d   1      -1.188   2.236  -0.544  0.00  0.00     0.166 HD
ENDROOT
BRANCH   4  14
ATOM     14  C   UNL d   1      -4.478   0.071  -1.493  0.00  0.00     0.184 C 
ATOM     15  O   UNL d   1      -4.322  -1.132  -1.661  0.00  0.00    -0.288 OA
BRANCH  14  16
ATOM     16  C   UNL d   1      -5.715   0.733  -1.996  0.00  0.00     0.014 A 
ATOM     17  C   UNL d   1      -6.450   0.074  -2.994  0.00  0.00     0.018 A 
ATOM     18  C   UNL d   1      -7.555   0.690  -3.589  0.00  0.00     0.037 A 
ATOM     19  C   UNL d   1      -7.933   1.972  -3.171  0.00  0.00     0.102 A 
ATOM     20  C   UNL d   1      -7.239   2.618  -2.137  0.00  0.00     0.037 A 
ATOM     21  C   UNL d   1      -6.134   1.994  -1.546  0.00  0.00     0.018 A 
BRANCH  19  22
ATOM     22  N   UNL d   1      -9.050   2.654  -3.837  0.00  0.00    -0.116 N 
ATOM     23  O   UNL d   1      -9.620   2.060  -4.762  0.00  0.00    -0.532 OA
ATOM     24  O   UNL d   1      -9.343   3.793  -3.444  0.00  0.00    -0.532 OA
ENDBRANCH  19  22
ENDBRANCH  14  16
ENDBRANCH   4  14
TORSDOF 3
