REMARK  9 active torsions:
REMARK  status: ('A' for Active; 'I' for Inactive)
REMARK    1  A    between atoms: N_2  and  C_1 
REMARK    2  A    between atoms: N_3  and  C_1 
REMARK    3  A    between atoms: C_7  and  N_2 
REMARK    4  A    between atoms: C_10  and  N_2 
REMARK    5  A    between atoms: C_9  and  N_3 
REMARK    6  A    between atoms: C_4  and  C_6 
REMARK    7  A    between atoms: O_13  and  C_4 
REMARK    8  A    between atoms: C_14  and  C_7 
REMARK    9  A    between atoms: C_19  and  O_13 
ROOT
ATOM      1  C   UNL d   1       0.806  -0.589  -0.610  0.00  0.00     0.175 C 
ATOM      2  S   UNL d   1       2.150   0.436  -0.558  0.00  0.00    -0.041 SA
ENDROOT
BRANCH   1   3
ATOM      3  N   UNL d   1       0.421  -1.461   0.381  0.00  0.00    -0.350 N 
BRANCH   3   4
ATOM      4  C   UNL d   1      -0.886  -1.216   1.025  0.00  0.00     0.164 C 
BRANCH   4   5
ATOM      5  C   UNL d   1      -0.859  -0.195   2.144  0.00  0.00    -0.040 A 
ATOM      6  C   UNL d   1      -1.079   1.159   1.852  0.00  0.00     0.009 A 
ATOM      7  C   UNL d   1      -1.083   2.113   2.869  0.00  0.00     0.001 A 
ATOM      8  C   UNL d   1      -0.852   1.728   4.187  0.00  0.00     0.000 A 
ATOM      9  C   UNL d   1      -0.628   0.387   4.492  0.00  0.00     0.001 A 
ATOM     10  C   UNL d   1      -0.643  -0.572   3.478  0.00  0.00     0.009 A 
ENDBRANCH   4   5
ENDBRANCH   3   4
BRANCH   3  11
ATOM     11  C   UNL d   1       1.356  -2.317   1.202  0.00  0.00     0.079 C 
ATOM     12  C   UNL d   1       0.989  -3.799   1.037  0.00  0.00     0.032 C 
ATOM     13  C   UNL d   1       2.875  -2.203   1.008  0.00  0.00     0.032 C 
ENDBRANCH   3  11
ENDBRANCH   1   3
BRANCH   1  14
ATOM     14  N   UNL d   1       0.082  -0.376  -1.736  0.00  0.00    -0.333 N 
ATOM     15  H   UNL d   1       0.564   0.353  -2.255  0.00  0.00     0.168 HD
BRANCH  14  16
ATOM     16  C   UNL d   1      -1.077  -0.813  -2.406  0.00  0.00     0.034 A 
ATOM     17  C   UNL d   1      -1.952  -1.824  -2.018  0.00  0.00     0.030 A 
ATOM     18  C   UNL d   1      -3.170  -2.014  -2.705  0.00  0.00     0.020 A 
ATOM     19  C   UNL d   1      -3.489  -1.234  -3.830  0.00  0.00     0.039 A 
ATOM     20  C   UNL d   1      -2.558  -0.309  -4.292  0.00  0.00     0.020 A 
ATOM     21  C   UNL d   1      -1.375  -0.099  -3.583  0.00  0.00     0.030 A 
BRANCH  19  22
ATOM     22  C   UNL d   1      -4.806  -1.285  -4.535  0.00  0.00     0.293 C 
ATOM     23  O   UNL d   1      -4.984  -0.840  -5.654  0.00  0.00    -0.259 OA
BRANCH  22  24
ATOM     24  O   UNL d   1      -5.761  -1.746  -3.691  0.00  0.00    -0.318 OA
BRANCH  24  25
ATOM     25  C   UNL d   1      -7.119  -1.475  -4.090  0.00  0.00     0.174 C 
ATOM     26  C   UNL d   1      -7.675  -2.578  -4.970  0.00  0.00     0.034 C 
ENDBRANCH  24  25
ENDBRANCH  22  24
ENDBRANCH  19  22
ENDBRANCH  14  16
ENDBRANCH   1  14
TORSDOF 9
