REMARK  3 active torsions:
REMARK  status: ('A' for Active; 'I' for Inactive)
REMARK    1  A    between atoms: N_12  and  C_3 
REMARK    2  A    between atoms: C_10  and  N_11 
REMARK    3  A    between atoms: N_11  and  N_12 
ROOT
ATOM      1  C   UNL d   1       1.665   1.097   0.376  0.00  0.00     0.111 A 
ATOM      2  C   UNL d   1       0.311   1.512   0.422  0.00  0.00     0.074 A 
ATOM      3  C   UNL d   1       2.743   1.964   0.010  0.00  0.00     0.105 C 
ATOM      4  N   UNL d   1       3.606   2.664  -0.334  0.00  0.00    -0.191 NA
ATOM      5  C   UNL d   1       2.009  -0.238   0.646  0.00  0.00     0.139 A 
ATOM      6  F   UNL d   1       3.290  -0.633   0.579  0.00  0.00    -0.204 F 
ATOM      7  C   UNL d   1      -0.633   0.517   0.781  0.00  0.00     0.033 A 
ATOM      8  C   UNL d   1      -0.275  -0.811   1.043  0.00  0.00     0.005 A 
ATOM      9  C   UNL d   1       1.054  -1.191   0.972  0.00  0.00     0.044 A 
ENDROOT
BRANCH   2  10
ATOM     10  N   UNL d   1      -0.127   2.844   0.152  0.00  0.00    -0.295 N 
ATOM     11  C   UNL d   1      -1.540   3.019  -0.236  0.00  0.00     0.178 C 
BRANCH  10  12
ATOM     12  N   UNL d   1       0.718   3.877  -0.168  0.00  0.00    -0.307 N 
ATOM     13  H   UNL d   1       1.185   3.798  -1.080  0.00  0.00     0.186 HD
BRANCH  12  14
ATOM     14  C   UNL d   1       0.691   5.168   0.328  0.00  0.00     0.141 C 
ATOM     15  C   UNL d   1       0.143   5.697   1.438  0.00  0.00     0.141 C 
ATOM     16  C   UNL d   1      -0.508   4.900   2.417  0.00  0.00     0.112 C 
ATOM     17  C   UNL d   1       0.174   7.106   1.622  0.00  0.00     0.112 C 
ATOM     18  N   UNL d   1      -1.062   4.278   3.229  0.00  0.00    -0.191 NA
ATOM     19  N   UNL d   1       0.174   8.262   1.731  0.00  0.00    -0.191 NA
ENDBRANCH  12  14
ENDBRANCH  10  12
ENDBRANCH   2  10
TORSDOF 3
