REMARK  5 active torsions:
REMARK  status: ('A' for Active; 'I' for Inactive)
REMARK    1  A    between atoms: C_2  and  N_1 
REMARK    2  A    between atoms: C_8  and  C_3 
REMARK    3  A    between atoms: O_16  and  C_8 
REMARK    4  A    between atoms: O_17  and  C_11 
REMARK    5  A    between atoms: O_18  and  C_12 
ROOT
ATOM      1  C   UNL d   1       0.027   2.306   0.066  0.00  0.00     0.065 A 
ATOM      2  C   UNL d   1      -0.738   3.003   1.014  0.00  0.00     0.069 A 
ATOM      3  C   UNL d   1       0.832   3.041  -0.818  0.00  0.00     0.071 A 
ATOM      4  C   UNL d   1      -0.695   4.411   1.052  0.00  0.00     0.059 A 
ATOM      5  C   UNL d   1       0.860   4.445  -0.790  0.00  0.00     0.103 A 
ATOM      6  C   UNL d   1       0.087   5.143   0.149  0.00  0.00     0.102 A 
ENDROOT
BRANCH   1   7
ATOM      7  N   UNL d   1       0.004   0.899  -0.050  0.00  0.00    -0.244 N 
ATOM      8  C   UNL d   1       1.104   0.102  -0.159  0.00  0.00     0.255 A 
ATOM      9  C   UNL d   1       0.624  -1.285  -0.217  0.00  0.00     0.080 A 
ATOM     10  O   UNL d   1       2.289   0.390  -0.177  0.00  0.00    -0.268 OA
ATOM     11  C   UNL d   1      -0.708  -1.260  -0.203  0.00  0.00     0.080 A 
ATOM     12  C   UNL d   1      -1.131   0.145  -0.127  0.00  0.00     0.255 A 
ATOM     13  O   UNL d   1      -2.296   0.494  -0.217  0.00  0.00    -0.268 OA
ENDBRANCH   1   7
BRANCH   2  14
ATOM     14  C   UNL d   1      -1.456   2.284   2.104  0.00  0.00     0.295 C 
ATOM     15  O   UNL d   1      -1.096   1.210   2.559  0.00  0.00    -0.259 OA
BRANCH  14  16
ATOM     16  O   UNL d   1      -2.528   3.009   2.511  0.00  0.00    -0.322 OA
ATOM     17  C   UNL d   1      -3.281   2.403   3.565  0.00  0.00     0.213 C 
ENDBRANCH  14  16
ENDBRANCH   2  14
BRANCH   5  18
ATOM     18  O   UNL d   1       1.645   4.976  -1.782  0.00  0.00    -0.353 OA
ATOM     19  C   UNL d   1       2.269   6.226  -1.518  0.00  0.00     0.210 C 
ENDBRANCH   5  18
BRANCH   6  20
ATOM     20  O   UNL d   1       0.121   6.511   0.123  0.00  0.00    -0.353 OA
ATOM     21  C   UNL d   1      -0.580   7.222   1.137  0.00  0.00     0.210 C 
ENDBRANCH   6  20
TORSDOF 5
