REMARK  5 active torsions:
REMARK  status: ('A' for Active; 'I' for Inactive)
REMARK    1  A    between atoms: C_4  and  C_1 
REMARK    2  A    between atoms: N_6  and  C_2 
REMARK       I    between atoms: C_3  and  N_7 
REMARK    3  A    between atoms: C_5  and  C_3 
REMARK    4  A    between atoms: O_19  and  C_4 
REMARK    5  A    between atoms: N_7  and  C_11 
ROOT
ATOM      1  C   UNL d   1       1.473  -0.246   0.088  0.00  0.00     0.068 A 
ATOM      2  C   UNL d   1       0.688  -1.403  -0.136  0.00  0.00     0.046 A 
ATOM      3  C   UNL d   1       0.875   1.036   0.116  0.00  0.00     0.049 A 
ATOM      4  C   UNL d   1      -0.685  -1.194  -0.369  0.00  0.00     0.032 A 
ATOM      5  C   UNL d   1      -0.492   1.205  -0.072  0.00  0.00     0.036 A 
ATOM      6  C   UNL d   1      -1.268   0.080  -0.331  0.00  0.00     0.032 A 
ENDROOT
BRANCH   5   7
ATOM      7  N   UNL d   1      -1.146   2.448   0.047  0.00  0.00    -0.322 N 
ATOM      8  C   UNL d   1      -0.562   3.693   0.217  0.00  0.00     0.263 C 
ATOM      9  O   UNL d   1       0.628   3.924   0.016  0.00  0.00    -0.267 OA
ATOM     10  H   UNL d   1      -2.160   2.430   0.075  0.00  0.00     0.169 HD
BRANCH   8  11
ATOM     11  C   UNL d   1      -1.463   4.751   0.669  0.00  0.00     0.072 A 
ATOM     12  S   UNL d   1      -3.115   4.473   1.035  0.00  0.00    -0.097 SA
ATOM     13  C   UNL d   1      -3.337   6.082   1.571  0.00  0.00     0.050 A 
ATOM     14  C   UNL d   1      -2.191   6.832   1.445  0.00  0.00     0.009 A 
ATOM     15  C   UNL d   1      -1.115   6.068   0.912  0.00  0.00     0.025 A 
ENDBRANCH   8  11
ENDBRANCH   5   7
BRANCH   1  16
ATOM     16  C   UNL d   1       2.966  -0.299   0.208  0.00  0.00     0.295 C 
ATOM     17  O   UNL d   1       3.698  -1.126  -0.309  0.00  0.00    -0.259 OA
BRANCH  16  18
ATOM     18  O   UNL d   1       3.387   0.720   1.005  0.00  0.00    -0.322 OA
ATOM     19  C   UNL d   1       4.804   0.864   1.115  0.00  0.00     0.213 C 
ENDBRANCH  16  18
ENDBRANCH   1  16
BRANCH   2  20
ATOM     20  N   UNL d   1       1.217  -2.689  -0.153  0.00  0.00    -0.376 N 
ATOM     21  C   UNL d   1       0.578  -3.774  -0.916  0.00  0.00     0.149 C 
ATOM     22  C   UNL d   1       1.640  -4.838  -1.243  0.00  0.00     0.187 C 
ATOM     23  O   UNL d   1       2.255  -5.351  -0.047  0.00  0.00    -0.388 OA
ATOM     24  C   UNL d   1       2.893  -4.280   0.677  0.00  0.00     0.187 C 
ATOM     25  C   UNL d   1       1.879  -3.192   1.071  0.00  0.00     0.149 C 
ENDBRANCH   2  20
TORSDOF 5
