REMARK  4 active torsions:
REMARK  status: ('A' for Active; 'I' for Inactive)
REMARK    1  A    between atoms: C_9  and  N_1 
REMARK    2  A    between atoms: C_15  and  C_9 
REMARK    3  A    between atoms: S_10  and  C_15 
REMARK    4  A    between atoms: C_11  and  S_10 
ROOT
ATOM      1  N   UNL d   1       2.405  -0.555   0.024  0.00  0.00    -0.265 N 
ATOM      2  C   UNL d   1       1.727  -0.146  -1.112  0.00  0.00     0.329 A 
ATOM      3  C   UNL d   1       1.969  -0.302   1.323  0.00  0.00     0.264 A 
ATOM      4  C   UNL d   1       0.617   0.270   1.472  0.00  0.00     0.059 A 
ATOM      5  N   UNL d   1       0.499   0.424  -0.925  0.00  0.00    -0.307 N 
ATOM      6  C   UNL d   1      -0.087   0.614   0.324  0.00  0.00     0.052 A 
ATOM      7  O   UNL d   1       2.166  -0.265  -2.255  0.00  0.00    -0.246 OA
ATOM      8  O   UNL d   1       2.644  -0.526   2.327  0.00  0.00    -0.267 OA
ATOM      9  C   UNL d   1       0.042   0.453   2.733  0.00  0.00     0.019 A 
ATOM     10  C   UNL d   1      -1.374   1.145   0.422  0.00  0.00     0.030 A 
ATOM     11  C   UNL d   1      -1.248   0.975   2.835  0.00  0.00     0.001 A 
ATOM     12  C   UNL d   1      -1.955   1.319   1.681  0.00  0.00     0.002 A 
ATOM     13  H   UNL d   1       0.008   0.689  -1.770  0.00  0.00     0.170 HD
ENDROOT
BRANCH   1  14
ATOM     14  C   UNL d   1       3.687  -1.241  -0.143  0.00  0.00     0.148 C 
BRANCH  14  15
ATOM     15  C   UNL d   1       4.878  -0.278  -0.160  0.00  0.00     0.100 C 
BRANCH  15  16
ATOM     16  S   UNL d   1       6.438  -1.232  -0.281  0.00  0.00    -0.128 SA
BRANCH  16  17
ATOM     17  C   UNL d   1       7.621   0.097  -0.396  0.00  0.00     0.000 A 
ATOM     18  C   UNL d   1       7.782   1.025   0.638  0.00  0.00     0.020 A 
ATOM     19  C   UNL d   1       8.726   2.051   0.525  0.00  0.00     0.025 A 
ATOM     20  C   UNL d   1       9.517   2.143  -0.619  0.00  0.00     0.034 A 
ATOM     21  C   UNL d   1       9.382   1.210  -1.644  0.00  0.00     0.025 A 
ATOM     22 CL   UNL d   1      10.668   3.413  -0.764  0.00  0.00    -0.084 Cl
ATOM     23  C   UNL d   1       8.439   0.184  -1.529  0.00  0.00     0.020 A 
ENDBRANCH  16  17
ENDBRANCH  15  16
ENDBRANCH  14  15
ENDBRANCH   1  14
TORSDOF 4
