REMARK  4 active torsions:
REMARK  status: ('A' for Active; 'I' for Inactive)
REMARK    1  A    between atoms: C_3  and  C_1 
REMARK       I    between atoms: N_4  and  C_1 
REMARK    2  A    between atoms: C_2  and  N_4 
REMARK    3  A    between atoms: C_14  and  C_10 
REMARK    4  A    between atoms: O_19  and  C_14 
ROOT
ATOM      1  C   UNL d   1      -0.113  -1.089  -1.141  0.00  0.00     0.101 C 
ATOM      2  C   UNL d   1       0.425  -1.647  -2.474  0.00  0.00     0.022 C 
ATOM      3  C   UNL d   1       0.168  -3.498  -1.237  0.00  0.00     0.023 C 
ATOM      4  C   UNL d   1      -0.207  -2.375  -0.244  0.00  0.00     0.105 C 
ATOM      5  C   UNL d   1       1.647  -3.346  -1.534  0.00  0.00    -0.025 C 
ATOM      6  C   UNL d   1       1.798  -2.241  -2.278  0.00  0.00    -0.025 C 
ATOM      7  C   UNL d   1      -0.380  -2.954  -2.559  0.00  0.00     0.018 C 
ENDROOT
BRANCH   1   8
ATOM      8  C   UNL d   1       0.675  -0.057  -0.363  0.00  0.00     0.229 C 
ATOM      9  N   UNL d   1       1.552   0.716  -1.073  0.00  0.00    -0.311 N 
ATOM     10  H   UNL d   1       1.576   0.706  -2.083  0.00  0.00     0.170 HD
ATOM     11  O   UNL d   1       0.413   0.077   0.837  0.00  0.00    -0.273 OA
BRANCH   9  12
ATOM     12  C   UNL d   1       2.448   1.592  -0.496  0.00  0.00     0.130 A 
ATOM     13  N   UNL d   1       3.183   2.403  -1.262  0.00  0.00    -0.245 N 
ATOM     14  O   UNL d   1       3.945   3.165  -0.390  0.00  0.00    -0.241 OA
ATOM     15  HN  UNL d   1       3.184   2.452  -2.281  1.00  0.00     0.196 HD
ATOM     16  C   UNL d   1       3.683   2.783   0.887  0.00  0.00     0.076 A 
ATOM     17  C   UNL d   1       2.760   1.769   0.871  0.00  0.00     0.084 A 
ATOM     18  C   UNL d   1       4.393   3.501   1.960  0.00  0.00     0.079 C 
ENDBRANCH   9  12
ENDBRANCH   1   8
BRANCH   4  19
ATOM     19  C   UNL d   1      -1.592  -2.509   0.342  0.00  0.00     0.145 C 
ATOM     20  O   UNL d   1      -2.345  -3.450   0.139  0.00  0.00    -0.650 OA
BRANCH  19  21
ATOM     21  O   UNL d   1      -1.918  -1.472   1.147  0.00  0.00    -0.776 OA
ATOM     22  H   UNL d   1      -1.196  -0.813   1.281  0.00  0.00     0.167 HD
ENDBRANCH  19  21
ENDBRANCH   4  19
TORSDOF 4
