REMARK  6 active torsions:
REMARK  status: ('A' for Active; 'I' for Inactive)
REMARK    1  A    between atoms: C_6  and  C_1 
REMARK    2  A    between atoms: N_8  and  C_2 
REMARK    3  A    between atoms: O_12  and  C_3 
REMARK    4  A    between atoms: O_13  and  C_4 
REMARK    5  A    between atoms: O_14  and  C_6 
REMARK    6  A    between atoms: O_15  and  C_7 
REMARK       I    between atoms: C_9  and  N_8 
ROOT
ATOM      1  C   UNL d   1       1.374  -0.191   0.194  0.00  0.00     0.065 A 
ATOM      2  C   UNL d   1       0.600  -1.362   0.065  0.00  0.00     0.068 A 
ATOM      3  C   UNL d   1      -0.811  -1.260  -0.080  0.00  0.00     0.127 A 
ATOM      4  C   UNL d   1      -1.431   0.018  -0.077  0.00  0.00     0.137 A 
ATOM      5  C   UNL d   1       0.761   1.062   0.180  0.00  0.00     0.060 A 
ATOM      6  C   UNL d   1      -0.626   1.169   0.076  0.00  0.00     0.105 A 
ENDROOT
BRANCH   2   7
ATOM      7  N   UNL d   1       1.270  -2.614  -0.061  0.00  0.00    -0.226 NA
ATOM      8  C   UNL d   1       1.447  -3.400   1.073  0.00  0.00     0.198 C 
ATOM      9  O   UNL d   1       0.966  -3.163   2.176  0.00  0.00    -0.280 OA
ATOM     10  C   UNL d   1       2.249  -4.646   0.797  0.00  0.00     0.111 C 
ATOM     11  H   UNL d   1       2.165  -2.536  -0.555  0.00  0.00     0.136 HD
ENDBRANCH   2   7
BRANCH   1  12
ATOM     12  C   UNL d   1       2.852  -0.273   0.265  0.00  0.00     0.178 C 
ATOM     13  O   UNL d   1       3.486  -1.133  -0.332  0.00  0.00    -0.646 OA
BRANCH  12  14
ATOM     14  O   UNL d   1       3.430   0.651   1.059  0.00  0.00    -0.773 OA
ATOM     15  H   UNL d   1       2.817   1.174   1.612  0.00  0.00     0.167 HD
ENDBRANCH  12  14
ENDBRANCH   1  12
BRANCH   3  16
ATOM     16  O   UNL d   1      -1.570  -2.332  -0.493  0.00  0.00    -0.351 OA
ATOM     17  C   UNL d   1      -1.568  -3.474   0.357  0.00  0.00     0.210 C 
ENDBRANCH   3  16
BRANCH   4  18
ATOM     18  O   UNL d   1      -2.757   0.283  -0.305  0.00  0.00    -0.351 OA
ATOM     19  C   UNL d   1      -3.716  -0.761  -0.288  0.00  0.00     0.210 C 
ENDBRANCH   4  18
BRANCH   6  20
ATOM     20  O   UNL d   1      -1.045   2.477   0.026  0.00  0.00    -0.353 OA
ATOM     21  C   UNL d   1      -2.272   2.777   0.679  0.00  0.00     0.210 C 
ENDBRANCH   6  20
TORSDOF 6
