REMARK  8 active torsions:
REMARK  status: ('A' for Active; 'I' for Inactive)
REMARK    1  A    between atoms: C_3  and  C_1 
REMARK    2  A    between atoms: N_4  and  C_2 
REMARK    3  A    between atoms: O_18  and  C_3 
REMARK       I    between atoms: C_8  and  N_4 
REMARK    4  A    between atoms: C_5  and  C_6 
REMARK    5  A    between atoms: O_19  and  C_5 
REMARK    6  A    between atoms: C_10  and  C_8 
REMARK    7  A    between atoms: C_11  and  C_12 
REMARK    8  A    between atoms: O_20  and  C_11 
ROOT
ATOM      1  C   UNL d   1       1.271  -0.327   0.718  0.00  0.00     0.066 C 
ATOM      2  C   UNL d   1       0.525  -1.328   0.072  0.00  0.00     0.052 C 
ATOM      3  C   UNL d   1      -1.430   0.125   0.066  0.00  0.00     0.041 C 
ATOM      4  C   UNL d   1      -0.845  -1.129  -0.158  0.00  0.00     0.048 C 
ATOM      5  C   UNL d   1       0.697   0.940   0.892  0.00  0.00     0.021 C 
ATOM      6  C   UNL d   1      -0.634   1.173   0.538  0.00  0.00     0.019 C 
ENDROOT
BRANCH   2   7
ATOM      7  N   UNL d   1       1.157  -2.497  -0.401  0.00  0.00    -0.323 N 
ATOM      8  C   UNL d   1       1.170  -2.974  -1.692  0.00  0.00     0.245 C 
ATOM      9  O   UNL d   1       1.918  -3.903  -1.989  0.00  0.00    -0.268 OA
ATOM     10  H   UNL d   1       1.983  -2.812   0.105  0.00  0.00     0.169 HD
BRANCH   8  11
ATOM     11  C   UNL d   1       0.316  -2.329  -2.719  0.00  0.00     0.081 C 
ATOM     12  C   UNL d   1       0.213  -2.859  -3.943  0.00  0.00     0.086 C 
BRANCH  12  13
ATOM     13  C   UNL d   1      -0.831  -2.325  -4.824  0.00  0.00     0.165 C 
ATOM     14  O   UNL d   1      -1.527  -1.349  -4.634  0.00  0.00    -0.647 OA
BRANCH  13  15
ATOM     15  O   UNL d   1      -1.011  -3.151  -5.866  0.00  0.00    -0.773 OA
ATOM     16  H   UNL d   1      -1.798  -2.792  -6.324  0.00  0.00     0.167 HD
ENDBRANCH  13  15
ENDBRANCH  12  13
ENDBRANCH   8  11
ENDBRANCH   2   7
BRANCH   1  17
ATOM     17  C   UNL d   1       2.674  -0.490   1.183  0.00  0.00     0.295 C 
ATOM     18  O   UNL d   1       3.445   0.445   1.321  0.00  0.00    -0.259 OA
BRANCH  17  19
ATOM     19  O   UNL d   1       2.914  -1.778   1.540  0.00  0.00    -0.322 OA
ATOM     20  C   UNL d   1       4.183  -1.971   2.173  0.00  0.00     0.213 C 
ENDBRANCH  17  19
ENDBRANCH   1  17
BRANCH   3  21
ATOM     21  C   UNL d   1      -2.864   0.407  -0.206  0.00  0.00     0.293 C 
ATOM     22  O   UNL d   1      -3.336   1.530  -0.168  0.00  0.00    -0.259 OA
BRANCH  21  23
ATOM     23  O   UNL d   1      -3.549  -0.738  -0.446  0.00  0.00    -0.323 OA
ATOM     24  C   UNL d   1      -4.951  -0.531  -0.643  0.00  0.00     0.213 C 
ENDBRANCH  21  23
ENDBRANCH   3  21
TORSDOF 8
