REMARK  6 active torsions:
REMARK  status: ('A' for Active; 'I' for Inactive)
REMARK    1  A    between atoms: C_2  and  S_1 
REMARK    2  A    between atoms: N_8  and  S_1 
REMARK    3  A    between atoms: C_7  and  C_3 
REMARK    4  A    between atoms: O_18  and  C_7 
REMARK    5  A    between atoms: C_13  and  N_8 
REMARK    6  A    between atoms: C_9  and  C_13 
ROOT
ATOM      1  S   UNL d   1       1.003   0.016  -0.079  0.00  0.00     0.264 S 
ATOM      2  O   UNL d   1      -0.171   0.859  -0.015  0.00  0.00    -0.204 OA
ATOM      3  O   UNL d   1       1.978   0.120  -1.141  0.00  0.00    -0.204 OA
ENDROOT
BRANCH   1   4
ATOM      4  C   UNL d   1       0.330  -1.645  -0.204  0.00  0.00     0.186 A 
ATOM      5  C   UNL d   1      -0.975  -2.066  -0.425  0.00  0.00     0.071 A 
ATOM      6  C   UNL d   1      -0.999  -3.488  -0.420  0.00  0.00     0.072 A 
ATOM      7  C   UNL d   1       0.313  -3.867  -0.206  0.00  0.00     0.067 A 
ATOM      8  O   UNL d   1       1.112  -2.771  -0.057  0.00  0.00    -0.301 OA
ATOM      9  C   UNL d   1       0.984  -5.184  -0.113  0.00  0.00     0.078 C 
BRANCH   6  10
ATOM     10  C   UNL d   1      -2.134  -4.379  -0.600  0.00  0.00     0.295 C 
ATOM     11  O   UNL d   1      -2.053  -5.599  -0.580  0.00  0.00    -0.259 OA
BRANCH  10  12
ATOM     12  O   UNL d   1      -3.294  -3.683  -0.782  0.00  0.00    -0.322 OA
ATOM     13  C   UNL d   1      -4.455  -4.497  -0.948  0.00  0.00     0.213 C 
ENDBRANCH  10  12
ENDBRANCH   6  10
ENDBRANCH   1   4
BRANCH   1  14
ATOM     14  N   UNL d   1       1.779   0.141   1.407  0.00  0.00    -0.209 NA
ATOM     15  H   UNL d   1       1.193  -0.208   2.165  0.00  0.00     0.140 HD
BRANCH  14  16
ATOM     16  C   UNL d   1       3.155  -0.359   1.453  0.00  0.00     0.150 C 
BRANCH  16  17
ATOM     17  C   UNL d   1       3.642  -0.180   2.860  0.00  0.00    -0.004 A 
ATOM     18  S   UNL d   1       3.575  -1.484   3.971  0.00  0.00    -0.105 SA
ATOM     19  C   UNL d   1       4.242  -0.534   5.226  0.00  0.00     0.050 A 
ATOM     20  C   UNL d   1       4.506   0.753   4.816  0.00  0.00     0.008 A 
ATOM     21  C   UNL d   1       4.158   0.959   3.450  0.00  0.00     0.016 A 
ENDBRANCH  16  17
ENDBRANCH  14  16
ENDBRANCH   1  14
TORSDOF 6
