REMARK  4 active torsions:
REMARK  status: ('A' for Active; 'I' for Inactive)
REMARK    1  A    between atoms: C_2  and  C_1 
REMARK    2  A    between atoms: S_3  and  C_2 
REMARK    3  A    between atoms: C_4  and  S_3 
REMARK    4  A    between atoms: C_7  and  C_13 
ROOT
ATOM      1  C   UNL d   1      -2.973   2.611   0.344  0.00  0.00     0.152 A 
ATOM      2  N   UNL d   1      -4.144   2.699  -0.310  0.00  0.00    -0.333 N 
ATOM      3  HN  UNL d   1      -4.177   2.961  -1.295  1.00  0.00     0.168 HD
ATOM      4  C   UNL d   1      -5.281   2.430   0.380  0.00  0.00     0.119 A 
ATOM      5  N   UNL d   1      -2.858   2.250   1.630  0.00  0.00    -0.346 N 
ATOM      6  HN  UNL d   1      -1.948   2.169   2.084  1.00  0.00     0.167 HD
ATOM      7  C   UNL d   1      -5.248   2.072   1.716  0.00  0.00     0.051 A 
ATOM      8  C   UNL d   1      -4.003   2.001   2.294  0.00  0.00     0.092 A 
ENDROOT
BRANCH   1   9
ATOM      9  S   UNL d   1      -1.539   2.893  -0.642  0.00  0.00    -0.011 SA
BRANCH   9  10
ATOM     10  C   UNL d   1      -0.275   2.284   0.395  0.00  0.00     0.231 C 
ATOM     11  O   UNL d   1       0.325   3.029   1.161  0.00  0.00    -0.279 OA
BRANCH  10  12
ATOM     12  C   UNL d   1       0.168   0.932   0.111  0.00  0.00     0.077 A 
ATOM     13  C   UNL d   1       1.498   0.557   0.023  0.00  0.00     0.089 A 
ATOM     14  O   UNL d   1       1.584  -0.773  -0.227  0.00  0.00    -0.242 OA
ATOM     15  C   UNL d   1       2.783   1.283   0.086  0.00  0.00     0.080 C 
ATOM     16  N   UNL d   1       0.321  -1.306  -0.324  0.00  0.00    -0.265 N 
ATOM     17  C   UNL d   1      -0.529  -0.288  -0.137  0.00  0.00     0.046 A 
ATOM     18  HN  UNL d   1       0.079  -2.281  -0.503  1.00  0.00     0.194 HD
ATOM     19  C   UNL d   1      -1.983  -0.575  -0.184  0.00  0.00     0.071 C 
ENDBRANCH  10  12
ENDBRANCH   9  10
ENDBRANCH   1   9
BRANCH   4  20
ATOM     20  C   UNL d   1      -6.620   2.507  -0.338  0.00  0.00     0.432 C 
ATOM     21  F   UNL d   1      -6.532   2.862  -1.650  0.00  0.00    -0.165 F 
ATOM     22  F   UNL d   1      -7.283   1.315  -0.318  0.00  0.00    -0.165 F 
ATOM     23  F   UNL d   1      -7.467   3.407   0.239  0.00  0.00    -0.165 F 
ENDBRANCH   4  20
TORSDOF 4
