REMARK  1 active torsions:
REMARK  status: ('A' for Active; 'I' for Inactive)
REMARK    1  A    between atoms: C_6  and  N_1 
ROOT
ATOM      1  N   UNL d   1      -2.309  -0.065  -0.304  0.00  0.00    -0.252 N 
ATOM      2  C   UNL d   1      -1.570  -1.168   0.054  0.00  0.00     0.236 C 
ATOM      3  C   UNL d   1      -1.519   1.070  -0.319  0.00  0.00     0.236 C 
ATOM      4  C   UNL d   1      -0.275  -0.720   0.692  0.00  0.00     0.096 C 
ATOM      5  C   UNL d   1      -0.314   0.793   0.557  0.00  0.00     0.095 C 
ATOM      6  C   UNL d   1       0.950   1.522   0.127  0.00  0.00     0.042 C 
ATOM      7  C   UNL d   1       0.935  -1.486   0.154  0.00  0.00     0.048 C 
ATOM      8  O   UNL d   1      -1.855  -2.351  -0.099  0.00  0.00    -0.272 OA
ATOM      9  O   UNL d   1      -1.749   2.164  -0.814  0.00  0.00    -0.272 OA
ATOM     10  C   UNL d   1       2.018   0.674  -0.475  0.00  0.00    -0.023 C 
ATOM     11  C   UNL d   1       2.033  -0.666  -0.458  0.00  0.00    -0.087 C 
ATOM     12  C   UNL d   1       3.213  -1.420  -1.009  0.00  0.00     0.043 C 
ENDROOT
BRANCH   1  13
ATOM     13  C   UNL d   1      -3.708  -0.090  -0.592  0.00  0.00     0.045 A 
ATOM     14  C   UNL d   1      -4.507  -1.136  -0.089  0.00  0.00     0.038 A 
ATOM     15  C   UNL d   1      -5.913  -1.130  -0.183  0.00  0.00    -0.043 A 
ATOM     16  C   UNL d   1      -6.689  -2.238   0.474  0.00  0.00     0.049 C 
ATOM     17  C   UNL d   1      -6.532  -0.073  -0.856  0.00  0.00     0.017 A 
ATOM     18  C   UNL d   1      -5.762   0.962  -1.387  0.00  0.00     0.022 A 
ATOM     19 BR   UNL d   1      -8.416   0.027  -1.060  0.00  0.00    -0.051 Br
ATOM     20  C   UNL d   1      -4.368   0.959  -1.244  0.00  0.00     0.031 A 
ENDBRANCH   1  13
TORSDOF 1
