REMARK  6 active torsions:
REMARK  status: ('A' for Active; 'I' for Inactive)
REMARK    1  A    between atoms: C_3  and  C_1 
REMARK       I    between atoms: N_7  and  C_1 
REMARK    2  A    between atoms: C_2  and  C_4 
REMARK    3  A    between atoms: O_9  and  C_2 
REMARK    4  A    between atoms: C_16  and  N_7 
REMARK    5  A    between atoms: C_10  and  C_17 
REMARK    6  A    between atoms: C_17  and  C_16 
ROOT
ATOM      1  C   UNL d   1      -2.825  -2.284  -1.337  0.00  0.00     0.241 C 
ATOM      2  O   UNL d   1      -3.082  -3.450  -1.581  0.00  0.00    -0.269 OA
ATOM      3  N   UNL d   1      -2.185  -1.430  -2.211  0.00  0.00    -0.357 N 
ATOM      4  H   UNL d   1      -1.938  -0.501  -1.905  0.00  0.00     0.162 HD
ENDROOT
BRANCH   3   5
ATOM      5  C   UNL d   1      -1.533  -1.912  -3.414  0.00  0.00     0.127 C 
BRANCH   5   6
ATOM      6  C   UNL d   1      -2.486  -2.419  -4.501  0.00  0.00     0.058 C 
BRANCH   6   7
ATOM      7  C   UNL d   1      -1.707  -2.768  -5.750  0.00  0.00    -0.057 A 
ATOM      8  C   UNL d   1      -1.143  -4.044  -5.894  0.00  0.00     0.009 A 
ATOM      9  C   UNL d   1      -0.346  -4.344  -7.000  0.00  0.00     0.024 A 
ATOM     10  C   UNL d   1      -0.108  -3.368  -7.966  0.00  0.00     0.034 A 
ATOM     11  C   UNL d   1      -0.671  -2.100  -7.842  0.00  0.00     0.024 A 
ATOM     12 CL   UNL d   1       0.899  -3.727  -9.315  0.00  0.00    -0.084 Cl
ATOM     13  C   UNL d   1      -1.470  -1.800  -6.736  0.00  0.00     0.009 A 
ENDBRANCH   6   7
ENDBRANCH   5   6
ENDBRANCH   3   5
BRANCH   1  14
ATOM     14  C   UNL d   1      -3.188  -1.593  -0.068  0.00  0.00     0.080 C 
ATOM     15  C   UNL d   1      -3.611  -2.136   1.081  0.00  0.00     0.086 C 
BRANCH  15  16
ATOM     16  C   UNL d   1      -3.779  -3.558   1.424  0.00  0.00     0.165 C 
ATOM     17  O   UNL d   1      -3.275  -4.542   0.930  0.00  0.00    -0.647 OA
BRANCH  16  18
ATOM     18  O   UNL d   1      -4.569  -3.641   2.510  0.00  0.00    -0.773 OA
ATOM     19  H   UNL d   1      -4.613  -4.606   2.681  0.00  0.00     0.167 HD
ENDBRANCH  16  18
ENDBRANCH  15  16
ENDBRANCH   1  14
TORSDOF 6
