REMARK  3 active torsions:
REMARK  status: ('A' for Active; 'I' for Inactive)
REMARK    1  A    between atoms: C_2  and  C_1 
REMARK       I    between atoms: N_8  and  C_2 
REMARK    2  A    between atoms: C_7  and  C_3 
REMARK    3  A    between atoms: S_10  and  C_9 
ROOT
ATOM      1  C   UNL d   1       0.979  -0.746   0.220  0.00  0.00     0.112 C 
ATOM      2  C   UNL d   1       0.345  -0.608  -0.962  0.00  0.00     0.039 C 
ATOM      3  C   UNL d   1       0.287  -0.913   1.449  0.00  0.00     0.105 C 
ATOM      4  N   UNL d   1      -0.233  -1.050   2.478  0.00  0.00    -0.191 NA
ENDROOT
BRANCH   1   5
ATOM      5  C   UNL d   1       2.472  -0.705   0.206  0.00  0.00     0.260 C 
ATOM      6  O   UNL d   1       3.125  -0.563  -0.824  0.00  0.00    -0.267 OA
ATOM      7  N   UNL d   1       3.113  -0.825   1.402  0.00  0.00    -0.365 N 
ATOM      8  H   UNL d   1       2.662  -0.942   2.301  0.00  0.00     0.159 HD
ATOM      9  H   UNL d   1       4.125  -0.790   1.389  0.00  0.00     0.159 HD
ENDBRANCH   1   5
BRANCH   2  10
ATOM     10  C   UNL d   1      -1.113  -0.596  -1.105  0.00  0.00    -0.035 A 
ATOM     11  C   UNL d   1      -1.814   0.608  -1.003  0.00  0.00     0.013 A 
ATOM     12  C   UNL d   1      -3.212   0.621  -1.078  0.00  0.00     0.019 A 
ATOM     13  C   UNL d   1      -3.926  -0.568  -1.251  0.00  0.00    -0.000 A 
ATOM     14  C   UNL d   1      -3.214  -1.767  -1.382  0.00  0.00     0.019 A 
ATOM     15  C   UNL d   1      -1.817  -1.785  -1.306  0.00  0.00     0.013 A 
BRANCH  13  16
ATOM     16  S   UNL d   1      -5.708  -0.639  -1.374  0.00  0.00    -0.134 SA
ATOM     17  C   UNL d   1      -6.227   0.701  -0.267  0.00  0.00     0.095 C 
ENDBRANCH  13  16
ENDBRANCH   2  10
TORSDOF 3
