REMARK  3 active torsions:
REMARK  status: ('A' for Active; 'I' for Inactive)
REMARK    1  A    between atoms: S_3  and  C_1 
REMARK    2  A    between atoms: C_13  and  S_3 
REMARK    3  A    between atoms: C_16  and  C_9 
ROOT
ATOM      1  C   UNL d   1       2.098  -0.828  -0.038  0.00  0.00     0.103 A 
ATOM      2  N   UNL d   1      -0.264  -0.649   0.018  0.00  0.00    -0.243 N 
ATOM      3  C   UNL d   1      -0.179   0.745   0.052  0.00  0.00     0.129 A 
ATOM      4  C   UNL d   1       0.895  -1.452  -0.030  0.00  0.00     0.055 A 
ATOM      5  N   UNL d   1      -1.560  -1.059   0.022  0.00  0.00    -0.296 N 
ATOM      6  HN  UNL d   1      -1.900  -2.020   0.031  1.00  0.00     0.187 HD
ATOM      7  C   UNL d   1      -1.474   1.207   0.049  0.00  0.00     0.077 A 
ATOM      8  C   UNL d   1      -2.297   0.058   0.013  0.00  0.00     0.037 A 
ATOM      9  N   UNL d   1       1.013   1.407   0.079  0.00  0.00    -0.349 N 
ATOM     10  HN  UNL d   1       1.068   2.425   0.121  1.00  0.00     0.167 HD
ATOM     11  C   UNL d   1       2.072   0.656   0.049  0.00  0.00     0.115 A 
ATOM     12  C   UNL d   1       0.662  -2.937  -0.080  0.00  0.00     0.072 C 
ENDROOT
BRANCH   1  13
ATOM     13  S   UNL d   1       3.626  -1.626  -0.049  0.00  0.00     0.210 S 
ATOM     14  O   UNL d   1       4.703  -0.648  -0.082  0.00  0.00    -0.217 OA
ATOM     15  O   UNL d   1       3.626  -2.657   0.975  0.00  0.00    -0.217 OA
BRANCH  13  16
ATOM     16  C   UNL d   1       3.707  -2.456  -1.625  0.00  0.00     0.064 A 
ATOM     17  C   UNL d   1       3.513  -1.722  -2.799  0.00  0.00     0.025 A 
ATOM     18  C   UNL d   1       3.447  -2.393  -4.021  0.00  0.00     0.025 A 
ATOM     19  C   UNL d   1       3.598  -3.782  -4.065  0.00  0.00     0.034 A 
ATOM     20  C   UNL d   1       3.857  -4.503  -2.900  0.00  0.00     0.025 A 
ATOM     21 CL   UNL d   1       3.449  -4.608  -5.566  0.00  0.00    -0.084 Cl
ATOM     22  C   UNL d   1       3.918  -3.841  -1.672  0.00  0.00     0.025 A 
ENDBRANCH  13  16
ENDBRANCH   1  13
BRANCH   8  23
ATOM     23  C   UNL d   1      -3.819  -0.009   0.009  0.00  0.00    -0.007 C 
ATOM     24  C   UNL d   1      -4.342  -0.032   1.458  0.00  0.00     0.021 C 
ATOM     25  C   UNL d   1      -4.421   1.215  -0.717  0.00  0.00     0.021 C 
ATOM     26  C   UNL d   1      -4.341  -1.272  -0.713  0.00  0.00     0.021 C 
ENDBRANCH   8  23
TORSDOF 3
