REMARK  6 active torsions:
REMARK  status: ('A' for Active; 'I' for Inactive)
REMARK    1  A    between atoms: N_7  and  C_1 
REMARK       I    between atoms: C_8  and  N_7 
REMARK    2  A    between atoms: C_13  and  C_8 
REMARK    3  A    between atoms: C_10  and  C_15 
REMARK    4  A    between atoms: O_18  and  C_10 
REMARK    5  A    between atoms: C_11  and  C_13 
REMARK    6  A    between atoms: C_15  and  C_11 
ROOT
ATOM      1  N   UNL d   1       1.916   2.493   0.179  0.00  0.00    -0.311 N 
ATOM      2  C   UNL d   1       1.072   3.503  -0.226  0.00  0.00     0.224 C 
ATOM      3  O   UNL d   1      -0.002   3.352  -0.804  0.00  0.00    -0.273 OA
ATOM      4  H   UNL d   1       2.907   2.697   0.235  0.00  0.00     0.170 HD
ENDROOT
BRANCH   1   5
ATOM      5  C   UNL d   1       1.639   1.173  -0.106  0.00  0.00     0.138 C 
ATOM      6  N   UNL d   1       2.620   0.403  -0.585  0.00  0.00    -0.282 N 
ATOM      7  N   UNL d   1       1.999  -0.747  -0.900  0.00  0.00    -0.294 N 
ATOM      8  HN  UNL d   1       3.608   0.634  -0.688  1.00  0.00     0.189 HD
ATOM      9  C   UNL d   1       2.724  -1.777  -1.607  0.00  0.00     0.178 C 
ATOM     10  C   UNL d   1       0.700  -0.820  -0.468  0.00  0.00     0.067 A 
ATOM     11  C   UNL d   1       0.432   0.437   0.075  0.00  0.00     0.076 A 
ATOM     12  C   UNL d   1      -0.248  -1.855  -0.500  0.00  0.00     0.032 A 
ATOM     13  C   UNL d   1      -0.826   0.648   0.664  0.00  0.00     0.132 A 
ATOM     14  F   UNL d   1      -1.116   1.796   1.295  0.00  0.00    -0.205 F 
ATOM     15  C   UNL d   1      -1.779  -0.377   0.669  0.00  0.00     0.043 A 
ATOM     16  C   UNL d   1      -1.495  -1.610   0.084  0.00  0.00     0.005 A 
ENDBRANCH   1   5
BRANCH   2  17
ATOM     17  C   UNL d   1       1.595   4.900   0.081  0.00  0.00     0.112 C 
BRANCH  17  18
ATOM     18  C   UNL d   1       1.008   5.524   1.373  0.00  0.00    -0.030 C 
ATOM     19  C   UNL d   1       1.561   6.957   1.520  0.00  0.00     0.016 C 
ATOM     20  C   UNL d   1      -0.527   5.634   1.247  0.00  0.00     0.016 C 
BRANCH  18  21
ATOM     21  C   UNL d   1       1.326   4.701   2.645  0.00  0.00     0.119 C 
BRANCH  21  22
ATOM     22  C   UNL d   1       2.803   4.587   2.957  0.00  0.00     0.140 C 
ATOM     23  O   UNL d   1       3.617   4.053   2.217  0.00  0.00    -0.650 OA
BRANCH  22  24
ATOM     24  O   UNL d   1       3.159   5.143   4.135  0.00  0.00    -0.776 OA
ATOM     25  H   UNL d   1       2.424   5.533   4.644  0.00  0.00     0.167 HD
ENDBRANCH  22  24
ENDBRANCH  21  22
ENDBRANCH  18  21
ENDBRANCH  17  18
ENDBRANCH   2  17
TORSDOF 6
