REMARK  5 active torsions:
REMARK  status: ('A' for Active; 'I' for Inactive)
REMARK    1  A    between atoms: C_2  and  S_1 
REMARK    2  A    between atoms: C_11  and  S_1 
REMARK    3  A    between atoms: C_3  and  C_2 
REMARK       I    between atoms: N_6  and  C_3 
REMARK    4  A    between atoms: C_9  and  N_6 
REMARK    5  A    between atoms: C_17  and  C_11 
ROOT
ATOM      1  C   UNL d   1       1.280   0.558  -2.385  0.00  0.00     0.236 C 
ATOM      2  N   UNL d   1       1.129   1.881  -2.015  0.00  0.00    -0.326 N 
ATOM      3  O   UNL d   1       1.853   0.166  -3.404  0.00  0.00    -0.272 OA
ATOM      4  H   UNL d   1       0.828   2.069  -1.058  0.00  0.00     0.169 HD
ENDROOT
BRANCH   1   5
ATOM      5  C   UNL d   1       0.510  -0.434  -1.569  0.00  0.00     0.243 C 
BRANCH   5   6
ATOM      6  S   UNL d   1       0.947  -0.444   0.137  0.00  0.00     0.156 S 
ATOM      7  O   UNL d   1       0.439   0.804   0.685  0.00  0.00    -0.227 OA
ATOM      8  O   UNL d   1       2.349  -0.800   0.244  0.00  0.00    -0.227 OA
BRANCH   6   9
ATOM      9  C   UNL d   1      -0.056  -1.822   0.683  0.00  0.00     0.179 C 
BRANCH   9  10
ATOM     10  C   UNL d   1       0.056  -2.138   2.150  0.00  0.00    -0.044 A 
ATOM     11  C   UNL d   1      -0.291  -1.212   3.142  0.00  0.00     0.008 A 
ATOM     12  C   UNL d   1      -0.350  -1.596   4.486  0.00  0.00     0.001 A 
ATOM     13  C   UNL d   1      -0.074  -2.911   4.854  0.00  0.00     0.000 A 
ATOM     14  C   UNL d   1       0.281  -3.841   3.883  0.00  0.00     0.001 A 
ATOM     15  C   UNL d   1       0.348  -3.457   2.541  0.00  0.00     0.008 A 
ENDBRANCH   9  10
ENDBRANCH   6   9
ENDBRANCH   5   6
ENDBRANCH   1   5
BRANCH   2  16
ATOM     16  C   UNL d   1       1.379   3.016  -2.825  0.00  0.00     0.036 A 
ATOM     17  C   UNL d   1       1.699   2.947  -4.187  0.00  0.00     0.056 A 
ATOM     18  C   UNL d   1       1.837   4.115  -4.945  0.00  0.00     0.074 A 
ATOM     19 CL   UNL d   1       2.195   3.999  -6.626  0.00  0.00    -0.081 Cl
ATOM     20  C   UNL d   1       1.663   5.357  -4.345  0.00  0.00     0.138 A 
ATOM     21  C   UNL d   1       1.363   5.446  -2.990  0.00  0.00     0.046 A 
ATOM     22  F   UNL d   1       1.769   6.488  -5.059  0.00  0.00    -0.204 F 
ATOM     23  C   UNL d   1       1.220   4.278  -2.233  0.00  0.00     0.032 A 
ENDBRANCH   2  16
TORSDOF 5
