REMARK  3 active torsions:
REMARK  status: ('A' for Active; 'I' for Inactive)
REMARK    1  A    between atoms: C_3  and  C_1 
REMARK    2  A    between atoms: C_13  and  N_2 
REMARK    3  A    between atoms: N_15  and  C_8 
ROOT
ATOM      1  C   UNL d   1      -0.382  -2.845  -0.059  0.00  0.00     0.053 A 
ATOM      2  C   UNL d   1       0.043  -3.649   1.020  0.00  0.00     0.053 A 
ATOM      3  C   UNL d   1      -0.157  -5.064   0.953  0.00  0.00     0.018 A 
ATOM      4  C   UNL d   1      -1.010  -3.496  -1.118  0.00  0.00     0.106 A 
ATOM      5  N   UNL d   1      -1.293  -4.811  -1.165  0.00  0.00    -0.364 N 
ATOM      6  HN  UNL d   1      -1.818  -5.209  -1.943  1.00  0.00     0.165 HD
ATOM      7  C   UNL d   1      -0.862  -5.577  -0.158  0.00  0.00     0.044 A 
ATOM      8  C   UNL d   1       0.310  -5.988   1.920  0.00  0.00     0.016 A 
ATOM      9  C   UNL d   1      -1.117  -6.939  -0.246  0.00  0.00     0.030 A 
ATOM     10  C   UNL d   1       0.060  -7.356   1.806  0.00  0.00     0.001 A 
ATOM     11  C   UNL d   1      -0.666  -7.833   0.724  0.00  0.00     0.002 A 
ENDROOT
BRANCH   1  12
ATOM     12  C   UNL d   1      -0.170  -1.394  -0.115  0.00  0.00     0.152 C 
ATOM     13  N   UNL d   1      -1.017  -0.440  -0.678  0.00  0.00    -0.224 N 
ATOM     14  N   UNL d   1      -0.310   0.701  -0.848  0.00  0.00     0.001 NA
ATOM     15  N   UNL d   1       0.832   0.517  -0.208  0.00  0.00    -0.007 NA
ATOM     16  N   UNL d   1       0.928  -0.761   0.267  0.00  0.00    -0.269 N 
ATOM     17  HN  UNL d   1       1.697  -1.152   0.810  1.00  0.00     0.185 HD
BRANCH  13  18
ATOM     18  C   UNL d   1      -2.389  -0.504  -1.034  0.00  0.00     0.056 A 
ATOM     19  C   UNL d   1      -3.267  -1.373  -0.368  0.00  0.00     0.034 A 
ATOM     20  C   UNL d   1      -4.606  -1.443  -0.756  0.00  0.00     0.044 A 
ATOM     21  C   UNL d   1      -5.062  -0.646  -1.800  0.00  0.00     0.116 A 
ATOM     22  C   UNL d   1      -4.209   0.235  -2.454  0.00  0.00     0.044 A 
ATOM     23  F   UNL d   1      -6.345  -0.725  -2.175  0.00  0.00    -0.206 F 
ATOM     24  C   UNL d   1      -2.871   0.322  -2.063  0.00  0.00     0.034 A 
ENDBRANCH  13  18
ENDBRANCH   1  12
BRANCH   2  25
ATOM     25  N   UNL d   1       0.828  -3.097   2.058  0.00  0.00    -0.398 N 
ATOM     26  H   UNL d   1       0.814  -2.081   2.130  0.00  0.00     0.156 HD
ATOM     27  H   UNL d   1       0.778  -3.562   2.955  0.00  0.00     0.156 HD
ENDBRANCH   2  25
TORSDOF 3
