REMARK  2 active torsions:
REMARK  status: ('A' for Active; 'I' for Inactive)
REMARK    1  A    between atoms: C_10  and  N_3 
REMARK    2  A    between atoms: C_13  and  C_10 
ROOT
ATOM      1  C   UNL d   1      -1.116   1.235  -0.143  0.00  0.00     0.054 A 
ATOM      2  C   UNL d   1      -0.885  -0.071   0.061  0.00  0.00     0.064 A 
ATOM      3  N   UNL d   1      -1.931  -0.942   0.350  0.00  0.00    -0.308 N 
ATOM      4  C   UNL d   1      -3.210  -0.434   0.702  0.00  0.00     0.259 C 
ATOM      5  C   UNL d   1       0.163   1.961  -0.240  0.00  0.00     0.196 A 
ATOM      6  C   UNL d   1      -2.452   1.779  -0.132  0.00  0.00    -0.004 C 
ATOM      7  C   UNL d   1       0.564  -0.304   0.009  0.00  0.00     0.006 A 
ATOM      8  C   UNL d   1      -3.442   1.030   0.508  0.00  0.00     0.043 C 
ATOM      9  C   UNL d   1       1.193   0.940  -0.117  0.00  0.00     0.027 A 
ATOM     10  O   UNL d   1      -4.142  -1.137   1.075  0.00  0.00    -0.267 OA
ATOM     11  O   UNL d   1       0.343   3.146  -0.368  0.00  0.00    -0.286 OA
ATOM     12  C   UNL d   1      -2.784   2.995  -0.726  0.00  0.00     0.013 C 
ATOM     13  C   UNL d   1       1.375  -1.422   0.094  0.00  0.00     0.014 A 
ATOM     14  C   UNL d   1      -4.675   1.617   0.801  0.00  0.00     0.018 C 
ATOM     15  C   UNL d   1       2.561   1.142  -0.116  0.00  0.00     0.016 A 
ATOM     16  C   UNL d   1       2.771  -1.260   0.062  0.00  0.00     0.001 A 
ATOM     17  C   UNL d   1      -4.069   3.507  -0.578  0.00  0.00     0.001 C 
ATOM     18  C   UNL d   1       3.363   0.010  -0.027  0.00  0.00     0.001 A 
ATOM     19  C   UNL d   1      -4.975   2.874   0.273  0.00  0.00     0.001 C 
ENDROOT
BRANCH   3  20
ATOM     20  C   UNL d   1      -1.815  -2.388   0.232  0.00  0.00     0.171 C 
BRANCH  20  21
ATOM     21  C   UNL d   1      -1.327  -3.134   1.454  0.00  0.00    -0.040 A 
ATOM     22  C   UNL d   1      -1.211  -2.538   2.719  0.00  0.00     0.012 A 
ATOM     23  C   UNL d   1      -0.735  -3.270   3.807  0.00  0.00     0.043 A 
ATOM     24  C   UNL d   1      -0.387  -4.604   3.638  0.00  0.00     0.116 A 
ATOM     25  C   UNL d   1      -0.517  -5.226   2.403  0.00  0.00     0.043 A 
ATOM     26  F   UNL d   1       0.079  -5.302   4.682  0.00  0.00    -0.206 F 
ATOM     27  C   UNL d   1      -0.991  -4.495   1.315  0.00  0.00     0.012 A 
ENDBRANCH  20  21
ENDBRANCH   3  20
TORSDOF 2
