REMARK  6 active torsions:
REMARK  status: ('A' for Active; 'I' for Inactive)
REMARK    1  A    between atoms: C_5  and  N_1 
REMARK    2  A    between atoms: O_8  and  C_2 
REMARK    3  A    between atoms: C_10  and  C_2 
REMARK    4  A    between atoms: C_9  and  C_5 
REMARK    5  A    between atoms: C_13  and  C_10 
REMARK    6  A    between atoms: C_14  and  C_13 
ROOT
ATOM      1  N   UNL d   1       1.768  -0.002   0.129  0.00  0.00     0.092 N 
ATOM      2  C   UNL d   1      -1.101  -0.066  -0.594  0.00  0.00     0.061 C 
ATOM      3  C   UNL d   1      -0.248   1.210  -0.684  0.00  0.00     0.068 C 
ATOM      4  C   UNL d   1      -0.189  -1.294  -0.675  0.00  0.00     0.068 C 
ATOM      5  C   UNL d   1       0.962  -1.219   0.326  0.00  0.00     0.276 C 
ATOM      6  C   UNL d   1       0.923   1.191   0.304  0.00  0.00     0.276 C 
ENDROOT
BRANCH   1   7
ATOM      7  C   UNL d   1       2.892   0.047   1.090  0.00  0.00     0.311 C 
BRANCH   7   8
ATOM      8  C   UNL d   1       3.862  -1.110   0.955  0.00  0.00    -0.030 A 
ATOM      9  C   UNL d   1       4.536  -1.343  -0.252  0.00  0.00     0.009 A 
ATOM     10  C   UNL d   1       5.393  -2.438  -0.386  0.00  0.00     0.001 A 
ATOM     11  C   UNL d   1       5.591  -3.304   0.688  0.00  0.00     0.000 A 
ATOM     12  C   UNL d   1       4.939  -3.075   1.898  0.00  0.00     0.001 A 
ATOM     13  C   UNL d   1       4.080  -1.982   2.033  0.00  0.00     0.009 A 
ENDBRANCH   7   8
ENDBRANCH   1   7
BRANCH   2  14
ATOM     14  O   UNL d   1      -1.766  -0.085   0.676  0.00  0.00    -0.390 OA
ATOM     15  H   UNL d   1      -2.365   0.681   0.712  0.00  0.00     0.210 HD
ENDBRANCH   2  14
BRANCH   2  16
ATOM     16  C   UNL d   1      -2.176  -0.073  -1.707  0.00  0.00     0.038 C 
BRANCH  16  17
ATOM     17  C   UNL d   1      -3.082  -1.314  -1.688  0.00  0.00     0.002 C 
BRANCH  17  18
ATOM     18  C   UNL d   1      -4.130  -1.273  -2.800  0.00  0.00    -0.004 C 
ATOM     19  C   UNL d   1      -4.991  -2.527  -2.783  0.00  0.00     0.005 C 
ENDBRANCH  17  18
ENDBRANCH  16  17
ENDBRANCH   2  16
TORSDOF 6
