REMARK  4 active torsions:
REMARK  status: ('A' for Active; 'I' for Inactive)
REMARK    1  A    between atoms: C_3  and  N_1 
REMARK       I    between atoms: C_2  and  N_9 
REMARK    2  A    between atoms: C_4  and  C_2 
REMARK    3  A    between atoms: N_9  and  N_6 
REMARK    4  A    between atoms: C_15  and  C_8 
ROOT
ATOM      1  N   UNL d   1      -1.772  -1.973   3.575  0.00  0.00    -0.308 N 
ATOM      2  HN  UNL d   1      -2.448  -1.712   4.293  1.00  0.00     0.186 HD
ATOM      3  C   UNL d   1      -1.943  -1.548   2.359  0.00  0.00     0.120 C 
ENDROOT
BRANCH   3   4
ATOM      4  C   UNL d   1      -3.119  -0.698   2.011  0.00  0.00     0.007 A 
ATOM      5  C   UNL d   1      -3.163   0.083   0.826  0.00  0.00     0.042 A 
ATOM      6  C   UNL d   1      -4.384   0.741   0.565  0.00  0.00     0.030 A 
ATOM      7  C   UNL d   1      -5.487   0.659   1.423  0.00  0.00     0.002 A 
ATOM      8  C   UNL d   1      -5.407  -0.091   2.585  0.00  0.00     0.001 A 
ATOM      9  C   UNL d   1      -4.227  -0.767   2.879  0.00  0.00     0.015 A 
BRANCH   5  10
ATOM     10  N   UNL d   1      -2.090   0.192  -0.061  0.00  0.00    -0.377 N 
ATOM     11  C   UNL d   1      -2.307   0.522  -1.487  0.00  0.00     0.153 C 
ATOM     12  C   UNL d   1      -2.080   2.025  -1.772  0.00  0.00     0.291 C 
ATOM     13  N   UNL d   1      -0.726   2.457  -1.367  0.00  0.00     0.087 N 
ATOM     14  C   UNL d   1      -0.544   2.175   0.073  0.00  0.00     0.291 C 
ATOM     15  C   UNL d   1      -0.519   3.874  -1.654  0.00  0.00     0.310 C 
ATOM     16  C   UNL d   1      -0.791   0.691   0.450  0.00  0.00     0.153 C 
ENDBRANCH   5  10
ENDBRANCH   3   4
BRANCH   1  17
ATOM     17  N   UNL d   1      -0.706  -2.764   3.916  0.00  0.00    -0.266 N 
ATOM     18  C   UNL d   1       0.123  -3.498   3.077  0.00  0.00     0.271 C 
ATOM     19  O   UNL d   1       0.051  -3.531   1.851  0.00  0.00    -0.266 OA
ATOM     20  H   UNL d   1      -0.630  -2.871   4.919  0.00  0.00     0.190 HD
BRANCH  18  21
ATOM     21  C   UNL d   1       1.193  -4.310   3.734  0.00  0.00     0.049 A 
ATOM     22  C   UNL d   1       2.180  -4.859   2.920  0.00  0.00     0.104 A 
ATOM     23  N   UNL d   1       3.222  -5.607   3.370  0.00  0.00    -0.374 N 
ATOM     24  C   UNL d   1       3.282  -5.829   4.698  0.00  0.00     0.087 A 
ATOM     25  HN  UNL d   1       3.925  -5.983   2.734  1.00  0.00     0.164 HD
ATOM     26  C   UNL d   1       2.347  -5.341   5.595  0.00  0.00     0.018 A 
ATOM     27  C   UNL d   1       1.285  -4.572   5.106  0.00  0.00     0.020 A 
ENDBRANCH  18  21
ENDBRANCH   1  17
TORSDOF 4
