REMARK  6 active torsions:
REMARK  status: ('A' for Active; 'I' for Inactive)
REMARK    1  A    between atoms: C_1  and  N_7 
REMARK    2  A    between atoms: C_2  and  O_10 
REMARK    3  A    between atoms: C_3  and  O_12 
REMARK    4  A    between atoms: C_5  and  O_11 
REMARK    5  A    between atoms: C_6  and  C_13 
REMARK       I    between atoms: C_8  and  N_7 
REMARK    6  A    between atoms: O_14  and  C_13 
ROOT
ATOM      1  C   UNL d   1      -0.597   1.327   0.445  0.00  0.00     0.170 C 
ATOM      2  C   UNL d   1       0.762   0.829  -0.095  0.00  0.00     0.177 C 
ATOM      3  C   UNL d   1      -1.736   0.282   0.251  0.00  0.00     0.282 C 
ATOM      4  O   UNL d   1      -1.325  -1.022   0.651  0.00  0.00    -0.349 OA
ATOM      5  C   UNL d   1       1.027  -0.640   0.297  0.00  0.00     0.180 C 
ATOM      6  C   UNL d   1      -0.183  -1.489  -0.087  0.00  0.00     0.179 C 
ENDROOT
BRANCH   1   7
ATOM      7  N   UNL d   1      -0.953   2.675  -0.028  0.00  0.00    -0.349 N 
ATOM      8  C   UNL d   1      -1.142   2.980  -1.355  0.00  0.00     0.214 C 
ATOM      9  O   UNL d   1      -1.034   2.140  -2.244  0.00  0.00    -0.274 OA
ATOM     10  C   UNL d   1      -1.566   4.395  -1.631  0.00  0.00     0.117 C 
ATOM     11  H   UNL d   1      -0.914   3.431   0.643  0.00  0.00     0.163 HD
ENDBRANCH   1   7
BRANCH   2  12
ATOM     12  O   UNL d   1       1.804   1.682   0.420  0.00  0.00    -0.391 OA
ATOM     13  H   UNL d   1       2.457   1.123   0.880  0.00  0.00     0.210 HD
ENDBRANCH   2  12
BRANCH   3  14
ATOM     14  O   UNL d   1      -2.291   0.196  -1.049  0.00  0.00    -0.369 OA
ATOM     15  H   UNL d   1      -1.738   0.719  -1.664  0.00  0.00     0.212 HD
ENDBRANCH   3  14
BRANCH   5  16
ATOM     16  O   UNL d   1       2.237  -1.095  -0.311  0.00  0.00    -0.390 OA
ATOM     17  H   UNL d   1       2.199  -0.907  -1.267  0.00  0.00     0.210 HD
ENDBRANCH   5  16
BRANCH   6  18
ATOM     18  C   UNL d   1      -0.019  -2.973   0.243  0.00  0.00     0.198 C 
BRANCH  18  19
ATOM     19  O   UNL d   1      -1.178  -3.681  -0.208  0.00  0.00    -0.398 OA
ATOM     20  H   UNL d   1      -1.942  -3.105  -0.003  0.00  0.00     0.209 HD
ENDBRANCH  18  19
ENDBRANCH   6  18
TORSDOF 6
