REMARK  3 active torsions:
REMARK  status: ('A' for Active; 'I' for Inactive)
REMARK    1  A    between atoms: C_3  and  C_1 
REMARK    2  A    between atoms: C_7  and  C_2 
REMARK    3  A    between atoms: C_19  and  C_13 
ROOT
ATOM      1  C   UNL d   1       1.161  -0.013  -0.043  0.00  0.00     0.036 C 
ATOM      2  C   UNL d   1       0.462  -1.178  -0.041  0.00  0.00     0.055 C 
ATOM      3  C   UNL d   1       1.168  -2.456  -0.058  0.00  0.00     0.100 C 
ATOM      4  N   UNL d   1       1.750  -3.473  -0.086  0.00  0.00    -0.191 NA
ENDROOT
BRANCH   2   5
ATOM      5  C   UNL d   1      -1.052  -1.147  -0.060  0.00  0.00    -0.015 A 
ATOM      6  C   UNL d   1      -1.766  -2.179  -0.698  0.00  0.00     0.013 A 
ATOM      7  C   UNL d   1      -3.167  -2.215  -0.699  0.00  0.00     0.008 A 
ATOM      8  C   UNL d   1      -3.902  -1.216  -0.057  0.00  0.00    -0.059 A 
ATOM      9  C   UNL d   1      -3.215  -0.172   0.569  0.00  0.00     0.008 A 
ATOM     10  C   UNL d   1      -1.812  -0.140   0.573  0.00  0.00     0.013 A 
BRANCH   8  11
ATOM     11  C   UNL d   1      -5.409  -1.257  -0.048  0.00  0.00     0.034 C 
ATOM     12  C   UNL d   1      -6.011  -0.529  -1.239  0.00  0.00     0.010 C 
ENDBRANCH   8  11
ENDBRANCH   2   5
BRANCH   1  13
ATOM     13  C   UNL d   1       2.647   0.089  -0.047  0.00  0.00    -0.024 A 
ATOM     14  C   UNL d   1       3.413   0.176  -1.246  0.00  0.00    -0.016 A 
ATOM     15  C   UNL d   1       4.825   0.333  -1.155  0.00  0.00    -0.025 A 
ATOM     16  C   UNL d   1       2.854   0.120  -2.543  0.00  0.00     0.013 A 
ATOM     17  C   UNL d   1       5.609   0.431  -2.317  0.00  0.00     0.012 A 
ATOM     18  C   UNL d   1       5.443   0.394   0.100  0.00  0.00     0.012 A 
ATOM     19  C   UNL d   1       5.025   0.367  -3.579  0.00  0.00     0.001 A 
ATOM     20  C   UNL d   1       3.650   0.210  -3.691  0.00  0.00     0.001 A 
ATOM     21  C   UNL d   1       4.690   0.287   1.265  0.00  0.00     0.002 A 
ATOM     22  C   UNL d   1       3.304   0.133   1.194  0.00  0.00     0.012 A 
ENDBRANCH   1  13
TORSDOF 3
