REMARK  4 active torsions:
REMARK  status: ('A' for Active; 'I' for Inactive)
REMARK    1  A    between atoms: C_3  and  C_1 
REMARK    2  A    between atoms: C_2  and  N_4 
REMARK    3  A    between atoms: O_11  and  C_2 
REMARK    4  A    between atoms: N_4  and  C_7 
ROOT
ATOM      1  C   UNL d   1       0.522  -0.067   1.421  0.00  0.00     0.050 A 
ATOM      2  C   UNL d   1       0.582  -1.439   1.716  0.00  0.00     0.045 A 
ATOM      3  C   UNL d   1       0.259  -1.918   2.987  0.00  0.00     0.035 A 
ATOM      4  C   UNL d   1       0.138   0.828   2.428  0.00  0.00     0.016 A 
ATOM      5  C   UNL d   1      -0.212   0.356   3.692  0.00  0.00     0.003 A 
ATOM      6  C   UNL d   1      -0.171  -1.013   3.963  0.00  0.00     0.029 A 
ENDROOT
BRANCH   3   7
ATOM      7  N   UNL d   1       0.270  -3.286   3.325  0.00  0.00    -0.328 N 
ATOM      8  H   UNL d   1      -0.296  -3.562   4.119  0.00  0.00     0.169 HD
BRANCH   7   9
ATOM      9  C   UNL d   1       0.964  -4.338   2.776  0.00  0.00     0.214 C 
ATOM     10  S   UNL d   1       2.320  -4.314   1.808  0.00  0.00    -0.033 SA
BRANCH   9  11
ATOM     11  O   UNL d   1       0.433  -5.497   3.255  0.00  0.00    -0.332 OA
ATOM     12  C   UNL d   1       0.783  -6.783   2.702  0.00  0.00     0.212 C 
ENDBRANCH   9  11
ENDBRANCH   7   9
ENDBRANCH   3   7
BRANCH   1  13
ATOM     13  C   UNL d   1       0.852   0.438   0.039  0.00  0.00     0.417 C 
ATOM     14  F   UNL d   1       1.129  -0.549  -0.858  0.00  0.00    -0.166 F 
ATOM     15  F   UNL d   1       1.931   1.266   0.030  0.00  0.00    -0.166 F 
ATOM     16  F   UNL d   1      -0.171   1.155  -0.507  0.00  0.00    -0.166 F 
ENDBRANCH   1  13
TORSDOF 4
