REMARK  6 active torsions:
REMARK  status: ('A' for Active; 'I' for Inactive)
REMARK    1  A    between atoms: C_15  and  C_3 
REMARK    2  A    between atoms: N_10  and  C_5 
REMARK       I    between atoms: C_7  and  N_11 
REMARK    3  A    between atoms: C_12  and  C_7 
REMARK    4  A    between atoms: N_11  and  N_10 
REMARK    5  A    between atoms: O_23  and  C_17 
REMARK    6  A    between atoms: O_24  and  C_19 
ROOT
ATOM      1  N   UNL d   1      -0.737  -2.929  -0.355  0.00  0.00    -0.186 NA
ATOM      2  H   UNL d   1       0.185  -3.210  -0.010  0.00  0.00     0.154 HD
ENDROOT
BRANCH   1   3
ATOM      3  C   UNL d   1      -0.993  -1.557  -0.171  0.00  0.00     0.119 A 
ATOM      4  C   UNL d   1       0.035  -0.620   0.021  0.00  0.00     0.072 A 
ATOM      5  S   UNL d   1       1.731  -0.863   0.160  0.00  0.00    -0.088 SA
ATOM      6  C   UNL d   1      -0.279   0.727   0.122  0.00  0.00     0.054 A 
ATOM      7  C   UNL d   1       2.066   0.821   0.323  0.00  0.00    -0.007 A 
ATOM      8  C   UNL d   1       0.883   1.542   0.285  0.00  0.00     0.046 A 
ATOM      9  N   UNL d   1      -1.550   1.191   0.059  0.00  0.00    -0.351 N 
ATOM     10  C   UNL d   1      -2.468   0.236  -0.109  0.00  0.00     0.182 A 
ATOM     11  HN  UNL d   1      -1.786   2.181   0.134  1.00  0.00     0.166 HD
ATOM     12  N   UNL d   1      -2.268  -1.087  -0.223  0.00  0.00    -0.341 N 
ATOM     13  HN  UNL d   1      -3.055  -1.724  -0.347  1.00  0.00     0.167 HD
BRANCH   7  14
ATOM     14  C   UNL d   1       3.509   1.327   0.473  0.00  0.00    -0.018 C 
ATOM     15  C   UNL d   1       4.356   0.916  -0.749  0.00  0.00     0.020 C 
ATOM     16  C   UNL d   1       3.555   2.868   0.573  0.00  0.00     0.020 C 
ATOM     17  C   UNL d   1       4.154   0.762   1.755  0.00  0.00     0.020 C 
ENDBRANCH   7  14
ENDBRANCH   1   3
BRANCH   1  18
ATOM     18  N   UNL d   1      -1.769  -3.754   0.114  0.00  0.00    -0.281 N 
ATOM     19  C   UNL d   1      -1.409  -4.991   0.618  0.00  0.00     0.266 C 
ATOM     20  O   UNL d   1      -0.244  -5.364   0.725  0.00  0.00    -0.266 OA
ATOM     21  H   UNL d   1      -2.706  -3.510  -0.194  0.00  0.00     0.184 HD
BRANCH  19  22
ATOM     22  C   UNL d   1      -2.523  -5.885   1.019  0.00  0.00     0.036 A 
ATOM     23  C   UNL d   1      -2.367  -7.275   0.882  0.00  0.00     0.056 A 
ATOM     24  C   UNL d   1      -3.390  -8.162   1.257  0.00  0.00     0.102 A 
ATOM     25  C   UNL d   1      -4.580  -7.639   1.796  0.00  0.00     0.101 A 
ATOM     26  C   UNL d   1      -4.711  -6.250   1.961  0.00  0.00     0.040 A 
ATOM     27  C   UNL d   1      -3.696  -5.374   1.577  0.00  0.00     0.020 A 
BRANCH  24  28
ATOM     28  O   UNL d   1      -3.283  -9.521   1.129  0.00  0.00    -0.353 OA
ATOM     29  C   UNL d   1      -2.099 -10.061   0.558  0.00  0.00     0.210 C 
ENDBRANCH  24  28
BRANCH  25  30
ATOM     30  O   UNL d   1      -5.701  -8.307   2.217  0.00  0.00    -0.353 OA
ATOM     31  C   UNL d   1      -5.763  -9.718   2.079  0.00  0.00     0.210 C 
ENDBRANCH  25  30
ENDBRANCH  19  22
ENDBRANCH   1  18
TORSDOF 6
