REMARK  5 active torsions:
REMARK  status: ('A' for Active; 'I' for Inactive)
REMARK    1  A    between atoms: N_2  and  C_1 
REMARK    2  A    between atoms: C_3  and  C_8 
REMARK    3  A    between atoms: O_7  and  C_4 
REMARK    4  A    between atoms: C_5  and  O_7 
REMARK    5  A    between atoms: C_9  and  C_5 
ROOT
ATOM      1  C   UNL d   1      -0.886  -1.559  -1.136  0.00  0.00     0.137 A 
ATOM      2  C   UNL d   1       0.453  -1.343  -0.797  0.00  0.00     0.112 A 
ATOM      3  C   UNL d   1      -1.730  -0.525  -1.536  0.00  0.00     0.055 A 
ATOM      4  C   UNL d   1      -1.206   0.768  -1.646  0.00  0.00     0.050 A 
ATOM      5  C   UNL d   1       0.977  -0.059  -0.872  0.00  0.00     0.041 A 
ATOM      6  C   UNL d   1       0.148   0.990  -1.309  0.00  0.00     0.019 A 
ENDROOT
BRANCH   2   7
ATOM      7  O   UNL d   1       1.175  -2.476  -0.366  0.00  0.00    -0.272 OA
BRANCH   7   8
ATOM      8  C   UNL d   1       2.533  -2.692  -0.148  0.00  0.00     0.298 C 
ATOM      9  O   UNL d   1       3.430  -1.894  -0.330  0.00  0.00    -0.259 OA
BRANCH   8  10
ATOM     10  C   UNL d   1       2.679  -4.099   0.343  0.00  0.00     0.040 A 
ATOM     11  C   UNL d   1       1.561  -4.898   0.640  0.00  0.00     0.024 A 
ATOM     12  C   UNL d   1       1.705  -6.208   1.111  0.00  0.00    -0.061 A 
ATOM     13  C   UNL d   1       0.494  -7.033   1.439  0.00  0.00     0.048 C 
ATOM     14  C   UNL d   1       2.991  -6.726   1.280  0.00  0.00     0.007 A 
ATOM     15  C   UNL d   1       4.112  -5.944   0.984  0.00  0.00     0.002 A 
ATOM     16  C   UNL d   1       3.959  -4.633   0.519  0.00  0.00     0.017 A 
ENDBRANCH   8  10
ENDBRANCH   7   8
ENDBRANCH   2   7
BRANCH   1  17
ATOM     17  N   UNL d   1      -1.393  -2.908  -1.182  0.00  0.00    -0.113 N 
ATOM     18  O   UNL d   1      -1.339  -3.481  -2.276  0.00  0.00    -0.532 OA
ATOM     19  O   UNL d   1      -1.847  -3.378  -0.133  0.00  0.00    -0.532 OA
ENDBRANCH   1  17
BRANCH   4  20
ATOM     20  C   UNL d   1      -2.065   1.881  -2.204  0.00  0.00     0.417 C 
ATOM     21  F   UNL d   1      -3.378   1.534  -2.316  0.00  0.00    -0.166 F 
ATOM     22  F   UNL d   1      -2.037   3.008  -1.446  0.00  0.00    -0.166 F 
ATOM     23  F   UNL d   1      -1.670   2.248  -3.453  0.00  0.00    -0.166 F 
ENDBRANCH   4  20
TORSDOF 5
