REMARK  10 active torsions:
REMARK  status: ('A' for Active; 'I' for Inactive)
REMARK    1  A    between atoms: C_6  and  N_1 
REMARK    2  A    between atoms: C_2  and  N_7 
REMARK    3  A    between atoms: N_4  and  C_2 
REMARK    4  A    between atoms: C_3  and  C_12 
REMARK       I    between atoms: N_5  and  C_3 
REMARK    5  A    between atoms: C_8  and  N_4 
REMARK    6  A    between atoms: N_7  and  N_5 
REMARK    7  A    between atoms: O_19  and  C_14 
REMARK    8  A    between atoms: C_23  and  O_19 
REMARK    9  A    between atoms: O_20  and  C_24 
REMARK   10  A    between atoms: C_24  and  C_23 
ROOT
ATOM      1  C   UNL d   1      -4.277   5.465   0.464  0.00  0.00     0.191 C 
ATOM      2  S   UNL d   1      -4.958   4.617   1.744  0.00  0.00    -0.039 SA
ENDROOT
BRANCH   1   3
ATOM      3  N   UNL d   1      -2.933   5.433   0.166  0.00  0.00    -0.273 N 
ATOM      4  H   UNL d   1      -2.467   6.332   0.053  0.00  0.00     0.189 HD
BRANCH   3   5
ATOM      5  N   UNL d   1      -2.084   4.422   0.676  0.00  0.00    -0.264 N 
ATOM      6  C   UNL d   1      -0.716   4.642   0.716  0.00  0.00     0.270 C 
ATOM      7  O   UNL d   1      -0.220   5.735   0.442  0.00  0.00    -0.266 OA
ATOM      8  H   UNL d   1      -2.530   3.533   0.874  0.00  0.00     0.190 HD
BRANCH   6   9
ATOM      9  C   UNL d   1       0.163   3.495   1.139  0.00  0.00     0.033 A 
ATOM     10  C   UNL d   1      -0.292   2.168   1.222  0.00  0.00     0.019 A 
ATOM     11  C   UNL d   1       0.554   1.147   1.671  0.00  0.00     0.037 A 
ATOM     12  C   UNL d   1       1.876   1.439   2.032  0.00  0.00     0.102 A 
ATOM     13  C   UNL d   1       2.363   2.747   1.913  0.00  0.00     0.037 A 
ATOM     14  C   UNL d   1       1.507   3.764   1.464  0.00  0.00     0.019 A 
BRANCH  12  15
ATOM     15  N   UNL d   1       2.752   0.374   2.547  0.00  0.00    -0.116 N 
ATOM     16  O   UNL d   1       3.918   0.673   2.836  0.00  0.00    -0.532 OA
ATOM     17  O   UNL d   1       2.264  -0.759   2.666  0.00  0.00    -0.532 OA
ENDBRANCH  12  15
ENDBRANCH   6   9
ENDBRANCH   3   5
ENDBRANCH   1   3
BRANCH   1  18
ATOM     18  N   UNL d   1      -5.130   6.173  -0.362  0.00  0.00    -0.330 N 
ATOM     19  H   UNL d   1      -6.098   6.150  -0.049  0.00  0.00     0.168 HD
BRANCH  18  20
ATOM     20  C   UNL d   1      -5.010   6.450  -1.757  0.00  0.00     0.068 A 
ATOM     21  C   UNL d   1      -6.177   6.603  -2.558  0.00  0.00     0.095 A 
ATOM     22  C   UNL d   1      -6.018   6.669  -3.961  0.00  0.00     0.039 A 
ATOM     23  C   UNL d   1      -4.770   6.629  -4.567  0.00  0.00     0.003 A 
ATOM     24  C   UNL d   1      -3.638   6.568  -3.784  0.00  0.00     0.002 A 
ATOM     25  C   UNL d   1      -3.758   6.492  -2.401  0.00  0.00     0.032 A 
BRANCH  21  26
ATOM     26  O   UNL d   1      -7.442   6.642  -1.956  0.00  0.00    -0.347 OA
BRANCH  26  27
ATOM     27  C   UNL d   1      -8.509   6.850  -2.909  0.00  0.00     0.201 C 
BRANCH  27  28
ATOM     28  C   UNL d   1      -9.946   6.947  -2.389  0.00  0.00     0.193 C 
BRANCH  28  29
ATOM     29  O   UNL d   1     -10.764   7.088  -3.566  0.00  0.00    -0.394 OA
ATOM     30  C   UNL d   1     -12.155   7.178  -3.308  0.00  0.00     0.201 C 
ENDBRANCH  28  29
ENDBRANCH  27  28
ENDBRANCH  26  27
ENDBRANCH  21  26
ENDBRANCH  18  20
ENDBRANCH   1  18
TORSDOF 10
