REMARK  4 active torsions:
REMARK  status: ('A' for Active; 'I' for Inactive)
REMARK    1  A    between atoms: N_13  and  C_5 
REMARK    2  A    between atoms: C_6  and  N_14 
REMARK    3  A    between atoms: C_23  and  C_7 
REMARK    4  A    between atoms: C_24  and  C_8 
ROOT
ATOM      1  N   UNL d   1      -0.912  -2.909   0.205  0.00  0.00    -0.265 NA
ATOM      2  N   UNL d   1      -0.181  -5.661   0.202  0.00  0.00    -0.364 N 
ATOM      3  C   UNL d   1       0.264  -4.790   1.291  0.00  0.00     0.139 C 
ATOM      4  C   UNL d   1      -1.265  -3.756  -0.960  0.00  0.00     0.117 C 
ATOM      5  C   UNL d   1       0.373  -3.327   0.801  0.00  0.00     0.117 C 
ATOM      6  C   UNL d   1      -1.386  -5.233  -0.524  0.00  0.00     0.139 C 
ENDROOT
BRANCH   1   7
ATOM      7  C   UNL d   1      -1.003  -1.536  -0.046  0.00  0.00     0.103 A 
ATOM      8  C   UNL d   1      -1.161  -0.578   0.975  0.00  0.00     0.070 A 
ATOM      9  S   UNL d   1      -1.183  -0.763   2.687  0.00  0.00    -0.088 SA
ATOM     10  C   UNL d   1      -1.383   0.750   0.633  0.00  0.00     0.054 A 
ATOM     11  C   UNL d   1      -1.486   0.904   2.979  0.00  0.00    -0.007 A 
ATOM     12  C   UNL d   1      -1.580   1.581   1.776  0.00  0.00     0.046 A 
ATOM     13  N   UNL d   1      -1.429   1.185  -0.649  0.00  0.00    -0.351 N 
ATOM     14  C   UNL d   1      -1.260   0.219  -1.551  0.00  0.00     0.182 A 
ATOM     15  HN  UNL d   1      -1.580   2.162  -0.900  1.00  0.00     0.166 HD
ATOM     16  N   UNL d   1      -1.063  -1.086  -1.323  0.00  0.00    -0.342 N 
ATOM     17  HN  UNL d   1      -0.960  -1.735  -2.103  1.00  0.00     0.167 HD
BRANCH  11  18
ATOM     18  C   UNL d   1      -1.617   1.442   4.410  0.00  0.00    -0.018 C 
ATOM     19  C   UNL d   1      -0.265   1.339   5.144  0.00  0.00     0.020 C 
ATOM     20  C   UNL d   1      -2.038   2.928   4.407  0.00  0.00     0.020 C 
ATOM     21  C   UNL d   1      -2.688   0.659   5.196  0.00  0.00     0.020 C 
ENDBRANCH  11  18
ENDBRANCH   1   7
BRANCH   2  22
ATOM     22  C   UNL d   1       0.339  -6.910  -0.039  0.00  0.00     0.123 A 
ATOM     23  C   UNL d   1       0.882  -7.782   0.924  0.00  0.00     0.076 A 
ATOM     24  S   UNL d   1       0.912  -7.675   2.641  0.00  0.00    -0.088 SA
ATOM     25  C   UNL d   1       1.476  -8.974   0.514  0.00  0.00     0.055 A 
ATOM     26  C   UNL d   1       1.782  -9.138   2.844  0.00  0.00    -0.007 A 
ATOM     27  C   UNL d   1       2.008  -9.722   1.609  0.00  0.00     0.046 A 
ATOM     28  N   UNL d   1       1.542  -9.356  -0.782  0.00  0.00    -0.351 N 
ATOM     29  C   UNL d   1       0.959  -8.504  -1.624  0.00  0.00     0.182 A 
ATOM     30  HN  UNL d   1       1.996 -10.217  -1.087  1.00  0.00     0.166 HD
ATOM     31  N   UNL d   1       0.367  -7.339  -1.327  0.00  0.00    -0.338 N 
ATOM     32  HN  UNL d   1      -0.059  -6.778  -2.064  1.00  0.00     0.168 HD
BRANCH  26  33
ATOM     33  C   UNL d   1       2.170  -9.614   4.247  0.00  0.00    -0.018 C 
ATOM     34  C   UNL d   1       0.909  -9.821   5.111  0.00  0.00     0.020 C 
ATOM     35  C   UNL d   1       2.927 -10.957   4.188  0.00  0.00     0.020 C 
ATOM     36  C   UNL d   1       3.094  -8.584   4.930  0.00  0.00     0.020 C 
ENDBRANCH  26  33
ENDBRANCH   2  22
TORSDOF 4
