REMARK  5 active torsions:
REMARK  status: ('A' for Active; 'I' for Inactive)
REMARK    1  A    between atoms: O_11  and  C_3 
REMARK    2  A    between atoms: C_9  and  C_4 
REMARK    3  A    between atoms: S_10  and  C_5 
REMARK    4  A    between atoms: C_12  and  C_9 
REMARK    5  A    between atoms: C_14  and  C_12 
ROOT
ATOM      1  N   UNL d   1      -0.419   1.224   0.545  0.00  0.00    -0.317 N 
ATOM      2  HN  UNL d   1      -0.782   2.067   0.991  1.00  0.00     0.170 HD
ATOM      3  C   UNL d   1      -1.089   0.067   0.543  0.00  0.00     0.150 A 
ATOM      4  C   UNL d   1      -0.690  -1.112  -0.055  0.00  0.00     0.015 A 
ATOM      5  C   UNL d   1       0.760   1.194  -0.082  0.00  0.00     0.143 A 
ATOM      6  N   UNL d   1       1.287   0.118  -0.679  0.00  0.00    -0.340 N 
ATOM      7  HN  UNL d   1       2.198   0.159  -1.136  1.00  0.00     0.167 HD
ATOM      8  C   UNL d   1       0.564  -1.026  -0.654  0.00  0.00     0.018 A 
ATOM      9  C   UNL d   1       1.224  -2.207  -1.307  0.00  0.00     0.069 C 
ENDROOT
BRANCH   4  10
ATOM     10  C   UNL d   1      -1.454  -2.408   0.005  0.00  0.00     0.045 C 
BRANCH  10  11
ATOM     11  C   UNL d   1      -2.991  -2.371   0.009  0.00  0.00     0.009 C 
BRANCH  11  12
ATOM     12  C   UNL d   1      -3.644  -1.655  -1.189  0.00  0.00    -0.023 C 
ATOM     13  C   UNL d   1      -3.295  -2.314  -2.524  0.00  0.00     0.009 C 
ATOM     14  C   UNL d   1      -5.163  -1.632  -1.000  0.00  0.00     0.009 C 
ENDBRANCH  11  12
ENDBRANCH  10  11
ENDBRANCH   4  10
BRANCH   3  15
ATOM     15  O   UNL d   1      -2.255   0.166   1.229  0.00  0.00    -0.346 OA
ATOM     16  H   UNL d   1      -2.241   1.107   1.477  0.00  0.00     0.219 HD
ENDBRANCH   3  15
BRANCH   5  17
ATOM     17  S   UNL d   1       1.694   2.692  -0.098  0.00  0.00    -0.107 SA
ATOM     18  H   UNL d   1       0.774   3.373   0.593  0.00  0.00     0.110 HD
ENDBRANCH   5  17
TORSDOF 5
