REMARK  4 active torsions:
REMARK  status: ('A' for Active; 'I' for Inactive)
REMARK    1  A    between atoms: C_12  and  C_1 
REMARK    2  A    between atoms: C_11  and  C_2 
REMARK    3  A    between atoms: C_3  and  C_6 
REMARK    4  A    between atoms: C_5  and  C_4 
REMARK       I    between atoms: N_14  and  C_5 
REMARK       I    between atoms: C_6  and  N_13 
REMARK       I    between atoms: N_13  and  C_15 
REMARK       I    between atoms: C_15  and  N_14 
ROOT
ATOM      1  C   UNL d   1      -1.095  -4.188   1.895  0.00  0.00     0.264 C 
ATOM      2  C   UNL d   1      -0.411  -1.571  -1.332  0.00  0.00     0.264 C 
ATOM      3  N   UNL d   1      -1.169  -2.717  -1.407  0.00  0.00    -0.275 N 
ATOM      4  N   UNL d   1      -0.720  -3.502   0.759  0.00  0.00    -0.275 N 
ATOM      5  C   UNL d   1      -1.476  -3.586  -0.380  0.00  0.00     0.329 C 
ATOM      6  O   UNL d   1       0.454  -1.426  -0.468  0.00  0.00    -0.267 OA
ATOM      7  O   UNL d   1      -1.516  -5.343   1.888  0.00  0.00    -0.267 OA
ATOM      8  O   UNL d   1      -2.432  -4.338  -0.549  0.00  0.00    -0.246 OA
ATOM      9  H   UNL d   1      -1.892  -2.761  -2.115  0.00  0.00     0.173 HD
ATOM     10  H   UNL d   1      -0.234  -2.622   0.866  0.00  0.00     0.173 HD
ENDROOT
BRANCH   2  11
ATOM     11  C   UNL d   1      -0.801  -0.501  -2.231  0.00  0.00     0.093 C 
ATOM     12  C   UNL d   1      -1.059  -0.385  -3.641  0.00  0.00     0.086 C 
ATOM     13  N   UNL d   1      -1.557   0.835  -3.914  0.00  0.00    -0.259 N 
ATOM     14  O   UNL d   1      -1.457   1.571  -2.763  0.00  0.00    -0.241 OA
ATOM     15  HN  UNL d   1      -1.935   1.150  -4.806  1.00  0.00     0.195 HD
ATOM     16  C   UNL d   1      -0.969   0.794  -1.771  0.00  0.00     0.090 C 
ATOM     17  C   UNL d   1      -0.761   1.461  -0.469  0.00  0.00     0.080 C 
BRANCH  12  18
ATOM     18  C   UNL d   1      -0.804  -1.275  -4.780  0.00  0.00     0.037 A 
ATOM     19  C   UNL d   1      -1.530  -2.454  -5.010  0.00  0.00     0.048 A 
ATOM     20 CL   UNL d   1      -2.822  -2.968  -3.984  0.00  0.00    -0.083 Cl
ATOM     21  C   UNL d   1      -1.292  -3.243  -6.147  0.00  0.00     0.025 A 
ATOM     22  C   UNL d   1      -0.377  -2.837  -7.115  0.00  0.00     0.003 A 
ATOM     23  C   UNL d   1       0.318  -1.647  -6.937  0.00  0.00     0.025 A 
ATOM     24  C   UNL d   1       0.124  -0.883  -5.778  0.00  0.00     0.048 A 
ATOM     25 CL   UNL d   1       1.087   0.557  -5.656  0.00  0.00    -0.083 Cl
ENDBRANCH  12  18
ENDBRANCH   2  11
BRANCH   1  26
ATOM     26  C   UNL d   1      -0.911  -3.494   3.155  0.00  0.00     0.093 A 
ATOM     27  C   UNL d   1      -1.758  -3.597   4.307  0.00  0.00     0.086 A 
ATOM     28  N   UNL d   1      -1.311  -2.818   5.301  0.00  0.00    -0.259 N 
ATOM     29  O   UNL d   1      -0.171  -2.210   4.831  0.00  0.00    -0.241 OA
ATOM     30  HN  UNL d   1      -1.732  -2.700   6.223  1.00  0.00     0.195 HD
ATOM     31  C   UNL d   1       0.067  -2.607   3.551  0.00  0.00     0.090 A 
ATOM     32  C   UNL d   1       1.276  -2.020   2.937  0.00  0.00     0.080 C 
BRANCH  27  33
ATOM     33  C   UNL d   1      -3.012  -4.331   4.449  0.00  0.00     0.037 A 
ATOM     34  C   UNL d   1      -3.123  -5.439   5.309  0.00  0.00     0.048 A 
ATOM     35 CL   UNL d   1      -1.783  -6.045   6.225  0.00  0.00    -0.083 Cl
ATOM     36  C   UNL d   1      -4.341  -6.116   5.449  0.00  0.00     0.025 A 
ATOM     37  C   UNL d   1      -5.464  -5.705   4.731  0.00  0.00     0.003 A 
ATOM     38  C   UNL d   1      -5.369  -4.614   3.873  0.00  0.00     0.025 A 
ATOM     39  C   UNL d   1      -4.157  -3.929   3.732  0.00  0.00     0.048 A 
ATOM     40 CL   UNL d   1      -4.152  -2.558   2.668  0.00  0.00    -0.083 Cl
ENDBRANCH  27  33
ENDBRANCH   1  26
TORSDOF 4
