REMARK  2 active torsions:
REMARK  status: ('A' for Active; 'I' for Inactive)
REMARK    1  A    between atoms: C_9  and  C_3 
REMARK    2  A    between atoms: C_10  and  C_4 
ROOT
ATOM      1  N   UNL d   1      -0.007  -3.562  -2.472  0.00  0.00    -0.197 NA
ATOM      2  C   UNL d   1      -0.492  -2.528  -2.267  0.00  0.00     0.065 C 
ATOM      3  C   UNL d   1      -1.122  -1.201  -2.000  0.00  0.00     0.188 C 
ENDROOT
BRANCH   3   4
ATOM      4  C   UNL d   1      -0.329  -0.464  -0.953  0.00  0.00     0.064 A 
ATOM      5  N   UNL d   1       0.705   0.316  -1.206  0.00  0.00    -0.352 N 
ATOM      6  C   UNL d   1       1.261   0.784  -0.021  0.00  0.00     0.049 A 
ATOM      7  HN  UNL d   1       1.047   0.544  -2.139  1.00  0.00     0.166 HD
ATOM      8  C   UNL d   1       0.621   0.347   1.123  0.00  0.00     0.081 A 
ATOM      9  S   UNL d   1      -0.712  -0.649   0.715  0.00  0.00    -0.085 SA
BRANCH   6  10
ATOM     10  C   UNL d   1       2.445   1.639  -0.015  0.00  0.00    -0.009 A 
ATOM     11  C   UNL d   1       2.683   2.564   1.012  0.00  0.00     0.014 A 
ATOM     12  C   UNL d   1       3.828   3.367   1.000  0.00  0.00     0.007 A 
ATOM     13  C   UNL d   1       4.758   3.264  -0.039  0.00  0.00    -0.062 A 
ATOM     14  C   UNL d   1       4.524   2.346  -1.068  0.00  0.00     0.007 A 
ATOM     15  C   UNL d   1       5.984   4.129  -0.035  0.00  0.00     0.048 C 
ATOM     16  C   UNL d   1       3.376   1.545  -1.058  0.00  0.00     0.014 A 
ENDBRANCH   6  10
ENDBRANCH   3   4
TORSDOF 2
