REMARK  6 active torsions:
REMARK  status: ('A' for Active; 'I' for Inactive)
REMARK    1  A    between atoms: C_11  and  C_1 
REMARK    2  A    between atoms: N_6  and  C_2 
REMARK       I    between atoms: C_3  and  N_6 
REMARK    3  A    between atoms: C_4  and  C_3 
REMARK    4  A    between atoms: C_13  and  C_5 
REMARK    5  A    between atoms: O_20  and  C_11 
REMARK    6  A    between atoms: O_19  and  C_13 
ROOT
ATOM      1  C   UNL d   1       2.980   2.798  -0.492  0.00  0.00     0.227 C 
ATOM      2  N   UNL d   1       2.882   1.504  -0.015  0.00  0.00    -0.325 N 
ATOM      3  O   UNL d   1       4.036   3.377  -0.720  0.00  0.00    -0.273 OA
ATOM      4  H   UNL d   1       1.992   1.237   0.388  0.00  0.00     0.169 HD
ENDROOT
BRANCH   1   5
ATOM      5  C   UNL d   1       1.613   3.509  -0.598  0.00  0.00     0.096 C 
ATOM      6  C   UNL d   1       0.662   2.839  -1.618  0.00  0.00     0.101 C 
ATOM      7  C   UNL d   1       0.320   3.687  -2.848  0.00  0.00     0.050 C 
ATOM      8  C   UNL d   1       0.109   5.153  -2.566  0.00  0.00    -0.081 C 
ATOM      9  C   UNL d   1       0.824   5.772  -1.608  0.00  0.00    -0.081 C 
ATOM     10  C   UNL d   1      -0.861   5.848  -3.484  0.00  0.00     0.043 C 
ATOM     11  C   UNL d   1       1.840   5.023  -0.790  0.00  0.00     0.049 C 
ATOM     12  C   UNL d   1       0.779   7.258  -1.364  0.00  0.00     0.043 C 
BRANCH   6  13
ATOM     13  C   UNL d   1      -0.650   2.430  -0.970  0.00  0.00     0.144 C 
ATOM     14  O   UNL d   1      -1.110   2.812   0.091  0.00  0.00    -0.650 OA
BRANCH  13  15
ATOM     15  O   UNL d   1      -1.319   1.518  -1.709  0.00  0.00    -0.776 OA
ATOM     16  H   UNL d   1      -2.172   1.387  -1.242  0.00  0.00     0.167 HD
ENDBRANCH  13  15
ENDBRANCH   6  13
ENDBRANCH   1   5
BRANCH   2  17
ATOM     17  C   UNL d   1       3.963   0.703   0.380  0.00  0.00     0.058 A 
ATOM     18  C   UNL d   1       5.294   0.710  -0.034  0.00  0.00     0.106 A 
ATOM     19  S   UNL d   1       6.242  -0.382   0.924  0.00  0.00    -0.094 SA
ATOM     20  C   UNL d   1       4.892  -0.920   1.803  0.00  0.00     0.053 A 
ATOM     21  C   UNL d   1       3.741  -0.290   1.395  0.00  0.00     0.038 A 
BRANCH  18  22
ATOM     22  C   UNL d   1       6.024   1.406  -1.075  0.00  0.00     0.302 C 
ATOM     23  O   UNL d   1       7.202   1.762  -1.001  0.00  0.00    -0.259 OA
BRANCH  22  24
ATOM     24  O   UNL d   1       5.267   1.517  -2.209  0.00  0.00    -0.322 OA
ATOM     25  C   UNL d   1       5.852   2.284  -3.265  0.00  0.00     0.213 C 
ENDBRANCH  22  24
ENDBRANCH  18  22
ENDBRANCH   2  17
TORSDOF 6
