REMARK  5 active torsions:
REMARK  status: ('A' for Active; 'I' for Inactive)
REMARK    1  A    between atoms: C_8  and  C_3 
REMARK    2  A    between atoms: C_19  and  C_4 
REMARK    3  A    between atoms: C_7  and  O_13 
REMARK    4  A    between atoms: C_11  and  C_7 
REMARK    5  A    between atoms: O_13  and  C_19 
ROOT
ATOM      1  N   UNL d   1       1.512  -0.533  -0.138  0.00  0.00    -0.351 N 
ATOM      2  HN  UNL d   1       2.403  -1.025  -0.202  1.00  0.00     0.166 HD
ATOM      3  C   UNL d   1       1.370   0.841  -0.028  0.00  0.00     0.049 A 
ATOM      4  C   UNL d   1       0.326  -1.112  -0.147  0.00  0.00     0.075 A 
ATOM      5  S   UNL d   1      -1.015  -0.035  -0.022  0.00  0.00    -0.084 SA
ATOM      6  C   UNL d   1       0.064   1.291   0.029  0.00  0.00     0.082 A 
ENDROOT
BRANCH   3   7
ATOM      7  C   UNL d   1       2.535   1.720   0.001  0.00  0.00    -0.006 A 
ATOM      8  C   UNL d   1       2.512   2.950   0.669  0.00  0.00     0.053 A 
ATOM      9  C   UNL d   1       3.631   3.788   0.665  0.00  0.00     0.102 A 
ATOM     10  O   UNL d   1       3.453   4.984   1.314  0.00  0.00    -0.348 OA
ATOM     11  C   UNL d   1       4.814   3.372   0.037  0.00  0.00     0.102 A 
ATOM     12  C   UNL d   1       4.110   6.074   0.666  0.00  0.00     0.178 C 
ATOM     13  C   UNL d   1       5.554   6.191   1.121  0.00  0.00     0.053 C 
ATOM     14  C   UNL d   1       6.237   4.835   1.191  0.00  0.00     0.178 C 
ATOM     15  O   UNL d   1       5.992   4.074   0.009  0.00  0.00    -0.348 OA
ATOM     16  C   UNL d   1       4.839   2.152  -0.639  0.00  0.00     0.040 A 
ATOM     17  C   UNL d   1       3.711   1.327  -0.652  0.00  0.00     0.017 A 
ENDBRANCH   3   7
BRANCH   4  18
ATOM     18  C   UNL d   1       0.069  -2.587  -0.191  0.00  0.00     0.243 C 
BRANCH  18  19
ATOM     19  O   UNL d   1       1.142  -3.269  -0.864  0.00  0.00    -0.314 OA
BRANCH  19  20
ATOM     20  C   UNL d   1       1.068  -3.296  -2.222  0.00  0.00     0.266 C 
ATOM     21  O   UNL d   1       0.218  -2.702  -2.875  0.00  0.00    -0.264 OA
BRANCH  20  22
ATOM     22  C   UNL d   1       2.116  -4.235  -2.839  0.00  0.00     0.037 C 
ATOM     23  C   UNL d   1       3.066  -4.839  -1.793  0.00  0.00     0.025 C 
ATOM     24  C   UNL d   1       1.355  -5.370  -3.544  0.00  0.00     0.025 C 
ATOM     25  C   UNL d   1       2.950  -3.469  -3.874  0.00  0.00     0.025 C 
ENDBRANCH  20  22
ENDBRANCH  19  20
ENDBRANCH  18  19
ENDBRANCH   4  18
TORSDOF 5
