REMARK  5 active torsions:
REMARK  status: ('A' for Active; 'I' for Inactive)
REMARK    1  A    between atoms: C_9  and  C_2 
REMARK    2  A    between atoms: S_8  and  C_5 
REMARK    3  A    between atoms: C_17  and  S_8 
REMARK    4  A    between atoms: C_10  and  C_11 
REMARK    5  A    between atoms: C_18  and  C_17 
ROOT
ATOM      1  N   UNL d   1       0.809  -0.043   0.029  0.00  0.00    -0.315 N 
ATOM      2  C   UNL d   1      -0.044   1.040  -0.080  0.00  0.00     0.134 A 
ATOM      3  N   UNL d   1      -1.285   0.574  -0.070  0.00  0.00    -0.283 N 
ATOM      4  HN  UNL d   1      -2.131   1.144  -0.079  1.00  0.00     0.188 HD
ATOM      5  C   UNL d   1       0.011  -1.157  -0.004  0.00  0.00     0.162 A 
ATOM      6  N   UNL d   1      -1.247  -0.799  -0.046  0.00  0.00    -0.278 N 
ATOM      7  HN  UNL d   1      -2.052  -1.425  -0.058  1.00  0.00     0.189 HD
ATOM      8  C   UNL d   1       2.241  -0.040   0.189  0.00  0.00     0.160 C 
ENDROOT
BRANCH   2   9
ATOM      9  C   UNL d   1       0.312   2.464  -0.143  0.00  0.00     0.009 A 
ATOM     10  C   UNL d   1       1.429   2.933  -0.843  0.00  0.00     0.016 A 
ATOM     11  C   UNL d   1       1.762   4.293  -0.844  0.00  0.00     0.009 A 
ATOM     12  C   UNL d   1       0.970   5.248  -0.182  0.00  0.00    -0.051 A 
ATOM     13  C   UNL d   1      -0.184   4.778   0.463  0.00  0.00     0.009 A 
ATOM     14  C   UNL d   1      -0.504   3.411   0.485  0.00  0.00     0.016 A 
BRANCH  12  15
ATOM     15  C   UNL d   1       1.384   6.731  -0.180  0.00  0.00    -0.024 C 
ATOM     16  C   UNL d   1       0.379   7.653   0.545  0.00  0.00     0.019 C 
ATOM     17  C   UNL d   1       2.745   6.882   0.535  0.00  0.00     0.019 C 
ATOM     18  C   UNL d   1       1.520   7.252  -1.627  0.00  0.00     0.019 C 
ENDBRANCH  12  15
ENDBRANCH   2   9
BRANCH   5  19
ATOM     19  S   UNL d   1       0.619  -2.779   0.017  0.00  0.00    -0.088 SA
BRANCH  19  20
ATOM     20  C   UNL d   1      -0.759  -3.661  -0.775  0.00  0.00     0.121 C 
BRANCH  20  21
ATOM     21  C   UNL d   1      -0.538  -5.157  -0.807  0.00  0.00    -0.049 A 
ATOM     22  C   UNL d   1      -1.033  -5.971   0.224  0.00  0.00     0.008 A 
ATOM     23  C   UNL d   1      -0.857  -7.356   0.183  0.00  0.00     0.001 A 
ATOM     24  C   UNL d   1      -0.179  -7.943  -0.882  0.00  0.00     0.000 A 
ATOM     25  C   UNL d   1       0.332  -7.147  -1.904  0.00  0.00     0.001 A 
ATOM     26  C   UNL d   1       0.157  -5.763  -1.866  0.00  0.00     0.008 A 
ENDBRANCH  20  21
ENDBRANCH  19  20
ENDBRANCH   5  19
TORSDOF 5
