REMARK  7 active torsions:
REMARK  status: ('A' for Active; 'I' for Inactive)
REMARK    1  A    between atoms: C_2  and  C_1 
REMARK       I    between atoms: N_14  and  C_2 
REMARK    2  A    between atoms: O_20  and  C_3 
REMARK    3  A    between atoms: O_21  and  C_4 
REMARK    4  A    between atoms: N_19  and  C_5 
REMARK    5  A    between atoms: C_6  and  C_17 
REMARK    6  A    between atoms: N_9  and  N_14 
REMARK    7  A    between atoms: O_22  and  C_11 
ROOT
ATOM      1  N   UNL d   1       2.027  -5.495  -1.188  0.00  0.00    -0.308 N 
ATOM      2  HN  UNL d   1       2.684  -5.790  -1.911  1.00  0.00     0.186 HD
ATOM      3  C   UNL d   1       2.417  -4.813  -0.161  0.00  0.00     0.121 C 
ENDROOT
BRANCH   1   4
ATOM      4  N   UNL d   1       0.703  -5.803  -1.264  0.00  0.00    -0.265 N 
ATOM      5  C   UNL d   1       0.286  -6.643  -2.284  0.00  0.00     0.289 C 
ATOM      6  O   UNL d   1       1.044  -7.179  -3.095  0.00  0.00    -0.264 OA
ATOM      7  H   UNL d   1       0.015  -5.358  -0.667  0.00  0.00     0.190 HD
BRANCH   5   8
ATOM      8  C   UNL d   1      -1.191  -6.838  -2.377  0.00  0.00     0.140 A 
ATOM      9  C   UNL d   1      -1.712  -7.774  -3.290  0.00  0.00     0.110 A 
ATOM     10  N   UNL d   1      -3.047  -7.869  -3.485  0.00  0.00    -0.354 N 
ATOM     11  C   UNL d   1      -3.821  -7.031  -2.758  0.00  0.00     0.106 A 
ATOM     12  HN  UNL d   1      -3.448  -8.536  -4.144  1.00  0.00     0.166 HD
ATOM     13  C   UNL d   1      -3.302  -6.128  -1.845  0.00  0.00     0.105 A 
ATOM     14  N   UNL d   1      -1.969  -5.998  -1.626  0.00  0.00    -0.357 N 
ATOM     15  HN  UNL d   1      -1.581  -5.332  -0.958  1.00  0.00     0.165 HD
BRANCH   9  16
ATOM     16  N   UNL d   1      -0.947  -8.734  -3.942  0.00  0.00    -0.287 NA
ATOM     17  H   UNL d   1      -0.028  -8.380  -4.220  0.00  0.00     0.125 HD
ATOM     18  H   UNL d   1      -1.480  -9.188  -4.675  0.00  0.00     0.125 HD
ENDBRANCH   9  16
ENDBRANCH   5   8
ENDBRANCH   1   4
BRANCH   3  19
ATOM     19  C   UNL d   1       3.839  -4.413  -0.009  0.00  0.00     0.017 A 
ATOM     20  C   UNL d   1       4.325  -3.468   0.914  0.00  0.00     0.116 A 
ATOM     21  C   UNL d   1       5.741  -3.276   1.023  0.00  0.00     0.136 A 
ATOM     22  C   UNL d   1       6.629  -3.960   0.169  0.00  0.00     0.104 A 
ATOM     23  C   UNL d   1       6.111  -4.862  -0.760  0.00  0.00     0.040 A 
ATOM     24  C   UNL d   1       4.742  -5.090  -0.847  0.00  0.00     0.018 A 
BRANCH  20  25
ATOM     25  O   UNL d   1       3.589  -2.687   1.769  0.00  0.00    -0.352 OA
ATOM     26  C   UNL d   1       2.247  -2.334   1.493  0.00  0.00     0.210 C 
ENDBRANCH  20  25
BRANCH  21  27
ATOM     27  O   UNL d   1       6.271  -2.322   1.862  0.00  0.00    -0.351 OA
ATOM     28  C   UNL d   1       5.900  -2.413   3.237  0.00  0.00     0.210 C 
ENDBRANCH  21  27
BRANCH  22  29
ATOM     29  O   UNL d   1       7.993  -3.903   0.091  0.00  0.00    -0.353 OA
ATOM     30  C   UNL d   1       8.715  -2.993   0.902  0.00  0.00     0.210 C 
ENDBRANCH  22  29
ENDBRANCH   3  19
TORSDOF 7
