REMARK  7 active torsions:
REMARK  status: ('A' for Active; 'I' for Inactive)
REMARK    1  A    between atoms: C_4  and  C_1 
REMARK    2  A    between atoms: S_3  and  C_2 
REMARK    3  A    between atoms: C_5  and  S_3 
REMARK    4  A    between atoms: O_15  and  C_4 
REMARK    5  A    between atoms: C_10  and  C_6 
REMARK    6  A    between atoms: C_8  and  O_12 
REMARK    7  A    between atoms: O_12  and  C_10 
ROOT
ATOM      1  S   UNL d   1       4.068  -0.047  -0.254  0.00  0.00    -0.089 SA
ENDROOT
BRANCH   1   2
ATOM      2  C   UNL d   1       5.434  -1.150  -0.601  0.00  0.00     0.022 A 
ATOM      3  C   UNL d   1       6.296  -1.675   0.377  0.00  0.00     0.056 A 
ATOM      4  C   UNL d   1       7.378  -2.490  -0.000  0.00  0.00     0.043 A 
ATOM      5  C   UNL d   1       7.563  -2.834  -1.336  0.00  0.00     0.035 A 
ATOM      6  C   UNL d   1       6.674  -2.378  -2.305  0.00  0.00     0.025 A 
ATOM      7 CL   UNL d   1       8.880  -3.841  -1.790  0.00  0.00    -0.084 Cl
ATOM      8  C   UNL d   1       5.618  -1.538  -1.939  0.00  0.00     0.021 A 
BRANCH   3   9
ATOM      9  C   UNL d   1       6.134  -1.455   1.834  0.00  0.00     0.177 C 
ATOM     10  O   UNL d   1       7.088  -1.362   2.591  0.00  0.00    -0.646 OA
BRANCH   9  11
ATOM     11  O   UNL d   1       4.859  -1.505   2.270  0.00  0.00    -0.773 OA
ATOM     12  H   UNL d   1       4.186  -1.523   1.560  0.00  0.00     0.167 HD
ENDBRANCH   9  11
ENDBRANCH   3   9
ENDBRANCH   1   2
BRANCH   1  13
ATOM     13  C   UNL d   1       4.878   1.527   0.074  0.00  0.00     0.014 A 
ATOM     14  C   UNL d   1       4.562   2.312   1.204  0.00  0.00    -0.017 A 
ATOM     15  C   UNL d   1       5.139   3.592   1.332  0.00  0.00     0.011 A 
ATOM     16  C   UNL d   1       6.022   4.085   0.375  0.00  0.00     0.001 A 
ATOM     17  C   UNL d   1       6.348   3.305  -0.726  0.00  0.00     0.001 A 
ATOM     18  C   UNL d   1       5.775   2.040  -0.879  0.00  0.00     0.019 A 
BRANCH  14  19
ATOM     19  C   UNL d   1       3.623   1.865   2.303  0.00  0.00     0.218 C 
BRANCH  19  20
ATOM     20  O   UNL d   1       2.280   1.710   1.830  0.00  0.00    -0.317 OA
BRANCH  20  21
ATOM     21  C   UNL d   1       1.536   2.846   1.797  0.00  0.00     0.255 C 
ATOM     22  O   UNL d   1       1.914   3.962   2.128  0.00  0.00    -0.266 OA
ATOM     23  C   UNL d   1       0.143   2.544   1.333  0.00  0.00     0.126 C 
ENDBRANCH  20  21
ENDBRANCH  19  20
ENDBRANCH  14  19
ENDBRANCH   1  13
TORSDOF 7
