REMARK  4 active torsions:
REMARK  status: ('A' for Active; 'I' for Inactive)
REMARK    1  A    between atoms: N_8  and  C_1 
REMARK       I    between atoms: C_9  and  N_8 
REMARK    2  A    between atoms: C_14  and  C_9 
REMARK    3  A    between atoms: O_20  and  C_12 
REMARK    4  A    between atoms: O_21  and  C_13 
ROOT
ATOM      1  C   UNL d   1       2.374   0.531   0.331  0.00  0.00     0.155 C 
ATOM      2  S   UNL d   1       2.494  -1.061   0.997  0.00  0.00    -0.011 SA
ATOM      3  C   UNL d   1      -0.085  -0.920   0.122  0.00  0.00     0.051 A 
ATOM      4  C   UNL d   1       1.119  -1.747   0.195  0.00  0.00     0.229 C 
ATOM      5  N   UNL d   1       1.279   1.125  -0.021  0.00  0.00    -0.336 N 
ATOM      6  HN  UNL d   1       1.315   2.082  -0.372  1.00  0.00     0.168 HD
ATOM      7  C   UNL d   1       0.040   0.465   0.073  0.00  0.00     0.051 A 
ATOM      8  C   UNL d   1      -1.336  -1.553   0.114  0.00  0.00     0.058 A 
ATOM      9  C   UNL d   1      -1.136   1.217   0.050  0.00  0.00     0.070 A 
ATOM     10  C   UNL d   1      -2.509  -0.799   0.103  0.00  0.00     0.102 A 
ATOM     11  C   UNL d   1      -2.403   0.604   0.099  0.00  0.00     0.103 A 
ATOM     12  O   UNL d   1       1.114  -2.907  -0.199  0.00  0.00    -0.279 OA
ENDROOT
BRANCH   1  13
ATOM     13  N   UNL d   1       3.535   1.258   0.149  0.00  0.00    -0.303 N 
ATOM     14  C   UNL d   1       4.859   0.926   0.424  0.00  0.00     0.257 C 
ATOM     15  O   UNL d   1       5.235  -0.027   1.095  0.00  0.00    -0.267 OA
ATOM     16  H   UNL d   1       3.344   2.160  -0.261  0.00  0.00     0.171 HD
BRANCH  14  17
ATOM     17  C   UNL d   1       5.897   1.865  -0.085  0.00  0.00     0.032 A 
ATOM     18  C   UNL d   1       7.096   1.964   0.638  0.00  0.00     0.018 A 
ATOM     19  C   UNL d   1       8.118   2.808   0.202  0.00  0.00     0.025 A 
ATOM     20  C   UNL d   1       7.948   3.548  -0.965  0.00  0.00     0.034 A 
ATOM     21  C   UNL d   1       6.769   3.441  -1.704  0.00  0.00     0.025 A 
ATOM     22 CL   UNL d   1       9.205   4.590  -1.504  0.00  0.00    -0.084 Cl
ATOM     23  C   UNL d   1       5.740   2.596  -1.269  0.00  0.00     0.018 A 
ENDBRANCH  14  17
ENDBRANCH   1  13
BRANCH  11  24
ATOM     24  O   UNL d   1      -3.444   1.498   0.085  0.00  0.00    -0.353 OA
ATOM     25  C   UNL d   1      -4.604   1.124   0.824  0.00  0.00     0.210 C 
ENDBRANCH  11  24
BRANCH  10  26
ATOM     26  O   UNL d   1      -3.758  -1.357   0.076  0.00  0.00    -0.353 OA
ATOM     27  C   UNL d   1      -3.855  -2.778   0.092  0.00  0.00     0.210 C 
ENDBRANCH  10  26
TORSDOF 4
