REMARK  2 active torsions:
REMARK  status: ('A' for Active; 'I' for Inactive)
REMARK    1  A    between atoms: C_10  and  C_5 
REMARK    2  A    between atoms: C_11  and  N_7 
ROOT
ATOM      1  C   UNL d   1       0.455   1.374   0.237  0.00  0.00     0.161 C 
ATOM      2  N   UNL d   1      -1.328  -0.373   0.158  0.00  0.00    -0.299 N 
ATOM      3  HN  UNL d   1      -2.331  -0.559   0.183  1.00  0.00     0.187 HD
ATOM      4  N   UNL d   1      -0.857   0.926   0.090  0.00  0.00    -0.275 N 
ATOM      5  C   UNL d   1      -0.472  -1.354   0.191  0.00  0.00     0.046 C 
ATOM      6  S   UNL d   1       1.484   0.271   1.155  0.00  0.00    -0.086 SA
ATOM      7  N   UNL d   1       0.867   2.511  -0.258  0.00  0.00    -0.336 N 
ATOM      8  HN  UNL d   1       0.182   3.102  -0.729  1.00  0.00     0.168 HD
ATOM      9  C   UNL d   1       1.030  -1.177   0.190  0.00  0.00     0.142 C 
ATOM     10  C   UNL d   1      -1.907   1.917  -0.123  0.00  0.00     0.180 C 
ENDROOT
BRANCH   7  11
ATOM     11  C   UNL d   1       2.188   2.971  -0.184  0.00  0.00     0.034 A 
ATOM     12  C   UNL d   1       3.283   2.230  -0.647  0.00  0.00     0.031 A 
ATOM     13  C   UNL d   1       4.584   2.733  -0.558  0.00  0.00     0.026 A 
ATOM     14  C   UNL d   1       4.792   4.018  -0.068  0.00  0.00     0.034 A 
ATOM     15  C   UNL d   1       3.710   4.803   0.324  0.00  0.00     0.026 A 
ATOM     16 CL   UNL d   1       6.391   4.642   0.039  0.00  0.00    -0.084 Cl
ATOM     17  C   UNL d   1       2.415   4.278   0.266  0.00  0.00     0.031 A 
ENDBRANCH   7  11
BRANCH   5  18
ATOM     18  C   UNL d   1      -0.990  -2.756   0.183  0.00  0.00    -0.011 A 
ATOM     19  C   UNL d   1      -2.231  -3.027   0.770  0.00  0.00     0.013 A 
ATOM     20  C   UNL d   1      -2.727  -4.331   0.791  0.00  0.00     0.001 A 
ATOM     21  C   UNL d   1      -1.992  -5.368   0.218  0.00  0.00     0.000 A 
ATOM     22  C   UNL d   1      -0.765  -5.101  -0.389  0.00  0.00     0.001 A 
ATOM     23  C   UNL d   1      -0.265  -3.798  -0.411  0.00  0.00     0.013 A 
ENDBRANCH   5  18
TORSDOF 2
