REMARK  1 active torsions:
REMARK  status: ('A' for Active; 'I' for Inactive)
REMARK    1  A    between atoms: C_12  and  C_5 
ROOT
ATOM      1  N   UNL d   1       0.736   0.284  -1.153  0.00  0.00    -0.347 N 
ATOM      2  HN  UNL d   1       1.102   0.464  -2.088  1.00  0.00     0.167 HD
ATOM      3  C   UNL d   1      -0.332  -0.441  -0.885  0.00  0.00     0.111 A 
ATOM      4  C   UNL d   1      -1.125  -1.053  -1.911  0.00  0.00     0.134 A 
ATOM      5  C   UNL d   1       1.289   0.769   0.026  0.00  0.00     0.050 A 
ATOM      6  S   UNL d   1      -0.711  -0.614   0.780  0.00  0.00    -0.079 SA
ATOM      7  C   UNL d   1       0.644   0.357   1.177  0.00  0.00     0.082 A 
ATOM      8  N   UNL d   1      -2.799  -2.248  -2.850  0.00  0.00    -0.272 N 
ATOM      9  HN  UNL d   1      -3.637  -2.818  -2.968  1.00  0.00     0.194 HD
ATOM     10  O   UNL d   1      -2.257  -1.787  -1.662  0.00  0.00    -0.236 OA
ATOM     11  C   UNL d   1      -0.931  -1.035  -3.278  0.00  0.00     0.061 A 
ATOM     12  C   UNL d   1      -1.991  -1.788  -3.805  0.00  0.00     0.117 A 
ENDROOT
BRANCH   5  13
ATOM     13  C   UNL d   1       2.472   1.624   0.018  0.00  0.00    -0.009 A 
ATOM     14  C   UNL d   1       2.710   2.557   1.037  0.00  0.00     0.014 A 
ATOM     15  C   UNL d   1       3.851   3.365   1.012  0.00  0.00     0.007 A 
ATOM     16  C   UNL d   1       4.773   3.260  -0.034  0.00  0.00    -0.062 A 
ATOM     17  C   UNL d   1       4.536   2.338  -1.058  0.00  0.00     0.007 A 
ATOM     18  C   UNL d   1       5.994   4.132  -0.041  0.00  0.00     0.048 C 
ATOM     19  C   UNL d   1       3.393   1.530  -1.034  0.00  0.00     0.014 A 
ENDBRANCH   5  13
TORSDOF 1
