REMARK  6 active torsions:
REMARK  status: ('A' for Active; 'I' for Inactive)
REMARK    1  A    between atoms: C_2  and  S_1 
REMARK    2  A    between atoms: N_5  and  S_1 
REMARK    3  A    between atoms: C_8  and  C_4 
REMARK    4  A    between atoms: O_22  and  C_8 
REMARK    5  A    between atoms: C_16  and  C_9 
REMARK    6  A    between atoms: O_21  and  C_9 
ROOT
ATOM      1  N   UNL d   1       0.358  -1.346   0.529  0.00  0.00    -0.205 NA
ATOM      2  C   UNL d   1       0.040  -4.125   1.451  0.00  0.00     0.087 C 
ATOM      3  C   UNL d   1       0.383  -2.971   2.408  0.00  0.00     0.058 C 
ATOM      4  C   UNL d   1      -0.711  -3.562   0.234  0.00  0.00     0.058 C 
ATOM      5  C   UNL d   1       0.070  -2.442  -0.442  0.00  0.00     0.111 C 
ATOM      6  C   UNL d   1       1.149  -1.856   1.692  0.00  0.00     0.111 C 
ENDROOT
BRANCH   1   7
ATOM      7  S   UNL d   1       1.123   0.011  -0.211  0.00  0.00     0.259 S 
ATOM      8  O   UNL d   1       1.399   0.990   0.815  0.00  0.00    -0.204 OA
ATOM      9  O   UNL d   1       2.160  -0.495  -1.079  0.00  0.00    -0.204 OA
BRANCH   7  10
ATOM     10  C   UNL d   1      -0.103   0.812  -1.246  0.00  0.00     0.146 A 
ATOM     11  N   UNL d   1      -0.045   0.985  -2.626  0.00  0.00    -0.336 N 
ATOM     12  C   UNL d   1      -1.227   1.563  -3.093  0.00  0.00     0.111 A 
ATOM     13  C   UNL d   1       1.075   0.654  -3.488  0.00  0.00     0.157 C 
ATOM     14  C   UNL d   1      -1.962   1.904  -1.968  0.00  0.00     0.039 A 
ATOM     15  C   UNL d   1      -1.276   1.433  -0.835  0.00  0.00     0.046 A 
BRANCH  12  16
ATOM     16  C   UNL d   1      -1.583   1.769  -4.488  0.00  0.00     0.309 C 
ATOM     17  O   UNL d   1      -0.942   1.383  -5.457  0.00  0.00    -0.258 OA
BRANCH  16  18
ATOM     18  O   UNL d   1      -2.764   2.448  -4.571  0.00  0.00    -0.321 OA
ATOM     19  C   UNL d   1      -3.224   2.690  -5.901  0.00  0.00     0.213 C 
ENDBRANCH  16  18
ENDBRANCH  12  16
ENDBRANCH   7  10
ENDBRANCH   1   7
BRANCH   2  20
ATOM     20  C   UNL d   1      -0.777  -5.269   2.063  0.00  0.00    -0.024 A 
ATOM     21  C   UNL d   1      -1.679  -5.074   3.123  0.00  0.00     0.012 A 
ATOM     22  C   UNL d   1      -2.451  -6.133   3.617  0.00  0.00     0.024 A 
ATOM     23  C   UNL d   1      -2.336  -7.402   3.058  0.00  0.00     0.034 A 
ATOM     24  C   UNL d   1      -1.456  -7.624   2.006  0.00  0.00     0.024 A 
ATOM     25 CL   UNL d   1      -3.297  -8.695   3.659  0.00  0.00    -0.084 Cl
ATOM     26  C   UNL d   1      -0.691  -6.565   1.510  0.00  0.00     0.012 A 
ENDBRANCH   2  20
BRANCH   2  27
ATOM     27  O   UNL d   1       1.293  -4.671   1.004  0.00  0.00    -0.385 OA
ATOM     28  H   UNL d   1       1.635  -5.234   1.723  0.00  0.00     0.211 HD
ENDBRANCH   2  27
TORSDOF 6
