REMARK  6 active torsions:
REMARK  status: ('A' for Active; 'I' for Inactive)
REMARK    1  A    between atoms: C_2  and  S_1 
REMARK    2  A    between atoms: N_7  and  S_1 
REMARK    3  A    between atoms: C_10  and  C_3 
REMARK    4  A    between atoms: C_5  and  C_11 
REMARK    5  A    between atoms: C_13  and  C_15 
REMARK    6  A    between atoms: C_17  and  N_14 
ROOT
ATOM      1  S   UNL d   1       1.307   0.164   0.318  0.00  0.00     0.250 S 
ATOM      2  O   UNL d   1       1.549  -0.274  -1.043  0.00  0.00    -0.205 OA
ATOM      3  O   UNL d   1       2.402   0.519   1.191  0.00  0.00    -0.205 OA
ENDROOT
BRANCH   1   4
ATOM      4  C   UNL d   1       0.560  -1.260   1.093  0.00  0.00     0.116 A 
ATOM      5  S   UNL d   1       0.149  -1.107   2.746  0.00  0.00    -0.075 SA
ATOM      6  C   UNL d   1      -0.206  -2.776   2.887  0.00  0.00     0.035 A 
ATOM      7  C   UNL d   1      -0.136  -3.413   1.665  0.00  0.00     0.023 A 
ATOM      8  C   UNL d   1       0.296  -2.535   0.626  0.00  0.00     0.034 A 
BRANCH   6   9
ATOM      9  C   UNL d   1      -0.529  -3.467   4.179  0.00  0.00     0.074 A 
ATOM     10  C   UNL d   1      -0.616  -2.872   5.457  0.00  0.00     0.077 A 
ATOM     11  C   UNL d   1      -0.904  -3.915   6.306  0.00  0.00     0.184 A 
ATOM     12  O   UNL d   1      -0.982  -5.065   5.585  0.00  0.00    -0.233 OA
ATOM     13  N   UNL d   1      -0.753  -4.787   4.248  0.00  0.00    -0.260 N 
ATOM     14  HN  UNL d   1      -0.754  -5.451   3.474  1.00  0.00     0.195 HD
BRANCH  11  15
ATOM     15  C   UNL d   1      -1.139  -4.028   7.755  0.00  0.00     0.441 C 
ATOM     16  F   UNL d   1      -1.092  -2.814   8.365  0.00  0.00    -0.164 F 
ATOM     17  F   UNL d   1      -2.357  -4.556   8.039  0.00  0.00    -0.164 F 
ATOM     18  F   UNL d   1      -0.214  -4.806   8.371  0.00  0.00    -0.164 F 
ENDBRANCH  11  15
ENDBRANCH   6   9
ENDBRANCH   1   4
BRANCH   1  19
ATOM     19  N   UNL d   1       0.182   1.443   0.301  0.00  0.00    -0.203 NA
ATOM     20  C   UNL d   1      -0.725   1.514  -0.897  0.00  0.00     0.127 C 
ATOM     21  C   UNL d   1      -0.005   2.103  -2.132  0.00  0.00     0.140 C 
ATOM     22  N   UNL d   1       0.632   3.397  -1.825  0.00  0.00    -0.365 N 
ATOM     23  C   UNL d   1       1.475   3.415  -0.618  0.00  0.00     0.140 C 
ATOM     24  C   UNL d   1       0.743   2.803   0.594  0.00  0.00     0.127 C 
BRANCH  22  25
ATOM     25  C   UNL d   1       0.071   4.550  -2.342  0.00  0.00     0.102 A 
ATOM     26  N   UNL d   1      -1.149   4.482  -2.921  0.00  0.00    -0.352 N 
ATOM     27  C   UNL d   1      -1.688   5.601  -3.467  0.00  0.00     0.106 A 
ATOM     28  HN  UNL d   1      -1.659   3.599  -2.946  1.00  0.00     0.166 HD
ATOM     29  C   UNL d   1      -1.074   6.839  -3.468  0.00  0.00     0.063 A 
ATOM     30  C   UNL d   1       0.189   6.910  -2.888  0.00  0.00     0.021 A 
ATOM     31  C   UNL d   1       0.761   5.763  -2.335  0.00  0.00     0.049 A 
BRANCH  29  32
ATOM     32  C   UNL d   1      -1.736   8.042  -4.061  0.00  0.00     0.418 C 
ATOM     33  F   UNL d   1      -2.964   7.787  -4.591  0.00  0.00    -0.166 F 
ATOM     34  F   UNL d   1      -1.927   9.031  -3.143  0.00  0.00    -0.166 F 
ATOM     35  F   UNL d   1      -1.006   8.603  -5.064  0.00  0.00    -0.166 F 
ENDBRANCH  29  32
ENDBRANCH  22  25
ENDBRANCH   1  19
TORSDOF 6
