REMARK  1 active torsions:
REMARK  status: ('A' for Active; 'I' for Inactive)
REMARK    1  A    between atoms: C_3  and  C_1 
ROOT
ATOM      1  C   UNL d   1      -0.109   2.720  -0.087  0.00  0.00     0.049 A 
ATOM      2  N   UNL d   1      -0.813   3.180   0.979  0.00  0.00    -0.365 N 
ATOM      3  HN  UNL d   1      -1.080   2.562   1.745  1.00  0.00     0.165 HD
ATOM      4  C   UNL d   1      -1.145   4.490   0.986  0.00  0.00     0.088 A 
ATOM      5  C   UNL d   1       0.285   3.550  -1.134  0.00  0.00     0.031 A 
ATOM      6  C   UNL d   1      -0.797   5.380  -0.015  0.00  0.00     0.017 A 
ATOM      7  C   UNL d   1      -0.065   4.899  -1.093  0.00  0.00     0.004 A 
ENDROOT
BRANCH   1   8
ATOM      8  C   UNL d   1       0.227   1.290  -0.013  0.00  0.00     0.031 A 
ATOM      9  S   UNL d   1       0.453   0.343  -1.431  0.00  0.00    -0.100 SA
ATOM     10  C   UNL d   1       0.783  -1.070  -0.530  0.00  0.00     0.050 A 
ATOM     11  C   UNL d   1       0.714  -0.846   0.825  0.00  0.00     0.008 A 
ATOM     12  C   UNL d   1       0.380   0.507   1.121  0.00  0.00     0.021 A 
ENDBRANCH   1   8
TORSDOF 1
