REMARK  4 active torsions:
REMARK  status: ('A' for Active; 'I' for Inactive)
REMARK    1  A    between atoms: C_10  and  N_3 
REMARK    2  A    between atoms: C_13  and  N_6 
REMARK    3  A    between atoms: C_9  and  C_8 
REMARK    4  A    between atoms: O_19  and  C_16 
ROOT
ATOM      1  C   UNL d   1      -0.014  -0.833  -0.584  0.00  0.00     0.260 C 
ATOM      2  C   UNL d   1       0.061   0.665  -0.699  0.00  0.00     0.149 C 
ATOM      3  N   UNL d   1      -1.631   0.051   0.820  0.00  0.00    -0.250 N 
ATOM      4  C   UNL d   1      -1.292  -1.098   0.145  0.00  0.00     0.263 C 
ATOM      5  C   UNL d   1      -0.978   1.139   0.287  0.00  0.00     0.241 C 
ATOM      6  N   UNL d   1       1.695  -0.131   0.725  0.00  0.00    -0.247 N 
ATOM      7  O   UNL d   1       0.994  -1.280   0.333  0.00  0.00    -0.261 OA
ATOM      8  C   UNL d   1       1.443   0.992  -0.174  0.00  0.00     0.164 C 
ATOM      9  O   UNL d   1      -1.885  -2.170   0.108  0.00  0.00    -0.270 OA
ATOM     10  O   UNL d   1      -1.139   2.331   0.523  0.00  0.00    -0.272 OA
ENDROOT
BRANCH   8  11
ATOM     11  C   UNL d   1       2.494   1.051  -1.276  0.00  0.00    -0.032 A 
ATOM     12  C   UNL d   1       2.777   2.271  -1.907  0.00  0.00     0.012 A 
ATOM     13  C   UNL d   1       3.770   2.356  -2.895  0.00  0.00     0.037 A 
ATOM     14  C   UNL d   1       4.489   1.222  -3.273  0.00  0.00     0.068 A 
ATOM     15  C   UNL d   1       4.201   0.003  -2.665  0.00  0.00     0.037 A 
ATOM     16  C   UNL d   1       3.218  -0.084  -1.681  0.00  0.00     0.012 A 
BRANCH  14  17
ATOM     17  O   UNL d   1       5.485   1.163  -4.206  0.00  0.00    -0.356 OA
ATOM     18  C   UNL d   1       5.886   2.390  -4.799  0.00  0.00     0.210 C 
ENDBRANCH  14  17
ENDBRANCH   8  11
BRANCH   6  19
ATOM     19  C   UNL d   1       2.444  -0.092   1.895  0.00  0.00     0.058 A 
ATOM     20  C   UNL d   1       2.494  -1.219   2.731  0.00  0.00     0.031 A 
ATOM     21  C   UNL d   1       3.239  -1.226   3.913  0.00  0.00     0.002 A 
ATOM     22  C   UNL d   1       3.956  -0.096   4.287  0.00  0.00     0.000 A 
ATOM     23  C   UNL d   1       3.926   1.035   3.478  0.00  0.00     0.002 A 
ATOM     24  C   UNL d   1       3.179   1.033   2.294  0.00  0.00     0.031 A 
ENDBRANCH   6  19
BRANCH   3  25
ATOM     25  C   UNL d   1      -2.454   0.067   1.979  0.00  0.00     0.045 A 
ATOM     26  C   UNL d   1      -2.566  -1.093   2.768  0.00  0.00     0.030 A 
ATOM     27  C   UNL d   1      -3.240  -1.079   3.991  0.00  0.00     0.002 A 
ATOM     28  C   UNL d   1      -3.840   0.090   4.439  0.00  0.00     0.000 A 
ATOM     29  C   UNL d   1      -3.768   1.242   3.659  0.00  0.00     0.002 A 
ATOM     30  C   UNL d   1      -3.074   1.233   2.443  0.00  0.00     0.030 A 
ENDBRANCH   3  25
TORSDOF 4
