REMARK  3 active torsions:
REMARK  status: ('A' for Active; 'I' for Inactive)
REMARK    1  A    between atoms: C_4  and  N_1 
REMARK    2  A    between atoms: N_8  and  C_4 
REMARK    3  A    between atoms: C_5  and  N_8 
ROOT
ATOM      1  N   UNL d   1      -1.341   2.846  -0.389  0.00  0.00    -0.274 NA
ATOM      2  H   UNL d   1      -2.051   2.445   0.222  0.00  0.00     0.129 HD
ENDROOT
BRANCH   1   3
ATOM      3  C   UNL d   1      -1.487   4.244  -0.436  0.00  0.00     0.033 A 
ATOM      4  C   UNL d   1      -0.627   5.118   0.246  0.00  0.00     0.050 A 
ATOM      5  C   UNL d   1      -0.833   6.506   0.232  0.00  0.00     0.057 A 
ATOM      6 CL   UNL d   1       0.280   7.487   1.119  0.00  0.00    -0.082 Cl
ATOM      7  C   UNL d   1      -1.914   7.047  -0.467  0.00  0.00     0.057 A 
ATOM      8  C   UNL d   1      -2.797   6.199  -1.133  0.00  0.00     0.051 A 
ATOM      9 CL   UNL d   1      -2.219   8.745  -0.532  0.00  0.00    -0.082 Cl
ATOM     10  C   UNL d   1      -2.594   4.815  -1.102  0.00  0.00     0.057 A 
ATOM     11 CL   UNL d   1      -3.746   3.821  -1.929  0.00  0.00    -0.082 Cl
ENDBRANCH   1   3
BRANCH   1  12
ATOM     12  C   UNL d   1      -0.033   2.267  -0.133  0.00  0.00     0.229 C 
BRANCH  12  13
ATOM     13  N   UNL d   1      -0.183   0.841  -0.056  0.00  0.00    -0.275 N 
ATOM     14  C   UNL d   1       0.090  -0.008  -1.084  0.00  0.00     0.227 A 
ATOM     15  C   UNL d   1      -0.105  -1.419  -0.613  0.00  0.00     0.112 A 
ATOM     16  O   UNL d   1       0.469   0.289  -2.208  0.00  0.00    -0.273 OA
ATOM     17  C   UNL d   1      -0.391  -1.289   0.871  0.00  0.00     0.112 A 
ATOM     18  C   UNL d   1      -0.434   0.190   1.112  0.00  0.00     0.227 A 
ATOM     19  O   UNL d   1      -0.636   0.704   2.201  0.00  0.00    -0.273 OA
ENDBRANCH  12  13
ENDBRANCH   1  12
TORSDOF 3
