REMARK  2 active torsions:
REMARK  status: ('A' for Active; 'I' for Inactive)
REMARK    1  A    between atoms: C_3  and  S_1 
REMARK    2  A    between atoms: N_11  and  S_1 
ROOT
ATOM      1  S   UNL d   1       0.684   3.558   2.439  0.00  0.00     0.145 S 
ATOM      2  C   UNL d   1       0.457   1.280   1.201  0.00  0.00     0.144 C 
ATOM      3  C   UNL d   1       0.871   2.710   0.890  0.00  0.00     0.162 C 
ATOM      4  C   UNL d   1       1.055   0.944   2.570  0.00  0.00     0.037 C 
ATOM      5  O   UNL d   1      -0.659   4.099   2.498  0.00  0.00    -0.228 OA
ATOM      6  O   UNL d   1       1.860   4.361   2.682  0.00  0.00    -0.228 OA
ATOM      7  C   UNL d   1       0.739   2.114   3.488  0.00  0.00     0.142 C 
ENDROOT
BRANCH   2   8
ATOM      8  S   UNL d   1       1.012   0.181  -0.084  0.00  0.00     0.231 S 
ATOM      9  O   UNL d   1       2.456   0.269  -0.150  0.00  0.00    -0.206 OA
ATOM     10  O   UNL d   1       0.175   0.383  -1.241  0.00  0.00    -0.206 OA
BRANCH   8  11
ATOM     11  N   UNL d   1       0.672  -1.319   0.553  0.00  0.00    -0.324 N 
ATOM     12  C   UNL d   1      -0.705  -1.765   0.701  0.00  0.00     0.159 C 
ATOM     13  H   UNL d   1       1.404  -1.751   1.114  0.00  0.00     0.171 HD
ENDBRANCH   8  11
ENDBRANCH   2   8
TORSDOF 2
