REMARK  6 active torsions:
REMARK  status: ('A' for Active; 'I' for Inactive)
REMARK    1  A    between atoms: C_5  and  C_1 
REMARK    2  A    between atoms: C_8  and  C_2 
REMARK       I    between atoms: N_12  and  C_8 
REMARK    3  A    between atoms: C_21  and  N_12 
REMARK    4  A    between atoms: C_15  and  C_21 
REMARK    5  A    between atoms: C_22  and  C_15 
REMARK    6  A    between atoms: O_18  and  C_22 
ROOT
ATOM      1  C   UNL d   1      -1.282  -0.843   0.144  0.00  0.00     0.086 A 
ATOM      2  C   UNL d   1       0.058  -1.296  -0.115  0.00  0.00     0.092 A 
ATOM      3  N   UNL d   1      -1.255   0.455   0.494  0.00  0.00    -0.259 N 
ATOM      4  HN  UNL d   1      -2.054   1.024   0.772  1.00  0.00     0.195 HD
ATOM      5  O   UNL d   1       0.049   0.870   0.406  0.00  0.00    -0.241 OA
ATOM      6  C   UNL d   1       0.841  -0.173   0.062  0.00  0.00     0.090 A 
ATOM      7  C   UNL d   1       2.277   0.151  -0.064  0.00  0.00     0.080 C 
ENDROOT
BRANCH   2   8
ATOM      8  C   UNL d   1       0.510  -2.620  -0.496  0.00  0.00     0.256 C 
ATOM      9  O   UNL d   1      -0.083  -3.290  -1.325  0.00  0.00    -0.267 OA
ATOM     10  N   UNL d   1       1.604  -3.073   0.226  0.00  0.00    -0.357 N 
ATOM     11  H   UNL d   1       1.874  -2.539   1.041  0.00  0.00     0.162 HD
BRANCH  10  12
ATOM     12  C   UNL d   1       1.988  -4.472   0.193  0.00  0.00     0.125 C 
BRANCH  12  13
ATOM     13  C   UNL d   1       2.804  -4.823  -1.048  0.00  0.00     0.046 C 
BRANCH  13  14
ATOM     14  C   UNL d   1       3.207  -6.295  -1.069  0.00  0.00     0.168 C 
BRANCH  14  15
ATOM     15  O   UNL d   1       2.035  -7.105  -1.065  0.00  0.00    -0.396 OA
ATOM     16  C   UNL d   1       2.341  -8.490  -1.145  0.00  0.00     0.201 C 
ENDBRANCH  14  15
ENDBRANCH  13  14
ENDBRANCH  12  13
ENDBRANCH  10  12
ENDBRANCH   2   8
BRANCH   1  17
ATOM     17  C   UNL d   1      -2.563  -1.573   0.136  0.00  0.00     0.037 A 
ATOM     18  C   UNL d   1      -2.721  -2.814   0.790  0.00  0.00     0.048 A 
ATOM     19 CL   UNL d   1      -1.495  -3.541   1.779  0.00  0.00    -0.083 Cl
ATOM     20  C   UNL d   1      -3.946  -3.501   0.768  0.00  0.00     0.025 A 
ATOM     21  C   UNL d   1      -5.065  -2.935   0.170  0.00  0.00     0.003 A 
ATOM     22  C   UNL d   1      -4.953  -1.688  -0.432  0.00  0.00     0.025 A 
ATOM     23  C   UNL d   1      -3.715  -1.024  -0.476  0.00  0.00     0.048 A 
ATOM     24 CL   UNL d   1      -3.722   0.485  -1.334  0.00  0.00    -0.083 Cl
ENDBRANCH   1  17
TORSDOF 6
