REMARK  3 active torsions:
REMARK  status: ('A' for Active; 'I' for Inactive)
REMARK    1  A    between atoms: C_3  and  C_1 
REMARK       I    between atoms: C_6  and  N_2 
REMARK    2  A    between atoms: C_17  and  N_4 
REMARK    3  A    between atoms: C_12  and  C_6 
ROOT
ATOM      1  C   UNL d   1      -0.284   1.133   0.049  0.00  0.00     0.034 C 
ATOM      2  N   UNL d   1       1.025  -0.656   0.022  0.00  0.00    -0.261 N 
ATOM      3  C   UNL d   1       1.044   0.739   0.014  0.00  0.00     0.044 C 
ATOM      4  N   UNL d   1      -0.243  -1.134  -0.106  0.00  0.00    -0.304 N 
ATOM      5  HN  UNL d   1      -0.532  -2.098  -0.272  1.00  0.00     0.186 HD
ATOM      6  C   UNL d   1      -1.020  -0.064   0.033  0.00  0.00     0.123 C 
ATOM      7  C   UNL d   1       2.269   1.582  -0.020  0.00  0.00     0.071 C 
ENDROOT
BRANCH   1   8
ATOM      8  C   UNL d   1      -0.801   2.533   0.033  0.00  0.00     0.075 A 
ATOM      9  N   UNL d   1      -2.011   2.999   0.529  0.00  0.00    -0.218 N 
ATOM     10  C   UNL d   1      -2.927   2.366   1.404  0.00  0.00     0.300 C 
ATOM     11  N   UNL d   1      -2.240   4.292   0.125  0.00  0.00    -0.302 N 
ATOM     12  O   UNL d   1      -2.467   1.466   2.115  0.00  0.00    -0.263 OA
ATOM     13  C   UNL d   1      -1.126   4.652  -0.505  0.00  0.00     0.110 A 
ATOM     14  HN  UNL d   1      -3.079   4.852   0.276  1.00  0.00     0.186 HD
ATOM     15  C   UNL d   1      -0.199   3.607  -0.588  0.00  0.00     0.051 A 
BRANCH  10  16
ATOM     16  C   UNL d   1      -4.325   2.747   1.434  0.00  0.00     0.144 A 
ATOM     17  O   UNL d   1      -5.133   2.165   2.378  0.00  0.00    -0.317 OA
ATOM     18  C   UNL d   1      -6.396   2.611   2.170  0.00  0.00     0.143 A 
ATOM     19  C   UNL d   1      -6.432   3.475   1.104  0.00  0.00     0.027 A 
ATOM     20  C   UNL d   1      -5.104   3.565   0.628  0.00  0.00     0.045 A 
ENDBRANCH  10  16
ENDBRANCH   1   8
BRANCH   2  21
ATOM     21  C   UNL d   1       2.098  -1.584   0.137  0.00  0.00     0.056 A 
ATOM     22  C   UNL d   1       3.270  -1.260   0.828  0.00  0.00     0.031 A 
ATOM     23  C   UNL d   1       4.323  -2.173   0.898  0.00  0.00     0.002 A 
ATOM     24  C   UNL d   1       4.197  -3.429   0.311  0.00  0.00     0.000 A 
ATOM     25  C   UNL d   1       3.015  -3.778  -0.341  0.00  0.00     0.002 A 
ATOM     26  C   UNL d   1       1.964  -2.863  -0.426  0.00  0.00     0.031 A 
ENDBRANCH   2  21
TORSDOF 3
