REMARK  1 active torsions:
REMARK  status: ('A' for Active; 'I' for Inactive)
REMARK       I    between atoms: N_2  and  C_1 
REMARK       I    between atoms: N_4  and  C_1 
REMARK       I    between atoms: C_3  and  N_2 
REMARK       I    between atoms: N_13  and  C_3 
REMARK    1  A    between atoms: C_11  and  N_4 
ROOT
ATOM      1  C   UNL d   1       0.952   0.030  -0.060  0.00  0.00     0.678 C 
ATOM      2  N   UNL d   1       2.220   0.417  -0.385  0.00  0.00    -0.167 N 
ATOM      3  C   UNL d   1       3.212   1.053   0.289  0.00  0.00     0.163 C 
ATOM      4  N   UNL d   1       0.146  -0.119  -1.160  0.00  0.00    -0.192 N 
ATOM      5  N   UNL d   1       0.547  -0.191   1.150  0.00  0.00    -0.234 N 
ATOM      6  HN  UNL d   1      -0.412  -0.404   1.421  1.00  0.00     0.174 HD
ATOM      7  N   UNL d   1       3.174   1.605   1.450  0.00  0.00    -0.376 N 
ATOM      8  HN  UNL d   1       3.971   2.033   1.921  1.00  0.00     0.158 HD
ATOM      9  N   UNL d   1       4.359   1.147  -0.423  0.00  0.00    -0.274 NA
ATOM     10  H   UNL d   1       2.377   0.493  -1.378  0.00  0.00     0.187 HD
ATOM     11  H   UNL d   1       0.557  -0.463  -2.013  0.00  0.00     0.184 HD
ATOM     12  H   UNL d   1       1.340  -0.120   1.789  0.00  0.00     0.174 HD
ATOM     13  H   UNL d   1       2.225   1.550   1.830  0.00  0.00     0.158 HD
ATOM     14  H   UNL d   1       4.715   0.256  -0.745  0.00  0.00     0.127 HD
ATOM     15  H   UNL d   1       5.063   1.601   0.157  0.00  0.00     0.127 HD
ENDROOT
BRANCH   4  16
ATOM     16  C   UNL d   1      -1.246   0.079  -1.220  0.00  0.00     0.051 A 
ATOM     17  C   UNL d   1      -2.003  -0.625  -2.168  0.00  0.00     0.055 A 
ATOM     18  C   UNL d   1      -3.387  -0.432  -2.271  0.00  0.00     0.058 A 
ATOM     19 CL   UNL d   1      -4.235  -1.342  -3.473  0.00  0.00    -0.082 Cl
ATOM     20  C   UNL d   1      -4.032   0.472  -1.423  0.00  0.00     0.055 A 
ATOM     21  C   UNL d   1      -3.295   1.151  -0.454  0.00  0.00     0.028 A 
ATOM     22 CL   UNL d   1      -5.725   0.798  -1.526  0.00  0.00    -0.083 Cl
ATOM     23  C   UNL d   1      -1.917   0.939  -0.344  0.00  0.00     0.032 A 
ENDBRANCH   4  16
TORSDOF 1
