REMARK  6 active torsions:
REMARK  status: ('A' for Active; 'I' for Inactive)
REMARK    1  A    between atoms: C_7  and  C_1 
REMARK    2  A    between atoms: O_10  and  C_2 
REMARK    3  A    between atoms: N_9  and  C_3 
REMARK    4  A    between atoms: O_11  and  C_4 
REMARK    5  A    between atoms: O_13  and  C_6 
REMARK    6  A    between atoms: O_12  and  C_7 
ROOT
ATOM      1  C   UNL d   1       0.274  -1.216   0.108  0.00  0.00     0.066 A 
ATOM      2  C   UNL d   1       0.427   1.221   0.010  0.00  0.00     0.126 A 
ATOM      3  C   UNL d   1       1.078  -0.049   0.048  0.00  0.00     0.059 A 
ATOM      4  C   UNL d   1      -1.003   1.294  -0.028  0.00  0.00     0.137 A 
ATOM      5  C   UNL d   1      -1.119  -1.125   0.044  0.00  0.00     0.059 A 
ATOM      6  C   UNL d   1      -1.764   0.108  -0.019  0.00  0.00     0.105 A 
ENDROOT
BRANCH   1   7
ATOM      7  C   UNL d   1       0.888  -2.574   0.160  0.00  0.00     0.294 C 
ATOM      8  O   UNL d   1       2.023  -2.826  -0.231  0.00  0.00    -0.259 OA
BRANCH   7   9
ATOM      9  O   UNL d   1       0.025  -3.462   0.713  0.00  0.00    -0.322 OA
ATOM     10  C   UNL d   1       0.514  -4.801   0.795  0.00  0.00     0.213 C 
ENDBRANCH   7   9
ENDBRANCH   1   7
BRANCH   3  11
ATOM     11  N   UNL d   1       2.483  -0.189   0.202  0.00  0.00    -0.300 NA
ATOM     12  H   UNL d   1       3.019   0.413  -0.406  0.00  0.00     0.124 HD
ATOM     13  H   UNL d   1       2.793  -1.156   0.046  0.00  0.00     0.124 HD
ENDBRANCH   3  11
BRANCH   2  14
ATOM     14  O   UNL d   1       1.046   2.443  -0.018  0.00  0.00    -0.351 OA
ATOM     15  C   UNL d   1       2.436   2.644   0.117  0.00  0.00     0.210 C 
ENDBRANCH   2  14
BRANCH   6  16
ATOM     16  O   UNL d   1      -3.126  -0.057  -0.070  0.00  0.00    -0.353 OA
ATOM     17  C   UNL d   1      -3.982   1.073  -0.034  0.00  0.00     0.210 C 
ENDBRANCH   6  16
BRANCH   4  18
ATOM     18  O   UNL d   1      -1.752   2.443  -0.084  0.00  0.00    -0.351 OA
ATOM     19  C   UNL d   1      -1.176   3.736  -0.018  0.00  0.00     0.210 C 
ENDBRANCH   4  18
TORSDOF 6
