REMARK  5 active torsions:
REMARK  status: ('A' for Active; 'I' for Inactive)
REMARK    1  A    between atoms: C_11  and  C_1 
REMARK       I    between atoms: C_2  and  N_10 
REMARK    2  A    between atoms: C_5  and  C_2 
REMARK    3  A    between atoms: N_10  and  N_3 
REMARK    4  A    between atoms: O_21  and  C_6 
REMARK    5  A    between atoms: C_7  and  C_8 
ROOT
ATOM      1  C   UNL d   1      -5.312  -3.822   0.077  0.00  0.00     0.270 C 
ATOM      2  N   UNL d   1      -5.244  -4.455   1.315  0.00  0.00    -0.266 N 
ATOM      3  O   UNL d   1      -4.708  -4.192  -0.926  0.00  0.00    -0.266 OA
ATOM      4  H   UNL d   1      -5.662  -4.044   2.142  0.00  0.00     0.190 HD
ENDROOT
BRANCH   2   5
ATOM      5  N   UNL d   1      -4.507  -5.593   1.423  0.00  0.00    -0.308 N 
ATOM      6  C   UNL d   1      -4.433  -6.144   2.591  0.00  0.00     0.121 C 
ATOM      7  HN  UNL d   1      -4.031  -5.996   0.615  1.00  0.00     0.186 HD
BRANCH   6   8
ATOM      8  C   UNL d   1      -3.662  -7.396   2.769  0.00  0.00     0.015 A 
ATOM      9  C   UNL d   1      -2.982  -8.001   1.703  0.00  0.00     0.077 A 
ATOM     10  C   UNL d   1      -2.279  -9.188   1.897  0.00  0.00     0.039 A 
ATOM     11  C   UNL d   1      -2.248  -9.778   3.161  0.00  0.00     0.026 A 
ATOM     12  C   UNL d   1      -2.918  -9.173   4.222  0.00  0.00     0.035 A 
ATOM     13  C   UNL d   1      -3.628  -7.983   4.038  0.00  0.00     0.039 A 
ATOM     14 CL   UNL d   1      -2.875  -9.903   5.781  0.00  0.00    -0.084 Cl
BRANCH   9  15
ATOM     15  O   UNL d   1      -2.957  -7.490   0.435  0.00  0.00    -0.360 OA
ATOM     16  H   UNL d   1      -3.490  -6.661   0.413  0.00  0.00     0.217 HD
ENDBRANCH   9  15
ENDBRANCH   6   8
ENDBRANCH   2   5
BRANCH   1  17
ATOM     17  C   UNL d   1      -6.154  -2.597   0.012  0.00  0.00     0.033 A 
ATOM     18  C   UNL d   1      -5.808  -1.589  -0.893  0.00  0.00     0.017 A 
ATOM     19  C   UNL d   1      -6.561  -0.410  -0.965  0.00  0.00     0.009 A 
ATOM     20  C   UNL d   1      -7.686  -0.207  -0.141  0.00  0.00    -0.051 A 
ATOM     21  C   UNL d   1      -8.046  -1.257   0.722  0.00  0.00     0.009 A 
ATOM     22  C   UNL d   1      -7.294  -2.437   0.800  0.00  0.00     0.017 A 
BRANCH  20  23
ATOM     23  C   UNL d   1      -8.450   1.131  -0.182  0.00  0.00    -0.024 C 
ATOM     24  C   UNL d   1      -9.643   1.187   0.800  0.00  0.00     0.019 C 
ATOM     25  C   UNL d   1      -7.490   2.279   0.202  0.00  0.00     0.019 C 
ATOM     26  C   UNL d   1      -9.010   1.403  -1.594  0.00  0.00     0.019 C 
ENDBRANCH  20  23
ENDBRANCH   1  17
TORSDOF 5
