REMARK  7 active torsions:
REMARK  status: ('A' for Active; 'I' for Inactive)
REMARK    1  A    between atoms: N_2  and  C_1 
REMARK    2  A    between atoms: N_3  and  C_1 
REMARK    3  A    between atoms: C_10  and  N_2 
REMARK    4  A    between atoms: C_11  and  N_3 
REMARK    5  A    between atoms: C_5  and  C_6 
REMARK    6  A    between atoms: O_7  and  C_12 
REMARK    7  A    between atoms: C_13  and  O_7 
ROOT
ATOM      1  N   UNL d   1       0.128  -0.848  -0.653  0.00  0.00    -0.333 N 
ATOM      2  H   UNL d   1      -0.712  -0.331  -0.886  0.00  0.00     0.168 HD
ENDROOT
BRANCH   1   3
ATOM      3  C   UNL d   1       1.070  -0.057   0.010  0.00  0.00     0.176 C 
ATOM      4  S   UNL d   1       2.716  -0.009  -0.317  0.00  0.00    -0.041 SA
BRANCH   3   5
ATOM      5  N   UNL d   1       0.422   0.688   0.990  0.00  0.00    -0.333 N 
ATOM      6  H   UNL d   1      -0.258   0.150   1.516  0.00  0.00     0.168 HD
BRANCH   5   7
ATOM      7  C   UNL d   1       0.802   1.924   1.550  0.00  0.00     0.034 A 
ATOM      8  C   UNL d   1       1.437   2.915   0.806  0.00  0.00     0.030 A 
ATOM      9  C   UNL d   1       1.702   4.164   1.374  0.00  0.00     0.010 A 
ATOM     10  C   UNL d   1       1.343   4.465   2.700  0.00  0.00    -0.051 A 
ATOM     11  C   UNL d   1       0.718   3.447   3.439  0.00  0.00     0.010 A 
ATOM     12  C   UNL d   1       0.434   2.201   2.865  0.00  0.00     0.030 A 
BRANCH  10  13
ATOM     13  C   UNL d   1       1.604   5.870   3.266  0.00  0.00    -0.024 C 
ATOM     14  C   UNL d   1       1.146   6.049   4.730  0.00  0.00     0.019 C 
ATOM     15  C   UNL d   1       3.115   6.187   3.216  0.00  0.00     0.019 C 
ATOM     16  C   UNL d   1       0.839   6.910   2.418  0.00  0.00     0.019 C 
ENDBRANCH  10  13
ENDBRANCH   5   7
ENDBRANCH   3   5
ENDBRANCH   1   3
BRANCH   1  17
ATOM     17  C   UNL d   1       0.388  -1.992  -1.435  0.00  0.00     0.034 A 
ATOM     18  C   UNL d   1       1.288  -2.970  -1.012  0.00  0.00     0.032 A 
ATOM     19  C   UNL d   1       1.539  -4.088  -1.804  0.00  0.00     0.039 A 
ATOM     20  C   UNL d   1       0.924  -4.209  -3.051  0.00  0.00     0.076 A 
ATOM     21  C   UNL d   1      -0.039  -3.278  -3.440  0.00  0.00     0.039 A 
ATOM     22  C   UNL d   1      -0.324  -2.178  -2.624  0.00  0.00     0.032 A 
BRANCH  20  23
ATOM     23  O   UNL d   1       1.181  -5.240  -3.928  0.00  0.00    -0.311 OA
BRANCH  23  24
ATOM     24  C   UNL d   1       2.467  -5.724  -4.021  0.00  0.00     0.076 A 
ATOM     25  C   UNL d   1       2.597  -7.096  -4.247  0.00  0.00     0.039 A 
ATOM     26  C   UNL d   1       3.866  -7.674  -4.333  0.00  0.00     0.026 A 
ATOM     27  C   UNL d   1       5.002  -6.875  -4.200  0.00  0.00     0.034 A 
ATOM     28  C   UNL d   1       4.879  -5.500  -4.014  0.00  0.00     0.026 A 
ATOM     29 CL   UNL d   1       6.564  -7.592  -4.269  0.00  0.00    -0.084 Cl
ATOM     30  C   UNL d   1       3.611  -4.919  -3.948  0.00  0.00     0.039 A 
ENDBRANCH  23  24
ENDBRANCH  20  23
ENDBRANCH   1  17
TORSDOF 7
