REMARK  10 active torsions:
REMARK  status: ('A' for Active; 'I' for Inactive)
REMARK    1  A    between atoms: C_4  and  C_1 
REMARK    2  A    between atoms: N_6  and  C_2 
REMARK    3  A    between atoms: O_17  and  C_4 
REMARK       I    between atoms: C_7  and  N_6 
REMARK    4  A    between atoms: C_14  and  C_7 
REMARK    5  A    between atoms: O_19  and  C_8 
REMARK    6  A    between atoms: O_20  and  C_9 
REMARK    7  A    between atoms: C_10  and  C_16 
REMARK    8  A    between atoms: O_18  and  C_10 
REMARK    9  A    between atoms: C_11  and  C_14 
REMARK   10  A    between atoms: C_16  and  C_11 
ROOT
ATOM      1  C   UNL d   1       1.400  -0.093   0.122  0.00  0.00     0.069 A 
ATOM      2  C   UNL d   1       0.628  -1.267   0.242  0.00  0.00     0.053 A 
ATOM      3  C   UNL d   1       0.739   1.145   0.044  0.00  0.00     0.059 A 
ATOM      4  C   UNL d   1      -0.779  -1.158   0.189  0.00  0.00     0.070 A 
ATOM      5  C   UNL d   1      -0.656   1.244   0.057  0.00  0.00     0.102 A 
ATOM      6  C   UNL d   1      -1.432   0.078   0.083  0.00  0.00     0.103 A 
ENDROOT
BRANCH   2   7
ATOM      7  N   UNL d   1       1.235  -2.545   0.381  0.00  0.00    -0.326 N 
ATOM      8  C   UNL d   1       0.674  -3.626   1.046  0.00  0.00     0.222 C 
ATOM      9  O   UNL d   1      -0.406  -3.605   1.628  0.00  0.00    -0.273 OA
ATOM     10  H   UNL d   1       2.237  -2.577   0.209  0.00  0.00     0.169 HD
BRANCH   8  11
ATOM     11  C   UNL d   1       1.530  -4.891   0.972  0.00  0.00     0.112 C 
BRANCH  11  12
ATOM     12  C   UNL d   1       1.222  -5.997   2.026  0.00  0.00    -0.030 C 
ATOM     13  C   UNL d   1       2.137  -7.212   1.744  0.00  0.00     0.016 C 
ATOM     14  C   UNL d   1       1.585  -5.481   3.437  0.00  0.00     0.016 C 
BRANCH  12  15
ATOM     15  C   UNL d   1      -0.260  -6.463   2.055  0.00  0.00     0.119 C 
BRANCH  15  16
ATOM     16  C   UNL d   1      -0.841  -6.866   0.715  0.00  0.00     0.140 C 
ATOM     17  O   UNL d   1      -0.219  -7.413  -0.182  0.00  0.00    -0.650 OA
BRANCH  16  18
ATOM     18  O   UNL d   1      -2.165  -6.612   0.611  0.00  0.00    -0.776 OA
ATOM     19  H   UNL d   1      -2.537  -6.150   1.387  0.00  0.00     0.167 HD
ENDBRANCH  16  18
ENDBRANCH  15  16
ENDBRANCH  12  15
ENDBRANCH  11  12
ENDBRANCH   8  11
ENDBRANCH   2   7
BRANCH   1  20
ATOM     20  C   UNL d   1       2.892  -0.011   0.129  0.00  0.00     0.295 C 
ATOM     21  O   UNL d   1       3.489   1.054   0.031  0.00  0.00    -0.259 OA
BRANCH  20  22
ATOM     22  O   UNL d   1       3.484  -1.224   0.257  0.00  0.00    -0.322 OA
ATOM     23  C   UNL d   1       4.917  -1.207   0.329  0.00  0.00     0.213 C 
ENDBRANCH  20  22
ENDBRANCH   1  20
BRANCH   6  24
ATOM     24  O   UNL d   1      -2.789   0.223  -0.013  0.00  0.00    -0.353 OA
ATOM     25  C   UNL d   1      -3.580  -0.941  -0.209  0.00  0.00     0.210 C 
ENDBRANCH   6  24
BRANCH   5  26
ATOM     26  O   UNL d   1      -1.110   2.534  -0.013  0.00  0.00    -0.353 OA
ATOM     27  C   UNL d   1      -2.327   2.820   0.668  0.00  0.00     0.210 C 
ENDBRANCH   5  26
TORSDOF 10
