REMARK  2 active torsions:
REMARK  status: ('A' for Active; 'I' for Inactive)
REMARK    1  A    between atoms: C_4  and  C_5 
REMARK    2  A    between atoms: C_12  and  C_10 
ROOT
ATOM      1  N   UNL d   1      -1.274   1.389  -0.029  0.00  0.00    -0.352 N 
ATOM      2  HN  UNL d   1      -1.308   2.409  -0.048  1.00  0.00     0.166 HD
ATOM      3  C   UNL d   1      -0.085   0.736  -0.024  0.00  0.00     0.077 A 
ATOM      4  C   UNL d   1       2.388  -0.663  -0.004  0.00  0.00     0.051 A 
ATOM      5  C   UNL d   1      -0.053  -0.679  -0.013  0.00  0.00     0.061 A 
ATOM      6  C   UNL d   1       1.143   1.410  -0.022  0.00  0.00     0.040 A 
ATOM      7  N   UNL d   1      -1.179  -1.411  -0.010  0.00  0.00    -0.362 N 
ATOM      8  HN  UNL d   1      -1.156  -2.430  -0.010  1.00  0.00     0.165 HD
ATOM      9  C   UNL d   1      -2.416   0.660  -0.009  0.00  0.00     0.058 A 
ATOM     10  C   UNL d   1       2.366   0.731  -0.011  0.00  0.00     0.037 A 
ATOM     11  C   UNL d   1       1.165  -1.347  -0.004  0.00  0.00     0.048 A 
ATOM     12  C   UNL d   1      -2.348  -0.725  -0.009  0.00  0.00     0.118 A 
ATOM     13 BR   UNL d   1       1.200   3.314  -0.029  0.00  0.00    -0.049 Br
ENDROOT
BRANCH   9  14
ATOM     14  C   UNL d   1      -3.674   1.426   0.029  0.00  0.00    -0.006 A 
ATOM     15  C   UNL d   1      -3.766   2.686  -0.595  0.00  0.00     0.039 A 
ATOM     16  C   UNL d   1      -4.943   3.443  -0.548  0.00  0.00     0.056 A 
ATOM     17 CL   UNL d   1      -4.954   4.966  -1.364  0.00  0.00    -0.083 Cl
ATOM     18  C   UNL d   1      -6.056   2.957   0.141  0.00  0.00     0.055 A 
ATOM     19  C   UNL d   1      -5.987   1.712   0.767  0.00  0.00     0.026 A 
ATOM     20 CL   UNL d   1      -7.535   3.840   0.266  0.00  0.00    -0.083 Cl
ATOM     21  C   UNL d   1      -4.812   0.955   0.708  0.00  0.00     0.015 A 
ENDBRANCH   9  14
BRANCH   4  22
ATOM     22  C   UNL d   1       3.683  -1.436   0.004  0.00  0.00     0.417 C 
ATOM     23  F   UNL d   1       4.787  -0.639  -0.001  0.00  0.00    -0.166 F 
ATOM     24  F   UNL d   1       3.802  -2.236   1.098  0.00  0.00    -0.166 F 
ATOM     25  F   UNL d   1       3.804  -2.252  -1.077  0.00  0.00    -0.166 F 
ENDBRANCH   4  22
TORSDOF 2
