REMARK  5 active torsions:
REMARK  status: ('A' for Active; 'I' for Inactive)
REMARK    1  A    between atoms: N_7  and  N_1 
REMARK    2  A    between atoms: S_17  and  C_2 
REMARK       I    between atoms: C_8  and  N_7 
REMARK    3  A    between atoms: C_9  and  C_8 
REMARK    4  A    between atoms: O_12  and  C_11 
REMARK    5  A    between atoms: C_21  and  O_12 
ROOT
ATOM      1  N   UNL d   1       3.327  -0.916  -0.902  0.00  0.00    -0.254 N 
ATOM      2  C   UNL d   1       4.560  -0.670  -0.318  0.00  0.00     0.275 C 
ATOM      3  O   UNL d   1       5.405  -1.508  -0.043  0.00  0.00    -0.266 OA
ATOM      4  H   UNL d   1       2.831  -0.160  -1.359  0.00  0.00     0.191 HD
ENDROOT
BRANCH   1   5
ATOM      5  N   UNL d   1       3.098  -2.203  -1.440  0.00  0.00    -0.194 N 
ATOM      6  C   UNL d   1       2.077  -3.008  -0.960  0.00  0.00     0.167 C 
ATOM      7  N   UNL d   1       1.780  -4.166  -1.454  0.00  0.00    -0.335 N 
ATOM      8  C   UNL d   1       2.554  -4.647  -2.517  0.00  0.00     0.050 A 
ATOM      9  HN  UNL d   1       1.005  -4.713  -1.080  1.00  0.00     0.168 HD
ATOM     10  C   UNL d   1       3.594  -3.908  -3.088  0.00  0.00     0.062 A 
ATOM     11  C   UNL d   1       2.264  -5.910  -3.037  0.00  0.00     0.032 A 
ATOM     12  C   UNL d   1       3.833  -2.547  -2.572  0.00  0.00     0.281 C 
ATOM     13  C   UNL d   1       4.360  -4.422  -4.140  0.00  0.00     0.043 A 
ATOM     14  O   UNL d   1       4.582  -1.781  -3.176  0.00  0.00    -0.265 OA
ATOM     15  C   UNL d   1       4.063  -5.688  -4.636  0.00  0.00     0.035 A 
ATOM     16 CL   UNL d   1       4.989  -6.338  -5.931  0.00  0.00    -0.084 Cl
ATOM     17  C   UNL d   1       3.013  -6.431  -4.096  0.00  0.00     0.026 A 
BRANCH   6  18
ATOM     18  S   UNL d   1       1.084  -2.412   0.352  0.00  0.00    -0.105 SA
ATOM     19  H   UNL d   1       1.392  -1.120   0.204  0.00  0.00     0.110 HD
ENDBRANCH   6  18
ENDBRANCH   1   5
BRANCH   2  20
ATOM     20  C   UNL d   1       4.815   0.756  -0.072  0.00  0.00     0.085 A 
ATOM     21  C   UNL d   1       4.140   1.425   0.940  0.00  0.00     0.164 A 
ATOM     22  N   UNL d   1       4.291   2.756   1.166  0.00  0.00    -0.346 N 
ATOM     23  C   UNL d   1       5.128   3.430   0.352  0.00  0.00     0.090 A 
ATOM     24  HN  UNL d   1       3.792   3.226   1.921  1.00  0.00     0.167 HD
ATOM     25  C   UNL d   1       5.839   2.839  -0.683  0.00  0.00     0.018 A 
ATOM     26  C   UNL d   1       5.684   1.472  -0.895  0.00  0.00     0.023 A 
BRANCH  21  27
ATOM     27  O   UNL d   1       3.283   0.681   1.742  0.00  0.00    -0.293 OA
BRANCH  27  28
ATOM     28  C   UNL d   1       2.400   1.365   2.540  0.00  0.00     0.077 A 
ATOM     29  C   UNL d   1       1.493   2.288   2.017  0.00  0.00     0.037 A 
ATOM     30  C   UNL d   1       0.609   2.951   2.869  0.00  0.00     0.003 A 
ATOM     31  C   UNL d   1       0.617   2.667   4.234  0.00  0.00     0.000 A 
ATOM     32  C   UNL d   1       1.495   1.710   4.749  0.00  0.00     0.003 A 
ATOM     33  C   UNL d   1       2.383   1.051   3.899  0.00  0.00     0.037 A 
ENDBRANCH  27  28
ENDBRANCH  21  27
ENDBRANCH   2  20
TORSDOF 5
