REMARK  4 active torsions:
REMARK  status: ('A' for Active; 'I' for Inactive)
REMARK       I    between atoms: N_2  and  C_1 
REMARK    1  A    between atoms: C_4  and  C_1 
REMARK    2  A    between atoms: C_6  and  N_3 
REMARK    3  A    between atoms: C_15  and  C_6 
REMARK    4  A    between atoms: C_16  and  C_6 
ROOT
ATOM      1  C   UNL d   1       1.044  -0.399   0.008  0.00  0.00     0.260 C 
ATOM      2  N   UNL d   1       0.377  -0.420  -1.224  0.00  0.00    -0.344 N 
ATOM      3  N   UNL d   1      -0.363  -0.089  -4.080  0.00  0.00     0.105 N 
ATOM      4  C   UNL d   1       0.785  -1.415  -2.223  0.00  0.00     0.156 C 
ATOM      5  C   UNL d   1      -0.759   0.424  -1.609  0.00  0.00     0.156 C 
ATOM      6  C   UNL d   1      -0.645   0.946  -3.056  0.00  0.00     0.293 C 
ATOM      7  C   UNL d   1       0.858  -0.810  -3.637  0.00  0.00     0.293 C 
ATOM      8  O   UNL d   1       2.037  -1.106   0.191  0.00  0.00    -0.267 OA
ENDROOT
BRANCH   3   9
ATOM      9  C   UNL d   1      -1.534  -0.990  -4.310  0.00  0.00     0.289 C 
BRANCH   9  10
ATOM     10  C   UNL d   1      -2.791  -0.221  -4.740  0.00  0.00    -0.021 A 
ATOM     11  C   UNL d   1      -2.789   0.603  -5.879  0.00  0.00     0.010 A 
ATOM     12  C   UNL d   1      -3.944   1.283  -6.270  0.00  0.00     0.001 A 
ATOM     13  C   UNL d   1      -5.115   1.155  -5.527  0.00  0.00     0.000 A 
ATOM     14  C   UNL d   1      -5.133   0.348  -4.392  0.00  0.00     0.001 A 
ATOM     15  C   UNL d   1      -3.981  -0.338  -4.001  0.00  0.00     0.010 A 
ENDBRANCH   9  10
BRANCH   9  16
ATOM     16  C   UNL d   1      -1.271  -2.131  -5.303  0.00  0.00    -0.021 A 
ATOM     17  C   UNL d   1      -1.896  -3.374  -5.105  0.00  0.00     0.010 A 
ATOM     18  C   UNL d   1      -1.689  -4.428  -5.997  0.00  0.00     0.001 A 
ATOM     19  C   UNL d   1      -0.856  -4.256  -7.100  0.00  0.00     0.000 A 
ATOM     20  C   UNL d   1      -0.242  -3.025  -7.322  0.00  0.00     0.001 A 
ATOM     21  C   UNL d   1      -0.459  -1.966  -6.439  0.00  0.00     0.010 A 
ENDBRANCH   9  16
ENDBRANCH   3   9
BRANCH   1  22
ATOM     22  C   UNL d   1       0.540   0.485   1.052  0.00  0.00     0.072 A 
ATOM     23  S   UNL d   1       1.666   1.410   1.960  0.00  0.00    -0.097 SA
ATOM     24  C   UNL d   1       0.424   2.169   2.855  0.00  0.00     0.050 A 
ATOM     25  C   UNL d   1      -0.823   1.702   2.509  0.00  0.00     0.009 A 
ATOM     26  C   UNL d   1      -0.752   0.697   1.500  0.00  0.00     0.025 A 
ENDBRANCH   1  22
TORSDOF 4
