REMARK  2 active torsions:
REMARK  status: ('A' for Active; 'I' for Inactive)
REMARK    1  A    between atoms: N_7  and  C_4 
REMARK    2  A    between atoms: C_13  and  N_7 
ROOT
ATOM      1  C   UNL d   1      -2.561  -0.992   0.855  0.00  0.00     0.103 A 
ATOM      2  C   UNL d   1      -1.345  -1.834   0.676  0.00  0.00     0.200 A 
ATOM      3  C   UNL d   1      -2.299  -0.044   1.977  0.00  0.00     0.200 A 
ATOM      4  C   UNL d   1      -3.694  -1.074   0.136  0.00  0.00     0.132 C 
ATOM      5  C   UNL d   1      -0.364  -1.326   1.639  0.00  0.00     0.029 A 
ATOM      6  C   UNL d   1      -0.908  -0.279   2.374  0.00  0.00     0.029 A 
ATOM      7  C   UNL d   1      -3.873  -2.092  -0.860  0.00  0.00     0.118 C 
ATOM      8  N   UNL d   1      -4.103  -2.882  -1.682  0.00  0.00    -0.190 NA
ATOM      9  O   UNL d   1      -3.044   0.732   2.535  0.00  0.00    -0.286 OA
ATOM     10  O   UNL d   1      -1.160  -2.740  -0.106  0.00  0.00    -0.286 OA
ATOM     11  C   UNL d   1      -0.175   0.391   3.338  0.00  0.00     0.016 A 
ATOM     12  C   UNL d   1       0.934  -1.757   1.844  0.00  0.00     0.016 A 
ATOM     13  C   UNL d   1       1.142  -0.024   3.551  0.00  0.00     0.001 A 
ATOM     14  C   UNL d   1       1.690  -1.092   2.814  0.00  0.00     0.001 A 
ENDROOT
BRANCH   4  15
ATOM     15  N   UNL d   1      -4.811  -0.251   0.257  0.00  0.00    -0.347 N 
ATOM     16  H   UNL d   1      -5.675  -0.651  -0.112  0.00  0.00     0.167 HD
BRANCH  15  17
ATOM     17  C   UNL d   1      -4.788   1.147   0.018  0.00  0.00     0.033 A 
ATOM     18  C   UNL d   1      -3.810   1.775  -0.767  0.00  0.00     0.036 A 
ATOM     19  C   UNL d   1      -3.768   3.174  -0.905  0.00  0.00    -0.054 A 
ATOM     20  C   UNL d   1      -2.674   3.802  -1.724  0.00  0.00     0.049 C 
ATOM     21  C   UNL d   1      -4.737   3.959  -0.252  0.00  0.00    -0.056 A 
ATOM     22  C   UNL d   1      -5.747   3.325   0.484  0.00  0.00     0.009 A 
ATOM     23  C   UNL d   1      -4.692   5.462  -0.298  0.00  0.00     0.049 C 
ATOM     24  C   UNL d   1      -5.778   1.935   0.608  0.00  0.00     0.030 A 
ENDBRANCH  15  17
ENDBRANCH   4  15
TORSDOF 2
