REMARK  8 active torsions:
REMARK  status: ('A' for Active; 'I' for Inactive)
REMARK    1  A    between atoms: C_9  and  N_1 
REMARK    2  A    between atoms: N_8  and  C_2 
REMARK    3  A    between atoms: C_10  and  C_5 
REMARK    4  A    between atoms: C_6  and  O_13 
REMARK    5  A    between atoms: C_7  and  O_12 
REMARK    6  A    between atoms: C_18  and  N_8 
REMARK    7  A    between atoms: O_12  and  C_26 
REMARK    8  A    between atoms: O_13  and  C_25 
ROOT
ATOM      1  N   UNL d   1      -0.076  -1.076  -0.082  0.00  0.00    -0.300 N 
ATOM      2  C   UNL d   1      -0.204   1.228   0.003  0.00  0.00     0.080 C 
ATOM      3  C   UNL d   1       0.725   0.054  -0.008  0.00  0.00     0.270 C 
ATOM      4  C   UNL d   1      -1.445   0.738  -0.018  0.00  0.00     0.033 C 
ATOM      5  C   UNL d   1      -1.482  -0.757   0.033  0.00  0.00     0.151 C 
ATOM      6  O   UNL d   1       1.937   0.150  -0.020  0.00  0.00    -0.266 OA
ENDROOT
BRANCH   2   7
ATOM      7  N   UNL d   1       0.268   2.522  -0.004  0.00  0.00    -0.255 NA
ATOM      8  H   UNL d   1       1.170   2.524  -0.491  0.00  0.00     0.134 HD
BRANCH   7   9
ATOM      9  C   UNL d   1       0.475   3.229   1.216  0.00  0.00     0.013 A 
ATOM     10  C   UNL d   1       1.399   4.284   1.230  0.00  0.00     0.026 A 
ATOM     11  C   UNL d   1       1.661   5.001   2.404  0.00  0.00     0.039 A 
ATOM     12  C   UNL d   1       1.003   4.670   3.584  0.00  0.00     0.078 A 
ATOM     13  C   UNL d   1       0.008   3.692   3.554  0.00  0.00     0.039 A 
ATOM     14  C   UNL d   1      -0.265   2.987   2.377  0.00  0.00     0.026 A 
BRANCH  12  15
ATOM     15  O   UNL d   1       1.176   5.285   4.785  0.00  0.00    -0.255 OA
BRANCH  15  16
ATOM     16  C   UNL d   1       2.486   5.675   5.177  0.00  0.00     0.530 C 
ATOM     17  F   UNL d   1       3.453   5.377   4.286  0.00  0.00    -0.144 F 
ATOM     18  F   UNL d   1       2.499   7.009   5.395  0.00  0.00    -0.144 F 
ATOM     19  F   UNL d   1       2.789   5.058   6.341  0.00  0.00    -0.144 F 
ENDBRANCH  15  16
ENDBRANCH  12  15
ENDBRANCH   7   9
ENDBRANCH   2   7
BRANCH   1  20
ATOM     20  C   UNL d   1       0.394  -2.395  -0.201  0.00  0.00     0.038 A 
ATOM     21  C   UNL d   1       1.321  -2.916   0.705  0.00  0.00     0.032 A 
ATOM     22  C   UNL d   1       1.722  -4.258   0.617  0.00  0.00     0.039 A 
ATOM     23  C   UNL d   1       1.221  -5.072  -0.398  0.00  0.00     0.078 A 
ATOM     24  C   UNL d   1       0.355  -4.524  -1.347  0.00  0.00     0.039 A 
ATOM     25  C   UNL d   1      -0.083  -3.204  -1.233  0.00  0.00     0.032 A 
BRANCH  23  26
ATOM     26  O   UNL d   1       1.536  -6.378  -0.616  0.00  0.00    -0.255 OA
BRANCH  26  27
ATOM     27  C   UNL d   1       1.799  -7.225   0.493  0.00  0.00     0.530 C 
ATOM     28  F   UNL d   1       1.444  -6.696   1.683  0.00  0.00    -0.144 F 
ATOM     29  F   UNL d   1       1.098  -8.370   0.327  0.00  0.00    -0.144 F 
ATOM     30  F   UNL d   1       3.111  -7.535   0.523  0.00  0.00    -0.144 F 
ENDBRANCH  26  27
ENDBRANCH  23  26
ENDBRANCH   1  20
BRANCH   5  31
ATOM     31  C   UNL d   1      -2.085  -1.246   1.346  0.00  0.00    -0.031 A 
ATOM     32  C   UNL d   1      -3.263  -2.007   1.341  0.00  0.00     0.011 A 
ATOM     33  C   UNL d   1      -3.826  -2.450   2.544  0.00  0.00     0.024 A 
ATOM     34  C   UNL d   1      -3.221  -2.134   3.759  0.00  0.00     0.034 A 
ATOM     35  C   UNL d   1      -2.053  -1.380   3.786  0.00  0.00     0.024 A 
ATOM     36 CL   UNL d   1      -3.917  -2.680   5.234  0.00  0.00    -0.084 Cl
ATOM     37  C   UNL d   1      -1.487  -0.943   2.587  0.00  0.00     0.011 A 
ENDBRANCH   5  31
TORSDOF 8
