REMARK  7 active torsions:
REMARK  status: ('A' for Active; 'I' for Inactive)
REMARK    1  A    between atoms: C_2  and  C_1 
REMARK    2  A    between atoms: S_3  and  C_2 
REMARK    3  A    between atoms: C_4  and  C_2 
REMARK    4  A    between atoms: C_6  and  S_3 
REMARK    5  A    between atoms: C_5  and  C_4 
REMARK    6  A    between atoms: C_9  and  C_5 
REMARK    7  A    between atoms: N_16  and  C_12 
ROOT
ATOM      1  C   UNL d   1       2.576   1.331  -0.341  0.00  0.00     0.093 C 
ENDROOT
BRANCH   1   2
ATOM      2  C   UNL d   1       1.262   0.648   0.133  0.00  0.00    -0.037 A 
ATOM      3  C   UNL d   1       0.750  -0.582  -0.247  0.00  0.00     0.057 A 
ATOM      4  S   UNL d   1      -0.713  -1.027   0.519  0.00  0.00    -0.113 SA
ATOM      5  C   UNL d   1      -0.715   0.404   1.432  0.00  0.00     0.050 A 
ATOM      6  C   UNL d   1       0.376   1.195   1.146  0.00  0.00     0.016 A 
ENDBRANCH   1   2
BRANCH   1   7
ATOM      7  S   UNL d   1       3.096   0.897  -2.080  0.00  0.00    -0.118 SA
BRANCH   7   8
ATOM      8  C   UNL d   1       3.408  -0.876  -2.030  0.00  0.00     0.027 A 
ATOM      9  C   UNL d   1       4.271  -1.517  -1.122  0.00  0.00     0.042 A 
ATOM     10  C   UNL d   1       4.284  -2.922  -1.083  0.00  0.00     0.030 A 
ATOM     11  C   UNL d   1       3.454  -3.682  -1.909  0.00  0.00     0.002 A 
ATOM     12  C   UNL d   1       2.649  -3.048  -2.847  0.00  0.00     0.002 A 
ATOM     13  C   UNL d   1       2.642  -1.655  -2.923  0.00  0.00     0.021 A 
BRANCH   9  14
ATOM     14  N   UNL d   1       5.269  -0.828  -0.425  0.00  0.00    -0.398 N 
ATOM     15  H   UNL d   1       5.183   0.185  -0.406  0.00  0.00     0.156 HD
ATOM     16  H   UNL d   1       5.594  -1.250   0.436  0.00  0.00     0.156 HD
ENDBRANCH   9  14
ENDBRANCH   7   8
ENDBRANCH   1   7
BRANCH   1  17
ATOM     17  C   UNL d   1       2.414   2.873  -0.256  0.00  0.00     0.104 C 
BRANCH  17  18
ATOM     18  C   UNL d   1       3.632   3.762  -0.459  0.00  0.00     0.161 C 
ATOM     19  O   UNL d   1       4.758   3.313  -0.624  0.00  0.00    -0.292 OA
BRANCH  18  20
ATOM     20  C   UNL d   1       3.424   5.254  -0.343  0.00  0.00     0.010 A 
ATOM     21  C   UNL d   1       2.200   5.815   0.045  0.00  0.00     0.017 A 
ATOM     22  C   UNL d   1       2.062   7.196   0.222  0.00  0.00     0.025 A 
ATOM     23  C   UNL d   1       3.153   8.032  -0.002  0.00  0.00     0.034 A 
ATOM     24  C   UNL d   1       4.371   7.497  -0.411  0.00  0.00     0.025 A 
ATOM     25 CL   UNL d   1       2.991   9.729   0.244  0.00  0.00    -0.084 Cl
ATOM     26  C   UNL d   1       4.510   6.115  -0.582  0.00  0.00     0.017 A 
ENDBRANCH  18  20
ENDBRANCH  17  18
ENDBRANCH   1  17
TORSDOF 7
