REMARK  1 active torsions:
REMARK  status: ('A' for Active; 'I' for Inactive)
REMARK    1  A    between atoms: C_2  and  N_1 
ROOT
ATOM      1  C   UNL d   1      -0.035   2.195  -0.160  0.00  0.00     0.152 A 
ATOM      2  C   UNL d   1      -0.600   3.077   0.736  0.00  0.00     0.074 A 
ATOM      3  N   UNL d   1       0.556   2.996  -1.114  0.00  0.00    -0.280 N 
ATOM      4  N   UNL d   1       0.385   4.317  -0.888  0.00  0.00    -0.307 N 
ATOM      5  HN  UNL d   1       0.714   5.099  -1.454  1.00  0.00     0.186 HD
ATOM      6  C   UNL d   1      -0.313   4.360   0.249  0.00  0.00     0.130 A 
ATOM      7 BR   UNL d   1      -1.458   2.763   2.369  0.00  0.00    -0.045 Br
ATOM      8  C   UNL d   1       1.169   2.599  -2.360  0.00  0.00     0.179 C 
ENDROOT
BRANCH   1   9
ATOM      9  N   UNL d   1      -0.034   0.815  -0.085  0.00  0.00    -0.234 N 
ATOM     10  C   UNL d   1       1.116   0.008  -0.207  0.00  0.00     0.232 A 
ATOM     11  C   UNL d   1       0.744  -1.429  -0.004  0.00  0.00     0.113 A 
ATOM     12  O   UNL d   1       2.221   0.468  -0.418  0.00  0.00    -0.273 OA
ATOM     13  C   UNL d   1      -0.774  -1.430   0.152  0.00  0.00     0.113 A 
ATOM     14  C   UNL d   1      -1.179   0.015   0.136  0.00  0.00     0.232 A 
ATOM     15  O   UNL d   1      -2.306   0.463   0.198  0.00  0.00    -0.273 OA
ENDBRANCH   1   9
TORSDOF 1
