REMARK  7 active torsions:
REMARK  status: ('A' for Active; 'I' for Inactive)
REMARK    1  A    between atoms: N_5  and  C_1 
REMARK    2  A    between atoms: N_4  and  C_2 
REMARK    3  A    between atoms: N_11  and  C_3 
REMARK    4  A    between atoms: C_6  and  C_7 
REMARK    5  A    between atoms: C_10  and  C_20 
REMARK    6  A    between atoms: N_12  and  N_11 
REMARK    7  A    between atoms: O_28  and  C_18 
ROOT
ATOM      1  C   UNL d   1       1.406  -0.155   0.103  0.00  0.00     0.134 A 
ATOM      2  C   UNL d   1      -0.751  -1.146   0.035  0.00  0.00     0.134 A 
ATOM      3  C   UNL d   1       0.646  -1.339   0.049  0.00  0.00     0.114 A 
ATOM      4  C   UNL d   1      -0.555   1.286   0.171  0.00  0.00     0.052 A 
ATOM      5  C   UNL d   1       0.834   1.132   0.165  0.00  0.00     0.054 A 
ATOM      6  C   UNL d   1      -1.349   0.133   0.097  0.00  0.00     0.054 A 
ENDROOT
BRANCH   3   7
ATOM      7  N   UNL d   1       1.214  -2.621  -0.087  0.00  0.00    -0.296 N 
ATOM      8  H   UNL d   1       0.646  -3.432   0.187  0.00  0.00     0.187 HD
BRANCH   7   9
ATOM      9  N   UNL d   1       2.380  -2.758  -0.749  0.00  0.00    -0.310 N 
ATOM     10  C   UNL d   1       3.023  -3.859  -0.507  0.00  0.00     0.121 C 
ATOM     11  HN  UNL d   1       2.731  -2.049  -1.393  1.00  0.00     0.186 HD
BRANCH  10  12
ATOM     12  C   UNL d   1       4.340  -4.126  -1.122  0.00  0.00     0.015 A 
ATOM     13  C   UNL d   1       4.881  -3.305  -2.120  0.00  0.00     0.077 A 
ATOM     14  C   UNL d   1       6.144  -3.571  -2.645  0.00  0.00     0.039 A 
ATOM     15  C   UNL d   1       6.874  -4.664  -2.179  0.00  0.00     0.022 A 
ATOM     16  C   UNL d   1       6.331  -5.489  -1.194  0.00  0.00     0.011 A 
ATOM     17  C   UNL d   1       5.067  -5.229  -0.661  0.00  0.00     0.034 A 
ATOM     18 BR   UNL d   1       7.322  -6.973  -0.570  0.00  0.00    -0.051 Br
BRANCH  13  19
ATOM     19  O   UNL d   1       4.228  -2.224  -2.642  0.00  0.00    -0.360 OA
ATOM     20  H   UNL d   1       3.426  -2.067  -2.102  0.00  0.00     0.217 HD
ENDBRANCH  13  19
ENDBRANCH  10  12
ENDBRANCH   7   9
ENDBRANCH   3   7
BRANCH   2  21
ATOM     21  N   UNL d   1      -1.646  -2.295  -0.067  0.00  0.00    -0.113 N 
ATOM     22  O   UNL d   1      -1.353  -3.305   0.589  0.00  0.00    -0.532 OA
ATOM     23  O   UNL d   1      -2.639  -2.179  -0.797  0.00  0.00    -0.532 OA
ENDBRANCH   2  21
BRANCH   1  24
ATOM     24  N   UNL d   1       2.853  -0.205   0.202  0.00  0.00    -0.113 N 
ATOM     25  O   UNL d   1       3.333  -0.626   1.264  0.00  0.00    -0.532 OA
ATOM     26  O   UNL d   1       3.491   0.271  -0.745  0.00  0.00    -0.532 OA
ENDBRANCH   1  24
BRANCH   4  27
ATOM     27  C   UNL d   1      -1.193   2.653   0.270  0.00  0.00     0.417 C 
ATOM     28  F   UNL d   1      -0.288   3.663   0.368  0.00  0.00    -0.166 F 
ATOM     29  F   UNL d   1      -1.970   2.939  -0.807  0.00  0.00    -0.166 F 
ATOM     30  F   UNL d   1      -1.998   2.759   1.361  0.00  0.00    -0.166 F 
ENDBRANCH   4  27
TORSDOF 7
