REMARK  2 active torsions:
REMARK  status: ('A' for Active; 'I' for Inactive)
REMARK    1  A    between atoms: N_6  and  C_5 
REMARK    2  A    between atoms: C_8  and  N_6 
ROOT
ATOM      1  N   UNL d   1      -1.106   1.128   0.527  0.00  0.00    -0.285 N 
ATOM      2  HN  UNL d   1      -1.653   1.894   0.920  1.00  0.00     0.188 HD
ATOM      3  N   UNL d   1       0.266   1.205   0.532  0.00  0.00    -0.304 N 
ATOM      4  HN  UNL d   1       0.730   2.016   0.942  1.00  0.00     0.186 HD
ATOM      5  C   UNL d   1      -1.742   0.054   0.010  0.00  0.00     0.120 A 
ATOM      6  C   UNL d   1       0.999   0.209  -0.005  0.00  0.00     0.022 A 
ATOM      7  C   UNL d   1      -1.000  -0.991  -0.528  0.00  0.00     0.052 A 
ATOM      8  C   UNL d   1       0.389  -0.907  -0.551  0.00  0.00     0.030 A 
ATOM      9  C   UNL d   1       2.485   0.362  -0.009  0.00  0.00     0.069 C 
ENDROOT
BRANCH   5  10
ATOM     10  N   UNL d   1      -3.148  -0.033  -0.027  0.00  0.00    -0.341 N 
ATOM     11  H   UNL d   1      -3.471  -0.855   0.469  0.00  0.00     0.167 HD
BRANCH  10  12
ATOM     12  C   UNL d   1      -4.062   1.039  -0.035  0.00  0.00     0.033 A 
ATOM     13  C   UNL d   1      -3.750   2.264  -0.643  0.00  0.00     0.031 A 
ATOM     14  C   UNL d   1      -4.706   3.277  -0.758  0.00  0.00     0.026 A 
ATOM     15  C   UNL d   1      -5.987   3.074  -0.260  0.00  0.00     0.034 A 
ATOM     16  C   UNL d   1      -6.316   1.873   0.363  0.00  0.00     0.026 A 
ATOM     17 CL   UNL d   1      -7.179   4.302  -0.436  0.00  0.00    -0.084 Cl
ATOM     18  C   UNL d   1      -5.358   0.857   0.466  0.00  0.00     0.031 A 
ENDBRANCH  10  12
ENDBRANCH   5  10
TORSDOF 2
