REMARK  2 active torsions:
REMARK  status: ('A' for Active; 'I' for Inactive)
REMARK    1  A    between atoms: C_11  and  C_4 
REMARK    2  A    between atoms: S_13  and  C_12 
ROOT
ATOM      1  C   UNL d   1      -0.724  -0.794   0.048  0.00  0.00     0.058 C 
ATOM      2  C   UNL d   1      -0.912   0.718   0.034  0.00  0.00     0.174 C 
ATOM      3  N   UNL d   1       0.659  -1.118   0.080  0.00  0.00    -0.280 NA
ATOM      4  C   UNL d   1      -1.713  -1.700   0.011  0.00  0.00     0.038 C 
ATOM      5  C   UNL d   1       0.438   1.425  -0.027  0.00  0.00     0.064 C 
ATOM      6  C   UNL d   1       1.380  -0.639  -1.140  0.00  0.00     0.096 C 
ATOM      7  C   UNL d   1       1.349  -0.540   1.274  0.00  0.00     0.096 C 
ATOM      8  O   UNL d   1      -1.978   1.316   0.118  0.00  0.00    -0.291 OA
ATOM      9  C   UNL d   1       1.194   0.997   1.244  0.00  0.00     0.027 C 
ATOM     10  C   UNL d   1       1.169   0.885  -1.271  0.00  0.00     0.027 C 
ENDROOT
BRANCH   4  11
ATOM     11  C   UNL d   1      -3.137  -1.394  -0.118  0.00  0.00    -0.034 A 
ATOM     12  C   UNL d   1      -3.712  -1.288  -1.389  0.00  0.00     0.013 A 
ATOM     13  C   UNL d   1      -5.054  -0.918  -1.535  0.00  0.00     0.019 A 
ATOM     14  C   UNL d   1      -5.846  -0.661  -0.412  0.00  0.00    -0.000 A 
ATOM     15  C   UNL d   1      -5.276  -0.815   0.859  0.00  0.00     0.019 A 
ATOM     16  C   UNL d   1      -3.929  -1.168   1.008  0.00  0.00     0.013 A 
BRANCH  14  17
ATOM     17  S   UNL d   1      -7.568  -0.180  -0.491  0.00  0.00    -0.134 SA
ATOM     18  C   UNL d   1      -7.655   0.747  -2.049  0.00  0.00     0.095 C 
ENDBRANCH  14  17
ENDBRANCH   4  11
TORSDOF 2
