REMARK  5 active torsions:
REMARK  status: ('A' for Active; 'I' for Inactive)
REMARK    1  A    between atoms: C_4  and  N_1 
REMARK    2  A    between atoms: C_5  and  C_4 
REMARK    3  A    between atoms: C_6  and  C_5 
REMARK    4  A    between atoms: C_7  and  C_5 
REMARK    5  A    between atoms: C_8  and  C_6 
ROOT
ATOM      1  C   UNL d   1       3.715   0.048  -0.058  0.00  0.00     0.111 C 
ENDROOT
BRANCH   1   2
ATOM      2  C   UNL d   1       2.195   0.048  -0.058  0.00  0.00    -0.068 C 
BRANCH   2   3
ATOM      3  N   UNL d   1       0.934   0.048  -0.058  0.00  0.00    -0.369 N 
ATOM      4  HN2 UNL d   1       1.954   0.048  -0.058  1.00  0.00     0.165 HD
ATOM      5  HN1 UNL d   1      -0.086   0.048  -0.058  1.00  0.00     0.165 HD
ENDBRANCH   2   3
ENDBRANCH   1   2
BRANCH   1   6
ATOM      6  C   UNL d   1       4.234   1.494  -0.254  0.00  0.00     0.061 C 
BRANCH   6   7
ATOM      7  C   UNL d   1       3.873   2.164  -1.565  0.00  0.00    -0.057 A 
ATOM      8  C   UNL d   1       2.710   2.943  -1.674  0.00  0.00     0.007 A 
ATOM      9  C   UNL d   1       2.419   3.628  -2.856  0.00  0.00     0.001 A 
ATOM     10  C   UNL d   1       3.283   3.541  -3.943  0.00  0.00     0.000 A 
ATOM     11  C   UNL d   1       4.432   2.753  -3.854  0.00  0.00     0.001 A 
ATOM     12  C   UNL d   1       4.722   2.065  -2.674  0.00  0.00     0.007 A 
ENDBRANCH   6   7
ENDBRANCH   1   6
BRANCH   1  13
ATOM     13  C   UNL d   1       4.237  -0.531   1.253  0.00  0.00    -0.041 A 
ATOM     14  C   UNL d   1       5.007  -1.704   1.257  0.00  0.00     0.008 A 
ATOM     15  C   UNL d   1       5.510  -2.217   2.456  0.00  0.00     0.001 A 
ATOM     16  C   UNL d   1       5.249  -1.571   3.663  0.00  0.00     0.000 A 
ATOM     17  C   UNL d   1       4.469  -0.418   3.677  0.00  0.00     0.001 A 
ATOM     18  C   UNL d   1       3.962   0.095   2.484  0.00  0.00     0.008 A 
ENDBRANCH   1  13
TORSDOF 5
