REMARK  3 active torsions:
REMARK  status: ('A' for Active; 'I' for Inactive)
REMARK    1  A    between atoms: C_8  and  N_1 
REMARK    2  A    between atoms: S_7  and  C_4 
REMARK    3  A    between atoms: C_6  and  S_7 
ROOT
ATOM      1  N   UNL d   1       0.016   0.853  -0.063  0.00  0.00    -0.251 N 
ATOM      2  C   UNL d   1      -1.119   0.096   0.104  0.00  0.00     0.232 A 
ATOM      3  C   UNL d   1       1.137   0.054  -0.161  0.00  0.00     0.245 A 
ATOM      4  C   UNL d   1       0.718  -1.396  -0.195  0.00  0.00     0.154 A 
ATOM      5  C   UNL d   1      -0.777  -1.361   0.028  0.00  0.00     0.129 A 
ATOM      6  O   UNL d   1      -2.276   0.462   0.274  0.00  0.00    -0.273 OA
ATOM      7  O   UNL d   1       2.312   0.400  -0.165  0.00  0.00    -0.271 OA
ENDROOT
BRANCH   1   8
ATOM      8  C   UNL d   1       0.043   2.283  -0.096  0.00  0.00     0.045 A 
ATOM      9  C   UNL d   1      -1.013   3.055   0.421  0.00  0.00     0.033 A 
ATOM     10  C   UNL d   1      -0.988   4.454   0.369  0.00  0.00     0.044 A 
ATOM     11  C   UNL d   1       0.091   5.102  -0.212  0.00  0.00     0.116 A 
ATOM     12  C   UNL d   1       1.147   4.375  -0.735  0.00  0.00     0.044 A 
ATOM     13  F   UNL d   1       0.111   6.439  -0.269  0.00  0.00    -0.206 F 
ATOM     14  C   UNL d   1       1.125   2.976  -0.673  0.00  0.00     0.033 A 
ENDBRANCH   1   8
BRANCH   4  15
ATOM     15  S   UNL d   1       1.186  -2.100  -1.810  0.00  0.00    -0.108 SA
BRANCH  15  16
ATOM     16  C   UNL d   1       0.720  -3.785  -1.633  0.00  0.00     0.041 A 
ATOM     17  S   UNL d   1       1.272  -4.799  -0.372  0.00  0.00    -0.095 SA
ATOM     18  C   UNL d   1       0.442  -6.154  -1.010  0.00  0.00     0.051 A 
ATOM     19  C   UNL d   1      -0.250  -5.838  -2.159  0.00  0.00     0.009 A 
ATOM     20  C   UNL d   1      -0.085  -4.469  -2.519  0.00  0.00     0.026 A 
ENDBRANCH  15  16
ENDBRANCH   4  15
TORSDOF 3
