REMARK  4 active torsions:
REMARK  status: ('A' for Active; 'I' for Inactive)
REMARK    1  A    between atoms: C_12  and  N_1 
REMARK    2  A    between atoms: N_6  and  C_8 
REMARK    3  A    between atoms: C_19  and  C_12 
REMARK    4  A    between atoms: O_20  and  C_19 
ROOT
ATOM      1  N   UNL d   1       2.271  -0.152   0.109  0.00  0.00    -0.277 N 
ATOM      2  C   UNL d   1       1.703   1.119   0.093  0.00  0.00     0.261 A 
ATOM      3  C   UNL d   1       1.551  -1.345   0.154  0.00  0.00     0.261 A 
ATOM      4  C   UNL d   1       0.223   1.200   0.040  0.00  0.00     0.047 A 
ATOM      5  C   UNL d   1       0.073  -1.240   0.105  0.00  0.00     0.044 A 
ATOM      6  C   UNL d   1      -0.533   0.021   0.052  0.00  0.00     0.006 A 
ATOM      7  C   UNL d   1      -1.793   2.530  -0.067  0.00  0.00     0.104 A 
ATOM      8  C   UNL d   1      -0.398   2.456  -0.026  0.00  0.00     0.054 A 
ATOM      9  C   UNL d   1      -1.950   0.106   0.010  0.00  0.00    -0.021 A 
ATOM     10  C   UNL d   1      -2.568   1.365  -0.049  0.00  0.00     0.048 A 
ATOM     11  O   UNL d   1       2.082  -2.451   0.233  0.00  0.00    -0.267 OA
ATOM     12  O   UNL d   1       2.355   2.159   0.117  0.00  0.00    -0.267 OA
ATOM     13  C   UNL d   1      -0.703  -2.406   0.107  0.00  0.00     0.018 A 
ATOM     14  C   UNL d   1      -2.712  -1.072   0.023  0.00  0.00     0.012 A 
ATOM     15  C   UNL d   1      -2.094  -2.320   0.068  0.00  0.00     0.002 A 
ENDROOT
BRANCH   1  16
ATOM     16  C   UNL d   1       3.733  -0.240   0.162  0.00  0.00     0.167 C 
BRANCH  16  17
ATOM     17  C   UNL d   1       4.274  -0.251   1.605  0.00  0.00     0.132 C 
ATOM     18  C   UNL d   1       5.797  -0.301   1.616  0.00  0.00     0.041 C 
BRANCH  17  19
ATOM     19  O   UNL d   1       3.793  -1.376   2.345  0.00  0.00    -0.394 OA
ATOM     20  H   UNL d   1       3.678  -2.127   1.730  0.00  0.00     0.210 HD
ENDBRANCH  17  19
ENDBRANCH  16  17
ENDBRANCH   1  16
BRANCH   7  21
ATOM     21  N   UNL d   1      -2.454   3.841  -0.135  0.00  0.00    -0.116 N 
ATOM     22  O   UNL d   1      -1.735   4.847  -0.180  0.00  0.00    -0.532 OA
ATOM     23  O   UNL d   1      -3.693   3.858  -0.147  0.00  0.00    -0.532 OA
ENDBRANCH   7  21
TORSDOF 4
