REMARK  2 active torsions:
REMARK  status: ('A' for Active; 'I' for Inactive)
REMARK    1  A    between atoms: C_2  and  C_1 
REMARK    2  A    between atoms: C_4  and  C_1 
ROOT
ATOM      1  C   UNL d   1       0.923  -0.097  -0.062  0.00  0.00     0.192 C 
ATOM      2  O   UNL d   1       0.317   0.965  -0.185  0.00  0.00    -0.287 OA
ENDROOT
BRANCH   1   3
ATOM      3  C   UNL d   1       0.148  -1.366  -0.038  0.00  0.00     0.015 A 
ATOM      4  C   UNL d   1      -1.028  -1.439  -0.797  0.00  0.00     0.018 A 
ATOM      5  C   UNL d   1      -1.786  -2.612  -0.805  0.00  0.00     0.043 A 
ATOM      6  C   UNL d   1      -1.370  -3.700  -0.046  0.00  0.00     0.116 A 
ATOM      7  C   UNL d   1      -0.220  -3.632   0.735  0.00  0.00     0.043 A 
ATOM      8  F   UNL d   1      -2.092  -4.827  -0.058  0.00  0.00    -0.206 F 
ATOM      9  C   UNL d   1       0.537  -2.459   0.750  0.00  0.00     0.018 A 
ENDBRANCH   1   3
BRANCH   1  10
ATOM     10  C   UNL d   1       2.406  -0.079   0.053  0.00  0.00     0.015 A 
ATOM     11  C   UNL d   1       3.014   1.044   0.629  0.00  0.00     0.015 A 
ATOM     12  C   UNL d   1       4.403   1.105   0.754  0.00  0.00     0.001 A 
ATOM     13  C   UNL d   1       5.190   0.048   0.299  0.00  0.00     0.000 A 
ATOM     14  C   UNL d   1       4.593  -1.062  -0.298  0.00  0.00     0.001 A 
ATOM     15  C   UNL d   1       3.204  -1.123  -0.432  0.00  0.00     0.015 A 
ENDBRANCH   1  10
TORSDOF 2
