REMARK  9 active torsions:
REMARK  status: ('A' for Active; 'I' for Inactive)
REMARK       I    between atoms: N_17  and  C1_1 
REMARK    1  A    between atoms: O1_4  and  C1_1 
REMARK    2  A    between atoms: C2_2  and  C3_3 
REMARK    3  A    between atoms: C3_3  and  O1_4 
REMARK    4  A    between atoms: O6_12  and  C9_9 
REMARK    5  A    between atoms: O5_11  and  C10_10 
REMARK    6  A    between atoms: CA_19  and  N_17 
REMARK    7  A    between atoms: OXT_21  and  C_18 
REMARK    8  A    between atoms: CA_19  and  C_18 
REMARK    9  A    between atoms: C_26  and  N_25 
ROOT
ATOM      1  C   UNL d   1       0.835  -0.480  -1.103  0.00  0.00     0.218 C 
ATOM      2  C   UNL d   1       1.347  -0.702   0.737  0.00  0.00     0.035 C 
ATOM      3  C   UNL d   1       1.690   0.902  -2.168  0.00  0.00     0.035 C 
ATOM      4  C   UNL d   1       3.102   1.979  -1.375  0.00  0.00     0.002 C 
ATOM      5  C   UNL d   1       2.572   0.519   1.574  0.00  0.00     0.002 C 
ATOM      6  C   UNL d   1       3.540   1.788   0.495  0.00  0.00     0.000 C 
ENDROOT
BRANCH   1   7
ATOM      7  N   UNL d   1      -0.610  -0.499  -1.286  0.00  0.00     0.082 N 
ATOM      8  H   UNL d   1      -1.004  -1.366  -0.927  0.00  0.00     0.313 HD
ATOM      9  H   UNL d   1      -0.847  -0.436  -2.275  0.00  0.00     0.313 HD
ENDBRANCH   1   7
TORSDOF 9
