REMARK  3 active torsions:
REMARK  status: ('A' for Active; 'I' for Inactive)
REMARK    1  A    between atoms: N_3  and  N_1 
REMARK    2  A    between atoms: C_5  and  C_9 
REMARK    3  A    between atoms: C_6  and  C_10 
ROOT
ATOM      1  N   UNL d   1       0.768  -0.065   0.182  0.00  0.00    -0.311 N 
ATOM      2  HN  UNL d   1       0.156  -0.880   0.139  1.00  0.00     0.186 HD
ATOM      3  C   UNL d   1       2.063  -0.125   0.272  0.00  0.00     0.119 C 
ENDROOT
BRANCH   1   4
ATOM      4  N   UNL d   1       0.326   1.252   0.151  0.00  0.00    -0.311 N 
ATOM      5  C   UNL d   1      -0.966   1.308   0.029  0.00  0.00     0.119 C 
ATOM      6  HN  UNL d   1       0.936   2.067   0.215  1.00  0.00     0.186 HD
BRANCH   5   7
ATOM      7  C   UNL d   1      -1.689   2.601  -0.047  0.00  0.00    -0.013 A 
ATOM      8  C   UNL d   1      -3.090   2.689  -0.160  0.00  0.00    -0.050 A 
ATOM      9  C   UNL d   1      -4.033   1.519  -0.204  0.00  0.00     0.049 C 
ATOM     10  C   UNL d   1      -3.675   3.970  -0.245  0.00  0.00     0.007 A 
ATOM     11  C   UNL d   1      -2.896   5.128  -0.214  0.00  0.00     0.001 A 
ATOM     12  C   UNL d   1      -1.517   5.030  -0.095  0.00  0.00     0.001 A 
ATOM     13  C   UNL d   1      -0.916   3.775  -0.013  0.00  0.00     0.013 A 
ENDBRANCH   5   7
ENDBRANCH   1   4
BRANCH   3  14
ATOM     14  C   UNL d   1       2.783  -1.421   0.303  0.00  0.00    -0.013 A 
ATOM     15  C   UNL d   1       4.185  -1.517   0.415  0.00  0.00    -0.050 A 
ATOM     16  C   UNL d   1       5.129  -0.353   0.528  0.00  0.00     0.049 C 
ATOM     17  C   UNL d   1       4.768  -2.801   0.415  0.00  0.00     0.007 A 
ATOM     18  C   UNL d   1       3.989  -3.954   0.315  0.00  0.00     0.001 A 
ATOM     19  C   UNL d   1       2.608  -3.849   0.213  0.00  0.00     0.001 A 
ATOM     20  C   UNL d   1       2.010  -2.591   0.207  0.00  0.00     0.013 A 
ENDBRANCH   3  14
TORSDOF 3
