REMARK  9 active torsions:
REMARK  status: ('A' for Active; 'I' for Inactive)
REMARK    1  A    between atoms: N_3  and  S_1 
REMARK    2  A    between atoms: C_13  and  S_1 
REMARK    3  A    between atoms: C_2  and  N_3 
REMARK    4  A    between atoms: N_12  and  C_4 
REMARK    5  A    between atoms: C_11  and  C_7 
REMARK    6  A    between atoms: O_29  and  C_10 
REMARK    7  A    between atoms: O_30  and  C_11 
REMARK    8  A    between atoms: C_21  and  N_12 
REMARK       I    between atoms: C_20  and  N_22 
REMARK    9  A    between atoms: N_22  and  C_27 
ROOT
ATOM      1  C   UNL d   1       0.889   2.493   1.353  0.00  0.00     0.134 A 
ATOM      2  C   UNL d   1       2.208   2.489   1.844  0.00  0.00     0.125 A 
ATOM      3  N   UNL d   1      -0.165   2.996   2.025  0.00  0.00    -0.342 N 
ATOM      4  HN  UNL d   1      -1.112   2.970   1.647  1.00  0.00     0.167 HD
ATOM      5  N   UNL d   1       2.461   3.025   3.061  0.00  0.00    -0.342 N 
ATOM      6  HN  UNL d   1       3.406   3.031   3.446  1.00  0.00     0.167 HD
ATOM      7  C   UNL d   1       0.113   3.537   3.228  0.00  0.00     0.060 A 
ATOM      8  C   UNL d   1       1.431   3.549   3.748  0.00  0.00     0.060 A 
ATOM      9  C   UNL d   1      -0.907   4.099   3.986  0.00  0.00     0.032 A 
ATOM     10  C   UNL d   1       1.672   4.127   4.987  0.00  0.00     0.032 A 
ATOM     11  C   UNL d   1       0.643   4.700   5.730  0.00  0.00     0.002 A 
ATOM     12  C   UNL d   1      -0.653   4.684   5.229  0.00  0.00     0.002 A 
ENDROOT
BRANCH   1  13
ATOM     13  N   UNL d   1       0.497   1.857   0.144  0.00  0.00    -0.163 NA
ATOM     14  H   UNL d   1      -0.339   2.309  -0.223  0.00  0.00     0.147 HD
BRANCH  13  15
ATOM     15  S   UNL d   1       0.229   0.191   0.277  0.00  0.00     0.247 S 
ATOM     16  O   UNL d   1       1.369  -0.404   0.941  0.00  0.00    -0.205 OA
ATOM     17  O   UNL d   1      -0.181  -0.258  -1.037  0.00  0.00    -0.205 OA
BRANCH  15  18
ATOM     18  C   UNL d   1      -1.190   0.047   1.344  0.00  0.00     0.075 A 
ATOM     19  C   UNL d   1      -2.478   0.031   0.801  0.00  0.00     0.027 A 
ATOM     20  C   UNL d   1      -3.589  -0.084   1.651  0.00  0.00     0.031 A 
ATOM     21  C   UNL d   1      -3.422  -0.190   3.040  0.00  0.00     0.034 A 
ATOM     22  C   UNL d   1      -2.123  -0.216   3.557  0.00  0.00     0.031 A 
ATOM     23  C   UNL d   1      -1.008  -0.111   2.717  0.00  0.00     0.027 A 
BRANCH  21  24
ATOM     24  N   UNL d   1      -4.582  -0.259   3.849  0.00  0.00    -0.328 N 
ATOM     25  C   UNL d   1      -4.631  -0.312   5.227  0.00  0.00     0.218 C 
ATOM     26  O   UNL d   1      -3.668  -0.318   5.992  0.00  0.00    -0.274 OA
ATOM     27  C   UNL d   1      -6.025  -0.346   5.796  0.00  0.00     0.117 C 
ATOM     28  H   UNL d   1      -5.469  -0.246   3.354  0.00  0.00     0.169 HD
ENDBRANCH  21  24
ENDBRANCH  15  18
ENDBRANCH  13  15
ENDBRANCH   1  13
BRANCH   2  29
ATOM     29  N   UNL d   1       3.296   2.087   1.027  0.00  0.00    -0.242 NA
ATOM     30  H   UNL d   1       2.967   1.421   0.328  0.00  0.00     0.135 HD
BRANCH  29  31
ATOM     31  C   UNL d   1       4.540   1.647   1.544  0.00  0.00     0.016 A 
ATOM     32  C   UNL d   1       4.617   0.841   2.688  0.00  0.00     0.061 A 
ATOM     33  C   UNL d   1       5.849   0.371   3.149  0.00  0.00     0.084 A 
ATOM     34  C   UNL d   1       7.031   0.674   2.464  0.00  0.00     0.070 A 
ATOM     35  C   UNL d   1       6.947   1.441   1.292  0.00  0.00     0.023 A 
ATOM     36  C   UNL d   1       5.711   1.908   0.828  0.00  0.00     0.025 A 
BRANCH  33  37
ATOM     37  O   UNL d   1       5.885  -0.398   4.287  0.00  0.00    -0.360 OA
ATOM     38  H   UNL d   1       4.969  -0.510   4.607  0.00  0.00     0.217 HD
ENDBRANCH  33  37
BRANCH  34  39
ATOM     39  C   UNL d   1       8.388   0.230   2.901  0.00  0.00     0.178 C 
ATOM     40  O   UNL d   1       9.400   0.499   2.272  0.00  0.00    -0.646 OA
BRANCH  39  41
ATOM     41  O   UNL d   1       8.421  -0.486   4.045  0.00  0.00    -0.773 OA
ATOM     42  H   UNL d   1       7.523  -0.624   4.422  0.00  0.00     0.167 HD
ENDBRANCH  39  41
ENDBRANCH  34  39
ENDBRANCH  29  31
ENDBRANCH   2  29
TORSDOF 9
