REMARK  2 active torsions:
REMARK  status: ('A' for Active; 'I' for Inactive)
REMARK    1  A    between atoms: N_9  and  N_5 
REMARK    2  A    between atoms: C_11  and  N_9 
ROOT
ATOM      1  C   UNL d   1      -1.887   0.895   0.980  0.00  0.00     0.141 A 
ATOM      2  C   UNL d   1      -1.089  -0.124   0.229  0.00  0.00     0.290 A 
ATOM      3  N   UNL d   1      -2.496  -1.171   1.784  0.00  0.00    -0.300 N 
ATOM      4  HN  UNL d   1      -2.937  -1.927   2.307  1.00  0.00     0.186 HD
ATOM      5  N   UNL d   1      -1.887   2.187   0.916  0.00  0.00    -0.293 N 
ATOM      6  HN  UNL d   1      -2.501   2.750   1.504  1.00  0.00     0.187 HD
ATOM      7  N   UNL d   1      -1.522  -1.303   0.796  0.00  0.00    -0.264 N 
ATOM      8  C   UNL d   1      -2.736   0.106   1.913  0.00  0.00     0.055 A 
ATOM      9  O   UNL d   1      -0.290   0.097  -0.652  0.00  0.00    -0.264 OA
ATOM     10  C   UNL d   1      -3.695   0.749   2.841  0.00  0.00     0.072 C 
ATOM     11  H   UNL d   1      -1.185  -2.222   0.531  0.00  0.00     0.190 HD
ENDROOT
BRANCH   5  12
ATOM     12  N   UNL d   1      -1.032   2.757   0.028  0.00  0.00    -0.300 N 
ATOM     13  H   UNL d   1      -0.523   2.200  -0.660  0.00  0.00     0.187 HD
BRANCH  12  14
ATOM     14  C   UNL d   1      -0.978   4.161  -0.076  0.00  0.00     0.054 A 
ATOM     15  C   UNL d   1      -0.105   4.816  -0.970  0.00  0.00    -0.034 A 
ATOM     16  C   UNL d   1       0.801   4.107  -1.941  0.00  0.00     0.050 C 
ATOM     17  C   UNL d   1      -0.045   6.226  -0.969  0.00  0.00     0.009 A 
ATOM     18  C   UNL d   1      -0.848   6.986  -0.121  0.00  0.00     0.001 A 
ATOM     19  C   UNL d   1      -1.720   6.349   0.749  0.00  0.00     0.002 A 
ATOM     20  C   UNL d   1      -1.773   4.956   0.773  0.00  0.00     0.031 A 
ENDBRANCH  12  14
ENDBRANCH   5  12
TORSDOF 2
