REMARK  7 active torsions:
REMARK  status: ('A' for Active; 'I' for Inactive)
REMARK    1  A    between atoms: C_8  and  C_1 
REMARK    2  A    between atoms: C_10  and  N_6 
REMARK    3  A    between atoms: C_12  and  C_10 
REMARK    4  A    between atoms: C_11  and  N_16 
REMARK    5  A    between atoms: N_15  and  C_11 
REMARK       I    between atoms: N_17  and  C_12 
REMARK    6  A    between atoms: C_19  and  N_15 
REMARK    7  A    between atoms: N_16  and  N_17 
ROOT
ATOM      1  C   UNL d   1       3.043   0.807  -0.415  0.00  0.00     0.257 C 
ATOM      2  N   UNL d   1       3.147  -0.497  -0.827  0.00  0.00    -0.266 N 
ATOM      3  O   UNL d   1       4.058   1.497  -0.368  0.00  0.00    -0.270 OA
ATOM      4  H   UNL d   1       4.096  -0.807  -1.047  0.00  0.00     0.190 HD
ENDROOT
BRANCH   1   5
ATOM      5  C   UNL d   1       1.721   1.370   0.021  0.00  0.00     0.271 C 
BRANCH   5   6
ATOM      6  N   UNL d   1       0.763   1.327  -1.052  0.00  0.00    -0.207 N 
ATOM      7  N   UNL d   1      -0.319   0.538  -0.970  0.00  0.00    -0.268 N 
ATOM      8  C   UNL d   1      -0.736   0.559  -2.245  0.00  0.00     0.146 A 
ATOM      9  HN  UNL d   1      -0.714   0.056  -0.163  1.00  0.00     0.190 HD
ATOM     10  N   UNL d   1       0.007   1.424  -3.019  0.00  0.00    -0.266 N 
ATOM     11  N   UNL d   1       0.962   1.915  -2.240  0.00  0.00    -0.002 NA
ATOM     12  HN  UNL d   1      -0.147   1.645  -4.002  1.00  0.00     0.186 HD
BRANCH   8  13
ATOM     13  C   UNL d   1      -1.790  -0.281  -2.797  0.00  0.00     0.034 A 
ATOM     14  C   UNL d   1      -2.137  -1.541  -2.259  0.00  0.00     0.069 A 
ATOM     15  C   UNL d   1      -3.113  -2.322  -2.902  0.00  0.00     0.056 A 
ATOM     16 CL   UNL d   1      -1.344  -2.204  -0.851  0.00  0.00    -0.082 Cl
ATOM     17 CL   UNL d   1      -3.570  -3.893  -2.331  0.00  0.00    -0.083 Cl
ATOM     18  C   UNL d   1      -3.740  -1.865  -4.064  0.00  0.00     0.026 A 
ATOM     19  C   UNL d   1      -3.410  -0.622  -4.592  0.00  0.00     0.003 A 
ATOM     20  C   UNL d   1      -2.445   0.164  -3.963  0.00  0.00     0.017 A 
ENDBRANCH   8  13
ENDBRANCH   5   6
ENDBRANCH   1   5
BRANCH   2  21
ATOM     21  N   UNL d   1       2.215  -1.531  -0.613  0.00  0.00    -0.273 N 
ATOM     22  H   UNL d   1       1.302  -1.316  -0.213  0.00  0.00     0.189 HD
BRANCH  21  23
ATOM     23  C   UNL d   1       2.692  -2.838  -0.513  0.00  0.00     0.191 C 
ATOM     24  S   UNL d   1       4.257  -3.293  -0.932  0.00  0.00    -0.039 SA
BRANCH  23  25
ATOM     25  N   UNL d   1       1.715  -3.722  -0.087  0.00  0.00    -0.332 N 
ATOM     26  H   UNL d   1       0.882  -3.766  -0.667  0.00  0.00     0.168 HD
BRANCH  25  27
ATOM     27  C   UNL d   1       1.897  -4.748   0.868  0.00  0.00     0.036 A 
ATOM     28  C   UNL d   1       1.063  -5.869   0.841  0.00  0.00     0.055 A 
ATOM     29  C   UNL d   1       1.190  -6.865   1.821  0.00  0.00     0.058 A 
ATOM     30 CL   UNL d   1       0.148  -8.241   1.708  0.00  0.00    -0.082 Cl
ATOM     31  C   UNL d   1       2.131  -6.728   2.848  0.00  0.00     0.055 A 
ATOM     32  C   UNL d   1       2.953  -5.602   2.883  0.00  0.00     0.028 A 
ATOM     33 CL   UNL d   1       2.314  -7.894   4.110  0.00  0.00    -0.083 Cl
ATOM     34  C   UNL d   1       2.837  -4.620   1.897  0.00  0.00     0.031 A 
ENDBRANCH  25  27
ENDBRANCH  23  25
ENDBRANCH  21  23
ENDBRANCH   2  21
TORSDOF 7
