REMARK  9 active torsions:
REMARK  status: ('A' for Active; 'I' for Inactive)
REMARK    1  A    between atoms: C_12  and  N_1 
REMARK    2  A    between atoms: C_9  and  C_2 
REMARK    3  A    between atoms: S_8  and  C_5 
REMARK    4  A    between atoms: C_17  and  S_8 
REMARK    5  A    between atoms: C_10  and  C_11 
REMARK    6  A    between atoms: C_24  and  C_12 
REMARK    7  A    between atoms: C_18  and  C_17 
REMARK    8  A    between atoms: C_29  and  C_24 
REMARK    9  A    between atoms: O_25  and  C_29 
ROOT
ATOM      1  N   UNL d   1      -0.303  -1.231   0.006  0.00  0.00    -0.311 N 
ATOM      2  C   UNL d   1       0.927  -0.594  -0.089  0.00  0.00     0.134 A 
ATOM      3  N   UNL d   1       0.709   0.712  -0.085  0.00  0.00    -0.283 N 
ATOM      4  HN  UNL d   1       1.431   1.432  -0.091  1.00  0.00     0.188 HD
ATOM      5  C   UNL d   1      -1.237  -0.220  -0.036  0.00  0.00     0.163 A 
ATOM      6  N   UNL d   1      -0.638   0.943  -0.070  0.00  0.00    -0.278 N 
ATOM      7  HN  UNL d   1      -1.093   1.855  -0.084  1.00  0.00     0.189 HD
ENDROOT
BRANCH   2   8
ATOM      8  C   UNL d   1       2.274  -1.182  -0.115  0.00  0.00     0.009 A 
ATOM      9  C   UNL d   1       2.598  -2.350  -0.805  0.00  0.00     0.016 A 
ATOM     10  C   UNL d   1       3.892  -2.892  -0.736  0.00  0.00     0.009 A 
ATOM     11  C   UNL d   1       4.922  -2.263  -0.013  0.00  0.00    -0.051 A 
ATOM     12  C   UNL d   1       4.606  -1.049   0.612  0.00  0.00     0.009 A 
ATOM     13  C   UNL d   1       3.308  -0.522   0.563  0.00  0.00     0.016 A 
BRANCH  11  14
ATOM     14  C   UNL d   1       6.311  -2.917   0.095  0.00  0.00    -0.024 C 
ATOM     15  C   UNL d   1       7.349  -2.059   0.855  0.00  0.00     0.019 C 
ATOM     16  C   UNL d   1       6.179  -4.255   0.855  0.00  0.00     0.019 C 
ATOM     17  C   UNL d   1       6.892  -3.190  -1.310  0.00  0.00     0.019 C 
ENDBRANCH  11  14
ENDBRANCH   2   8
BRANCH   1  18
ATOM     18  C   UNL d   1      -0.578  -2.653   0.055  0.00  0.00     0.135 C 
BRANCH  18  19
ATOM     19  C   UNL d   1       0.052  -3.452   1.194  0.00  0.00     0.046 C 
BRANCH  19  20
ATOM     20  C   UNL d   1      -0.444  -3.077   2.583  0.00  0.00     0.168 C 
BRANCH  20  21
ATOM     21  O   UNL d   1       0.173  -3.988   3.494  0.00  0.00    -0.396 OA
ATOM     22  C   UNL d   1      -0.193  -3.741   4.842  0.00  0.00     0.201 C 
ENDBRANCH  20  21
ENDBRANCH  19  20
ENDBRANCH  18  19
ENDBRANCH   1  18
BRANCH   5  23
ATOM     23  S   UNL d   1      -2.954  -0.451  -0.053  0.00  0.00    -0.088 SA
BRANCH  23  24
ATOM     24  C   UNL d   1      -3.493   1.152  -0.730  0.00  0.00     0.121 C 
BRANCH  24  25
ATOM     25  C   UNL d   1      -4.998   1.252  -0.812  0.00  0.00    -0.049 A 
ATOM     26  C   UNL d   1      -5.734   1.791   0.252  0.00  0.00     0.008 A 
ATOM     27  C   UNL d   1      -7.125   1.900   0.176  0.00  0.00     0.007 A 
ATOM     28  C   UNL d   1      -7.811   1.466  -0.964  0.00  0.00    -0.062 A 
ATOM     29  C   UNL d   1      -7.083   0.916  -2.024  0.00  0.00     0.007 A 
ATOM     30  C   UNL d   1      -9.305   1.589  -1.030  0.00  0.00     0.048 C 
ATOM     31  C   UNL d   1      -5.690   0.808  -1.948  0.00  0.00     0.008 A 
ENDBRANCH  24  25
ENDBRANCH  23  24
ENDBRANCH   5  23
TORSDOF 9
