REMARK  5 active torsions:
REMARK  status: ('A' for Active; 'I' for Inactive)
REMARK    1  A    between atoms: S_2  and  C_1 
REMARK    2  A    between atoms: N_6  and  S_2 
REMARK    3  A    between atoms: C_10  and  C_13 
REMARK    4  A    between atoms: O_19  and  C_10 
REMARK    5  A    between atoms: C_20  and  O_19 
ROOT
ATOM      1  N   UNL d   1       3.276  -1.303  -1.451  0.00  0.00    -0.206 NA
ATOM      2  C   UNL d   1       2.454  -1.615  -2.653  0.00  0.00     0.108 C 
ATOM      3  C   UNL d   1       3.795   0.095  -1.448  0.00  0.00     0.108 C 
ATOM      4  C   UNL d   1       3.771   0.090  -3.980  0.00  0.00     0.088 C 
ATOM      5  C   UNL d   1       3.256  -1.353  -3.924  0.00  0.00     0.030 C 
ATOM      6  C   UNL d   1       4.600   0.362  -2.719  0.00  0.00     0.030 C 
ENDROOT
BRANCH   1   7
ATOM      7  S   UNL d   1       2.490  -1.711   0.027  0.00  0.00     0.251 S 
ATOM      8  O   UNL d   1       1.107  -1.310  -0.093  0.00  0.00    -0.205 OA
ATOM      9  O   UNL d   1       3.309  -1.246   1.127  0.00  0.00    -0.205 OA
BRANCH   7  10
ATOM     10  C   UNL d   1       2.494  -3.478   0.177  0.00  0.00     0.134 A 
ATOM     11  S   UNL d   1       4.062  -4.191   0.241  0.00  0.00    -0.064 SA
ATOM     12  C   UNL d   1       3.413  -5.726   0.515  0.00  0.00     0.077 A 
ATOM     13 CL   UNL d   1       4.461  -7.059   0.783  0.00  0.00    -0.076 Cl
ATOM     14  C   UNL d   1       2.044  -5.755   0.494  0.00  0.00     0.052 A 
ATOM     15  C   UNL d   1       1.521  -4.449   0.284  0.00  0.00     0.043 A 
ATOM     16 BR   UNL d   1      -0.349  -4.189   0.220  0.00  0.00    -0.049 Br
ENDBRANCH   7  10
ENDBRANCH   1   7
BRANCH   4  17
ATOM     17  C   UNL d   1       2.673   1.140  -4.117  0.00  0.00     0.263 C 
ATOM     18  O   UNL d   1       2.783   2.291  -3.716  0.00  0.00    -0.265 OA
BRANCH  17  19
ATOM     19  O   UNL d   1       1.579   0.646  -4.758  0.00  0.00    -0.322 OA
BRANCH  19  20
ATOM     20  C   UNL d   1       0.474   1.555  -4.891  0.00  0.00     0.174 C 
ATOM     21  C   UNL d   1      -0.330   1.602  -3.603  0.00  0.00     0.034 C 
ENDBRANCH  19  20
ENDBRANCH  17  19
ENDBRANCH   4  17
TORSDOF 5
