REMARK  5 active torsions:
REMARK  status: ('A' for Active; 'I' for Inactive)
REMARK    1  A    between atoms: C_3  and  C_1 
REMARK    2  A    between atoms: N_4  and  C_2 
REMARK    3  A    between atoms: O_11  and  C_3 
REMARK    4  A    between atoms: C_6  and  N_4 
REMARK    5  A    between atoms: O_15  and  C_10 
ROOT
ATOM      1  C   UNL d   1       1.383  -0.090   0.011  0.00  0.00     0.067 A 
ATOM      2  C   UNL d   1       0.591  -1.254  -0.056  0.00  0.00     0.049 A 
ATOM      3  C   UNL d   1       0.774   1.172   0.118  0.00  0.00     0.057 A 
ATOM      4  C   UNL d   1      -0.805  -1.105   0.005  0.00  0.00     0.033 A 
ATOM      5  C   UNL d   1      -0.616   1.300   0.146  0.00  0.00     0.069 A 
ATOM      6  C   UNL d   1      -1.403   0.156   0.090  0.00  0.00     0.039 A 
ENDROOT
BRANCH   2   7
ATOM      7  N   UNL d   1       1.182  -2.550  -0.137  0.00  0.00    -0.355 N 
ATOM      8  H   UNL d   1       1.737  -2.723   0.706  0.00  0.00     0.166 HD
BRANCH   7   9
ATOM      9  C   UNL d   1       0.515  -3.729  -0.562  0.00  0.00     0.034 A 
ATOM     10  C   UNL d   1      -0.243  -3.740  -1.742  0.00  0.00     0.053 A 
ATOM     11  C   UNL d   1      -0.973  -4.872  -2.102  0.00  0.00     0.036 A 
ATOM     12 CL   UNL d   1      -1.945  -4.843  -3.521  0.00  0.00    -0.084 Cl
ATOM     13  C   UNL d   1      -0.939  -6.015  -1.309  0.00  0.00     0.024 A 
ATOM     14  C   UNL d   1      -0.154  -6.030  -0.156  0.00  0.00     0.004 A 
ATOM     15  C   UNL d   1       0.575  -4.895   0.212  0.00  0.00     0.029 A 
ENDBRANCH   7   9
ENDBRANCH   2   7
BRANCH   1  16
ATOM     16  C   UNL d   1       2.870  -0.109  -0.036  0.00  0.00     0.178 C 
ATOM     17  O   UNL d   1       3.562   0.740   0.498  0.00  0.00    -0.646 OA
BRANCH  16  18
ATOM     18  O   UNL d   1       3.383  -1.125  -0.764  0.00  0.00    -0.773 OA
ATOM     19  H   UNL d   1       2.700  -1.718  -1.141  0.00  0.00     0.167 HD
ENDBRANCH  16  18
ENDBRANCH   1  16
BRANCH   5  20
ATOM     20  O   UNL d   1      -1.077   2.583   0.235  0.00  0.00    -0.356 OA
ATOM     21  C   UNL d   1      -2.489   2.762   0.211  0.00  0.00     0.210 C 
ENDBRANCH   5  20
TORSDOF 5
