REMARK  3 active torsions:
REMARK  status: ('A' for Active; 'I' for Inactive)
REMARK    1  A    between atoms: C_6  and  C_1 
REMARK    2  A    between atoms: N_12  and  C_2 
REMARK       I    between atoms: C_5  and  N_7 
REMARK    3  A    between atoms: C_8  and  C_5 
REMARK       I    between atoms: N_7  and  C_9 
REMARK       I    between atoms: C_9  and  N_12 
ROOT
ATOM      1  C   UNL d   1       1.006  -5.463  -0.897  0.00  0.00     0.265 C 
ATOM      2  N   UNL d   1       1.813  -4.575  -0.201  0.00  0.00    -0.275 N 
ATOM      3  C   UNL d   1       1.548  -3.272   0.163  0.00  0.00     0.327 C 
ATOM      4  N   UNL d   1       0.451  -2.703  -0.427  0.00  0.00    -0.304 N 
ATOM      5  O   UNL d   1      -0.025  -5.097  -1.456  0.00  0.00    -0.267 OA
ATOM      6  O   UNL d   1       2.271  -2.763   1.014  0.00  0.00    -0.247 OA
ATOM      7  H   UNL d   1       2.616  -4.932   0.301  0.00  0.00     0.173 HD
ATOM      8  H   UNL d   1      -0.187  -3.373  -0.855  0.00  0.00     0.171 HD
ENDROOT
BRANCH   4   9
ATOM      9  C   UNL d   1      -0.077  -1.458  -0.101  0.00  0.00     0.097 A 
ATOM     10  C   UNL d   1      -1.474  -1.115  -0.094  0.00  0.00     0.097 A 
ATOM     11  N   UNL d   1      -1.641   0.167   0.261  0.00  0.00    -0.258 N 
ATOM     12  O   UNL d   1      -0.385   0.676   0.473  0.00  0.00    -0.240 OA
ATOM     13  HN  UNL d   1      -2.526   0.665   0.355  1.00  0.00     0.195 HD
ATOM     14  C   UNL d   1       0.556  -0.289   0.277  0.00  0.00     0.101 A 
ATOM     15  C   UNL d   1       1.939   0.198   0.447  0.00  0.00     0.081 C 
BRANCH  10  16
ATOM     16  C   UNL d   1      -2.647  -1.968  -0.300  0.00  0.00     0.038 A 
ATOM     17  C   UNL d   1      -2.870  -3.106   0.502  0.00  0.00     0.048 A 
ATOM     18 CL   UNL d   1      -1.788  -3.614   1.758  0.00  0.00    -0.083 Cl
ATOM     19  C   UNL d   1      -4.032  -3.876   0.355  0.00  0.00     0.025 A 
ATOM     20  C   UNL d   1      -5.005  -3.514  -0.570  0.00  0.00     0.003 A 
ATOM     21  C   UNL d   1      -4.808  -2.393  -1.369  0.00  0.00     0.025 A 
ATOM     22  C   UNL d   1      -3.636  -1.631  -1.247  0.00  0.00     0.048 A 
ATOM     23 CL   UNL d   1      -3.482  -0.288  -2.334  0.00  0.00    -0.083 Cl
ENDBRANCH  10  16
ENDBRANCH   4   9
BRANCH   1  24
ATOM     24  C   UNL d   1       1.450  -6.887  -0.949  0.00  0.00     0.109 A 
ATOM     25  C   UNL d   1       0.653  -7.846  -1.577  0.00  0.00     0.135 A 
ATOM     26  F   UNL d   1      -0.521  -7.521  -2.142  0.00  0.00    -0.205 F 
ATOM     27  C   UNL d   1       1.039  -9.190  -1.633  0.00  0.00     0.043 A 
ATOM     28  C   UNL d   1       2.241  -9.597  -1.058  0.00  0.00     0.006 A 
ATOM     29  C   UNL d   1       3.050  -8.655  -0.430  0.00  0.00     0.043 A 
ATOM     30  C   UNL d   1       2.651  -7.316  -0.381  0.00  0.00     0.135 A 
ATOM     31  F   UNL d   1       3.467  -6.453   0.242  0.00  0.00    -0.205 F 
ENDBRANCH   1  24
TORSDOF 3
