REMARK  3 active torsions:
REMARK  status: ('A' for Active; 'I' for Inactive)
REMARK       I    between atoms: N_4  and  C_1 
REMARK       I    between atoms: N_8  and  C_1 
REMARK    1  A    between atoms: C_3  and  C_7 
REMARK    2  A    between atoms: C_12  and  N_4 
REMARK    3  A    between atoms: C_5  and  N_8 
ROOT
ATOM      1  C   UNL d   1       1.056  -0.005   0.026  0.00  0.00     0.324 C 
ATOM      2  N   UNL d   1       0.533  -1.022  -0.733  0.00  0.00    -0.309 N 
ATOM      3  N   UNL d   1       0.176   0.961   0.445  0.00  0.00    -0.319 N 
ATOM      4  O   UNL d   1       2.232   0.132   0.351  0.00  0.00    -0.247 OA
ATOM      5  H   UNL d   1      -0.358  -0.844  -1.164  0.00  0.00     0.170 HD
ATOM      6  H   UNL d   1       0.663   1.700   0.941  0.00  0.00     0.170 HD
ENDROOT
BRANCH   2   7
ATOM      7  C   UNL d   1       1.218  -2.171  -1.182  0.00  0.00     0.036 A 
ATOM      8  C   UNL d   1       2.466  -2.559  -0.696  0.00  0.00     0.030 A 
ATOM      9  C   UNL d   1       3.101  -3.703  -1.187  0.00  0.00     0.009 A 
ATOM     10  C   UNL d   1       2.496  -4.485  -2.175  0.00  0.00    -0.062 A 
ATOM     11  C   UNL d   1       1.234  -4.114  -2.649  0.00  0.00     0.009 A 
ATOM     12  C   UNL d   1       3.200  -5.705  -2.686  0.00  0.00     0.048 C 
ATOM     13  C   UNL d   1       0.599  -2.967  -2.154  0.00  0.00     0.030 A 
ENDBRANCH   2   7
BRANCH   3  14
ATOM     14  C   UNL d   1      -1.190   1.024   0.365  0.00  0.00     0.093 C 
ATOM     15  C   UNL d   1      -1.875   2.085   0.817  0.00  0.00     0.029 C 
BRANCH  15  16
ATOM     16  C   UNL d   1      -3.300   2.215   0.768  0.00  0.00    -0.028 A 
ATOM     17  C   UNL d   1      -3.924   3.444   0.723  0.00  0.00     0.061 A 
ATOM     18  S   UNL d   1      -5.630   3.303   0.647  0.00  0.00    -0.113 SA
ATOM     19  C   UNL d   1      -5.545   1.596   0.704  0.00  0.00     0.050 A 
ATOM     20  C   UNL d   1      -4.246   1.144   0.771  0.00  0.00     0.019 A 
ENDBRANCH  15  16
ENDBRANCH   3  14
TORSDOF 3
