REMARK  1 active torsions:
REMARK  status: ('A' for Active; 'I' for Inactive)
REMARK    1  A    between atoms: N_8  and  C_4 
ROOT
ATOM      1  N   UNL d   1      -2.448  -0.048   0.000  0.00  0.00    -0.285 N 
ATOM      2  HN  UNL d   1      -3.468  -0.022  -0.000  1.00  0.00     0.188 HD
ATOM      3  C   UNL d   1      -0.275  -0.767   0.002  0.00  0.00     0.059 A 
ATOM      4  C   UNL d   1      -1.655  -1.115   0.002  0.00  0.00     0.128 A 
ATOM      5  N   UNL d   1      -1.595   0.987  -0.001  0.00  0.00    -0.298 N 
ATOM      6  C   UNL d   1      -0.275   0.628  -0.000  0.00  0.00     0.063 A 
ATOM      7  C   UNL d   1       0.973  -1.415   0.003  0.00  0.00     0.050 A 
ATOM      8 CL   UNL d   1       0.981  -3.125   0.004  0.00  0.00    -0.083 Cl
ATOM      9  C   UNL d   1       2.118   0.710   0.001  0.00  0.00     0.004 A 
ATOM     10  C   UNL d   1       0.897   1.396  -0.000  0.00  0.00     0.032 A 
ATOM     11  C   UNL d   1       2.161  -0.683   0.002  0.00  0.00     0.025 A 
ATOM     12  H   UNL d   1      -1.981   1.924  -0.002  0.00  0.00     0.187 HD
ENDROOT
BRANCH   4  13
ATOM     13  N   UNL d   1      -2.129  -2.364   0.004  0.00  0.00    -0.384 N 
ATOM     14  H   UNL d   1      -1.529  -3.180   0.002  0.00  0.00     0.157 HD
ATOM     15  H   UNL d   1      -3.127  -2.529   0.001  0.00  0.00     0.157 HD
ENDBRANCH   4  13
TORSDOF 1
