REMARK  0 active torsions:
REMARK  status: ('A' for Active; 'I' for Inactive)
ROOT
ATOM      1  N   UNL d   1      -2.409   1.360  -0.004  0.00  0.00    -0.289 N 
ATOM      2  N   UNL d   1      -3.622  -0.663  -0.002  0.00  0.00    -0.270 N 
ATOM      3  C   UNL d   1      -3.640   0.726  -0.003  0.00  0.00     0.332 A 
ATOM      4  C   UNL d   1      -1.188   0.656  -0.002  0.00  0.00     0.127 A 
ATOM      5  C   UNL d   1      -1.198  -0.723  -0.001  0.00  0.00     0.077 A 
ATOM      6  C   UNL d   1      -2.473  -1.437  -0.001  0.00  0.00     0.265 A 
ATOM      7  N   UNL d   1      -0.027   1.362  -0.002  0.00  0.00    -0.341 N 
ATOM      8  HN  UNL d   1      -0.044   2.382  -0.003  1.00  0.00     0.167 HD
ATOM      9  C   UNL d   1       0.011  -1.420  -0.000  0.00  0.00     0.034 A 
ATOM     10  C   UNL d   1       1.212  -0.710  -0.000  0.00  0.00    -0.005 A 
ATOM     11  C   UNL d   1       1.147   0.699  -0.001  0.00  0.00     0.044 A 
ATOM     12  O   UNL d   1      -4.697   1.361  -0.005  0.00  0.00    -0.246 OA
ATOM     13  O   UNL d   1      -2.470  -2.666  -0.001  0.00  0.00    -0.267 OA
ATOM     14  C   UNL d   1       2.451  -1.371   0.001  0.00  0.00     0.056 A 
ATOM     15  C   UNL d   1      -2.344   2.814  -0.007  0.00  0.00     0.163 C 
ATOM     16  C   UNL d   1      -4.882  -1.384  -0.005  0.00  0.00     0.164 C 
ATOM     17  C   UNL d   1       2.344   1.408  -0.001  0.00  0.00     0.033 A 
ATOM     18  C   UNL d   1       3.623  -0.629   0.001  0.00  0.00     0.117 A 
ATOM     19  C   UNL d   1       3.582   0.757  -0.000  0.00  0.00     0.044 A 
ATOM     20  F   UNL d   1       4.804  -1.259   0.001  0.00  0.00    -0.206 F 
ENDROOT
TORSDOF 0
