REMARK  2 active torsions:
REMARK  status: ('A' for Active; 'I' for Inactive)
REMARK    1  A    between atoms: N_5  and  C_1 
REMARK    2  A    between atoms: N_7  and  C_6 
ROOT
ATOM      1  C   UNL d   1       0.996  -1.437   0.029  0.00  0.00     0.118 A 
ATOM      2  C   UNL d   1      -0.240  -0.758   0.076  0.00  0.00    -0.009 A 
ATOM      3  C   UNL d   1      -0.238   0.650   0.085  0.00  0.00    -0.038 A 
ATOM      4  C   UNL d   1       2.232  -0.737  -0.017  0.00  0.00     0.005 A 
ATOM      5  C   UNL d   1       2.162   0.674  -0.018  0.00  0.00     0.111 A 
ATOM      6  C   UNL d   1      -1.672  -1.279   0.122  0.00  0.00    -0.017 C 
ATOM      7  C   UNL d   1      -1.629   1.241   0.140  0.00  0.00    -0.019 C 
ATOM      8  C   UNL d   1       0.948   1.372   0.045  0.00  0.00     0.045 A 
ATOM      9  C   UNL d   1      -2.479   0.009  -0.234  0.00  0.00     0.027 C 
ATOM     10  C   UNL d   1       3.577  -1.424  -0.047  0.00  0.00     0.053 C 
ATOM     11  C   UNL d   1      -2.084  -1.780   1.516  0.00  0.00     0.020 C 
ATOM     12  C   UNL d   1      -2.001  -2.346  -0.933  0.00  0.00     0.020 C 
ATOM     13  C   UNL d   1      -1.949   1.786   1.537  0.00  0.00     0.020 C 
ATOM     14  C   UNL d   1      -1.844   2.359  -0.891  0.00  0.00     0.020 C 
ENDROOT
BRANCH   1  15
ATOM     15  N   UNL d   1       1.021  -2.890   0.029  0.00  0.00    -0.114 N 
ATOM     16  O   UNL d   1       0.639  -3.466   1.056  0.00  0.00    -0.532 OA
ATOM     17  O   UNL d   1       1.437  -3.447  -0.995  0.00  0.00    -0.532 OA
ENDBRANCH   1  15
BRANCH   5  18
ATOM     18  N   UNL d   1       3.369   1.491  -0.087  0.00  0.00    -0.115 N 
ATOM     19  O   UNL d   1       4.085   1.358  -1.087  0.00  0.00    -0.532 OA
ATOM     20  O   UNL d   1       3.566   2.274   0.847  0.00  0.00    -0.532 OA
ENDBRANCH   5  18
TORSDOF 2
