REMARK  3 active torsions:
REMARK  status: ('A' for Active; 'I' for Inactive)
REMARK    1  A    between atoms: N_10  and  C_3 
REMARK    2  A    between atoms: N_16  and  C_6 
REMARK    3  A    between atoms: C_13  and  N_10 
ROOT
ATOM      1  N   UNL d   1      -0.081  -1.249   0.080  0.00  0.00    -0.166 N 
ATOM      2  HN  UNL d   1      -0.514  -2.172   0.117  1.00  0.00     0.187 HD
ATOM      3  C   UNL d   1      -0.806  -0.138   0.001  0.00  0.00     0.685 A 
ATOM      4  N   UNL d   1      -0.280   1.082  -0.068  0.00  0.00    -0.188 N 
ATOM      5  HN  UNL d   1      -0.851   1.924  -0.146  1.00  0.00     0.185 HD
ATOM      6  C   UNL d   1       1.232  -1.093   0.108  0.00  0.00     0.170 A 
ATOM      7  N   UNL d   1       1.858   0.068   0.048  0.00  0.00    -0.328 N 
ATOM      8  HN  UNL d   1       2.875   0.151   0.057  1.00  0.00     0.169 HD
ATOM      9  C   UNL d   1       1.048   1.117  -0.026  0.00  0.00     0.200 A 
ENDROOT
BRANCH   3  10
ATOM     10  N   UNL d   1      -2.197  -0.205  -0.080  0.00  0.00    -0.192 N 
ATOM     11  H   UNL d   1      -2.584   0.707  -0.278  0.00  0.00     0.184 HD
BRANCH  10  12
ATOM     12  C   UNL d   1      -3.088  -1.268   0.106  0.00  0.00     0.051 A 
ATOM     13  C   UNL d   1      -4.342  -1.224  -0.520  0.00  0.00     0.055 A 
ATOM     14  C   UNL d   1      -5.232  -2.303  -0.436  0.00  0.00     0.058 A 
ATOM     15 CL   UNL d   1      -6.744  -2.163  -1.263  0.00  0.00    -0.082 Cl
ATOM     16  C   UNL d   1      -4.879  -3.447   0.284  0.00  0.00     0.055 A 
ATOM     17  C   UNL d   1      -3.638  -3.504   0.914  0.00  0.00     0.028 A 
ATOM     18 CL   UNL d   1      -5.918  -4.819   0.426  0.00  0.00    -0.083 Cl
ATOM     19  C   UNL d   1      -2.751  -2.427   0.815  0.00  0.00     0.032 A 
ENDBRANCH  10  12
ENDBRANCH   3  10
BRANCH   6  20
ATOM     20  N   UNL d   1       2.001  -2.239   0.153  0.00  0.00    -0.273 NA
ATOM     21  H   UNL d   1       1.478  -3.019  -0.222  0.00  0.00     0.127 HD
ATOM     22  H   UNL d   1       2.912  -2.063  -0.248  0.00  0.00     0.127 HD
ENDBRANCH   6  20
TORSDOF 3
