REMARK  8 active torsions:
REMARK  status: ('A' for Active; 'I' for Inactive)
REMARK    1  A    between atoms: C_10  and  N_1 
REMARK    2  A    between atoms: S_11  and  C_2 
REMARK    3  A    between atoms: C_19  and  C_3 
REMARK    4  A    between atoms: N_9  and  C_8 
REMARK    5  A    between atoms: C_14  and  S_11 
REMARK    6  A    between atoms: C_12  and  C_16 
REMARK    7  A    between atoms: C_13  and  C_17 
REMARK    8  A    between atoms: C_22  and  C_23 
ROOT
ATOM      1  N   UNL d   1      -0.338  -1.292   0.146  0.00  0.00    -0.275 N 
ATOM      2  C   UNL d   1       0.918  -0.692   0.211  0.00  0.00     0.172 A 
ATOM      3  C   UNL d   1      -1.223  -0.199   0.067  0.00  0.00     0.139 A 
ATOM      4  N   UNL d   1      -0.513   0.915  -0.016  0.00  0.00    -0.282 N 
ATOM      5  HN  UNL d   1      -0.896   1.852  -0.136  1.00  0.00     0.188 HD
ATOM      6  N   UNL d   1       0.809   0.609   0.084  0.00  0.00    -0.277 N 
ATOM      7  HN  UNL d   1       1.581   1.276   0.064  1.00  0.00     0.189 HD
ENDROOT
BRANCH   2   8
ATOM      8  S   UNL d   1       2.474  -1.471   0.231  0.00  0.00    -0.050 SA
BRANCH   8   9
ATOM      9  C   UNL d   1       2.837  -1.540   1.992  0.00  0.00     0.041 A 
ATOM     10  C   UNL d   1       3.662  -2.532   2.554  0.00  0.00     0.120 A 
ATOM     11  C   UNL d   1       3.827  -2.687   3.943  0.00  0.00     0.053 A 
ATOM     12  C   UNL d   1       3.165  -1.822   4.821  0.00  0.00     0.050 A 
ATOM     13  C   UNL d   1       2.416  -0.769   4.278  0.00  0.00     0.017 A 
ATOM     14  C   UNL d   1       2.268  -0.624   2.891  0.00  0.00     0.022 A 
BRANCH  10  15
ATOM     15  N   UNL d   1       4.372  -3.480   1.719  0.00  0.00    -0.114 N 
ATOM     16  O   UNL d   1       3.693  -4.337   1.137  0.00  0.00    -0.532 OA
ATOM     17  O   UNL d   1       5.606  -3.406   1.718  0.00  0.00    -0.532 OA
ENDBRANCH  10  15
BRANCH  12  18
ATOM     18  C   UNL d   1       3.221  -2.019   6.319  0.00  0.00     0.417 C 
ATOM     19  F   UNL d   1       3.912  -3.131   6.689  0.00  0.00    -0.166 F 
ATOM     20  F   UNL d   1       3.802  -0.975   6.965  0.00  0.00    -0.166 F 
ATOM     21  F   UNL d   1       1.978  -2.157   6.858  0.00  0.00    -0.166 F 
ENDBRANCH  12  18
ENDBRANCH   8   9
ENDBRANCH   2   8
BRANCH   1  22
ATOM     22  C   UNL d   1      -0.684  -2.678   0.185  0.00  0.00     0.044 A 
ATOM     23  C   UNL d   1      -1.770  -3.155  -0.569  0.00  0.00     0.046 A 
ATOM     24  C   UNL d   1      -2.236  -4.473  -0.410  0.00  0.00     0.050 A 
ATOM     25  C   UNL d   1      -1.556  -5.333   0.462  0.00  0.00     0.016 A 
ATOM     26  C   UNL d   1      -0.445  -4.883   1.170  0.00  0.00     0.003 A 
ATOM     27  C   UNL d   1      -0.020  -3.560   1.043  0.00  0.00     0.030 A 
BRANCH  24  28
ATOM     28  C   UNL d   1      -3.475  -4.961  -1.127  0.00  0.00     0.417 C 
ATOM     29  F   UNL d   1      -4.066  -4.008  -1.898  0.00  0.00    -0.166 F 
ATOM     30  F   UNL d   1      -3.220  -6.010  -1.953  0.00  0.00    -0.166 F 
ATOM     31  F   UNL d   1      -4.435  -5.386  -0.260  0.00  0.00    -0.166 F 
ENDBRANCH  24  28
ENDBRANCH   1  22
BRANCH   3  32
ATOM     32  C   UNL d   1      -2.696  -0.192   0.137  0.00  0.00     0.010 A 
ATOM     33  C   UNL d   1      -3.426  -1.047   0.968  0.00  0.00     0.016 A 
ATOM     34  C   UNL d   1      -4.830  -1.032   0.969  0.00  0.00     0.009 A 
ATOM     35  C   UNL d   1      -5.561  -0.119   0.188  0.00  0.00    -0.051 A 
ATOM     36  C   UNL d   1      -4.819   0.783  -0.590  0.00  0.00     0.009 A 
ATOM     37  C   UNL d   1      -3.415   0.745  -0.616  0.00  0.00     0.016 A 
BRANCH  35  38
ATOM     38  C   UNL d   1      -7.101  -0.142   0.206  0.00  0.00    -0.024 C 
ATOM     39  C   UNL d   1      -7.753   0.973  -0.643  0.00  0.00     0.019 C 
ATOM     40  C   UNL d   1      -7.603  -1.492  -0.351  0.00  0.00     0.019 C 
ATOM     41  C   UNL d   1      -7.623   0.029   1.650  0.00  0.00     0.019 C 
ENDBRANCH  35  38
ENDBRANCH   3  32
TORSDOF 8
