REMARK  4 active torsions:
REMARK  status: ('A' for Active; 'I' for Inactive)
REMARK       I    between atoms: N_2  and  C_1 
REMARK    1  A    between atoms: C_10  and  C_1 
REMARK    2  A    between atoms: C_4  and  N_3 
REMARK    3  A    between atoms: C_11  and  C_4 
REMARK    4  A    between atoms: C_12  and  C_4 
ROOT
ATOM      1  C   UNL d   1       1.131  -0.010  -0.257  0.00  0.00     0.253 C 
ATOM      2  N   UNL d   1       0.444  -1.204  -0.032  0.00  0.00    -0.345 N 
ATOM      3  N   UNL d   1      -0.342  -4.050  -0.221  0.00  0.00     0.105 N 
ATOM      4  C   UNL d   1       0.607  -2.113   1.104  0.00  0.00     0.156 C 
ATOM      5  C   UNL d   1      -0.654  -1.585  -0.928  0.00  0.00     0.156 C 
ATOM      6  C   UNL d   1      -0.568  -3.079  -1.335  0.00  0.00     0.293 C 
ATOM      7  C   UNL d   1       0.807  -3.542   0.576  0.00  0.00     0.293 C 
ATOM      8  O   UNL d   1       0.805   0.781  -1.137  0.00  0.00    -0.267 OA
ENDROOT
BRANCH   3   9
ATOM      9  C   UNL d   1      -1.569  -4.248   0.612  0.00  0.00     0.289 C 
BRANCH   9  10
ATOM     10  C   UNL d   1      -2.747  -4.788  -0.200  0.00  0.00    -0.021 A 
ATOM     11  C   UNL d   1      -2.665  -6.008  -0.890  0.00  0.00     0.010 A 
ATOM     12  C   UNL d   1      -3.754  -6.485  -1.621  0.00  0.00     0.001 A 
ATOM     13  C   UNL d   1      -4.935  -5.747  -1.676  0.00  0.00     0.000 A 
ATOM     14  C   UNL d   1      -5.031  -4.532  -1.002  0.00  0.00     0.001 A 
ATOM     15  C   UNL d   1      -3.948  -4.056  -0.262  0.00  0.00     0.010 A 
ENDBRANCH   9  10
BRANCH   9  16
ATOM     16  C   UNL d   1      -1.355  -5.114   1.865  0.00  0.00    -0.021 A 
ATOM     17  C   UNL d   1      -2.026  -4.782   3.055  0.00  0.00     0.010 A 
ATOM     18  C   UNL d   1      -1.858  -5.550   4.209  0.00  0.00     0.001 A 
ATOM     19  C   UNL d   1      -1.019  -6.661   4.192  0.00  0.00     0.000 A 
ATOM     20  C   UNL d   1      -0.355  -7.013   3.020  0.00  0.00     0.001 A 
ATOM     21  C   UNL d   1      -0.531  -6.253   1.861  0.00  0.00     0.010 A 
ENDBRANCH   9  16
ENDBRANCH   3   9
BRANCH   1  22
ATOM     22  C   UNL d   1       2.283   0.361   0.608  0.00  0.00     0.032 A 
ATOM     23  C   UNL d   1       3.279  -0.555   0.969  0.00  0.00     0.017 A 
ATOM     24  C   UNL d   1       4.276  -0.188   1.875  0.00  0.00     0.001 A 
ATOM     25  C   UNL d   1       4.334   1.119   2.353  0.00  0.00     0.000 A 
ATOM     26  C   UNL d   1       3.409   2.064   1.916  0.00  0.00     0.001 A 
ATOM     27  C   UNL d   1       2.382   1.687   1.046  0.00  0.00     0.017 A 
ENDBRANCH   1  22
TORSDOF 4
