REMARK  4 active torsions:
REMARK  status: ('A' for Active; 'I' for Inactive)
REMARK    1  A    between atoms: C_5  and  C_1 
REMARK    2  A    between atoms: C_9  and  C_4 
REMARK       I    between atoms: N_13  and  C_5 
REMARK    3  A    between atoms: C_11  and  C_12 
REMARK    4  A    between atoms: N_18  and  N_13 
ROOT
ATOM      1  C   UNL d   1       0.337  -1.023  -0.475  0.00  0.00     0.241 A 
ATOM      2  N   UNL d   1       0.786   0.140  -0.909  0.00  0.00    -0.315 N 
ATOM      3  HN  UNL d   1       1.374   0.336  -1.720  1.00  0.00     0.169 HD
ATOM      4  C   UNL d   1       0.257   1.022   0.013  0.00  0.00     0.138 A 
ATOM      5  N   UNL d   1      -0.496   0.430   0.958  0.00  0.00    -0.242 N 
ATOM      6  HN  UNL d   1      -0.992   0.871   1.733  1.00  0.00     0.196 HD
ATOM      7  O   UNL d   1      -0.442  -0.922   0.635  0.00  0.00    -0.212 OA
ENDROOT
BRANCH   4   8
ATOM      8  C   UNL d   1       0.518   2.458  -0.023  0.00  0.00     0.010 A 
ATOM      9  C   UNL d   1       1.286   3.027  -1.043  0.00  0.00     0.016 A 
ATOM     10  C   UNL d   1       1.555   4.405  -1.052  0.00  0.00     0.009 A 
ATOM     11  C   UNL d   1       1.070   5.259  -0.044  0.00  0.00    -0.051 A 
ATOM     12  C   UNL d   1       0.289   4.676   0.965  0.00  0.00     0.009 A 
ATOM     13  C   UNL d   1       0.018   3.301   0.976  0.00  0.00     0.016 A 
BRANCH  11  14
ATOM     14  C   UNL d   1       1.407   6.762  -0.061  0.00  0.00    -0.024 C 
ATOM     15  C   UNL d   1       0.811   7.547   1.130  0.00  0.00     0.019 C 
ATOM     16  C   UNL d   1       2.939   6.950  -0.008  0.00  0.00     0.019 C 
ATOM     17  C   UNL d   1       0.862   7.409  -1.352  0.00  0.00     0.019 C 
ENDBRANCH  11  14
ENDBRANCH   4   8
BRANCH   1  18
ATOM     18  C   UNL d   1       0.602  -2.327  -1.038  0.00  0.00     0.309 C 
ATOM     19  O   UNL d   1       0.189  -3.393  -0.576  0.00  0.00    -0.262 OA
ATOM     20  N   UNL d   1       1.400  -2.293  -2.185  0.00  0.00    -0.287 N 
ATOM     21  H   UNL d   1       1.648  -1.386  -2.583  0.00  0.00     0.183 HD
BRANCH  20  22
ATOM     22  N   UNL d   1       1.698  -3.483  -2.891  0.00  0.00    -0.247 NA
ATOM     23  H   UNL d   1       1.083  -4.221  -2.519  0.00  0.00     0.143 HD
ATOM     24  H   UNL d   1       2.637  -3.785  -2.620  0.00  0.00     0.143 HD
ENDBRANCH  20  22
ENDBRANCH   1  18
TORSDOF 4
