REMARK  3 active torsions:
REMARK  status: ('A' for Active; 'I' for Inactive)
REMARK    1  A    between atoms: C_2  and  C_1 
REMARK    2  A    between atoms: C_14  and  N_3 
REMARK    3  A    between atoms: C_11  and  C_4 
ROOT
ATOM      1  C   UNL d   1      -0.424  -2.695  -0.068  0.00  0.00     0.065 A 
ATOM      2  C   UNL d   1      -1.193  -3.329  -1.018  0.00  0.00     0.124 A 
ATOM      3  N   UNL d   1      -0.557  -4.899   0.472  0.00  0.00    -0.271 N 
ATOM      4  HN  UNL d   1      -0.437  -5.792   0.949  1.00  0.00     0.194 HD
ATOM      5  O   UNL d   1      -1.279  -4.654  -0.683  0.00  0.00    -0.236 OA
ATOM      6  C   UNL d   1      -0.051  -3.718   0.827  0.00  0.00     0.132 A 
ENDROOT
BRANCH   1   7
ATOM      7  C   UNL d   1      -0.087  -1.256   0.007  0.00  0.00     0.153 C 
ATOM      8  N   UNL d   1       1.038  -0.681   0.572  0.00  0.00    -0.224 N 
ATOM      9  N   UNL d   1       0.780   0.631   0.773  0.00  0.00     0.001 NA
ATOM     10  N   UNL d   1      -0.355   0.871   0.132  0.00  0.00    -0.007 NA
ATOM     11  N   UNL d   1      -0.893  -0.284  -0.371  0.00  0.00    -0.269 N 
ATOM     12  HN  UNL d   1      -1.744  -0.374  -0.926  1.00  0.00     0.185 HD
BRANCH   8  13
ATOM     13  C   UNL d   1       2.318  -1.235   0.801  0.00  0.00     0.056 A 
ATOM     14  C   UNL d   1       2.777  -2.312   0.025  0.00  0.00     0.031 A 
ATOM     15  C   UNL d   1       4.034  -2.860   0.268  0.00  0.00     0.002 A 
ATOM     16  C   UNL d   1       4.838  -2.338   1.277  0.00  0.00     0.000 A 
ATOM     17  C   UNL d   1       4.399  -1.247   2.028  0.00  0.00     0.002 A 
ATOM     18  C   UNL d   1       3.147  -0.680   1.782  0.00  0.00     0.031 A 
ENDBRANCH   8  13
ENDBRANCH   1   7
BRANCH   2  19
ATOM     19  C   UNL d   1      -1.810  -2.974  -2.291  0.00  0.00     0.002 A 
ATOM     20  C   UNL d   1      -1.261  -1.965  -3.095  0.00  0.00     0.038 A 
ATOM     21  C   UNL d   1      -1.827  -1.659  -4.333  0.00  0.00     0.035 A 
ATOM     22 CL   UNL d   1      -1.128  -0.423  -5.305  0.00  0.00    -0.084 Cl
ATOM     23  C   UNL d   1      -2.939  -2.356  -4.794  0.00  0.00     0.024 A 
ATOM     24  C   UNL d   1      -3.492  -3.365  -4.009  0.00  0.00     0.003 A 
ATOM     25  C   UNL d   1      -2.931  -3.672  -2.766  0.00  0.00     0.014 A 
ENDBRANCH   2  19
TORSDOF 3
