REMARK  4 active torsions:
REMARK  status: ('A' for Active; 'I' for Inactive)
REMARK    1  A    between atoms: C_2  and  C_1 
REMARK    2  A    between atoms: C_6  and  C_1 
REMARK    3  A    between atoms: C_16  and  C_5 
REMARK    4  A    between atoms: C_10  and  C_14 
ROOT
ATOM      1  C   UNL d   1      -0.058   2.021   1.107  0.00  0.00     0.064 A 
ATOM      2  N   UNL d   1       1.022   2.750   1.294  0.00  0.00    -0.352 N 
ATOM      3  HN  UNL d   1       1.936   2.561   0.883  1.00  0.00     0.166 HD
ATOM      4  C   UNL d   1       0.728   3.818   2.134  0.00  0.00     0.049 A 
ATOM      5  S   UNL d   1      -1.452   2.512   1.974  0.00  0.00    -0.085 SA
ATOM      6  C   UNL d   1      -0.576   3.850   2.590  0.00  0.00     0.081 A 
ENDROOT
BRANCH   1   7
ATOM      7  C   UNL d   1      -0.106   0.955  -0.012  0.00  0.00     0.038 A 
ATOM      8  C   UNL d   1      -1.187   1.051  -1.073  0.00  0.00     0.023 A 
ATOM      9  C   UNL d   1       0.216   1.470  -1.409  0.00  0.00     0.023 A 
BRANCH   7  10
ATOM     10  C   UNL d   1       0.437  -0.425   0.375  0.00  0.00    -0.021 A 
ATOM     11  C   UNL d   1      -0.375  -1.467   0.879  0.00  0.00     0.043 A 
ATOM     12  C   UNL d   1       0.136  -2.749   1.124  0.00  0.00     0.048 A 
ATOM     13 CL   UNL d   1      -2.056  -1.220   1.208  0.00  0.00    -0.084 Cl
ATOM     14  C   UNL d   1       1.476  -3.014   0.889  0.00  0.00     0.035 A 
ATOM     15  C   UNL d   1       2.320  -2.006   0.434  0.00  0.00     0.024 A 
ATOM     16 CL   UNL d   1       2.098  -4.596   1.155  0.00  0.00    -0.084 Cl
ATOM     17  C   UNL d   1       1.803  -0.730   0.189  0.00  0.00     0.012 A 
ENDBRANCH   7  10
ENDBRANCH   1   7
BRANCH   4  18
ATOM     18  C   UNL d   1       1.717   4.855   2.415  0.00  0.00    -0.009 A 
ATOM     19  C   UNL d   1       2.754   5.084   1.500  0.00  0.00     0.014 A 
ATOM     20  C   UNL d   1       3.696   6.095   1.718  0.00  0.00     0.017 A 
ATOM     21  C   UNL d   1       3.625   6.898   2.865  0.00  0.00     0.048 A 
ATOM     22  C   UNL d   1       2.595   6.664   3.788  0.00  0.00     0.017 A 
ATOM     23  C   UNL d   1       1.652   5.653   3.566  0.00  0.00     0.014 A 
BRANCH  21  24
ATOM     24  C   UNL d   1       4.631   7.995   3.118  0.00  0.00     0.417 C 
ATOM     25  F   UNL d   1       5.571   8.112   2.140  0.00  0.00    -0.166 F 
ATOM     26  F   UNL d   1       4.046   9.221   3.221  0.00  0.00    -0.166 F 
ATOM     27  F   UNL d   1       5.320   7.811   4.278  0.00  0.00    -0.166 F 
ENDBRANCH  21  24
ENDBRANCH   4  18
TORSDOF 4
