REMARK  9 active torsions:
REMARK  status: ('A' for Active; 'I' for Inactive)
REMARK    1  A    between atoms: C_9  and  C_1 
REMARK    2  A    between atoms: C_24  and  C_3 
REMARK    3  A    between atoms: C_4  and  C_7 
REMARK    4  A    between atoms: C_7  and  O_12 
REMARK    5  A    between atoms: C_10  and  C_9 
REMARK    6  A    between atoms: O_12  and  C_16 
REMARK    7  A    between atoms: O_28  and  C_14 
REMARK    8  A    between atoms: O_29  and  C_23 
REMARK    9  A    between atoms: C_35  and  C_24 
ROOT
ATOM      1  C   UNL d   1      -1.778  -1.327  -0.043  0.00  0.00     0.029 C 
ATOM      2  C   UNL d   1      -1.994   0.145  -0.013  0.00  0.00     0.295 C 
ATOM      3  C   UNL d   1      -0.524  -1.838  -0.035  0.00  0.00    -0.033 C 
ATOM      4  O   UNL d   1      -1.008   0.916  -0.594  0.00  0.00    -0.274 OA
ATOM      5  C   UNL d   1       0.308   0.436  -0.570  0.00  0.00     0.093 A 
ATOM      6  C   UNL d   1       0.598  -0.879  -0.190  0.00  0.00     0.005 A 
ATOM      7  C   UNL d   1       1.296   1.376  -0.885  0.00  0.00     0.075 A 
ATOM      8  C   UNL d   1       1.952  -1.210  -0.061  0.00  0.00     0.017 A 
ATOM      9  C   UNL d   1       2.634   1.018  -0.756  0.00  0.00     0.082 A 
ATOM     10  O   UNL d   1      -3.027   0.644   0.421  0.00  0.00    -0.259 OA
ATOM     11  C   UNL d   1       2.962  -0.263  -0.321  0.00  0.00     0.038 A 
ENDROOT
BRANCH   9  12
ATOM     12  O   UNL d   1       3.572   2.057  -0.997  0.00  0.00    -0.275 OA
BRANCH  12  13
ATOM     13  C   UNL d   1       4.935   1.853  -1.166  0.00  0.00     0.301 C 
ATOM     14  O   UNL d   1       5.510   0.778  -1.249  0.00  0.00    -0.259 OA
BRANCH  13  15
ATOM     15  C   UNL d   1       5.657   3.139  -1.209  0.00  0.00     0.075 A 
ATOM     16  C   UNL d   1       6.733   3.380  -2.078  0.00  0.00     0.084 A 
ATOM     17  C   UNL d   1       7.511   4.533  -1.886  0.00  0.00     0.040 A 
ATOM     18  C   UNL d   1       7.214   5.450  -0.874  0.00  0.00     0.039 A 
ATOM     19  C   UNL d   1       6.117   5.234  -0.046  0.00  0.00     0.069 A 
ATOM     20  C   UNL d   1       5.351   4.077  -0.208  0.00  0.00     0.057 A 
BRANCH  16  21
ATOM     21  O   UNL d   1       7.220   2.567  -3.065  0.00  0.00    -0.355 OA
ATOM     22  C   UNL d   1       6.271   1.982  -3.950  0.00  0.00     0.210 C 
ENDBRANCH  16  21
BRANCH  19  23
ATOM     23  O   UNL d   1       5.742   6.042   0.992  0.00  0.00    -0.356 OA
ATOM     24  C   UNL d   1       6.154   7.402   0.904  0.00  0.00     0.210 C 
ENDBRANCH  19  23
ENDBRANCH  13  15
ENDBRANCH  12  13
ENDBRANCH   9  12
BRANCH   3  25
ATOM     25  C   UNL d   1      -0.235  -3.331  -0.082  0.00  0.00     0.040 C 
BRANCH  25  26
ATOM     26  C   UNL d   1       0.056  -4.006   1.268  0.00  0.00     0.000 C 
ATOM     27  C   UNL d   1      -1.135  -4.075   2.214  0.00  0.00     0.005 C 
ENDBRANCH  25  26
ENDBRANCH   3  25
BRANCH   1  28
ATOM     28  C   UNL d   1      -3.067  -2.116  -0.099  0.00  0.00     0.089 C 
BRANCH  28  29
ATOM     29  C   UNL d   1      -3.642  -2.390  -1.480  0.00  0.00     0.007 A 
ATOM     30  C   UNL d   1      -3.067  -1.908  -2.667  0.00  0.00     0.124 A 
ATOM     31  F   UNL d   1      -1.965  -1.148  -2.647  0.00  0.00    -0.205 F 
ATOM     32  C   UNL d   1      -3.597  -2.198  -3.925  0.00  0.00     0.043 A 
ATOM     33  C   UNL d   1      -4.737  -2.982  -4.036  0.00  0.00     0.005 A 
ATOM     34  C   UNL d   1      -5.345  -3.465  -2.880  0.00  0.00     0.024 A 
ATOM     35  C   UNL d   1      -4.806  -3.171  -1.619  0.00  0.00     0.043 A 
ATOM     36 CL   UNL d   1      -5.636  -3.821  -0.244  0.00  0.00    -0.084 Cl
ENDBRANCH  28  29
ENDBRANCH   1  28
TORSDOF 9
