REMARK  5 active torsions:
REMARK  status: ('A' for Active; 'I' for Inactive)
REMARK    1  A    between atoms: C_7  and  C_4 
REMARK    2  A    between atoms: C_8  and  C_5 
REMARK    3  A    between atoms: C_13  and  C_6 
REMARK    4  A    between atoms: O_16  and  C_7 
REMARK    5  A    between atoms: O_17  and  C_8 
ROOT
ATOM      1  S   UNL d   1       0.900   1.494  -0.460  0.00  0.00     0.171 S 
ATOM      2  S   UNL d   1       0.856  -1.437  -0.326  0.00  0.00     0.171 S 
ATOM      3  C   UNL d   1       1.743   0.036   0.028  0.00  0.00     0.281 C 
ATOM      4  C   UNL d   1      -0.736  -1.226   0.432  0.00  0.00     0.218 C 
ATOM      5  C   UNL d   1      -0.763   1.369   0.164  0.00  0.00     0.218 C 
ATOM      6  C   UNL d   1      -1.457   0.018  -0.120  0.00  0.00     0.075 C 
ATOM      7  O   UNL d   1       1.545   2.583   0.253  0.00  0.00    -0.226 OA
ATOM      8  O   UNL d   1       0.864   1.511  -1.906  0.00  0.00    -0.226 OA
ATOM      9  O   UNL d   1       0.643  -1.527  -1.756  0.00  0.00    -0.226 OA
ATOM     10  O   UNL d   1       1.532  -2.526   0.355  0.00  0.00    -0.226 OA
ENDROOT
BRANCH   6  11
ATOM     11  C   UNL d   1      -2.922   0.012   0.334  0.00  0.00    -0.051 A 
ATOM     12  C   UNL d   1      -3.336   0.565   1.557  0.00  0.00     0.007 A 
ATOM     13  C   UNL d   1      -4.693   0.631   1.884  0.00  0.00     0.001 A 
ATOM     14  C   UNL d   1      -5.652   0.129   1.008  0.00  0.00     0.000 A 
ATOM     15  C   UNL d   1      -5.255  -0.454  -0.191  0.00  0.00     0.001 A 
ATOM     16  C   UNL d   1      -3.900  -0.517  -0.525  0.00  0.00     0.007 A 
ENDBRANCH   6  11
BRANCH   4  17
ATOM     17  C   UNL d   1      -0.504  -1.193   1.913  0.00  0.00     0.278 C 
ATOM     18  O   UNL d   1       0.064  -0.261   2.469  0.00  0.00    -0.264 OA
BRANCH  17  19
ATOM     19  O   UNL d   1      -0.988  -2.294   2.535  0.00  0.00    -0.325 OA
ATOM     20  C   UNL d   1      -0.729  -2.360   3.942  0.00  0.00     0.213 C 
ENDBRANCH  17  19
ENDBRANCH   4  17
BRANCH   5  21
ATOM     21  C   UNL d   1      -1.512   2.512  -0.477  0.00  0.00     0.278 C 
ATOM     22  O   UNL d   1      -2.093   2.455  -1.554  0.00  0.00    -0.264 OA
BRANCH  21  23
ATOM     23  O   UNL d   1      -1.488   3.603   0.338  0.00  0.00    -0.325 OA
ATOM     24  C   UNL d   1      -2.162   4.752  -0.187  0.00  0.00     0.213 C 
ENDBRANCH  21  23
ENDBRANCH   5  21
TORSDOF 5
