REMARK  1 active torsions:
REMARK  status: ('A' for Active; 'I' for Inactive)
REMARK    1  A    between atoms: C_8  and  C_4 
ROOT
ATOM      1  C   UNL d   1       0.977  -1.356  -0.008  0.00  0.00     0.189 C 
ATOM      2  C   UNL d   1       2.032  -0.687  -0.809  0.00  0.00    -0.006 C 
ATOM      3  C   UNL d   1      -0.351  -0.712   0.033  0.00  0.00     0.021 A 
ATOM      4  C   UNL d   1       2.407  -1.385  -1.896  0.00  0.00     0.022 C 
ATOM      5  O   UNL d   1       1.157  -2.458   0.498  0.00  0.00    -0.287 OA
ATOM      6  C   UNL d   1      -0.539   0.638   0.366  0.00  0.00    -0.044 A 
ATOM      7  C   UNL d   1       2.657   0.559  -0.263  0.00  0.00     0.043 C 
ATOM      8  C   UNL d   1      -1.444  -1.530  -0.291  0.00  0.00     0.016 A 
ATOM      9  C   UNL d   1       1.689   1.738  -0.181  0.00  0.00     0.009 C 
ATOM     10  C   UNL d   1       0.583   1.523   0.848  0.00  0.00     0.040 C 
ATOM     11  C   UNL d   1      -1.844   1.154   0.319  0.00  0.00     0.008 A 
ATOM     12  C   UNL d   1      -2.729  -0.999  -0.333  0.00  0.00     0.001 A 
ATOM     13  C   UNL d   1      -2.927   0.345  -0.037  0.00  0.00     0.001 A 
ENDROOT
BRANCH   4  14
ATOM     14  C   UNL d   1       3.591  -1.069  -2.688  0.00  0.00    -0.033 A 
ATOM     15  C   UNL d   1       4.786  -1.711  -2.345  0.00  0.00     0.051 A 
ATOM     16  C   UNL d   1       5.912  -1.399  -3.068  0.00  0.00     0.105 A 
ATOM     17  O   UNL d   1       7.150  -1.929  -2.870  0.00  0.00    -0.323 OA
ATOM     18  C   UNL d   1       5.886  -0.483  -4.092  0.00  0.00     0.105 A 
ATOM     19  C   UNL d   1       7.883  -1.300  -3.941  0.00  0.00     0.352 A 
ATOM     20  O   UNL d   1       7.107  -0.324  -4.670  0.00  0.00    -0.323 OA
ATOM     21  C   UNL d   1       4.727   0.172  -4.451  0.00  0.00     0.040 A 
ATOM     22  C   UNL d   1       3.559  -0.129  -3.738  0.00  0.00     0.014 A 
ENDBRANCH   4  14
TORSDOF 1
