REMARK  3 active torsions:
REMARK  status: ('A' for Active; 'I' for Inactive)
REMARK    1  A    between atoms: C_8  and  C_4 
REMARK    2  A    between atoms: C_11  and  C_6 
REMARK    3  A    between atoms: C_7  and  C_10 
ROOT
ATOM      1  N   UNL d   1       1.040   0.638   0.157  0.00  0.00    -0.306 N 
ATOM      2  HN  UNL d   1       1.866   1.236   0.186  1.00  0.00     0.186 HD
ATOM      3  N   UNL d   1      -0.249   1.014   0.260  0.00  0.00    -0.323 N 
ATOM      4  C   UNL d   1       1.002  -0.653   0.013  0.00  0.00     0.038 C 
ATOM      5  C   UNL d   1      -0.391  -1.244   0.059  0.00  0.00     0.091 C 
ATOM      6  C   UNL d   1      -1.229   0.015  -0.149  0.00  0.00     0.140 C 
ATOM      7  C   UNL d   1      -0.674   2.381   0.427  0.00  0.00     0.171 C 
ENDROOT
BRANCH   4   8
ATOM      8  C   UNL d   1       2.205  -1.504  -0.154  0.00  0.00    -0.011 A 
ATOM      9  C   UNL d   1       2.099  -2.892  -0.285  0.00  0.00     0.025 A 
ATOM     10  C   UNL d   1       3.245  -3.688  -0.447  0.00  0.00    -0.025 A 
ATOM     11  C   UNL d   1       3.146  -5.082  -0.589  0.00  0.00     0.012 A 
ATOM     12  C   UNL d   1       4.520  -3.079  -0.467  0.00  0.00    -0.026 A 
ATOM     13  C   UNL d   1       4.290  -5.868  -0.742  0.00  0.00     0.001 A 
ATOM     14  C   UNL d   1       5.546  -5.267  -0.753  0.00  0.00     0.001 A 
ATOM     15  C   UNL d   1       5.661  -3.882  -0.618  0.00  0.00     0.012 A 
ATOM     16  C   UNL d   1       4.614  -1.684  -0.335  0.00  0.00     0.013 A 
ATOM     17  C   UNL d   1       3.466  -0.903  -0.181  0.00  0.00     0.014 A 
ENDBRANCH   4   8
BRANCH   6  18
ATOM     18  C   UNL d   1      -1.713   0.113  -1.593  0.00  0.00    -0.034 A 
ATOM     19  C   UNL d   1      -0.875   0.522  -2.643  0.00  0.00     0.010 A 
ATOM     20  C   UNL d   1      -1.342   0.577  -3.960  0.00  0.00     0.017 A 
ATOM     21  C   UNL d   1      -2.660   0.216  -4.264  0.00  0.00     0.047 A 
ATOM     22  C   UNL d   1      -3.495  -0.218  -3.224  0.00  0.00     0.017 A 
ATOM     23  C   UNL d   1      -3.026  -0.273  -1.907  0.00  0.00     0.010 A 
BRANCH  21  24
ATOM     24  C   UNL d   1      -3.188   0.299  -5.675  0.00  0.00     0.417 C 
ATOM     25  F   UNL d   1      -2.267   0.732  -6.581  0.00  0.00    -0.166 F 
ATOM     26  F   UNL d   1      -3.629  -0.903  -6.140  0.00  0.00    -0.166 F 
ATOM     27  F   UNL d   1      -4.245   1.151  -5.784  0.00  0.00    -0.166 F 
ENDBRANCH  21  24
ENDBRANCH   6  18
TORSDOF 3
