REMARK  6 active torsions:
REMARK  status: ('A' for Active; 'I' for Inactive)
REMARK    1  A    between atoms: S_10  and  C_1 
REMARK    2  A    between atoms: C_5  and  O_12 
REMARK       I    between atoms: N_8  and  C_5 
REMARK    3  A    between atoms: C_11  and  N_8 
REMARK    4  A    between atoms: C_21  and  S_10 
REMARK    5  A    between atoms: O_12  and  C_22 
REMARK    6  A    between atoms: C_22  and  C_21 
ROOT
ATOM      1  C   UNL d   1      -6.226  -0.519  -0.182  0.00  0.00     0.191 C 
ENDROOT
BRANCH   1   2
ATOM      2  O   UNL d   1      -7.211   0.522  -0.039  0.00  0.00    -0.303 OA
BRANCH   2   3
ATOM      3  C   UNL d   1      -7.788   0.932  -1.194  0.00  0.00     0.365 C 
ATOM      4  N   UNL d   1      -8.947   1.653  -1.068  0.00  0.00    -0.303 N 
ATOM      5  H   UNL d   1      -9.365   1.815  -1.975  0.00  0.00     0.171 HD
ATOM      6  O   UNL d   1      -7.371   0.643  -2.311  0.00  0.00    -0.238 OA
BRANCH   4   7
ATOM      7  C   UNL d   1      -9.627   2.182   0.043  0.00  0.00     0.036 A 
ATOM      8  C   UNL d   1      -9.130   2.198   1.348  0.00  0.00     0.031 A 
ATOM      9  C   UNL d   1      -9.844   2.838   2.371  0.00  0.00     0.026 A 
ATOM     10  C   UNL d   1     -11.060   3.456   2.095  0.00  0.00     0.034 A 
ATOM     11  C   UNL d   1     -11.587   3.416   0.810  0.00  0.00     0.026 A 
ATOM     12 CL   UNL d   1     -11.900   4.293   3.341  0.00  0.00    -0.084 Cl
ATOM     13  C   UNL d   1     -10.871   2.780  -0.210  0.00  0.00     0.031 A 
ENDBRANCH   4   7
ENDBRANCH   2   3
ENDBRANCH   1   2
BRANCH   1  14
ATOM     14  C   UNL d   1      -4.807   0.032  -0.321  0.00  0.00     0.108 C 
BRANCH  14  15
ATOM     15  S   UNL d   1      -3.671  -1.379  -0.499  0.00  0.00    -0.103 SA
BRANCH  15  16
ATOM     16  C   UNL d   1      -2.101  -0.608  -0.531  0.00  0.00     0.113 A 
ATOM     17  N   UNL d   1      -1.945   0.690  -0.443  0.00  0.00    -0.344 N 
ATOM     18  C   UNL d   1      -0.589   0.996  -0.478  0.00  0.00     0.050 A 
ATOM     19  HN  UNL d   1      -2.701   1.370  -0.362  1.00  0.00     0.167 HD
ATOM     20  C   UNL d   1      -0.027   2.287  -0.405  0.00  0.00     0.031 A 
ATOM     21  C   UNL d   1       0.272  -0.101  -0.591  0.00  0.00     0.034 A 
ATOM     22  C   UNL d   1       1.364   2.447  -0.439  0.00  0.00     0.002 A 
ATOM     23  C   UNL d   1       2.198   1.339  -0.547  0.00  0.00     0.002 A 
ATOM     24  C   UNL d   1       1.669   0.049  -0.627  0.00  0.00     0.021 A 
ATOM     25  S   UNL d   1      -0.668  -1.538  -0.666  0.00  0.00    -0.063 SA
ENDBRANCH  15  16
ENDBRANCH  14  15
ENDBRANCH   1  14
TORSDOF 6
