REMARK  4 active torsions:
REMARK  status: ('A' for Active; 'I' for Inactive)
REMARK    1  A    between atoms: C_5  and  N_1 
REMARK    2  A    between atoms: C_4  and  C_11 
REMARK    3  A    between atoms: O_17  and  C_4 
REMARK    4  A    between atoms: C_20  and  O_17 
ROOT
ATOM      1  C   UNL d   1       1.400   2.188  -1.132  0.00  0.00     0.045 A 
ATOM      2  C   UNL d   1       2.668   4.116  -2.776  0.00  0.00     0.039 A 
ATOM      3  C   UNL d   1       2.572   1.886  -1.853  0.00  0.00     0.031 A 
ATOM      4  C   UNL d   1       0.882   3.485  -1.255  0.00  0.00     0.031 A 
ATOM      5  C   UNL d   1       3.196   2.832  -2.668  0.00  0.00     0.020 A 
ATOM      6  C   UNL d   1       1.513   4.442  -2.059  0.00  0.00     0.020 A 
ENDROOT
BRANCH   1   7
ATOM      7  N   UNL d   1       0.702   1.129  -0.457  0.00  0.00    -0.252 N 
ATOM      8  C   UNL d   1       1.409   0.005  -0.046  0.00  0.00     0.232 C 
ATOM      9  C   UNL d   1       0.654  -1.292  -0.208  0.00  0.00     0.113 C 
ATOM     10  O   UNL d   1       2.567  -0.001   0.367  0.00  0.00    -0.273 OA
ATOM     11  C   UNL d   1      -0.773  -1.224   0.333  0.00  0.00    -0.031 C 
ATOM     12  C   UNL d   1      -1.449   0.056  -0.160  0.00  0.00     0.113 C 
ATOM     13  C   UNL d   1      -1.551  -2.439  -0.202  0.00  0.00     0.016 C 
ATOM     14  C   UNL d   1      -0.767  -1.268   1.870  0.00  0.00     0.016 C 
ATOM     15  C   UNL d   1      -0.587   1.288   0.030  0.00  0.00     0.232 C 
ATOM     16  O   UNL d   1      -1.068   2.302   0.536  0.00  0.00    -0.273 OA
ENDBRANCH   1   7
BRANCH   2  17
ATOM     17  C   UNL d   1       3.401   5.102  -3.605  0.00  0.00     0.293 C 
ATOM     18  O   UNL d   1       4.448   4.857  -4.182  0.00  0.00    -0.259 OA
BRANCH  17  19
ATOM     19  O   UNL d   1       2.794   6.309  -3.515  0.00  0.00    -0.318 OA
BRANCH  19  20
ATOM     20  C   UNL d   1       3.630   7.431  -3.818  0.00  0.00     0.174 C 
ATOM     21  C   UNL d   1       4.363   7.816  -2.545  0.00  0.00     0.034 C 
ENDBRANCH  19  20
ENDBRANCH  17  19
ENDBRANCH   2  17
TORSDOF 4
