REMARK  8 active torsions:
REMARK  status: ('A' for Active; 'I' for Inactive)
REMARK    1  A    between atoms: C_2  and  S_1 
REMARK    2  A    between atoms: C_7  and  S_1 
REMARK    3  A    between atoms: C_3  and  C_8 
REMARK    4  A    between atoms: N_18  and  C_3 
REMARK    5  A    between atoms: O_12  and  N_4 
REMARK    6  A    between atoms: C_6  and  O_12 
REMARK       I    between atoms: N_11  and  C_6 
REMARK    7  A    between atoms: C_17  and  C_7 
REMARK    8  A    between atoms: C_19  and  N_11 
ROOT
ATOM      1  C   UNL d   1       1.464   0.549   4.403  0.00  0.00     0.010 A 
ATOM      2  C   UNL d   1       1.154   0.443   3.036  0.00  0.00     0.023 A 
ATOM      3  C   UNL d   1       0.888   1.582   2.259  0.00  0.00    -0.043 A 
ATOM      4  C   UNL d   1       1.616   1.820   4.965  0.00  0.00     0.015 A 
ATOM      5  C   UNL d   1       1.462   2.963   4.174  0.00  0.00     0.002 A 
ATOM      6  C   UNL d   1       1.090   2.844   2.835  0.00  0.00     0.008 A 
ENDROOT
BRANCH   1   7
ATOM      7  C   UNL d   1       1.447  -0.698   5.251  0.00  0.00     0.130 C 
ATOM      8  N   UNL d   1       2.216  -0.971   6.277  0.00  0.00    -0.240 N 
ATOM      9  HN  UNL d   1       2.114  -1.808   6.851  1.00  0.00     0.196 HD
BRANCH   8  10
ATOM     10  O   UNL d   1       3.197   0.012   6.500  0.00  0.00    -0.179 OA
BRANCH  10  11
ATOM     11  C   UNL d   1       3.896  -0.174   7.684  0.00  0.00     0.387 C 
ATOM     12  N   UNL d   1       3.530  -1.298   8.395  0.00  0.00    -0.301 N 
ATOM     13  H   UNL d   1       2.820  -1.836   7.911  0.00  0.00     0.171 HD
ATOM     14  O   UNL d   1       4.767   0.632   7.997  0.00  0.00    -0.236 OA
BRANCH  12  15
ATOM     15  C   UNL d   1       4.079  -1.778   9.601  0.00  0.00     0.036 A 
ATOM     16  C   UNL d   1       4.992  -1.052  10.372  0.00  0.00     0.029 A 
ATOM     17  C   UNL d   1       5.543  -1.598  11.536  0.00  0.00     0.002 A 
ATOM     18  C   UNL d   1       5.185  -2.878  11.948  0.00  0.00     0.000 A 
ATOM     19  C   UNL d   1       4.260  -3.605  11.203  0.00  0.00     0.002 A 
ATOM     20  C   UNL d   1       3.700  -3.053  10.043  0.00  0.00     0.029 A 
ENDBRANCH  12  15
ENDBRANCH  10  11
ENDBRANCH   8  10
BRANCH   7  21
ATOM     21  N   UNL d   1       0.506  -1.652   4.949  0.00  0.00    -0.383 N 
ATOM     22  H   UNL d   1       0.075  -1.676   4.034  0.00  0.00     0.157 HD
ATOM     23  H   UNL d   1       0.677  -2.565   5.358  0.00  0.00     0.157 HD
ENDBRANCH   7  21
ENDBRANCH   1   7
BRANCH   3  24
ATOM     24  C   UNL d   1       0.373   1.480   0.843  0.00  0.00     0.185 C 
BRANCH  24  25
ATOM     25  S   UNL d   1      -1.190   0.616   0.723  0.00  0.00     0.195 S 
ATOM     26  O   UNL d   1      -1.672   0.779  -0.640  0.00  0.00    -0.221 OA
ATOM     27  O   UNL d   1      -1.026  -0.728   1.262  0.00  0.00    -0.221 OA
BRANCH  25  28
ATOM     28  C   UNL d   1      -2.373   1.443   1.767  0.00  0.00     0.128 A 
ATOM     29  N   UNL d   1      -1.963   2.613   2.314  0.00  0.00    -0.357 N 
ATOM     30  C   UNL d   1      -2.813   3.176   3.200  0.00  0.00     0.089 A 
ATOM     31  HN  UNL d   1      -1.070   3.041   2.073  1.00  0.00     0.166 HD
ATOM     32  C   UNL d   1      -4.052   2.644   3.529  0.00  0.00     0.017 A 
ATOM     33  C   UNL d   1      -4.454   1.461   2.913  0.00  0.00     0.004 A 
ATOM     34  C   UNL d   1      -3.596   0.836   2.015  0.00  0.00     0.042 A 
ENDBRANCH  25  28
ENDBRANCH  24  25
ENDBRANCH   3  24
TORSDOF 8
