REMARK  7 active torsions:
REMARK  status: ('A' for Active; 'I' for Inactive)
REMARK    1  A    between atoms: C_10  and  N_1 
REMARK    2  A    between atoms: C_8  and  C_2 
REMARK    3  A    between atoms: C_9  and  C_7 
REMARK    4  A    between atoms: O_17  and  C_9 
REMARK    5  A    between atoms: N_14  and  C_11 
REMARK    6  A    between atoms: C_12  and  N_14 
REMARK    7  A    between atoms: C_23  and  C_20 
ROOT
ATOM      1  N   UNL d   1      -0.086  -1.300   0.074  0.00  0.00    -0.225 N 
ATOM      2  C   UNL d   1       1.160  -0.684   0.253  0.00  0.00     0.139 A 
ATOM      3  N   UNL d   1      -0.349   0.834  -0.004  0.00  0.00    -0.007 NA
ATOM      4  N   UNL d   1      -0.992  -0.311  -0.157  0.00  0.00     0.001 NA
ATOM      5  N   UNL d   1       0.971   0.623   0.265  0.00  0.00    -0.270 N 
ATOM      6  HN  UNL d   1       1.677   1.338   0.440  1.00  0.00     0.185 HD
ENDROOT
BRANCH   2   7
ATOM      7  C   UNL d   1       2.374  -1.404   0.332  0.00  0.00     0.063 C 
ATOM      8  C   UNL d   1       3.418  -0.947   1.035  0.00  0.00     0.066 C 
BRANCH   8   9
ATOM      9  N   UNL d   1       4.612  -1.619   1.226  0.00  0.00    -0.269 NA
ATOM     10  H   UNL d   1       4.480  -2.642   1.185  0.00  0.00     0.133 HD
BRANCH   9  11
ATOM     11  C   UNL d   1       5.777  -1.313   0.455  0.00  0.00     0.029 A 
ATOM     12  C   UNL d   1       6.792  -2.277   0.249  0.00  0.00     0.059 A 
ATOM     13  C   UNL d   1       7.920  -1.973  -0.532  0.00  0.00     0.020 A 
ATOM     14  C   UNL d   1       8.083  -0.691  -1.053  0.00  0.00     0.001 A 
ATOM     15  C   UNL d   1       7.124   0.286  -0.803  0.00  0.00     0.002 A 
ATOM     16  C   UNL d   1       5.987  -0.020  -0.052  0.00  0.00     0.025 A 
BRANCH  12  17
ATOM     17  C   UNL d   1       6.619  -3.659   0.779  0.00  0.00     0.177 C 
ATOM     18  O   UNL d   1       5.523  -4.176   0.904  0.00  0.00    -0.646 OA
BRANCH  17  19
ATOM     19  O   UNL d   1       7.770  -4.269   1.132  0.00  0.00    -0.773 OA
ATOM     20  H   UNL d   1       8.554  -3.691   1.166  0.00  0.00     0.167 HD
ENDBRANCH  17  19
ENDBRANCH  12  17
ENDBRANCH   9  11
ENDBRANCH   8   9
ENDBRANCH   2   7
BRANCH   1  21
ATOM     21  C   UNL d   1      -0.503  -2.666   0.084  0.00  0.00     0.056 A 
ATOM     22  C   UNL d   1       0.323  -3.701   0.536  0.00  0.00     0.032 A 
ATOM     23  C   UNL d   1      -0.074  -5.036   0.415  0.00  0.00     0.009 A 
ATOM     24  C   UNL d   1      -1.328  -5.362  -0.107  0.00  0.00    -0.058 A 
ATOM     25  C   UNL d   1      -2.194  -4.328  -0.475  0.00  0.00     0.009 A 
ATOM     26  C   UNL d   1      -1.789  -2.992  -0.379  0.00  0.00     0.032 A 
BRANCH  24  27
ATOM     27  C   UNL d   1      -1.716  -6.805  -0.301  0.00  0.00     0.034 C 
ATOM     28  C   UNL d   1      -1.329  -7.306  -1.686  0.00  0.00     0.010 C 
ENDBRANCH  24  27
ENDBRANCH   1  21
TORSDOF 7
