REMARK  2 active torsions:
REMARK  status: ('A' for Active; 'I' for Inactive)
REMARK    1  A    between atoms: C_12  and  C_8 
REMARK    2  A    between atoms: C_13  and  C_14 
ROOT
ATOM      1  C   UNL d   1      -0.175  -0.532   0.452  0.00  0.00     0.129 A 
ATOM      2  N   UNL d   1      -0.291   0.684  -0.227  0.00  0.00    -0.244 N 
ATOM      3  N   UNL d   1      -1.588   0.981  -0.488  0.00  0.00    -0.292 N 
ATOM      4  HN  UNL d   1      -1.945   1.791  -0.994  1.00  0.00     0.187 HD
ATOM      5  C   UNL d   1      -1.457  -0.985   0.641  0.00  0.00     0.082 A 
ATOM      6  N   UNL d   1       1.031  -1.062   0.816  0.00  0.00    -0.345 N 
ATOM      7  HN  UNL d   1       1.100  -1.957   1.300  1.00  0.00     0.167 HD
ATOM      8  C   UNL d   1      -2.304  -0.014   0.058  0.00  0.00     0.062 A 
ATOM      9  C   UNL d   1       0.854   1.432  -0.547  0.00  0.00     0.034 A 
ATOM     10  C   UNL d   1       2.062   0.955  -0.199  0.00  0.00     0.051 A 
ATOM     11  C   UNL d   1       2.085  -0.363   0.510  0.00  0.00     0.009 A 
ATOM     12  C   UNL d   1       0.705   2.744  -1.256  0.00  0.00     0.070 C 
ATOM     13  C   UNL d   1       3.433  -0.914   0.899  0.00  0.00     0.068 C 
ENDROOT
BRANCH   8  14
ATOM     14  C   UNL d   1      -3.768  -0.015   0.010  0.00  0.00    -0.008 A 
ATOM     15  C   UNL d   1      -4.529  -0.631   1.010  0.00  0.00     0.014 A 
ATOM     16  C   UNL d   1      -5.930  -0.608   0.958  0.00  0.00     0.009 A 
ATOM     17  C   UNL d   1      -6.619   0.022  -0.096  0.00  0.00    -0.051 A 
ATOM     18  C   UNL d   1      -5.839   0.629  -1.093  0.00  0.00     0.009 A 
ATOM     19  C   UNL d   1      -4.440   0.614  -1.040  0.00  0.00     0.014 A 
BRANCH  17  20
ATOM     20  C   UNL d   1      -8.157   0.035  -0.129  0.00  0.00    -0.024 C 
ATOM     21  C   UNL d   1      -8.739   0.766  -1.360  0.00  0.00     0.019 C 
ATOM     22  C   UNL d   1      -8.693  -1.412  -0.161  0.00  0.00     0.019 C 
ATOM     23  C   UNL d   1      -8.709   0.746   1.126  0.00  0.00     0.019 C 
ENDBRANCH  17  20
ENDBRANCH   8  14
TORSDOF 2
