REMARK  5 active torsions:
REMARK  status: ('A' for Active; 'I' for Inactive)
REMARK    1  A    between atoms: C_12  and  C_3 
REMARK    2  A    between atoms: C_16  and  C_6 
REMARK    3  A    between atoms: C_7  and  C_13 
REMARK       I    between atoms: C_9  and  N_10 
REMARK    4  A    between atoms: C_11  and  C_9 
REMARK    5  A    between atoms: N_10  and  C_16 
ROOT
ATOM      1  N   UNL d   1       1.287   0.168   0.030  0.00  0.00    -0.321 N 
ATOM      2  HN  UNL d   1       2.294   0.311  -0.037  1.00  0.00     0.169 HD
ATOM      3  C   UNL d   1       0.279   1.112   0.070  0.00  0.00     0.137 A 
ATOM      4  N   UNL d   1      -0.953   0.587   0.165  0.00  0.00    -0.242 N 
ATOM      5  HN  UNL d   1      -1.845   1.080   0.210  1.00  0.00     0.196 HD
ATOM      6  C   UNL d   1       0.617  -0.962   0.101  0.00  0.00     0.166 A 
ATOM      7  O   UNL d   1      -0.731  -0.787   0.185  0.00  0.00    -0.221 OA
ENDROOT
BRANCH   6   8
ATOM      8  C   UNL d   1       1.110  -2.360   0.070  0.00  0.00     0.209 C 
BRANCH   8   9
ATOM      9  N   UNL d   1       1.523  -2.787   1.393  0.00  0.00    -0.349 N 
ATOM     10  C   UNL d   1       0.635  -3.407   2.244  0.00  0.00     0.252 C 
ATOM     11  O   UNL d   1      -0.541  -3.609   1.961  0.00  0.00    -0.268 OA
ATOM     12  H   UNL d   1       2.390  -2.415   1.758  0.00  0.00     0.163 HD
BRANCH  10  13
ATOM     13  C   UNL d   1       1.171  -3.832   3.564  0.00  0.00     0.033 A 
ATOM     14  C   UNL d   1       2.494  -4.267   3.703  0.00  0.00     0.041 A 
ATOM     15  C   UNL d   1       2.937  -4.730   4.941  0.00  0.00     0.035 A 
ATOM     16 CL   UNL d   1       4.555  -5.293   5.107  0.00  0.00    -0.084 Cl
ATOM     17  C   UNL d   1       2.079  -4.759   6.041  0.00  0.00     0.024 A 
ATOM     18  C   UNL d   1       0.760  -4.325   5.903  0.00  0.00     0.003 A 
ATOM     19  C   UNL d   1       0.304  -3.869   4.665  0.00  0.00     0.017 A 
ENDBRANCH  10  13
ENDBRANCH   8   9
ENDBRANCH   6   8
BRANCH   3  20
ATOM     20  C   UNL d   1       0.544   2.547   0.014  0.00  0.00     0.010 A 
ATOM     21  C   UNL d   1       1.853   3.025  -0.140  0.00  0.00     0.016 A 
ATOM     22  C   UNL d   1       2.113   4.400  -0.180  0.00  0.00     0.017 A 
ATOM     23  C   UNL d   1       1.068   5.327  -0.065  0.00  0.00     0.048 A 
ATOM     24  C   UNL d   1      -0.243   4.851   0.080  0.00  0.00     0.017 A 
ATOM     25  C   UNL d   1      -0.501   3.477   0.118  0.00  0.00     0.016 A 
BRANCH  23  26
ATOM     26  C   UNL d   1       1.329   6.814  -0.091  0.00  0.00     0.417 C 
ATOM     27  F   UNL d   1       2.647   7.134  -0.222  0.00  0.00    -0.166 F 
ATOM     28  F   UNL d   1       0.689   7.437  -1.119  0.00  0.00    -0.166 F 
ATOM     29  F   UNL d   1       0.905   7.435   1.044  0.00  0.00    -0.166 F 
ENDBRANCH  23  26
ENDBRANCH   3  20
TORSDOF 5
