REMARK  3 active torsions:
REMARK  status: ('A' for Active; 'I' for Inactive)
REMARK    1  A    between atoms: C_14  and  C_6 
REMARK    2  A    between atoms: O_15  and  C_7 
REMARK    3  A    between atoms: O_18  and  C_16 
ROOT
ATOM      1  N   UNL d   1      -0.763   0.345   0.018  0.00  0.00    -0.256 N 
ATOM      2  C   UNL d   1      -1.331  -0.910   0.007  0.00  0.00     0.161 A 
ATOM      3  N   UNL d   1      -2.586  -1.181   0.001  0.00  0.00    -0.316 N 
ATOM      4  HN  UNL d   1      -2.927  -2.142  -0.011  1.00  0.00     0.170 HD
ATOM      5  C   UNL d   1      -1.570   1.464   0.037  0.00  0.00     0.269 A 
ATOM      6  C   UNL d   1      -3.046   1.174   0.035  0.00  0.00     0.093 A 
ATOM      7  C   UNL d   1      -3.440  -0.118   0.013  0.00  0.00     0.158 A 
ATOM      8  S   UNL d   1      -0.130  -2.185  -0.002  0.00  0.00    -0.051 SA
ATOM      9  C   UNL d   1       0.658   0.322   0.012  0.00  0.00     0.062 A 
ATOM     10  C   UNL d   1       1.165  -0.981   0.003  0.00  0.00     0.038 A 
ATOM     11  C   UNL d   1       2.524  -1.259  -0.003  0.00  0.00     0.058 A 
ATOM     12  O   UNL d   1      -1.174   2.627   0.054  0.00  0.00    -0.266 OA
ATOM     13  C   UNL d   1       1.544   1.389   0.014  0.00  0.00     0.034 A 
ATOM     14  C   UNL d   1       3.418  -0.194  -0.001  0.00  0.00     0.069 A 
ATOM     15  C   UNL d   1       2.923   1.122   0.006  0.00  0.00     0.039 A 
ENDROOT
BRANCH   6  16
ATOM     16  C   UNL d   1      -4.045   2.256   0.063  0.00  0.00    -0.016 A 
ATOM     17  C   UNL d   1      -4.561   2.704   1.287  0.00  0.00     0.012 A 
ATOM     18  C   UNL d   1      -5.641   3.589   1.313  0.00  0.00     0.001 A 
ATOM     19  C   UNL d   1      -6.209   4.033   0.120  0.00  0.00     0.000 A 
ATOM     20  C   UNL d   1      -5.691   3.606  -1.101  0.00  0.00     0.001 A 
ATOM     21  C   UNL d   1      -4.611   2.720  -1.132  0.00  0.00     0.012 A 
ENDBRANCH   6  16
BRANCH   7  22
ATOM     22  O   UNL d   1      -4.771  -0.492   0.000  0.00  0.00    -0.345 OA
ATOM     23  H   UNL d   1      -5.337   0.295  -0.017  0.00  0.00     0.219 HD
ENDBRANCH   7  22
BRANCH  14  24
ATOM     24  O   UNL d   1       4.782  -0.312  -0.005  0.00  0.00    -0.356 OA
ATOM     25  C   UNL d   1       5.304  -1.640  -0.001  0.00  0.00     0.210 C 
ENDBRANCH  14  24
TORSDOF 3
