REMARK  5 active torsions:
REMARK  status: ('A' for Active; 'I' for Inactive)
REMARK    1  A    between atoms: C_2  and  N_1 
REMARK    2  A    between atoms: N_10  and  C_7 
REMARK    3  A    between atoms: C_13  and  N_10 
REMARK    4  A    between atoms: O_12  and  C_14 
REMARK    5  A    between atoms: C_14  and  C_13 
ROOT
ATOM      1  C   UNL d   1       0.224  -0.314  -1.305  0.00  0.00     0.118 A 
ATOM      2  N   UNL d   1      -1.409   0.269  -2.981  0.00  0.00    -0.354 N 
ATOM      3  HN  UNL d   1      -2.113   0.917  -3.333  1.00  0.00     0.166 HD
ATOM      4  C   UNL d   1      -1.106  -0.859  -3.659  0.00  0.00     0.080 A 
ATOM      5  C   UNL d   1      -0.754   0.519  -1.817  0.00  0.00     0.125 A 
ATOM      6  C   UNL d   1       0.547  -1.474  -2.004  0.00  0.00     0.041 A 
ATOM      7  C   UNL d   1      -0.144  -1.753  -3.184  0.00  0.00     0.044 A 
ENDROOT
BRANCH   4   8
ATOM      8  N   UNL d   1      -1.834  -1.218  -4.799  0.00  0.00    -0.277 NA
ATOM      9  H   UNL d   1      -1.222  -1.649  -5.494  0.00  0.00     0.129 HD
BRANCH   8  10
ATOM     10  C   UNL d   1      -2.579  -0.137  -5.455  0.00  0.00     0.119 C 
BRANCH  10  11
ATOM     11  C   UNL d   1      -1.657   0.624  -6.418  0.00  0.00     0.178 C 
BRANCH  11  12
ATOM     12  O   UNL d   1      -1.080  -0.299  -7.350  0.00  0.00    -0.400 OA
ATOM     13  H   UNL d   1      -0.558   0.227  -7.979  0.00  0.00     0.209 HD
ENDBRANCH  11  12
ENDBRANCH  10  11
ENDBRANCH   8  10
ENDBRANCH   4   8
BRANCH   1  14
ATOM     14  N   UNL d   1       0.887   0.020  -0.056  0.00  0.00    -0.114 N 
ATOM     15  O   UNL d   1       0.491   1.022   0.559  0.00  0.00    -0.532 OA
ATOM     16  O   UNL d   1       1.812  -0.714   0.320  0.00  0.00    -0.532 OA
ENDBRANCH   1  14
TORSDOF 5
