REMARK  3 active torsions:
REMARK  status: ('A' for Active; 'I' for Inactive)
REMARK       I    between atoms: N_4  and  C_1 
REMARK       I    between atoms: N_10  and  C_1 
REMARK    1  A    between atoms: C_2  and  C_7 
REMARK    2  A    between atoms: C_3  and  C_6 
REMARK       I    between atoms: C_5  and  N_4 
REMARK       I    between atoms: N_23  and  C_5 
REMARK    3  A    between atoms: C_9  and  N_10 
ROOT
ATOM      1  C   UNL d   1       1.170   0.081  -0.160  0.00  0.00     0.678 C 
ATOM      2  N   UNL d   1       2.447  -0.051  -0.641  0.00  0.00    -0.167 N 
ATOM      3  C   UNL d   1       3.441   0.828  -0.921  0.00  0.00     0.163 C 
ATOM      4  N   UNL d   1       0.365  -0.973  -0.526  0.00  0.00    -0.192 N 
ATOM      5  N   UNL d   1       0.767   1.073   0.560  0.00  0.00    -0.234 N 
ATOM      6  HN  UNL d   1      -0.195   1.228   0.860  1.00  0.00     0.174 HD
ATOM      7  N   UNL d   1       3.414   2.111  -0.907  0.00  0.00    -0.376 N 
ATOM      8  HN  UNL d   1       4.215   2.715  -1.088  1.00  0.00     0.158 HD
ATOM      9  N   UNL d   1       4.582   0.222  -1.321  0.00  0.00    -0.274 NA
ATOM     10  H   UNL d   1       2.600  -0.917  -1.135  0.00  0.00     0.187 HD
ATOM     11  H   UNL d   1       0.769  -1.895  -0.455  0.00  0.00     0.184 HD
ATOM     12  H   UNL d   1       1.558   1.679   0.784  0.00  0.00     0.174 HD
ATOM     13  H   UNL d   1       2.469   2.437  -0.687  0.00  0.00     0.158 HD
ATOM     14  H   UNL d   1       4.946  -0.454  -0.658  0.00  0.00     0.127 HD
ATOM     15  H   UNL d   1       5.287   0.939  -1.488  0.00  0.00     0.127 HD
ENDROOT
BRANCH   4  16
ATOM     16  C   UNL d   1      -1.044  -0.965  -0.486  0.00  0.00     0.050 A 
ATOM     17  C   UNL d   1      -1.782   0.168  -0.852  0.00  0.00     0.046 A 
ATOM     18  C   UNL d   1      -3.184   0.183  -0.799  0.00  0.00     0.050 A 
ATOM     19  C   UNL d   1      -3.856  -0.962  -0.350  0.00  0.00     0.032 A 
ATOM     20  C   UNL d   1      -3.144  -2.102   0.051  0.00  0.00     0.050 A 
ATOM     21  C   UNL d   1      -1.740  -2.095  -0.036  0.00  0.00     0.046 A 
BRANCH  18  22
ATOM     22  C   UNL d   1      -3.931   1.428  -1.209  0.00  0.00     0.417 C 
ATOM     23  F   UNL d   1      -5.283   1.312  -1.077  0.00  0.00    -0.166 F 
ATOM     24  F   UNL d   1      -3.579   2.521  -0.477  0.00  0.00    -0.166 F 
ATOM     25  F   UNL d   1      -3.714   1.760  -2.511  0.00  0.00    -0.166 F 
ENDBRANCH  18  22
BRANCH  20  26
ATOM     26  C   UNL d   1      -3.857  -3.314   0.602  0.00  0.00     0.417 C 
ATOM     27  F   UNL d   1      -5.208  -3.163   0.679  0.00  0.00    -0.166 F 
ATOM     28  F   UNL d   1      -3.646  -4.427  -0.154  0.00  0.00    -0.166 F 
ATOM     29  F   UNL d   1      -3.443  -3.631   1.859  0.00  0.00    -0.166 F 
ENDBRANCH  20  26
ENDBRANCH   4  16
TORSDOF 3
