REMARK  2 active torsions:
REMARK  status: ('A' for Active; 'I' for Inactive)
REMARK    1  A    between atoms: C_10  and  N_1 
REMARK    2  A    between atoms: S_9  and  C_2 
ROOT
ATOM      1  N   UNL d   1       2.429  -0.527  -0.086  0.00  0.00    -0.294 N 
ATOM      2  C   UNL d   1       2.287   0.849   0.023  0.00  0.00     0.147 A 
ATOM      3  C   UNL d   1       1.301  -1.348   0.010  0.00  0.00     0.262 A 
ATOM      4  N   UNL d   1       1.149   1.458   0.095  0.00  0.00    -0.336 N 
ATOM      5  HN  UNL d   1       1.109   2.474   0.183  1.00  0.00     0.168 HD
ATOM      6  C   UNL d   1      -0.010  -0.682   0.038  0.00  0.00     0.059 A 
ATOM      7  C   UNL d   1      -0.025   0.705   0.051  0.00  0.00     0.049 A 
ATOM      8  O   UNL d   1       1.346  -2.576   0.060  0.00  0.00    -0.267 OA
ATOM      9  C   UNL d   1      -1.201  -1.421   0.011  0.00  0.00     0.019 A 
ATOM     10  C   UNL d   1      -1.255   1.365   0.021  0.00  0.00     0.030 A 
ATOM     11  C   UNL d   1      -2.424  -0.753  -0.019  0.00  0.00     0.001 A 
ATOM     12  C   UNL d   1      -2.450   0.640  -0.022  0.00  0.00     0.002 A 
ENDROOT
BRANCH   1  13
ATOM     13  C   UNL d   1       3.696  -1.240  -0.274  0.00  0.00     0.130 C 
ATOM     14  C   UNL d   1       4.359  -1.618   1.042  0.00  0.00     0.027 C 
ENDBRANCH   1  13
BRANCH   2  15
ATOM     15  S   UNL d   1       3.681   1.911   0.086  0.00  0.00    -0.107 SA
ATOM     16  H   UNL d   1       4.677   1.047  -0.085  0.00  0.00     0.110 HD
ENDBRANCH   2  15
TORSDOF 2
