REMARK  6 active torsions:
REMARK  status: ('A' for Active; 'I' for Inactive)
REMARK    1  A    between atoms: N_2  and  C_1 
REMARK    2  A    between atoms: N_3  and  C_1 
REMARK    3  A    between atoms: C_4  and  N_2 
REMARK    4  A    between atoms: C_8  and  N_3 
REMARK    5  A    between atoms: C_10  and  C_8 
REMARK    6  A    between atoms: O_9  and  C_10 
ROOT
ATOM      1  N   UNL d   1       0.128  -0.148   0.772  0.00  0.00    -0.357 N 
ATOM      2  H   UNL d   1       0.473  -0.961   0.281  0.00  0.00     0.162 HD
ENDROOT
BRANCH   1   3
ATOM      3  C   UNL d   1       1.132   0.692   1.168  0.00  0.00     0.168 C 
ATOM      4  S   UNL d   1       1.087   1.866   2.349  0.00  0.00    -0.041 SA
BRANCH   3   5
ATOM      5  N   UNL d   1       2.297   0.553   0.455  0.00  0.00    -0.363 N 
ATOM      6  H   UNL d   1       3.019   1.215   0.728  0.00  0.00     0.162 HD
BRANCH   5   7
ATOM      7  C   UNL d   1       2.412  -0.032  -0.847  0.00  0.00     0.084 A 
ATOM      8  C   UNL d   1       2.768  -1.480  -1.030  0.00  0.00     0.027 A 
ATOM      9  C   UNL d   1       3.762  -0.414  -1.387  0.00  0.00     0.027 A 
ENDBRANCH   5   7
ENDBRANCH   3   5
ENDBRANCH   1   3
BRANCH   1  10
ATOM     10  C   UNL d   1      -1.321  -0.190   1.103  0.00  0.00     0.046 C 
ATOM     11  C   UNL d   1      -1.937  -1.327   0.255  0.00  0.00     0.040 C 
ATOM     12  C   UNL d   1      -1.568  -0.538   2.580  0.00  0.00     0.040 C 
BRANCH  10  13
ATOM     13  C   UNL d   1      -2.017   1.145   0.724  0.00  0.00     0.194 C 
BRANCH  13  14
ATOM     14  O   UNL d   1      -3.435   1.065   0.854  0.00  0.00    -0.398 OA
ATOM     15  H   UNL d   1      -3.778   1.964   0.705  0.00  0.00     0.209 HD
ENDBRANCH  13  14
ENDBRANCH  10  13
ENDBRANCH   1  10
TORSDOF 6
