REMARK  4 active torsions:
REMARK  status: ('A' for Active; 'I' for Inactive)
REMARK    1  A    between atoms: C_6  and  S_1 
REMARK    2  A    between atoms: C_10  and  S_1 
REMARK    3  A    between atoms: C_4  and  C_6 
REMARK    4  A    between atoms: C_9  and  C_5 
ROOT
ATOM      1  N   UNL d   1       0.083   2.878   2.055  0.00  0.00    -0.352 N 
ATOM      2  HN  UNL d   1      -0.935   2.805   2.045  1.00  0.00     0.166 HD
ATOM      3  C   UNL d   1       0.889   2.313   1.174  0.00  0.00     0.065 A 
ATOM      4  C   UNL d   1       0.818   3.586   2.997  0.00  0.00     0.049 A 
ATOM      5  S   UNL d   1       2.562   2.661   1.401  0.00  0.00    -0.085 SA
ATOM      6  C   UNL d   1       2.187   3.526   2.823  0.00  0.00     0.081 A 
ENDROOT
BRANCH   3   7
ATOM      7  C   UNL d   1       0.417   1.574  -0.035  0.00  0.00     0.206 C 
BRANCH   7   8
ATOM      8  S   UNL d   1       0.983  -0.125   0.019  0.00  0.00     0.157 S 
ATOM      9  O   UNL d   1       0.316  -0.793   1.122  0.00  0.00    -0.227 OA
ATOM     10  O   UNL d   1       2.434  -0.136  -0.063  0.00  0.00    -0.227 OA
BRANCH   8  11
ATOM     11  C   UNL d   1       0.379  -0.891  -1.530  0.00  0.00     0.053 C 
ATOM     12  C   UNL d   1       0.950  -0.152  -2.749  0.00  0.00     0.031 C 
ATOM     13  C   UNL d   1       0.870  -2.350  -1.562  0.00  0.00     0.031 C 
ATOM     14  C   UNL d   1      -1.153  -0.877  -1.579  0.00  0.00     0.031 C 
ENDBRANCH   8  11
ENDBRANCH   7   8
ENDBRANCH   3   7
BRANCH   4  15
ATOM     15  C   UNL d   1       0.179   4.328   4.077  0.00  0.00    -0.006 A 
ATOM     16  C   UNL d   1       0.766   5.490   4.601  0.00  0.00     0.059 A 
ATOM     17  C   UNL d   1       0.144   6.179   5.637  0.00  0.00     0.155 A 
ATOM     18  F   UNL d   1       0.721   7.286   6.125  0.00  0.00    -0.203 F 
ATOM     19  C   UNL d   1      -1.063   5.730   6.160  0.00  0.00     0.154 A 
ATOM     20  C   UNL d   1      -1.666   4.589   5.646  0.00  0.00     0.046 A 
ATOM     21  F   UNL d   1      -1.654   6.398   7.160  0.00  0.00    -0.203 F 
ATOM     22  C   UNL d   1      -1.047   3.890   4.601  0.00  0.00     0.017 A 
ENDBRANCH   4  15
TORSDOF 4
