REMARK  5 active torsions:
REMARK  status: ('A' for Active; 'I' for Inactive)
REMARK    1  A    between atoms: C_11  and  N_3 
REMARK    2  A    between atoms: C_7  and  C_4 
REMARK    3  A    between atoms: C_12  and  C_5 
REMARK    4  A    between atoms: O_15  and  C_8 
REMARK    5  A    between atoms: O_16  and  C_13 
ROOT
ATOM      1  N   UNL d   1       1.142  -0.263  -0.049  0.00  0.00    -0.301 N 
ATOM      2  HN  UNL d   1       2.143  -0.441   0.035  1.00  0.00     0.187 HD
ATOM      3  N   UNL d   1       0.156  -1.205  -0.089  0.00  0.00    -0.283 N 
ATOM      4  C   UNL d   1       0.577   0.900  -0.136  0.00  0.00     0.041 A 
ATOM      5  C   UNL d   1      -1.189  -0.637  -0.186  0.00  0.00     0.147 A 
ATOM      6  C   UNL d   1      -0.918   0.860  -0.336  0.00  0.00     0.091 A 
ENDROOT
BRANCH   4   7
ATOM      7  C   UNL d   1       1.308   2.189  -0.084  0.00  0.00     0.021 A 
ATOM      8  C   UNL d   1       2.500   2.398   0.632  0.00  0.00     0.083 A 
ATOM      9  C   UNL d   1       3.152   3.644   0.551  0.00  0.00     0.074 A 
ATOM     10  C   UNL d   1       2.636   4.681  -0.226  0.00  0.00     0.070 A 
ATOM     11  C   UNL d   1       1.458   4.468  -0.936  0.00  0.00     0.038 A 
ATOM     12  C   UNL d   1       0.798   3.240  -0.863  0.00  0.00     0.019 A 
BRANCH   8  13
ATOM     13  O   UNL d   1       3.200   1.470   1.359  0.00  0.00    -0.355 OA
ATOM     14  C   UNL d   1       2.482   0.808   2.395  0.00  0.00     0.210 C 
ENDBRANCH   8  13
BRANCH  10  15
ATOM     15  O   UNL d   1       3.179   5.924  -0.393  0.00  0.00    -0.356 OA
ATOM     16  C   UNL d   1       4.379   6.207   0.315  0.00  0.00     0.210 C 
ENDBRANCH  10  15
ENDBRANCH   4   7
BRANCH   3  17
ATOM     17  C   UNL d   1       0.470  -2.563  -0.053  0.00  0.00     0.051 A 
ATOM     18  C   UNL d   1       1.785  -2.990   0.207  0.00  0.00     0.031 A 
ATOM     19  C   UNL d   1       2.122  -4.345   0.285  0.00  0.00     0.002 A 
ATOM     20  C   UNL d   1       1.146  -5.315   0.090  0.00  0.00     0.000 A 
ATOM     21  C   UNL d   1      -0.161  -4.926  -0.184  0.00  0.00     0.002 A 
ATOM     22  C   UNL d   1      -0.491  -3.567  -0.254  0.00  0.00     0.031 A 
ENDBRANCH   3  17
BRANCH   5  23
ATOM     23  C   UNL d   1      -2.079  -0.919   1.016  0.00  0.00    -0.033 A 
ATOM     24  C   UNL d   1      -1.562  -1.007   2.321  0.00  0.00     0.009 A 
ATOM     25  C   UNL d   1      -2.403  -1.273   3.404  0.00  0.00     0.001 A 
ATOM     26  C   UNL d   1      -3.771  -1.444   3.201  0.00  0.00     0.000 A 
ATOM     27  C   UNL d   1      -4.300  -1.347   1.917  0.00  0.00     0.001 A 
ATOM     28  C   UNL d   1      -3.459  -1.081   0.832  0.00  0.00     0.009 A 
ENDBRANCH   5  23
TORSDOF 5
