REMARK  2 active torsions:
REMARK  status: ('A' for Active; 'I' for Inactive)
REMARK    1  A    between atoms: O_9  and  N_3 
REMARK    2  A    between atoms: O_10  and  N_4 
ROOT
ATOM      1  C   UNL d   1      -2.502   0.764  -0.159  0.00  0.00     0.337 C 
ATOM      2  C   UNL d   1      -2.499  -0.753   0.147  0.00  0.00     0.337 C 
ATOM      3  N   UNL d   1      -1.259   1.342  -0.429  0.00  0.00    -0.213 N 
ATOM      4  N   UNL d   1      -1.251  -1.323   0.410  0.00  0.00    -0.213 N 
ATOM      5  C   UNL d   1      -0.037   0.768   0.140  0.00  0.00     0.143 C 
ATOM      6  C   UNL d   1      -0.035  -0.744  -0.162  0.00  0.00     0.143 C 
ATOM      7  O   UNL d   1      -3.541   1.417  -0.150  0.00  0.00    -0.260 OA
ATOM      8  O   UNL d   1      -3.534  -1.409   0.137  0.00  0.00    -0.260 OA
ATOM      9  C   UNL d   1       1.235   1.446  -0.378  0.00  0.00     0.030 C 
ATOM     10  C   UNL d   1       1.243  -1.416   0.354  0.00  0.00     0.030 C 
ATOM     11  C   UNL d   1       2.492   0.761   0.151  0.00  0.00     0.002 C 
ATOM     12  C   UNL d   1       2.495  -0.726  -0.179  0.00  0.00     0.002 C 
ENDROOT
BRANCH   3  13
ATOM     13  O   UNL d   1      -1.290   2.762  -0.334  0.00  0.00    -0.284 OA
ATOM     14  H   UNL d   1      -2.253   2.959  -0.321  0.00  0.00     0.245 HD
ENDBRANCH   3  13
BRANCH   4  15
ATOM     15  O   UNL d   1      -1.276  -2.744   0.317  0.00  0.00    -0.284 OA
ATOM     16  H   UNL d   1      -2.238  -2.945   0.308  0.00  0.00     0.245 HD
ENDBRANCH   4  15
TORSDOF 2
