REMARK  2 active torsions:
REMARK  status: ('A' for Active; 'I' for Inactive)
REMARK    1  A    between atoms: C_9  and  N_1 
REMARK    2  A    between atoms: C_3  and  C_4 
ROOT
ATOM      1  N   UNL d   1       0.790   0.095  -0.374  0.00  0.00    -0.359 N 
ATOM      2  HN  UNL d   1       1.773   0.102  -0.646  1.00  0.00     0.166 HD
ATOM      3  C   UNL d   1       0.218   1.236  -0.110  0.00  0.00     0.022 C 
ATOM      4  C   UNL d   1      -1.257   1.393   0.200  0.00  0.00     0.069 C 
ENDROOT
BRANCH   1   5
ATOM      5  C   UNL d   1       0.135  -1.142  -0.307  0.00  0.00     0.032 A 
ATOM      6  C   UNL d   1      -0.977  -1.478  -1.085  0.00  0.00     0.029 A 
ATOM      7  C   UNL d   1      -1.544  -2.752  -1.003  0.00  0.00     0.002 A 
ATOM      8  C   UNL d   1      -0.978  -3.722  -0.177  0.00  0.00     0.000 A 
ATOM      9  C   UNL d   1       0.157  -3.414   0.570  0.00  0.00     0.002 A 
ATOM     10  C   UNL d   1       0.704  -2.132   0.503  0.00  0.00     0.029 A 
ENDBRANCH   1   5
BRANCH   3  11
ATOM     11  C   UNL d   1       1.101   2.405  -0.145  0.00  0.00     0.027 A 
ATOM     12  S   UNL d   1       0.676   3.907   0.564  0.00  0.00    -0.100 SA
ATOM     13  C   UNL d   1       2.183   4.610   0.177  0.00  0.00     0.050 A 
ATOM     14  C   UNL d   1       3.004   3.732  -0.490  0.00  0.00     0.008 A 
ATOM     15  C   UNL d   1       2.382   2.464  -0.671  0.00  0.00     0.021 A 
ENDBRANCH   3  11
TORSDOF 2
