REMARK  6 active torsions:
REMARK  status: ('A' for Active; 'I' for Inactive)
REMARK    1  A    between atoms: C_5  and  C_3 
REMARK    2  A    between atoms: C_13  and  C_4 
REMARK    3  A    between atoms: N_8  and  C_12 
REMARK    4  A    between atoms: O_15  and  C_11 
REMARK    5  A    between atoms: C_21  and  O_15 
REMARK    6  A    between atoms: O_27  and  C_22 
ROOT
ATOM      1  C   UNL d   1       1.127  -2.309   0.096  0.00  0.00     0.053 A 
ATOM      2  C   UNL d   1       1.936  -2.732   1.173  0.00  0.00     0.054 A 
ATOM      3  C   UNL d   1       0.795  -3.248  -0.898  0.00  0.00     0.090 A 
ATOM      4  C   UNL d   1       2.368  -4.058   1.273  0.00  0.00     0.104 A 
ATOM      5  C   UNL d   1       1.164  -4.600  -0.739  0.00  0.00     0.041 A 
ATOM      6  C   UNL d   1       1.970  -5.003   0.326  0.00  0.00     0.039 A 
ENDROOT
BRANCH   1   7
ATOM      7  C   UNL d   1       0.714  -0.912   0.084  0.00  0.00     0.185 A 
ATOM      8  N   UNL d   1       1.292   0.116   0.658  0.00  0.00    -0.317 N 
ATOM      9  C   UNL d   1       0.400   1.148   0.437  0.00  0.00     0.154 A 
ATOM     10  HN  UNL d   1       2.186   0.146   1.150  1.00  0.00     0.169 HD
ATOM     11  N   UNL d   1      -0.707   0.763  -0.225  0.00  0.00    -0.241 N 
ATOM     12  O   UNL d   1      -0.499  -0.601  -0.461  0.00  0.00    -0.217 OA
ATOM     13  HN  UNL d   1      -1.510   1.332  -0.492  1.00  0.00     0.196 HD
BRANCH   9  14
ATOM     14  C   UNL d   1       0.660   2.521   0.895  0.00  0.00     0.078 A 
ATOM     15  N   UNL d   1       1.875   2.755   1.460  0.00  0.00    -0.363 N 
ATOM     16  C   UNL d   1       2.147   4.014   1.870  0.00  0.00     0.088 A 
ATOM     17  HN  UNL d   1       2.558   2.005   1.570  1.00  0.00     0.165 HD
ATOM     18  C   UNL d   1       1.261   5.068   1.748  0.00  0.00     0.017 A 
ATOM     19  C   UNL d   1       0.020   4.821   1.176  0.00  0.00     0.004 A 
ATOM     20  C   UNL d   1      -0.290   3.532   0.742  0.00  0.00     0.033 A 
ENDBRANCH   9  14
ENDBRANCH   1   7
BRANCH   3  21
ATOM     21  O   UNL d   1       0.119  -2.832  -2.036  0.00  0.00    -0.310 OA
BRANCH  21  22
ATOM     22  C   UNL d   1       0.471  -3.427  -3.236  0.00  0.00     0.076 A 
ATOM     23  C   UNL d   1      -0.559  -3.799  -4.101  0.00  0.00     0.040 A 
ATOM     24  C   UNL d   1      -0.265  -4.495  -5.283  0.00  0.00     0.039 A 
ATOM     25  C   UNL d   1       1.056  -4.815  -5.597  0.00  0.00     0.068 A 
ATOM     26  C   UNL d   1       2.088  -4.373  -4.767  0.00  0.00     0.039 A 
ATOM     27  C   UNL d   1       1.799  -3.667  -3.598  0.00  0.00     0.040 A 
BRANCH  25  28
ATOM     28  O   UNL d   1       1.467  -5.503  -6.705  0.00  0.00    -0.356 OA
ATOM     29  C   UNL d   1       0.544  -6.459  -7.222  0.00  0.00     0.210 C 
ENDBRANCH  25  28
ENDBRANCH  21  22
ENDBRANCH   3  21
BRANCH   4  30
ATOM     30  N   UNL d   1       3.244  -4.468   2.379  0.00  0.00    -0.116 N 
ATOM     31  O   UNL d   1       3.498  -3.629   3.251  0.00  0.00    -0.532 OA
ATOM     32  O   UNL d   1       3.680  -5.628   2.366  0.00  0.00    -0.532 OA
ENDBRANCH   4  30
TORSDOF 6
