REMARK  10 active torsions:
REMARK  status: ('A' for Active; 'I' for Inactive)
REMARK    1  A    between atoms: N_5  and  C_1 
REMARK    2  A    between atoms: N_6  and  C_1 
REMARK    3  A    between atoms: N_2  and  N_5 
REMARK    4  A    between atoms: C_17  and  N_6 
REMARK    5  A    between atoms: C_8  and  C_7 
REMARK    6  A    between atoms: O_15  and  C_9 
REMARK    7  A    between atoms: C_14  and  C_17 
REMARK    8  A    between atoms: C_18  and  C_14 
REMARK    9  A    between atoms: C_19  and  O_15 
REMARK   10  A    between atoms: O_16  and  C_18 
ROOT
ATOM      1  N   UNL d   1      -1.110   1.098  -0.416  0.00  0.00    -0.309 N 
ATOM      2  HN  UNL d   1      -1.631   0.372   0.075  1.00  0.00     0.186 HD
ATOM      3  C   UNL d   1      -1.702   2.111  -0.966  0.00  0.00     0.118 C 
ENDROOT
BRANCH   1   4
ATOM      4  N   UNL d   1       0.248   1.058  -0.530  0.00  0.00    -0.277 N 
ATOM      5  H   UNL d   1       0.755   1.790  -1.018  0.00  0.00     0.189 HD
BRANCH   4   6
ATOM      6  C   UNL d   1       0.975   0.123   0.186  0.00  0.00     0.186 C 
ATOM      7  S   UNL d   1       2.637   0.182   0.195  0.00  0.00    -0.040 SA
BRANCH   6   8
ATOM      8  N   UNL d   1       0.173  -0.773   0.845  0.00  0.00    -0.366 N 
ATOM      9  H   UNL d   1      -0.805  -0.580   0.645  0.00  0.00     0.161 HD
BRANCH   8  10
ATOM     10  C   UNL d   1       0.500  -1.578   2.010  0.00  0.00     0.124 C 
BRANCH  10  11
ATOM     11  C   UNL d   1       0.207  -0.834   3.313  0.00  0.00     0.046 C 
BRANCH  11  12
ATOM     12  C   UNL d   1      -1.280  -0.545   3.492  0.00  0.00     0.168 C 
BRANCH  12  13
ATOM     13  O   UNL d   1      -1.482   0.080   4.759  0.00  0.00    -0.396 OA
ATOM     14  C   UNL d   1      -2.852   0.403   4.968  0.00  0.00     0.201 C 
ENDBRANCH  12  13
ENDBRANCH  11  12
ENDBRANCH  10  11
ENDBRANCH   8  10
ENDBRANCH   6   8
ENDBRANCH   4   6
ENDBRANCH   1   4
BRANCH   3  15
ATOM     15  C   UNL d   1      -3.172   2.244  -0.884  0.00  0.00    -0.019 A 
ATOM     16  C   UNL d   1      -3.913   1.291  -0.180  0.00  0.00     0.015 A 
ATOM     17  C   UNL d   1      -5.303   1.386  -0.118  0.00  0.00     0.037 A 
ATOM     18  C   UNL d   1      -5.963   2.432  -0.762  0.00  0.00     0.068 A 
ATOM     19  C   UNL d   1      -5.215   3.405  -1.435  0.00  0.00     0.037 A 
ATOM     20  C   UNL d   1      -3.819   3.312  -1.506  0.00  0.00     0.015 A 
BRANCH  18  21
ATOM     21  O   UNL d   1      -7.318   2.619  -0.760  0.00  0.00    -0.352 OA
BRANCH  21  22
ATOM     22  C   UNL d   1      -8.103   1.430  -0.633  0.00  0.00     0.171 C 
ATOM     23  C   UNL d   1      -9.570   1.812  -0.712  0.00  0.00     0.034 C 
ENDBRANCH  21  22
ENDBRANCH  18  21
ENDBRANCH   3  15
TORSDOF 10
