REMARK  7 active torsions:
REMARK  status: ('A' for Active; 'I' for Inactive)
REMARK    1  A    between atoms: C_9  and  C_3 
REMARK    2  A    between atoms: C_11  and  C_4 
REMARK    3  A    between atoms: C_10  and  C_20 
REMARK    4  A    between atoms: O_19  and  C_10 
REMARK    5  A    between atoms: C_21  and  C_11 
REMARK    6  A    between atoms: S_18  and  C_21 
REMARK    7  A    between atoms: C_20  and  S_18 
ROOT
ATOM      1  N   UNL d   1       6.781   4.989   0.214  0.00  0.00    -0.191 NA
ATOM      2  C   UNL d   1       5.867   4.275   0.158  0.00  0.00     0.099 C 
ATOM      3  C   UNL d   1       2.498   1.697  -0.025  0.00  0.00    -0.009 A 
ATOM      4  C   UNL d   1       2.438   2.991  -0.565  0.00  0.00     0.015 A 
ATOM      5  C   UNL d   1       3.698   1.261   0.555  0.00  0.00     0.015 A 
ATOM      6  C   UNL d   1       4.734   3.401   0.088  0.00  0.00     0.044 A 
ATOM      7  C   UNL d   1       4.809   2.108   0.616  0.00  0.00     0.023 A 
ATOM      8  C   UNL d   1       3.549   3.839  -0.507  0.00  0.00     0.023 A 
ENDROOT
BRANCH   3   9
ATOM      9  C   UNL d   1       1.340   0.813  -0.042  0.00  0.00     0.049 A 
ATOM     10  N   UNL d   1       1.482  -0.566  -0.079  0.00  0.00    -0.353 N 
ATOM     11  C   UNL d   1       0.299  -1.145  -0.049  0.00  0.00     0.051 A 
ATOM     12  HN  UNL d   1       2.373  -1.060  -0.123  1.00  0.00     0.166 HD
ATOM     13  S   UNL d   1      -1.042  -0.071   0.057  0.00  0.00    -0.086 SA
ATOM     14  C   UNL d   1       0.034   1.258   0.022  0.00  0.00     0.081 A 
BRANCH  11  15
ATOM     15  C   UNL d   1       0.093  -2.631  -0.028  0.00  0.00     0.075 C 
BRANCH  15  16
ATOM     16  C   UNL d   1      -0.740  -3.132  -1.208  0.00  0.00     0.081 C 
BRANCH  16  17
ATOM     17  S   UNL d   1      -0.958  -4.944  -1.067  0.00  0.00    -0.159 SA
BRANCH  17  18
ATOM     18  C   UNL d   1      -1.977  -5.261  -2.540  0.00  0.00     0.184 C 
BRANCH  18  19
ATOM     19  C   UNL d   1      -3.296  -4.531  -2.485  0.00  0.00     0.267 C 
ATOM     20  O   UNL d   1      -3.476  -3.408  -2.942  0.00  0.00    -0.264 OA
BRANCH  19  21
ATOM     21  O   UNL d   1      -4.241  -5.269  -1.837  0.00  0.00    -0.326 OA
ATOM     22  C   UNL d   1      -5.503  -4.612  -1.717  0.00  0.00     0.213 C 
ENDBRANCH  19  21
ENDBRANCH  18  19
ENDBRANCH  17  18
ENDBRANCH  16  17
ENDBRANCH  15  16
ENDBRANCH  11  15
ENDBRANCH   3   9
TORSDOF 7
