REMARK  3 active torsions:
REMARK  status: ('A' for Active; 'I' for Inactive)
REMARK    1  A    between atoms: C_4  and  C_1 
REMARK    2  A    between atoms: C_5  and  C_1 
REMARK    3  A    between atoms: C_8  and  N_2 
ROOT
ATOM      1  C   UNL d   1       1.115  -0.040  -0.178  0.00  0.00     0.053 C 
ATOM      2  N   UNL d   1       0.473  -1.172  -0.126  0.00  0.00    -0.355 N 
ATOM      3  HN  UNL d   1      -0.543  -1.131  -0.206  1.00  0.00     0.166 HD
ENDROOT
BRANCH   1   4
ATOM      4  C   UNL d   1       0.257   1.202  -0.123  0.00  0.00    -0.009 A 
ATOM      5  C   UNL d   1      -0.885   1.153   0.698  0.00  0.00     0.015 A 
ATOM      6  C   UNL d   1      -1.714   2.268   0.846  0.00  0.00     0.024 A 
ATOM      7  C   UNL d   1      -1.416   3.444   0.169  0.00  0.00     0.034 A 
ATOM      8  C   UNL d   1      -0.299   3.508  -0.662  0.00  0.00     0.024 A 
ATOM      9 CL   UNL d   1      -2.424   4.824   0.355  0.00  0.00    -0.084 Cl
ATOM     10  C   UNL d   1       0.538   2.394  -0.802  0.00  0.00     0.015 A 
ENDBRANCH   1   4
BRANCH   1  11
ATOM     11  C   UNL d   1       2.600   0.124  -0.129  0.00  0.00    -0.009 A 
ATOM     12  C   UNL d   1       3.297   0.735  -1.178  0.00  0.00     0.014 A 
ATOM     13  C   UNL d   1       4.676   0.936  -1.085  0.00  0.00     0.001 A 
ATOM     14  C   UNL d   1       5.374   0.466   0.025  0.00  0.00     0.000 A 
ATOM     15  C   UNL d   1       4.696  -0.202   1.045  0.00  0.00     0.001 A 
ATOM     16  C   UNL d   1       3.309  -0.358   0.978  0.00  0.00     0.014 A 
ENDBRANCH   1  11
BRANCH   2  17
ATOM     17  C   UNL d   1       1.046  -2.438   0.028  0.00  0.00     0.032 A 
ATOM     18  C   UNL d   1       0.477  -3.275   0.995  0.00  0.00     0.029 A 
ATOM     19  C   UNL d   1       0.979  -4.554   1.238  0.00  0.00     0.002 A 
ATOM     20  C   UNL d   1       2.068  -5.016   0.505  0.00  0.00     0.000 A 
ATOM     21  C   UNL d   1       2.626  -4.210  -0.488  0.00  0.00     0.002 A 
ATOM     22  C   UNL d   1       2.102  -2.937  -0.742  0.00  0.00     0.029 A 
ENDBRANCH   2  17
TORSDOF 3
