REMARK  8 active torsions:
REMARK  status: ('A' for Active; 'I' for Inactive)
REMARK    1  A    between atoms: C_5  and  C_1 
REMARK    2  A    between atoms: N_13  and  C_4 
REMARK    3  A    between atoms: N_8  and  C_24 
REMARK    4  A    between atoms: C_26  and  N_13 
REMARK    5  A    between atoms: O_14  and  C_17 
REMARK    6  A    between atoms: C_25  and  O_14 
REMARK    7  A    between atoms: C_19  and  C_16 
REMARK    8  A    between atoms: C_24  and  C_26 
ROOT
ATOM      1  C   UNL d   1      -3.248  -4.152  -2.327  0.00  0.00     0.157 C 
ENDROOT
BRANCH   1   2
ATOM      2  C   UNL d   1      -3.703  -4.209  -3.792  0.00  0.00     0.139 C 
BRANCH   2   3
ATOM      3  N   UNL d   1      -4.044  -5.603  -4.121  0.00  0.00    -0.397 N 
ATOM      4  C   UNL d   1      -4.970  -5.735  -5.007  0.00  0.00     0.094 C 
ATOM      5  HN  UNL d   1      -3.584  -6.400  -3.682  1.00  0.00     0.158 HD
BRANCH   4   6
ATOM      6  C   UNL d   1      -5.461  -7.063  -5.430  0.00  0.00    -0.021 A 
ATOM      7  C   UNL d   1      -4.953  -8.234  -4.864  0.00  0.00     0.015 A 
ATOM      8  C   UNL d   1      -5.414  -9.476  -5.314  0.00  0.00     0.037 A 
ATOM      9  C   UNL d   1      -6.393  -9.558  -6.308  0.00  0.00     0.069 A 
ATOM     10  C   UNL d   1      -6.915  -8.383  -6.849  0.00  0.00     0.037 A 
ATOM     11  C   UNL d   1      -6.446  -7.135  -6.418  0.00  0.00     0.015 A 
BRANCH   9  12
ATOM     12  O   UNL d   1      -6.703 -10.826  -6.711  0.00  0.00    -0.347 OA
BRANCH  12  13
ATOM     13  C   UNL d   1      -8.004 -11.068  -7.260  0.00  0.00     0.120 C 
ATOM     14  C   UNL d   1      -7.978 -10.969  -8.785  0.00  0.00     0.040 C 
ATOM     15  C   UNL d   1      -8.380 -12.496  -6.859  0.00  0.00     0.040 C 
ENDBRANCH  12  13
ENDBRANCH   9  12
ENDBRANCH   4   6
ENDBRANCH   2   3
ENDBRANCH   1   2
BRANCH   1  16
ATOM     16  N   UNL d   1      -2.871  -2.821  -1.903  0.00  0.00    -0.224 N 
ATOM     17  H   UNL d   1      -2.026  -2.397  -2.262  0.00  0.00     0.177 HD
BRANCH  16  18
ATOM     18  C   UNL d   1      -3.808  -1.907  -1.504  0.00  0.00     0.678 A 
ATOM     19  N   UNL d   1      -3.352  -0.674  -1.248  0.00  0.00    -0.187 N 
ATOM     20  C   UNL d   1      -4.229   0.242  -0.758  0.00  0.00     0.133 A 
ATOM     21  HN  UNL d   1      -2.376  -0.430  -1.415  1.00  0.00     0.184 HD
ATOM     22  C   UNL d   1      -5.565  -0.058  -0.570  0.00  0.00     0.052 A 
ATOM     23  C   UNL d   1      -5.943  -1.334  -0.895  0.00  0.00     0.108 A 
ATOM     24  N   UNL d   1      -5.088  -2.264  -1.355  0.00  0.00    -0.202 N 
ATOM     25  HN  UNL d   1      -5.404  -3.207  -1.581  1.00  0.00     0.183 HD
BRANCH  20  26
ATOM     26  C   UNL d   1      -3.732   1.624  -0.378  0.00  0.00     0.433 C 
ATOM     27  F   UNL d   1      -2.400   1.828  -0.587  0.00  0.00    -0.165 F 
ATOM     28  F   UNL d   1      -3.948   1.908   0.941  0.00  0.00    -0.165 F 
ATOM     29  F   UNL d   1      -4.372   2.614  -1.069  0.00  0.00    -0.165 F 
ENDBRANCH  20  26
ENDBRANCH  16  18
ENDBRANCH   1  16
TORSDOF 8
