REMARK  3 active torsions:
REMARK  status: ('A' for Active; 'I' for Inactive)
REMARK    1  A    between atoms: C_2  and  C_1 
REMARK    2  A    between atoms: S_3  and  C_2 
REMARK    3  A    between atoms: C_6  and  S_3 
ROOT
ATOM      1  C   UNL d   1      -0.115   2.334   0.100  0.00  0.00     0.123 C 
ENDROOT
BRANCH   1   2
ATOM      2  C   UNL d   1      -0.324   0.845  -0.023  0.00  0.00     0.012 A 
ATOM      3  C   UNL d   1      -0.510   0.192  -1.251  0.00  0.00     0.044 A 
ATOM      4 CL   UNL d   1      -0.497   1.049  -2.753  0.00  0.00    -0.084 Cl
ATOM      5  C   UNL d   1      -0.709  -1.193  -1.305  0.00  0.00     0.024 A 
ATOM      6  C   UNL d   1      -0.732  -1.951  -0.134  0.00  0.00     0.005 A 
ATOM      7  C   UNL d   1      -0.560  -1.318   1.092  0.00  0.00     0.043 A 
ATOM      8  C   UNL d   1      -0.361   0.061   1.137  0.00  0.00     0.125 A 
ATOM      9  F   UNL d   1      -0.194   0.638   2.337  0.00  0.00    -0.205 F 
ENDBRANCH   1   2
BRANCH   1  10
ATOM     10  S   UNL d   1      -1.708   3.222   0.166  0.00  0.00    -0.124 SA
BRANCH  10  11
ATOM     11  C   UNL d   1      -1.272   4.968   0.272  0.00  0.00     0.018 A 
ATOM     12  C   UNL d   1      -2.285   5.950   0.354  0.00  0.00     0.027 A 
ATOM     13 BR   UNL d   1      -4.147   5.534   0.358  0.00  0.00    -0.050 Br
ATOM     14  C   UNL d   1      -1.967   7.314   0.438  0.00  0.00     0.020 A 
ATOM     15  C   UNL d   1      -0.638   7.727   0.440  0.00  0.00     0.001 A 
ATOM     16  C   UNL d   1       0.373   6.778   0.358  0.00  0.00     0.001 A 
ATOM     17  C   UNL d   1       0.060   5.414   0.276  0.00  0.00     0.020 A 
ENDBRANCH  10  11
ENDBRANCH   1  10
TORSDOF 3
