REMARK  4 active torsions:
REMARK  status: ('A' for Active; 'I' for Inactive)
REMARK    1  A    between atoms: C_2  and  S_1 
REMARK    2  A    between atoms: C_9  and  S_1 
REMARK    3  A    between atoms: C_3  and  N_11 
REMARK    4  A    between atoms: N_11  and  C_6 
ROOT
ATOM      1  C   UNL d   1       0.484  -1.469   0.585  0.00  0.00     0.159 C 
ATOM      2  C   UNL d   1      -0.183  -1.485   1.752  0.00  0.00     0.125 C 
ATOM      3  C   UNL d   1       0.916  -0.280  -0.038  0.00  0.00     0.113 C 
ATOM      4  N   UNL d   1       1.234   0.723  -0.529  0.00  0.00    -0.191 NA
ENDROOT
BRANCH   1   5
ATOM      5  S   UNL d   1       0.913  -2.974  -0.155  0.00  0.00     0.218 S 
ATOM      6  O   UNL d   1      -0.042  -4.008   0.204  0.00  0.00    -0.216 OA
ATOM      7  O   UNL d   1       2.334  -3.198   0.039  0.00  0.00    -0.216 OA
BRANCH   5   8
ATOM      8  C   UNL d   1       0.662  -2.706  -1.906  0.00  0.00     0.065 A 
ATOM      9  C   UNL d   1       1.738  -2.831  -2.792  0.00  0.00     0.025 A 
ATOM     10  C   UNL d   1       1.524  -2.663  -4.162  0.00  0.00     0.025 A 
ATOM     11  C   UNL d   1       0.244  -2.372  -4.635  0.00  0.00     0.034 A 
ATOM     12  C   UNL d   1      -0.829  -2.250  -3.751  0.00  0.00     0.025 A 
ATOM     13 CL   UNL d   1      -0.018  -2.180  -6.325  0.00  0.00    -0.084 Cl
ATOM     14  C   UNL d   1      -0.626  -2.424  -2.380  0.00  0.00     0.025 A 
ENDBRANCH   5   8
ENDBRANCH   1   5
BRANCH   2  15
ATOM     15  N   UNL d   1      -0.626  -0.421   2.516  0.00  0.00    -0.344 N 
ATOM     16  H   UNL d   1      -0.489   0.511   2.136  0.00  0.00     0.167 HD
BRANCH  15  17
ATOM     17  C   UNL d   1      -1.165  -0.491   3.759  0.00  0.00     0.148 A 
ATOM     18  N   UNL d   1      -1.294  -1.583   4.480  0.00  0.00    -0.346 N 
ATOM     19  C   UNL d   1      -1.844  -1.282   5.711  0.00  0.00     0.097 A 
ATOM     20  HN  UNL d   1      -1.025  -2.518   4.175  1.00  0.00     0.167 HD
ATOM     21  C   UNL d   1      -2.161   0.042   5.912  0.00  0.00     0.070 A 
ATOM     22  S   UNL d   1      -1.733   0.949   4.525  0.00  0.00    -0.064 SA
ENDBRANCH  15  17
ENDBRANCH   2  15
TORSDOF 4
