REMARK  4 active torsions:
REMARK  status: ('A' for Active; 'I' for Inactive)
REMARK    1  A    between atoms: C_2  and  C_1 
REMARK       I    between atoms: N_4  and  C_1 
REMARK    2  A    between atoms: C_18  and  N_4 
REMARK    3  A    between atoms: C_11  and  C_19 
REMARK    4  A    between atoms: C_19  and  C_18 
ROOT
ATOM      1  C   UNL d   1       1.004  -0.182   0.141  0.00  0.00     0.251 C 
ATOM      2  O   UNL d   1       0.345  -0.641  -0.782  0.00  0.00    -0.268 OA
ATOM      3  N   UNL d   1       2.385  -0.117   0.140  0.00  0.00    -0.357 N 
ATOM      4  H   UNL d   1       2.840   0.515   0.784  0.00  0.00     0.162 HD
ENDROOT
BRANCH   3   5
ATOM      5  C   UNL d   1       3.143  -0.635  -0.985  0.00  0.00     0.127 C 
BRANCH   5   6
ATOM      6  C   UNL d   1       4.654  -0.520  -0.776  0.00  0.00     0.058 C 
BRANCH   6   7
ATOM      7  C   UNL d   1       5.413  -1.095  -1.947  0.00  0.00    -0.057 A 
ATOM      8  C   UNL d   1       5.763  -0.283  -3.035  0.00  0.00     0.009 A 
ATOM      9  C   UNL d   1       6.392  -0.834  -4.154  0.00  0.00     0.024 A 
ATOM     10  C   UNL d   1       6.673  -2.198  -4.190  0.00  0.00     0.034 A 
ATOM     11  C   UNL d   1       6.344  -3.014  -3.110  0.00  0.00     0.024 A 
ATOM     12 CL   UNL d   1       7.417  -2.881  -5.583  0.00  0.00    -0.084 Cl
ATOM     13  C   UNL d   1       5.716  -2.463  -1.990  0.00  0.00     0.009 A 
ENDBRANCH   6   7
ENDBRANCH   5   6
ENDBRANCH   3   5
BRANCH   1  14
ATOM     14  C   UNL d   1       0.324   0.369   1.347  0.00  0.00     0.032 A 
ATOM     15  C   UNL d   1       0.941   0.336   2.607  0.00  0.00     0.020 A 
ATOM     16  C   UNL d   1       0.268   0.831   3.727  0.00  0.00     0.043 A 
ATOM     17  C   UNL d   1      -1.016   1.347   3.586  0.00  0.00     0.116 A 
ATOM     18  C   UNL d   1      -1.646   1.373   2.347  0.00  0.00     0.043 A 
ATOM     19  F   UNL d   1      -1.657   1.816   4.664  0.00  0.00    -0.206 F 
ATOM     20  C   UNL d   1      -0.977   0.876   1.224  0.00  0.00     0.020 A 
ENDBRANCH   1  14
TORSDOF 4
