REMARK  0 active torsions:
REMARK  status: ('A' for Active; 'I' for Inactive)
ROOT
ATOM      1  N   UNL d   1       0.724   0.468  -0.001  0.00  0.00    -0.109 N 
ATOM      2  C   UNL d   1       1.159  -0.857  -0.001  0.00  0.00     0.693 A 
ATOM      3  C   UNL d   1       1.577   1.534  -0.000  0.00  0.00     0.268 A 
ATOM      4  N   UNL d   1       2.404  -1.200   0.000  0.00  0.00    -0.195 N 
ATOM      5  HN  UNL d   1       2.691  -2.178   0.000  1.00  0.00     0.184 HD
ATOM      6  N   UNL d   1       0.061  -1.687  -0.001  0.00  0.00    -0.189 N 
ATOM      7  C   UNL d   1       3.001   1.132   0.000  0.00  0.00     0.100 A 
ATOM      8  C   UNL d   1      -0.682   0.465  -0.001  0.00  0.00     0.087 A 
ATOM      9  C   UNL d   1       3.324  -0.173   0.000  0.00  0.00     0.028 A 
ATOM     10  C   UNL d   1      -1.079  -0.888  -0.000  0.00  0.00     0.077 A 
ATOM     11  O   UNL d   1       1.278   2.724   0.000  0.00  0.00    -0.267 OA
ATOM     12  C   UNL d   1      -1.594   1.498  -0.000  0.00  0.00     0.033 A 
ATOM     13  C   UNL d   1      -2.409  -1.240  -0.000  0.00  0.00     0.032 A 
ATOM     14  C   UNL d   1       4.763  -0.606   0.001  0.00  0.00     0.069 C 
ATOM     15  C   UNL d   1      -2.948   1.149  -0.000  0.00  0.00     0.002 A 
ATOM     16  C   UNL d   1      -3.350  -0.204   0.000  0.00  0.00     0.002 A 
ATOM     17  H   UNL d   1       0.101  -2.689   0.001  0.00  0.00     0.184 HD
ENDROOT
TORSDOF 0
