REMARK  5 active torsions:
REMARK  status: ('A' for Active; 'I' for Inactive)
REMARK    1  A    between atoms: N_2  and  C_1 
REMARK    2  A    between atoms: N_11  and  C_1 
REMARK    3  A    between atoms: C_3  and  N_2 
REMARK    4  A    between atoms: N_4  and  N_11 
REMARK    5  A    between atoms: C_7  and  C_9 
ROOT
ATOM      1  C   UNL d   1       1.226  -0.051  -0.239  0.00  0.00     0.186 C 
ATOM      2  S   UNL d   1       2.858  -0.398  -0.291  0.00  0.00    -0.040 SA
ENDROOT
BRANCH   1   3
ATOM      3  N   UNL d   1       0.617   1.127  -0.586  0.00  0.00    -0.361 N 
ATOM      4  H   UNL d   1      -0.396   1.079  -0.532  0.00  0.00     0.162 HD
BRANCH   3   5
ATOM      5  C   UNL d   1       1.260   2.253  -1.237  0.00  0.00     0.088 C 
ATOM      6  C   UNL d   1       1.642   2.003  -2.716  0.00  0.00     0.009 C 
ATOM      7  C   UNL d   1       1.948   3.431  -3.169  0.00  0.00     0.011 C 
ATOM      8  C   UNL d   1       0.394   1.662  -3.555  0.00  0.00     0.007 C 
ATOM      9  C   UNL d   1       0.549   3.938  -2.818  0.00  0.00    -0.012 C 
ATOM     10  C   UNL d   1       0.396   3.528  -1.335  0.00  0.00     0.030 C 
ATOM     11  C   UNL d   1      -0.327   3.011  -3.673  0.00  0.00     0.005 C 
ENDBRANCH   3   5
ENDBRANCH   1   3
BRANCH   1  12
ATOM     12  N   UNL d   1       0.369  -1.041   0.175  0.00  0.00    -0.277 N 
ATOM     13  H   UNL d   1       0.807  -1.927   0.422  0.00  0.00     0.189 HD
BRANCH  12  14
ATOM     14  N   UNL d   1      -0.905  -0.779   0.605  0.00  0.00    -0.307 N 
ATOM     15  C   UNL d   1      -1.557  -1.848   0.955  0.00  0.00     0.144 C 
ATOM     16  HN  UNL d   1      -1.302   0.159   0.647  1.00  0.00     0.186 HD
BRANCH  15  17
ATOM     17  C   UNL d   1      -2.826  -1.782   1.615  0.00  0.00     0.091 A 
ATOM     18  O   UNL d   1      -3.489  -2.957   1.842  0.00  0.00    -0.321 OA
ATOM     19  C   UNL d   1      -4.614  -2.655   2.538  0.00  0.00     0.142 A 
ATOM     20  C   UNL d   1      -4.687  -1.303   2.772  0.00  0.00     0.027 A 
ATOM     21  C   UNL d   1      -3.541  -0.735   2.163  0.00  0.00     0.040 A 
ENDBRANCH  15  17
ENDBRANCH  12  14
ENDBRANCH   1  12
TORSDOF 5
