REMARK  2 active torsions:
REMARK  status: ('A' for Active; 'I' for Inactive)
REMARK    1  A    between atoms: C_3  and  C_1 
REMARK       I    between atoms: N_5  and  C_3 
REMARK    2  A    between atoms: C_8  and  C_4 
ROOT
ATOM      1  C   UNL d   1       0.033   1.286  -0.102  0.00  0.00     0.073 C 
ATOM      2  S   UNL d   1      -1.030  -0.018  -0.397  0.00  0.00    -0.088 SA
ATOM      3  C   UNL d   1       0.177  -1.207  -0.076  0.00  0.00    -0.009 C 
ATOM      4  C   UNL d   1       1.323   0.828   0.077  0.00  0.00     0.025 C 
ATOM      5  C   UNL d   1       1.404  -0.594   0.115  0.00  0.00     0.017 C 
ENDROOT
BRANCH   1   6
ATOM      6  C   UNL d   1      -0.373   2.685  -0.231  0.00  0.00     0.260 C 
ATOM      7  N   UNL d   1      -1.590   3.128   0.306  0.00  0.00    -0.347 N 
ATOM      8  C   UNL d   1      -2.076   4.457  -0.064  0.00  0.00     0.126 C 
ATOM      9  C   UNL d   1      -2.418   2.411   1.279  0.00  0.00     0.126 C 
ATOM     10  C   UNL d   1      -2.295   5.332   1.167  0.00  0.00     0.020 C 
ATOM     11  C   UNL d   1      -3.220   4.641   2.165  0.00  0.00     0.003 C 
ATOM     12  C   UNL d   1      -2.684   3.258   2.522  0.00  0.00     0.020 C 
ATOM     13  O   UNL d   1       0.375   3.485  -0.799  0.00  0.00    -0.267 OA
ENDBRANCH   1   6
BRANCH   3  14
ATOM     14  C   UNL d   1      -0.179  -2.699  -0.053  0.00  0.00    -0.018 C 
ATOM     15  C   UNL d   1      -0.914  -3.110  -1.345  0.00  0.00     0.020 C 
ATOM     16  C   UNL d   1       1.089  -3.574   0.060  0.00  0.00     0.020 C 
ATOM     17  C   UNL d   1      -1.071  -3.009   1.167  0.00  0.00     0.020 C 
ENDBRANCH   3  14
TORSDOF 2
