REMARK  3 active torsions:
REMARK  status: ('A' for Active; 'I' for Inactive)
REMARK    1  A    between atoms: N_6  and  C_1 
REMARK    2  A    between atoms: C_10  and  N_2 
REMARK       I    between atoms: C_8  and  N_6 
REMARK    3  A    between atoms: C_9  and  C_8 
ROOT
ATOM      1  C   UNL d   1       0.011  -1.201  -0.229  0.00  0.00     0.129 A 
ATOM      2  N   UNL d   1       1.208  -0.494  -0.058  0.00  0.00    -0.243 N 
ATOM      3  C   UNL d   1      -0.984  -0.246  -0.218  0.00  0.00     0.075 A 
ATOM      4  N   UNL d   1       0.955   0.825   0.196  0.00  0.00    -0.296 N 
ATOM      5  HN  UNL d   1       1.634   1.544   0.445  1.00  0.00     0.187 HD
ATOM      6  C   UNL d   1      -0.363   0.982   0.053  0.00  0.00     0.043 A 
ATOM      7 BR   UNL d   1      -2.818  -0.514  -0.492  0.00  0.00    -0.045 Br
ATOM      8  C   UNL d   1      -0.944   2.343   0.176  0.00  0.00     0.071 C 
ENDROOT
BRANCH   1   9
ATOM      9  N   UNL d   1      -0.126  -2.565  -0.501  0.00  0.00    -0.210 NA
ATOM     10  C   UNL d   1      -0.551  -3.429   0.489  0.00  0.00     0.236 C 
ATOM     11  O   UNL d   1      -1.464  -4.205   0.167  0.00  0.00    -0.276 OA
ATOM     12  H   UNL d   1      -0.821  -2.711  -1.238  0.00  0.00     0.138 HD
BRANCH  10  13
ATOM     13  C   UNL d   1       0.141  -3.595   1.841  0.00  0.00     0.264 C 
ATOM     14 CL   UNL d   1       1.650  -4.501   1.625  0.00  0.00    -0.098 Cl
ATOM     15 CL   UNL d   1       0.384  -2.104   2.745  0.00  0.00    -0.098 Cl
ENDBRANCH  10  13
ENDBRANCH   1   9
BRANCH   2  16
ATOM     16  C   UNL d   1       2.567  -0.928  -0.145  0.00  0.00     0.058 A 
ATOM     17  C   UNL d   1       2.919  -2.203  -0.597  0.00  0.00     0.031 A 
ATOM     18  C   UNL d   1       4.263  -2.591  -0.642  0.00  0.00     0.002 A 
ATOM     19  C   UNL d   1       5.266  -1.702  -0.264  0.00  0.00     0.000 A 
ATOM     20  C   UNL d   1       4.930  -0.420   0.159  0.00  0.00     0.002 A 
ATOM     21  C   UNL d   1       3.589  -0.034   0.219  0.00  0.00     0.031 A 
ENDBRANCH   2  16
TORSDOF 3
