REMARK  1 active torsions:
REMARK  status: ('A' for Active; 'I' for Inactive)
REMARK    1  A    between atoms: N_8  and  C_3 
ROOT
ATOM      1  C   UNL d   1      -0.171   1.022   0.011  0.00  0.00     0.070 A 
ATOM      2  C   UNL d   1       0.123  -0.329   0.048  0.00  0.00     0.138 A 
ATOM      3  C   UNL d   1      -1.522   1.399  -0.035  0.00  0.00     0.119 A 
ATOM      4  N   UNL d   1       2.110   0.787   0.014  0.00  0.00    -0.307 N 
ATOM      5  HN  UNL d   1       3.111   0.986   0.022  1.00  0.00     0.186 HD
ATOM      6  N   UNL d   1       1.490  -0.414   0.041  0.00  0.00    -0.281 N 
ATOM      7  C   UNL d   1       1.090   1.651  -0.026  0.00  0.00     0.126 A 
ATOM      8  N   UNL d   1      -0.759  -1.344   0.059  0.00  0.00    -0.337 N 
ATOM      9  HN  UNL d   1      -0.505  -2.330   0.107  1.00  0.00     0.168 HD
ATOM     10  N   UNL d   1      -2.444   0.398  -0.057  0.00  0.00    -0.338 N 
ATOM     11  HN  UNL d   1      -3.439   0.612  -0.117  1.00  0.00     0.168 HD
ATOM     12  C   UNL d   1      -2.022  -0.882  -0.000  0.00  0.00     0.183 A 
ATOM     13  C   UNL d   1       2.287  -1.614   0.014  0.00  0.00     0.179 C 
ENDROOT
BRANCH   3  14
ATOM     14  N   UNL d   1      -1.921   2.718  -0.149  0.00  0.00    -0.366 N 
ATOM     15  C   UNL d   1      -3.292   3.006  -0.541  0.00  0.00     0.124 C 
ATOM     16  C   UNL d   1      -3.287   4.529  -0.512  0.00  0.00     0.021 C 
ATOM     17  C   UNL d   1      -2.464   4.847   0.732  0.00  0.00     0.021 C 
ATOM     18  C   UNL d   1      -1.517   3.652   0.902  0.00  0.00     0.124 C 
ENDBRANCH   3  14
TORSDOF 1
