REMARK  7 active torsions:
REMARK  status: ('A' for Active; 'I' for Inactive)
REMARK    1  A    between atoms: S_2  and  C_1 
REMARK    2  A    between atoms: N_7  and  S_2 
REMARK    3  A    between atoms: C_8  and  C_3 
REMARK    4  A    between atoms: C_11  and  C_4 
REMARK    5  A    between atoms: C_12  and  N_7 
REMARK    6  A    between atoms: O_17  and  C_8 
REMARK    7  A    between atoms: C_27  and  O_17 
ROOT
ATOM      1  C   UNL d   1      -1.626  -0.734  -0.066  0.00  0.00     0.128 A 
ATOM      2  C   UNL d   1      -0.309  -1.293  -0.129  0.00  0.00     0.094 A 
ATOM      3  C   UNL d   1      -1.493   0.642  -0.090  0.00  0.00     0.110 A 
ATOM      4  O   UNL d   1      -0.161   0.953  -0.096  0.00  0.00    -0.312 OA
ATOM      5  C   UNL d   1       0.546  -0.204  -0.095  0.00  0.00     0.068 A 
ATOM      6  C   UNL d   1       2.018  -0.033  -0.084  0.00  0.00     0.078 C 
ENDROOT
BRANCH   1   7
ATOM      7  S   UNL d   1      -3.117  -1.584   0.098  0.00  0.00     0.249 S 
ATOM      8  O   UNL d   1      -2.765  -2.975   0.266  0.00  0.00    -0.205 OA
ATOM      9  O   UNL d   1      -3.815  -0.858   1.132  0.00  0.00    -0.205 OA
BRANCH   7  10
ATOM     10  N   UNL d   1      -3.933  -1.415  -1.383  0.00  0.00    -0.181 NA
ATOM     11  H   UNL d   1      -3.364  -1.830  -2.123  0.00  0.00     0.146 HD
BRANCH  10  12
ATOM     12  C   UNL d   1      -5.282  -1.892  -1.396  0.00  0.00     0.023 A 
ATOM     13  C   UNL d   1      -5.560  -3.083  -2.062  0.00  0.00     0.031 A 
ATOM     14  C   UNL d   1      -6.863  -3.593  -2.088  0.00  0.00    -0.060 A 
ATOM     15  C   UNL d   1      -7.159  -4.885  -2.786  0.00  0.00     0.048 C 
ATOM     16  C   UNL d   1      -7.884  -2.888  -1.436  0.00  0.00     0.007 A 
ATOM     17  C   UNL d   1      -7.604  -1.696  -0.766  0.00  0.00     0.002 A 
ATOM     18  C   UNL d   1      -6.301  -1.196  -0.743  0.00  0.00     0.024 A 
ENDBRANCH  10  12
ENDBRANCH   7  10
ENDBRANCH   1   7
BRANCH   2  19
ATOM     19  C   UNL d   1       0.106  -2.677  -0.175  0.00  0.00     0.297 C 
ATOM     20  O   UNL d   1      -0.395  -3.507  -0.924  0.00  0.00    -0.259 OA
BRANCH  19  21
ATOM     21  O   UNL d   1       1.129  -2.916   0.688  0.00  0.00    -0.318 OA
BRANCH  21  22
ATOM     22  C   UNL d   1       1.375  -4.282   1.042  0.00  0.00     0.174 C 
ATOM     23  C   UNL d   1       0.760  -4.494   2.412  0.00  0.00     0.034 C 
ENDBRANCH  21  22
ENDBRANCH  19  21
ENDBRANCH   2  19
BRANCH   3  24
ATOM     24  C   UNL d   1      -2.372   1.813  -0.098  0.00  0.00    -0.001 A 
ATOM     25  C   UNL d   1      -1.977   2.996   0.548  0.00  0.00     0.016 A 
ATOM     26  C   UNL d   1      -2.785   4.138   0.521  0.00  0.00     0.024 A 
ATOM     27  C   UNL d   1      -4.007   4.107  -0.143  0.00  0.00     0.034 A 
ATOM     28  C   UNL d   1      -4.421   2.949  -0.785  0.00  0.00     0.024 A 
ATOM     29 CL   UNL d   1      -4.997   5.512  -0.192  0.00  0.00    -0.084 Cl
ATOM     30  C   UNL d   1      -3.599   1.818  -0.773  0.00  0.00     0.016 A 
ENDBRANCH   3  24
TORSDOF 7
