REMARK  9 active torsions:
REMARK  status: ('A' for Active; 'I' for Inactive)
REMARK    1  A    between atoms: C_3  and  S_1 
REMARK    2  A    between atoms: N_10  and  S_1 
REMARK    3  A    between atoms: C_5  and  N_2 
REMARK    4  A    between atoms: N_7  and  C_22 
REMARK    5  A    between atoms: C_24  and  N_10 
REMARK    6  A    between atoms: O_21  and  C_15 
REMARK    7  A    between atoms: C_22  and  C_27 
REMARK    8  A    between atoms: C_28  and  C_24 
REMARK    9  A    between atoms: C_27  and  C_28 
ROOT
ATOM      1  C   UNL d   1       7.985  -1.044  -1.274  0.00  0.00     0.032 C 
ENDROOT
BRANCH   1   2
ATOM      2  C   UNL d   1       6.844  -1.637  -2.121  0.00  0.00     0.272 C 
BRANCH   2   3
ATOM      3  N   UNL d   1       7.314  -2.364  -3.304  0.00  0.00     0.091 N 
ATOM      4  C   UNL d   1       8.069  -3.603  -2.967  0.00  0.00     0.292 C 
ATOM      5  C   UNL d   1       7.206  -4.779  -2.454  0.00  0.00     0.153 C 
ATOM      6  N   UNL d   1       6.207  -5.100  -3.482  0.00  0.00    -0.375 N 
ATOM      7  C   UNL d   1       5.328  -3.966  -3.799  0.00  0.00     0.153 C 
ATOM      8  C   UNL d   1       6.188  -2.735  -4.206  0.00  0.00     0.292 C 
BRANCH   6   9
ATOM      9  C   UNL d   1       5.807  -6.426  -3.646  0.00  0.00     0.064 A 
ATOM     10  C   UNL d   1       6.743  -7.481  -3.845  0.00  0.00     0.094 A 
ATOM     11  C   UNL d   1       6.307  -8.805  -4.013  0.00  0.00     0.039 A 
ATOM     12  C   UNL d   1       4.948  -9.106  -4.040  0.00  0.00     0.003 A 
ATOM     13  C   UNL d   1       4.017  -8.089  -3.888  0.00  0.00     0.002 A 
ATOM     14  C   UNL d   1       4.444  -6.771  -3.689  0.00  0.00     0.032 A 
BRANCH  10  15
ATOM     15  O   UNL d   1       8.078  -7.138  -3.885  0.00  0.00    -0.354 OA
ATOM     16  C   UNL d   1       8.954  -8.030  -4.561  0.00  0.00     0.210 C 
ENDBRANCH  10  15
ENDBRANCH   6   9
ENDBRANCH   2   3
ENDBRANCH   1   2
BRANCH   1  17
ATOM     17  C   UNL d   1       8.943  -0.104  -2.025  0.00  0.00     0.022 C 
BRANCH  17  18
ATOM     18  C   UNL d   1       8.285   1.138  -2.627  0.00  0.00     0.132 C 
BRANCH  18  19
ATOM     19  N   UNL d   1       7.696   1.962  -1.571  0.00  0.00    -0.315 N 
ATOM     20  H   UNL d   1       7.510   1.576  -0.650  0.00  0.00     0.172 HD
BRANCH  19  21
ATOM     21  S   UNL d   1       6.800   3.321  -1.953  0.00  0.00     0.258 S 
ATOM     22  O   UNL d   1       6.304   3.860  -0.707  0.00  0.00    -0.201 OA
ATOM     23  O   UNL d   1       7.549   4.111  -2.899  0.00  0.00    -0.201 OA
BRANCH  21  24
ATOM     24  C   UNL d   1       5.406   2.614  -2.798  0.00  0.00     0.081 A 
ATOM     25  C   UNL d   1       4.555   1.758  -2.090  0.00  0.00     0.050 A 
ATOM     26  C   UNL d   1       3.480   1.159  -2.747  0.00  0.00     0.057 A 
ATOM     27 CL   UNL d   1       2.497   0.067  -1.840  0.00  0.00    -0.083 Cl
ATOM     28  C   UNL d   1       3.245   1.437  -4.101  0.00  0.00     0.055 A 
ATOM     29  C   UNL d   1       4.091   2.312  -4.793  0.00  0.00     0.027 A 
ATOM     30 CL   UNL d   1       1.934   0.728  -4.974  0.00  0.00    -0.083 Cl
ATOM     31  C   UNL d   1       5.176   2.901  -4.145  0.00  0.00     0.027 A 
ENDBRANCH  21  24
ENDBRANCH  19  21
ENDBRANCH  18  19
ENDBRANCH  17  18
ENDBRANCH   1  17
TORSDOF 9
