REMARK  3 active torsions:
REMARK  status: ('A' for Active; 'I' for Inactive)
REMARK    1  A    between atoms: C_4  and  N_1 
REMARK    2  A    between atoms: N_6  and  C_4 
REMARK    3  A    between atoms: C_7  and  N_6 
ROOT
ATOM      1  N   UNL d   1       1.461  -2.893  -0.192  0.00  0.00    -0.275 NA
ATOM      2  H   UNL d   1       2.250  -2.446   0.268  0.00  0.00     0.129 HD
ENDROOT
BRANCH   1   3
ATOM      3  C   UNL d   1       0.241  -2.215   0.236  0.00  0.00     0.228 C 
BRANCH   3   4
ATOM      4  N   UNL d   1       0.389  -0.795   0.007  0.00  0.00    -0.280 N 
ATOM      5  C   UNL d   1      -0.365  -0.004  -0.814  0.00  0.00     0.178 A 
ATOM      6  N   UNL d   1       0.017   1.310  -0.632  0.00  0.00    -0.358 N 
ATOM      7  S   UNL d   1      -1.577  -0.407  -1.869  0.00  0.00    -0.041 SA
ATOM      8  C   UNL d   1       1.050   1.437   0.357  0.00  0.00     0.225 A 
ATOM      9  H   UNL d   1      -0.425   2.075  -1.129  0.00  0.00     0.162 HD
ATOM     10  C   UNL d   1       1.230  -0.017   0.759  0.00  0.00     0.244 A 
ATOM     11  O   UNL d   1       2.007  -0.412   1.621  0.00  0.00    -0.271 OA
ENDBRANCH   3   4
ENDBRANCH   1   3
BRANCH   1  12
ATOM     12  C   UNL d   1       1.504  -4.296  -0.029  0.00  0.00     0.017 A 
ATOM     13  C   UNL d   1       0.360  -5.085  -0.254  0.00  0.00     0.047 A 
ATOM     14  C   UNL d   1       0.399  -6.478  -0.162  0.00  0.00     0.035 A 
ATOM     15 CL   UNL d   1      -1.042  -7.389  -0.400  0.00  0.00    -0.084 Cl
ATOM     16  C   UNL d   1       1.589  -7.130   0.110  0.00  0.00     0.024 A 
ATOM     17  C   UNL d   1       2.749  -6.380   0.279  0.00  0.00     0.010 A 
ATOM     18  C   UNL d   1       2.725  -4.969   0.212  0.00  0.00    -0.041 A 
ATOM     19  C   UNL d   1       4.056  -4.276   0.360  0.00  0.00     0.050 C 
ENDBRANCH   1  12
TORSDOF 3
