REMARK  5 active torsions:
REMARK  status: ('A' for Active; 'I' for Inactive)
REMARK    1  A    between atoms: C_13  and  C_1 
REMARK    2  A    between atoms: C_2  and  N_6 
REMARK    3  A    between atoms: C_4  and  N_11 
REMARK    4  A    between atoms: N_6  and  C_4 
REMARK    5  A    between atoms: N_11  and  C_13 
ROOT
ATOM      1  C   UNL d   1      -0.499  -5.061   0.004  0.00  0.00     0.172 C 
ATOM      2  S   UNL d   1      -1.772  -5.495  -0.986  0.00  0.00    -0.041 SA
ENDROOT
BRANCH   1   3
ATOM      3  N   UNL d   1      -0.419  -3.936   0.778  0.00  0.00    -0.363 N 
ATOM      4  H   UNL d   1       0.359  -3.925   1.423  0.00  0.00     0.162 HD
BRANCH   3   5
ATOM      5  C   UNL d   1      -1.090  -2.668   0.545  0.00  0.00     0.162 C 
BRANCH   5   6
ATOM      6  C   UNL d   1      -2.501  -2.636   1.041  0.00  0.00    -0.022 A 
ATOM      7  C   UNL d   1      -3.585  -2.444   0.201  0.00  0.00     0.060 A 
ATOM      8  S   UNL d   1      -5.068  -2.370   1.024  0.00  0.00    -0.101 SA
ATOM      9  C   UNL d   1      -4.311  -2.586   2.551  0.00  0.00     0.015 A 
ATOM     10  C   UNL d   1      -2.926  -2.719   2.423  0.00  0.00    -0.011 A 
ATOM     11  C   UNL d   1      -4.950  -2.625   3.805  0.00  0.00     0.019 A 
ATOM     12  C   UNL d   1      -2.171  -2.899   3.617  0.00  0.00     0.013 A 
ATOM     13  C   UNL d   1      -2.801  -2.939   4.864  0.00  0.00     0.001 A 
ATOM     14  C   UNL d   1      -4.180  -2.803   4.956  0.00  0.00     0.001 A 
ENDBRANCH   5   6
ENDBRANCH   3   5
ENDBRANCH   1   3
BRANCH   1  15
ATOM     15  N   UNL d   1       0.535  -5.940   0.139  0.00  0.00    -0.332 N 
ATOM     16  H   UNL d   1       0.283  -6.885  -0.135  0.00  0.00     0.168 HD
BRANCH  15  17
ATOM     17  C   UNL d   1       1.939  -5.732   0.211  0.00  0.00     0.046 A 
ATOM     18  C   UNL d   1       2.704  -6.794   0.759  0.00  0.00    -0.034 A 
ATOM     19  C   UNL d   1       4.111  -6.764   0.693  0.00  0.00     0.015 A 
ATOM     20  C   UNL d   1       2.098  -7.999   1.436  0.00  0.00     0.050 C 
ATOM     21  C   UNL d   1       4.782  -5.697   0.105  0.00  0.00    -0.061 A 
ATOM     22  C   UNL d   1       4.031  -4.625  -0.373  0.00  0.00     0.015 A 
ATOM     23  C   UNL d   1       6.275  -5.715  -0.031  0.00  0.00     0.048 C 
ATOM     24  C   UNL d   1       2.616  -4.629  -0.359  0.00  0.00    -0.034 A 
ATOM     25  C   UNL d   1       2.007  -3.471  -1.100  0.00  0.00     0.050 C 
ENDBRANCH  15  17
ENDBRANCH   1  15
TORSDOF 5
