REMARK  5 active torsions:
REMARK  status: ('A' for Active; 'I' for Inactive)
REMARK    1  A    between atoms: N_8  and  C_3 
REMARK    2  A    between atoms: C_16  and  C_4 
REMARK       I    between atoms: C_7  and  N_9 
REMARK    3  A    between atoms: C_10  and  C_7 
REMARK    4  A    between atoms: O_27  and  C_17 
REMARK    5  A    between atoms: O_28  and  C_24 
ROOT
ATOM      1  C   UNL d   1       0.511  -6.814  -0.162  0.00  0.00     0.254 C 
ATOM      2  N   UNL d   1      -0.875  -2.932   0.224  0.00  0.00    -0.265 NA
ATOM      3  N   UNL d   1      -0.189  -5.703   0.293  0.00  0.00    -0.346 N 
ATOM      4  C   UNL d   1      -1.261  -3.807  -0.911  0.00  0.00     0.117 C 
ATOM      5  C   UNL d   1       0.372  -3.373   0.881  0.00  0.00     0.117 C 
ATOM      6  C   UNL d   1      -1.398  -5.269  -0.425  0.00  0.00     0.141 C 
ATOM      7  C   UNL d   1       0.147  -4.807   1.415  0.00  0.00     0.141 C 
ATOM      8  O   UNL d   1       0.064  -7.556  -1.043  0.00  0.00    -0.267 OA
ENDROOT
BRANCH   2   9
ATOM      9  C   UNL d   1      -0.977  -1.563  -0.036  0.00  0.00     0.103 A 
ATOM     10  C   UNL d   1      -1.116  -0.591   0.976  0.00  0.00     0.070 A 
ATOM     11  S   UNL d   1      -1.073  -0.750   2.690  0.00  0.00    -0.088 SA
ATOM     12  C   UNL d   1      -1.386   0.727   0.626  0.00  0.00     0.054 A 
ATOM     13  C   UNL d   1      -1.413   0.911   2.972  0.00  0.00    -0.007 A 
ATOM     14  C   UNL d   1      -1.570   1.568   1.765  0.00  0.00     0.046 A 
ATOM     15  N   UNL d   1      -1.490   1.143  -0.658  0.00  0.00    -0.351 N 
ATOM     16  C   UNL d   1      -1.329   0.169  -1.554  0.00  0.00     0.182 A 
ATOM     17  HN  UNL d   1      -1.676   2.112  -0.916  1.00  0.00     0.166 HD
ATOM     18  N   UNL d   1      -1.093  -1.130  -1.316  0.00  0.00    -0.342 N 
ATOM     19  HN  UNL d   1      -1.001  -1.786  -2.092  1.00  0.00     0.167 HD
BRANCH  13  20
ATOM     20  C   UNL d   1      -1.512   1.459   4.402  0.00  0.00    -0.018 C 
ATOM     21  C   UNL d   1      -0.137   1.391   5.097  0.00  0.00     0.020 C 
ATOM     22  C   UNL d   1      -1.966   2.935   4.402  0.00  0.00     0.020 C 
ATOM     23  C   UNL d   1      -2.541   0.658   5.226  0.00  0.00     0.020 C 
ENDBRANCH  13  20
ENDBRANCH   2   9
BRANCH   1  24
ATOM     24  C   UNL d   1       1.847  -7.168   0.396  0.00  0.00     0.035 A 
ATOM     25  C   UNL d   1       2.191  -8.526   0.536  0.00  0.00     0.056 A 
ATOM     26  C   UNL d   1       3.434  -8.909   1.071  0.00  0.00     0.102 A 
ATOM     27  C   UNL d   1       4.324  -7.909   1.503  0.00  0.00     0.101 A 
ATOM     28  C   UNL d   1       3.991  -6.562   1.312  0.00  0.00     0.040 A 
ATOM     29  C   UNL d   1       2.793  -6.198   0.710  0.00  0.00     0.020 A 
BRANCH  26  30
ATOM     30  O   UNL d   1       3.820 -10.215   1.202  0.00  0.00    -0.353 OA
ATOM     31  C   UNL d   1       2.982 -11.234   0.672  0.00  0.00     0.210 C 
ENDBRANCH  26  30
BRANCH  27  32
ATOM     32  O   UNL d   1       5.535  -8.039   2.127  0.00  0.00    -0.353 OA
ATOM     33  C   UNL d   1       6.092  -9.329   2.298  0.00  0.00     0.210 C 
ENDBRANCH  27  32
ENDBRANCH   1  24
TORSDOF 5
