REMARK  2 active torsions:
REMARK  status: ('A' for Active; 'I' for Inactive)
REMARK    1  A    between atoms: N_5  and  C_1 
REMARK       I    between atoms: C_3  and  N_4 
REMARK       I    between atoms: N_11  and  C_3 
REMARK    2  A    between atoms: C_21  and  N_11 
ROOT
ATOM      1  C   UNL d   1       2.288   6.834   0.164  0.00  0.00     0.323 C 
ATOM      2  N   UNL d   1       2.317   5.463   0.378  0.00  0.00    -0.332 N 
ATOM      3  N   UNL d   1       1.972   2.619   0.037  0.00  0.00    -0.265 NA
ATOM      4  N   UNL d   1       1.360   7.532   0.901  0.00  0.00    -0.309 N 
ATOM      5  O   UNL d   1       3.051   7.349  -0.647  0.00  0.00    -0.247 OA
ATOM      6  C   UNL d   1       1.552   4.674   1.357  0.00  0.00     0.142 C 
ATOM      7  C   UNL d   1       3.313   4.668  -0.357  0.00  0.00     0.142 C 
ATOM      8  C   UNL d   1       0.926   3.432   0.704  0.00  0.00     0.117 C 
ATOM      9  C   UNL d   1       2.695   3.405  -0.991  0.00  0.00     0.117 C 
ATOM     10  H   UNL d   1       0.846   7.030   1.598  0.00  0.00     0.170 HD
ENDROOT
BRANCH   3  11
ATOM     11  C   UNL d   1       1.484   1.370  -0.400  0.00  0.00     0.096 A 
ATOM     12  C   UNL d   1       2.286   0.356  -0.985  0.00  0.00     0.037 A 
ATOM     13  C   UNL d   1       1.631  -0.810  -1.359  0.00  0.00     0.088 A 
ATOM     14  C   UNL d   1       3.696   0.231  -1.258  0.00  0.00     0.025 A 
ATOM     15  S   UNL d   1       2.656  -1.943  -2.118  0.00  0.00    -0.083 SA
ATOM     16  N   UNL d   1       0.332  -1.097  -1.182  0.00  0.00    -0.346 N 
ATOM     17  C   UNL d   1       4.020  -0.941  -1.907  0.00  0.00     0.053 A 
ATOM     18  C   UNL d   1      -0.320  -0.111  -0.571  0.00  0.00     0.182 A 
ATOM     19  HN  UNL d   1      -0.106  -1.968  -1.482  1.00  0.00     0.167 HD
ATOM     20  N   UNL d   1       0.173   1.075  -0.187  0.00  0.00    -0.342 N 
ATOM     21  HN  UNL d   1      -0.436   1.757   0.265  1.00  0.00     0.167 HD
ENDBRANCH   3  11
BRANCH   4  22
ATOM     22  C   UNL d   1       1.133   8.927   0.904  0.00  0.00     0.036 A 
ATOM     23  C   UNL d   1       1.793   9.831   0.071  0.00  0.00     0.029 A 
ATOM     24  C   UNL d   1       1.582  11.206   0.207  0.00  0.00     0.002 A 
ATOM     25  C   UNL d   1       0.692  11.688   1.162  0.00  0.00     0.000 A 
ATOM     26  C   UNL d   1      -0.012  10.794   1.964  0.00  0.00     0.002 A 
ATOM     27  C   UNL d   1       0.204   9.420   1.831  0.00  0.00     0.029 A 
ENDBRANCH   4  22
TORSDOF 2
