REMARK  1 active torsions:
REMARK  status: ('A' for Active; 'I' for Inactive)
REMARK    1  A    between atoms: S_7  and  C_1 
ROOT
ATOM      1  C   UNL d   1       2.479   0.060  -0.001  0.00  0.00     0.110 A 
ATOM      2  N   UNL d   1       1.640   1.069  -0.001  0.00  0.00    -0.344 N 
ATOM      3  HN  UNL d   1       1.903   2.054  -0.002  1.00  0.00     0.167 HD
ATOM      4  S   UNL d   1       1.795  -1.504  -0.001  0.00  0.00    -0.063 SA
ATOM      5  C   UNL d   1       0.341   0.585  -0.000  0.00  0.00     0.050 A 
ATOM      6  C   UNL d   1       0.220  -0.807   0.001  0.00  0.00     0.034 A 
ATOM      7  C   UNL d   1      -0.833   1.366   0.001  0.00  0.00     0.031 A 
ATOM      8  C   UNL d   1      -1.032  -1.444   0.002  0.00  0.00     0.021 A 
ATOM      9  C   UNL d   1      -2.180  -0.646   0.003  0.00  0.00     0.002 A 
ATOM     10  C   UNL d   1      -2.085   0.742   0.002  0.00  0.00     0.002 A 
ENDROOT
BRANCH   1  11
ATOM     11  S   UNL d   1       4.201   0.343  -0.002  0.00  0.00    -0.118 SA
ATOM     12  H   UNL d   1       4.119   1.680   0.001  0.00  0.00     0.109 HD
ENDBRANCH   1  11
TORSDOF 1
