REMARK  1 active torsions:
REMARK  status: ('A' for Active; 'I' for Inactive)
REMARK    1  A    between atoms: C_7  and  N_1 
ROOT
ATOM      1  N   UNL d   1       0.903  -0.701  -0.046  0.00  0.00    -0.212 N 
ATOM      2  C   UNL d   1       0.613   0.538   0.513  0.00  0.00     0.215 A 
ATOM      3  N   UNL d   1      -0.273  -1.234  -0.528  0.00  0.00    -0.219 N 
ATOM      4  HN  UNL d   1      -0.361  -2.141  -0.985  1.00  0.00     0.210 HD
ATOM      5  N   UNL d   1      -1.229  -0.428  -0.317  0.00  0.00    -0.225 N 
ATOM      6  HN  UNL d   1      -2.201  -0.575  -0.591  1.00  0.00     0.210 HD
ATOM      7  N   UNL d   1      -0.748   0.659   0.331  0.00  0.00    -0.259 N 
ATOM      8  S   UNL d   1       1.547   1.732   1.179  0.00  0.00    -0.037 SA
ATOM      9  H   UNL d   1      -1.332   1.453   0.548  0.00  0.00     0.191 HD
ENDROOT
BRANCH   1  10
ATOM     10  C   UNL d   1       2.084  -1.482  -0.083  0.00  0.00     0.082 A 
ATOM     11  C   UNL d   1       2.353  -2.418  -1.106  0.00  0.00     0.064 A 
ATOM     12  C   UNL d   1       3.517  -3.202  -1.081  0.00  0.00     0.050 A 
ATOM     13 CL   UNL d   1       1.367  -2.603  -2.522  0.00  0.00    -0.082 Cl
ATOM     14  C   UNL d   1       4.428  -3.064  -0.041  0.00  0.00     0.035 A 
ATOM     15  C   UNL d   1       4.191  -2.147   0.974  0.00  0.00     0.026 A 
ATOM     16 CL   UNL d   1       5.850  -4.028  -0.012  0.00  0.00    -0.084 Cl
ATOM     17  C   UNL d   1       3.031  -1.364   0.951  0.00  0.00     0.035 A 
ENDBRANCH   1  10
TORSDOF 1
