REMARK  3 active torsions:
REMARK  status: ('A' for Active; 'I' for Inactive)
REMARK    1  A    between atoms: C_5  and  C_3 
REMARK    2  A    between atoms: C_9  and  C_4 
REMARK    3  A    between atoms: O_18  and  C_14 
ROOT
ATOM      1  N   UNL d   1       1.290   0.202  -0.075  0.00  0.00    -0.318 N 
ATOM      2  HN  UNL d   1       2.293   0.362  -0.164  1.00  0.00     0.169 HD
ATOM      3  C   UNL d   1       0.652  -0.940   0.010  0.00  0.00     0.183 A 
ATOM      4  C   UNL d   1       0.278   1.133  -0.014  0.00  0.00     0.138 A 
ATOM      5  N   UNL d   1      -0.950   0.593   0.066  0.00  0.00    -0.242 N 
ATOM      6  HN  UNL d   1      -1.848   1.073   0.106  1.00  0.00     0.196 HD
ATOM      7  O   UNL d   1      -0.704  -0.782   0.082  0.00  0.00    -0.217 OA
ENDROOT
BRANCH   3   8
ATOM      8  C   UNL d   1       1.161  -2.307   0.035  0.00  0.00     0.037 A 
ATOM      9  C   UNL d   1       2.407  -2.639   0.601  0.00  0.00     0.025 A 
ATOM     10  C   UNL d   1       2.870  -3.958   0.570  0.00  0.00     0.023 A 
ATOM     11 BR   UNL d   1       3.532  -1.381   1.484  0.00  0.00    -0.050 Br
ATOM     12  C   UNL d   1       2.099  -4.958  -0.019  0.00  0.00     0.038 A 
ATOM     13  C   UNL d   1       0.859  -4.658  -0.580  0.00  0.00     0.069 A 
ATOM     14  C   UNL d   1       0.396  -3.340  -0.551  0.00  0.00     0.054 A 
BRANCH  13  15
ATOM     15  O   UNL d   1       0.210  -5.731  -1.122  0.00  0.00    -0.356 OA
ATOM     16  C   UNL d   1      -1.064  -5.494  -1.708  0.00  0.00     0.210 C 
ENDBRANCH  13  15
ENDBRANCH   3   8
BRANCH   4  17
ATOM     17  C   UNL d   1       0.561   2.564  -0.020  0.00  0.00     0.010 A 
ATOM     18  C   UNL d   1       1.888   3.011  -0.137  0.00  0.00     0.022 A 
ATOM     19  C   UNL d   1       2.199   4.378  -0.127  0.00  0.00    -0.061 A 
ATOM     20  C   UNL d   1       3.620   4.842  -0.244  0.00  0.00     0.048 C 
ATOM     21  C   UNL d   1       1.162   5.307   0.005  0.00  0.00     0.007 A 
ATOM     22  C   UNL d   1      -0.161   4.878   0.119  0.00  0.00     0.002 A 
ATOM     23  C   UNL d   1      -0.461   3.514   0.106  0.00  0.00     0.015 A 
ENDBRANCH   4  17
TORSDOF 3
