REMARK  7 active torsions:
REMARK  status: ('A' for Active; 'I' for Inactive)
REMARK    1  A    between atoms: N_2  and  C_1 
REMARK    2  A    between atoms: C_4  and  C_1 
REMARK    3  A    between atoms: C_6  and  C_1 
REMARK    4  A    between atoms: O_10  and  C_1 
REMARK       I    between atoms: C_3  and  N_2 
REMARK    5  A    between atoms: C_5  and  C_3 
REMARK    6  A    between atoms: O_15  and  C_6 
REMARK    7  A    between atoms: C_21  and  O_15 
ROOT
ATOM      1  C   UNL d   1       0.956   0.126  -0.027  0.00  0.00     0.325 C 
ENDROOT
BRANCH   1   2
ATOM      2  N   UNL d   1       0.650  -1.305  -0.174  0.00  0.00    -0.309 N 
ATOM      3  C   UNL d   1       0.941  -2.230   0.795  0.00  0.00     0.260 C 
ATOM      4  O   UNL d   1       1.604  -1.891   1.773  0.00  0.00    -0.267 OA
ATOM      5  H   UNL d   1       0.069  -1.557  -0.974  0.00  0.00     0.166 HD
BRANCH   3   6
ATOM      6  C   UNL d   1       0.458  -3.618   0.588  0.00  0.00     0.109 A 
ATOM      7  C   UNL d   1      -0.242  -3.998  -0.563  0.00  0.00     0.135 A 
ATOM      8  F   UNL d   1      -0.493  -3.117  -1.542  0.00  0.00    -0.205 F 
ATOM      9  C   UNL d   1      -0.707  -5.302  -0.740  0.00  0.00     0.043 A 
ATOM     10  C   UNL d   1      -0.473  -6.260   0.244  0.00  0.00     0.006 A 
ATOM     11  C   UNL d   1       0.232  -5.904   1.391  0.00  0.00     0.043 A 
ATOM     12  C   UNL d   1       0.693  -4.595   1.557  0.00  0.00     0.135 A 
ATOM     13  F   UNL d   1       1.366  -4.317   2.682  0.00  0.00    -0.205 F 
ENDBRANCH   3   6
ENDBRANCH   1   2
BRANCH   1  14
ATOM     14  C   UNL d   1       0.191   0.879   1.101  0.00  0.00     0.448 C 
ATOM     15  F   UNL d   1      -0.591   0.045   1.834  0.00  0.00    -0.166 F 
ATOM     16  F   UNL d   1       1.042   1.482   1.970  0.00  0.00    -0.166 F 
ATOM     17  F   UNL d   1      -0.633   1.849   0.632  0.00  0.00    -0.166 F 
ENDBRANCH   1  14
BRANCH   1  18
ATOM     18  C   UNL d   1       0.493   0.756  -1.350  0.00  0.00     0.325 C 
ATOM     19  O   UNL d   1      -0.377   0.262  -2.069  0.00  0.00    -0.259 OA
BRANCH  18  20
ATOM     20  O   UNL d   1       1.219   1.866  -1.665  0.00  0.00    -0.318 OA
BRANCH  20  21
ATOM     21  C   UNL d   1       1.179   2.252  -3.045  0.00  0.00     0.174 C 
ATOM     22  C   UNL d   1       2.214   1.437  -3.803  0.00  0.00     0.034 C 
ENDBRANCH  20  21
ENDBRANCH  18  20
ENDBRANCH   1  18
BRANCH   1  23
ATOM     23  O   UNL d   1       2.380   0.185   0.088  0.00  0.00    -0.356 OA
ATOM     24  H   UNL d   1       2.587  -0.407   0.839  0.00  0.00     0.213 HD
ENDBRANCH   1  23
TORSDOF 7
