REMARK  3 active torsions:
REMARK  status: ('A' for Active; 'I' for Inactive)
REMARK    1  A    between atoms: C_6  and  C_1 
REMARK    2  A    between atoms: C_10  and  N_4 
REMARK    3  A    between atoms: N_5  and  C_9 
ROOT
ATOM      1  C   UNL d   1      -1.091   0.045   0.421  0.00  0.00     0.134 A 
ATOM      2  N   UNL d   1      -0.128   0.916   0.779  0.00  0.00    -0.290 N 
ATOM      3  HN  UNL d   1      -0.167   1.606   1.530  1.00  0.00     0.187 HD
ATOM      4  N   UNL d   1       0.906   0.683  -0.069  0.00  0.00    -0.267 N 
ATOM      5  C   UNL d   1      -0.641  -0.800  -0.621  0.00  0.00     0.055 A 
ATOM      6  C   UNL d   1       0.634  -0.377  -0.905  0.00  0.00     0.119 A 
ENDROOT
BRANCH   4   7
ATOM      7  C   UNL d   1       2.068   1.509  -0.055  0.00  0.00     0.056 A 
ATOM      8  C   UNL d   1       2.195   2.513   0.921  0.00  0.00     0.034 A 
ATOM      9  C   UNL d   1       3.304   3.366   0.921  0.00  0.00     0.038 A 
ATOM     10  C   UNL d   1       4.289   3.218  -0.064  0.00  0.00     0.103 A 
ATOM     11  C   UNL d   1       4.179   2.212  -1.032  0.00  0.00     0.038 A 
ATOM     12  C   UNL d   1       3.072   1.356  -1.022  0.00  0.00     0.034 A 
BRANCH  10  13
ATOM     13  N   UNL d   1       5.439   4.130  -0.095  0.00  0.00    -0.116 N 
ATOM     14  O   UNL d   1       5.506   5.005   0.780  0.00  0.00    -0.532 OA
ATOM     15  O   UNL d   1       6.274   3.974  -0.997  0.00  0.00    -0.532 OA
ENDBRANCH  10  13
ENDBRANCH   4   7
BRANCH   1  16
ATOM     16  C   UNL d   1      -2.458   0.007   1.053  0.00  0.00     0.434 C 
ATOM     17  F   UNL d   1      -2.629   0.914   2.049  0.00  0.00    -0.165 F 
ATOM     18  F   UNL d   1      -3.433   0.248   0.133  0.00  0.00    -0.165 F 
ATOM     19  F   UNL d   1      -2.731  -1.216   1.583  0.00  0.00    -0.165 F 
ENDBRANCH   1  16
TORSDOF 3
