REMARK  10 active torsions:
REMARK  status: ('A' for Active; 'I' for Inactive)
REMARK    1  A    between atoms: O_6  and  C_1 
REMARK    2  A    between atoms: C_7  and  C_1 
REMARK    3  A    between atoms: C_2  and  C_8 
REMARK    4  A    between atoms: C_5  and  C_2 
REMARK    5  A    between atoms: C_11  and  C_7 
REMARK    6  A    between atoms: C_8  and  C_12 
REMARK    7  A    between atoms: C_13  and  C_11 
REMARK    8  A    between atoms: C_12  and  C_14 
REMARK    9  A    between atoms: C_15  and  C_13 
REMARK   10  A    between atoms: C_14  and  C_15 
ROOT
ATOM      1  C   UNL d   1       7.101  -4.278   0.858  0.00  0.00     0.008 C 
ENDROOT
BRANCH   1   2
ATOM      2  C   UNL d   1       8.626  -4.330   0.863  0.00  0.00     0.084 C 
BRANCH   2   3
ATOM      3  C   UNL d   1       9.139  -5.728   1.159  0.00  0.00     0.159 C 
ATOM      4  O   UNL d   1       8.385  -6.679   1.349  0.00  0.00    -0.292 OA
BRANCH   3   5
ATOM      5  C   UNL d   1      10.616  -5.940   1.231  0.00  0.00     0.010 A 
ATOM      6  C   UNL d   1      11.533  -4.913   0.975  0.00  0.00     0.015 A 
ATOM      7  C   UNL d   1      12.904  -5.157   1.081  0.00  0.00     0.001 A 
ATOM      8  C   UNL d   1      13.365  -6.423   1.440  0.00  0.00     0.000 A 
ATOM      9  C   UNL d   1      12.458  -7.451   1.687  0.00  0.00     0.001 A 
ATOM     10  C   UNL d   1      11.088  -7.213   1.580  0.00  0.00     0.015 A 
ENDBRANCH   3   5
ENDBRANCH   2   3
ENDBRANCH   1   2
BRANCH   1  11
ATOM     11  C   UNL d   1       6.594  -2.870   0.556  0.00  0.00     0.000 C 
BRANCH  11  12
ATOM     12  C   UNL d   1       5.068  -2.841   0.546  0.00  0.00     0.000 C 
BRANCH  12  13
ATOM     13  C   UNL d   1       4.534  -1.442   0.244  0.00  0.00     0.001 C 
BRANCH  13  14
ATOM     14  C   UNL d   1       3.007  -1.444   0.239  0.00  0.00     0.010 C 
BRANCH  14  15
ATOM     15  C   UNL d   1       2.435  -0.062  -0.060  0.00  0.00     0.110 C 
BRANCH  15  16
ATOM     16  C   UNL d   1       0.924  -0.081  -0.061  0.00  0.00     0.139 C 
ATOM     17  O   UNL d   1       0.227  -1.060   0.146  0.00  0.00    -0.650 OA
BRANCH  16  18
ATOM     18  O   UNL d   1       0.396   1.138  -0.325  0.00  0.00    -0.776 OA
ATOM     19  H   UNL d   1       1.064   1.831  -0.471  0.00  0.00     0.167 HD
ENDBRANCH  16  18
ENDBRANCH  15  16
ENDBRANCH  14  15
ENDBRANCH  13  14
ENDBRANCH  12  13
ENDBRANCH  11  12
ENDBRANCH   1  11
TORSDOF 10
