REMARK  5 active torsions:
REMARK  status: ('A' for Active; 'I' for Inactive)
REMARK    1  A    between atoms: N_14  and  C_1 
REMARK    2  A    between atoms: C_11  and  N_2 
REMARK    3  A    between atoms: C_10  and  C_3 
REMARK    4  A    between atoms: O_18  and  C_10 
REMARK    5  A    between atoms: C_24  and  O_18 
ROOT
ATOM      1  C   UNL d   1       0.764  -0.799  -0.009  0.00  0.00     0.126 C 
ATOM      2  N   UNL d   1       1.714  -0.599   0.999  0.00  0.00    -0.281 N 
ATOM      3  C   UNL d   1      -0.171  -1.708   0.452  0.00  0.00     0.114 C 
ATOM      4  C   UNL d   1       1.672  -1.718   1.812  0.00  0.00     0.143 A 
ATOM      5  C   UNL d   1       0.470  -2.376   1.525  0.00  0.00     0.098 A 
ATOM      6  N   UNL d   1       2.556  -2.110   2.767  0.00  0.00    -0.338 N 
ATOM      7  HN  UNL d   1       3.400  -1.588   3.002  1.00  0.00     0.167 HD
ATOM      8  N   UNL d   1       0.096  -3.492   2.196  0.00  0.00    -0.350 N 
ATOM      9  HN  UNL d   1      -0.798  -3.954   2.033  1.00  0.00     0.166 HD
ATOM     10  C   UNL d   1       2.198  -3.262   3.374  0.00  0.00     0.060 A 
ATOM     11  C   UNL d   1       0.985  -3.942   3.087  0.00  0.00     0.059 A 
ATOM     12  C   UNL d   1       0.706  -5.143   3.727  0.00  0.00     0.032 A 
ATOM     13  C   UNL d   1       3.061  -3.827   4.309  0.00  0.00     0.032 A 
ATOM     14  C   UNL d   1       1.593  -5.707   4.642  0.00  0.00     0.002 A 
ATOM     15  C   UNL d   1       2.776  -5.042   4.937  0.00  0.00     0.002 A 
ENDROOT
BRANCH   2  16
ATOM     16  C   UNL d   1       2.570   0.541   1.029  0.00  0.00     0.043 C 
ATOM     17  C   UNL d   1       2.054   1.757   0.540  0.00  0.00     0.030 C 
ATOM     18  C   UNL d   1       2.900   2.798   0.189  0.00  0.00     0.009 C 
ATOM     19  C   UNL d   1       4.275   2.653   0.362  0.00  0.00    -0.062 C 
ATOM     20  C   UNL d   1       4.769   1.500   0.998  0.00  0.00     0.009 C 
ATOM     21  C   UNL d   1       5.200   3.658  -0.258  0.00  0.00     0.048 C 
ATOM     22  C   UNL d   1       3.917   0.445   1.357  0.00  0.00     0.030 C 
ENDBRANCH   2  16
BRANCH   1  23
ATOM     23  N   UNL d   1       0.835  -0.155  -1.209  0.00  0.00    -0.384 N 
ATOM     24  H   UNL d   1       0.238  -0.470  -1.974  0.00  0.00     0.157 HD
ATOM     25  H   UNL d   1       1.729   0.213  -1.538  0.00  0.00     0.157 HD
ENDBRANCH   1  23
BRANCH   3  26
ATOM     26  C   UNL d   1      -1.488  -1.930  -0.122  0.00  0.00     0.299 C 
ATOM     27  O   UNL d   1      -2.352  -2.640   0.366  0.00  0.00    -0.259 OA
BRANCH  26  28
ATOM     28  O   UNL d   1      -1.684  -1.145  -1.226  0.00  0.00    -0.318 OA
BRANCH  28  29
ATOM     29  C   UNL d   1      -3.021  -0.791  -1.584  0.00  0.00     0.174 C 
ATOM     30  C   UNL d   1      -3.103   0.728  -1.555  0.00  0.00     0.034 C 
ENDBRANCH  28  29
ENDBRANCH  26  28
ENDBRANCH   3  26
TORSDOF 5
