REMARK  8 active torsions:
REMARK  status: ('A' for Active; 'I' for Inactive)
REMARK    1  A    between atoms: N_14  and  C_2 
REMARK    2  A    between atoms: C_10  and  C_4 
REMARK    3  A    between atoms: C_12  and  C_7 
REMARK    4  A    between atoms: O_19  and  C_10 
REMARK    5  A    between atoms: C_16  and  C_11 
REMARK    6  A    between atoms: C_30  and  O_19 
REMARK    7  A    between atoms: O_28  and  C_20 
REMARK    8  A    between atoms: O_29  and  C_21 
ROOT
ATOM      1  N   UNL d   1       0.889   1.004   0.159  0.00  0.00    -0.261 N 
ATOM      2  C   UNL d   1       0.406   2.315   0.181  0.00  0.00     0.101 A 
ATOM      3  C   UNL d   1       0.018  -0.059   0.167  0.00  0.00     0.083 A 
ATOM      4  C   UNL d   1      -0.931   2.539   0.098  0.00  0.00     0.068 A 
ATOM      5  C   UNL d   1       2.236   0.665   0.130  0.00  0.00     0.271 A 
ATOM      6  C   UNL d   1       2.360  -0.819   0.142  0.00  0.00     0.076 A 
ATOM      7  C   UNL d   1      -1.956   1.422   0.033  0.00  0.00     0.086 A 
ATOM      8  S   UNL d   1       0.818  -1.593   0.171  0.00  0.00    -0.067 SA
ATOM      9  C   UNL d   1      -1.312   0.067   0.148  0.00  0.00     0.025 A 
ATOM     10  C   UNL d   1       3.573  -1.390   0.095  0.00  0.00     0.036 C 
ATOM     11  O   UNL d   1       3.200   1.425   0.052  0.00  0.00    -0.266 OA
ENDROOT
BRANCH  10  12
ATOM     12  C   UNL d   1       3.824  -2.823  -0.008  0.00  0.00    -0.035 A 
ATOM     13  C   UNL d   1       3.951  -3.399  -1.275  0.00  0.00     0.014 A 
ATOM     14  C   UNL d   1       4.178  -4.770  -1.408  0.00  0.00     0.037 A 
ATOM     15  C   UNL d   1       4.276  -5.577  -0.274  0.00  0.00     0.068 A 
ATOM     16  C   UNL d   1       4.168  -4.994   0.992  0.00  0.00     0.037 A 
ATOM     17  C   UNL d   1       3.941  -3.623   1.129  0.00  0.00     0.014 A 
BRANCH  15  18
ATOM     18  O   UNL d   1       4.470  -6.931  -0.274  0.00  0.00    -0.356 OA
ATOM     19  C   UNL d   1       4.530  -7.563  -1.548  0.00  0.00     0.210 C 
ENDBRANCH  15  18
ENDBRANCH  10  12
BRANCH   2  20
ATOM     20  N   UNL d   1       1.319   3.349   0.305  0.00  0.00    -0.287 NA
ATOM     21  H   UNL d   1       2.260   3.084  -0.002  0.00  0.00     0.125 HD
ATOM     22  H   UNL d   1       1.006   4.232  -0.099  0.00  0.00     0.125 HD
ENDBRANCH   2  20
BRANCH   4  23
ATOM     23  C   UNL d   1      -1.533   3.905   0.070  0.00  0.00     0.293 C 
ATOM     24  O   UNL d   1      -2.685   4.147   0.398  0.00  0.00    -0.259 OA
BRANCH  23  25
ATOM     25  O   UNL d   1      -0.676   4.783  -0.515  0.00  0.00    -0.318 OA
BRANCH  25  26
ATOM     26  C   UNL d   1      -1.249   5.972  -1.071  0.00  0.00     0.174 C 
ATOM     27  C   UNL d   1      -1.581   5.671  -2.520  0.00  0.00     0.034 C 
ENDBRANCH  25  26
ENDBRANCH  23  25
ENDBRANCH   4  23
BRANCH   7  28
ATOM     28  C   UNL d   1      -2.806   1.467  -1.236  0.00  0.00    -0.045 A 
ATOM     29  C   UNL d   1      -4.194   1.657  -1.150  0.00  0.00     0.011 A 
ATOM     30  C   UNL d   1      -4.983   1.719  -2.304  0.00  0.00     0.037 A 
ATOM     31  C   UNL d   1      -4.399   1.585  -3.563  0.00  0.00     0.068 A 
ATOM     32  C   UNL d   1      -3.021   1.383  -3.656  0.00  0.00     0.037 A 
ATOM     33  C   UNL d   1      -2.230   1.324  -2.508  0.00  0.00     0.011 A 
BRANCH  31  34
ATOM     34  O   UNL d   1      -5.053   1.630  -4.763  0.00  0.00    -0.356 OA
ATOM     35  C   UNL d   1      -6.456   1.856  -4.718  0.00  0.00     0.210 C 
ENDBRANCH  31  34
ENDBRANCH   7  28
TORSDOF 8
