REMARK  6 active torsions:
REMARK  status: ('A' for Active; 'I' for Inactive)
REMARK    1  A    between atoms: N_9  and  C_1 
REMARK    2  A    between atoms: N_10  and  C_1 
REMARK    3  A    between atoms: C_2  and  C_11 
REMARK    4  A    between atoms: C_3  and  C_12 
REMARK    5  A    between atoms: C_12  and  N_9 
REMARK    6  A    between atoms: C_11  and  N_10 
ROOT
ATOM      1  C   UNL d   1       1.030   0.095  -0.114  0.00  0.00     0.167 C 
ATOM      2  S   UNL d   1       0.013   0.560  -1.345  0.00  0.00    -0.041 SA
ENDROOT
BRANCH   1   3
ATOM      3  N   UNL d   1       0.488  -0.198   1.108  0.00  0.00    -0.367 N 
ATOM      4  H   UNL d   1      -0.513  -0.038   1.138  0.00  0.00     0.161 HD
BRANCH   3   5
ATOM      5  C   UNL d   1       0.967  -1.265   1.967  0.00  0.00     0.126 C 
BRANCH   5   6
ATOM      6  C   UNL d   1       1.252  -0.757   3.341  0.00  0.00     0.003 A 
ATOM      7  C   UNL d   1       2.172   0.411   3.599  0.00  0.00     0.007 A 
ATOM      8  C   UNL d   1       2.621  -0.979   3.938  0.00  0.00     0.007 A 
ENDBRANCH   5   6
ENDBRANCH   3   5
ENDBRANCH   1   3
BRANCH   1   9
ATOM      9  N   UNL d   1       2.386  -0.065  -0.185  0.00  0.00    -0.367 N 
ATOM     10  H   UNL d   1       2.887  -0.013   0.688  0.00  0.00     0.161 HD
BRANCH   9  11
ATOM     11  C   UNL d   1       3.180  -0.261  -1.382  0.00  0.00     0.126 C 
BRANCH  11  12
ATOM     12  C   UNL d   1       3.638   1.029  -1.982  0.00  0.00     0.003 A 
ATOM     13  C   UNL d   1       4.535   0.961  -3.195  0.00  0.00     0.007 A 
ATOM     14  C   UNL d   1       5.072   1.490  -1.896  0.00  0.00     0.007 A 
ENDBRANCH  11  12
ENDBRANCH   9  11
ENDBRANCH   1   9
TORSDOF 6
