REMARK  10 active torsions:
REMARK  status: ('A' for Active; 'I' for Inactive)
REMARK    1  A    between atoms: C_10  and  N_1 
REMARK    2  A    between atoms: C_2  and  C_7 
REMARK    3  A    between atoms: C_6  and  N_17 
REMARK    4  A    between atoms: C_18  and  C_10 
REMARK    5  A    between atoms: N_17  and  C_26 
REMARK    6  A    between atoms: O_22  and  C_18 
REMARK    7  A    between atoms: C_24  and  C_18 
REMARK    8  A    between atoms: N_21  and  C_24 
REMARK    9  A    between atoms: C_27  and  N_21 
REMARK   10  A    between atoms: C_26  and  C_27 
ROOT
ATOM      1  N   UNL d   1      -0.461  -5.908  -0.108  0.00  0.00     0.087 N 
ATOM      2  H   UNL d   1       0.178  -5.790   0.683  0.00  0.00     0.316 HD
ENDROOT
BRANCH   1   3
ATOM      3  C   UNL d   1      -1.520  -4.899  -0.006  0.00  0.00     0.302 C 
BRANCH   3   4
ATOM      4  C   UNL d   1      -0.902  -3.496   0.178  0.00  0.00     0.164 C 
BRANCH   4   5
ATOM      5  C   UNL d   1      -2.017  -2.442   0.233  0.00  0.00     0.162 C 
BRANCH   5   6
ATOM      6  N   UNL d   1      -1.515  -1.076   0.214  0.00  0.00    -0.354 N 
ATOM      7  C   UNL d   1      -1.261  -0.371  -0.935  0.00  0.00     0.092 A 
ATOM      8  C   UNL d   1      -0.852   0.892  -0.575  0.00  0.00     0.031 A 
ATOM      9  C   UNL d   1      -0.865   0.963   0.844  0.00  0.00    -0.008 A 
ATOM     10  C   UNL d   1      -1.287  -0.282   1.321  0.00  0.00     0.044 A 
ATOM     11  C   UNL d   1      -0.554   1.981   1.768  0.00  0.00     0.014 A 
ATOM     12  C   UNL d   1      -1.409  -0.541   2.697  0.00  0.00     0.030 A 
ATOM     13  C   UNL d   1      -1.088   0.482   3.594  0.00  0.00     0.002 A 
ATOM     14  C   UNL d   1      -0.667   1.727   3.138  0.00  0.00     0.001 A 
ENDBRANCH   5   6
ENDBRANCH   4   5
BRANCH   4  15
ATOM     15  O   UNL d   1      -0.110  -3.505   1.377  0.00  0.00    -0.392 OA
ATOM     16  H   UNL d   1      -0.701  -3.454   2.144  0.00  0.00     0.210 HD
ENDBRANCH   4  15
ENDBRANCH   3   4
ENDBRANCH   1   3
BRANCH   1  17
ATOM     17  C   UNL d   1      -0.959  -7.286  -0.163  0.00  0.00     0.284 C 
BRANCH  17  18
ATOM     18  C   UNL d   1      -1.723  -7.604  -1.462  0.00  0.00     0.125 C 
BRANCH  18  19
ATOM     19  N   UNL d   1      -2.111  -9.008  -1.512  0.00  0.00    -0.262 NA
ATOM     20  H   UNL d   1      -2.652  -9.348  -0.725  0.00  0.00     0.130 HD
BRANCH  19  21
ATOM     21  C   UNL d   1      -2.846  -9.327  -2.645  0.00  0.00     0.157 A 
ATOM     22  N   UNL d   1      -2.610  -8.697  -3.804  0.00  0.00    -0.329 N 
ATOM     23  C   UNL d   1      -3.364  -9.026  -4.881  0.00  0.00     0.120 A 
ATOM     24  HN  UNL d   1      -1.882  -7.986  -3.873  1.00  0.00     0.168 HD
ATOM     25  C   UNL d   1      -4.357  -9.983  -4.802  0.00  0.00     0.051 A 
ATOM     26  C   UNL d   1      -4.529 -10.569  -3.572  0.00  0.00     0.093 A 
ATOM     27  N   UNL d   1      -3.797 -10.253  -2.489  0.00  0.00    -0.343 N 
ATOM     28  HN  UNL d   1      -3.960 -10.702  -1.587  1.00  0.00     0.167 HD
BRANCH  23  29
ATOM     29  C   UNL d   1      -3.116  -8.321  -6.202  0.00  0.00     0.432 C 
ATOM     30  F   UNL d   1      -2.130  -7.382  -6.166  0.00  0.00    -0.165 F 
ATOM     31  F   UNL d   1      -2.772  -9.187  -7.199  0.00  0.00    -0.165 F 
ATOM     32  F   UNL d   1      -4.228  -7.670  -6.655  0.00  0.00    -0.165 F 
ENDBRANCH  23  29
ENDBRANCH  19  21
ENDBRANCH  18  19
ENDBRANCH  17  18
ENDBRANCH   1  17
TORSDOF 10
