REMARK  6 active torsions:
REMARK  status: ('A' for Active; 'I' for Inactive)
REMARK    1  A    between atoms: C_10  and  C_3 
REMARK    2  A    between atoms: C_16  and  N_5 
REMARK    3  A    between atoms: N_14  and  C_7 
REMARK    4  A    between atoms: O_17  and  C_10 
REMARK    5  A    between atoms: C_18  and  N_14 
REMARK    6  A    between atoms: C_19  and  O_17 
ROOT
ATOM      1  C   UNL d   1       0.155  -0.722  -0.060  0.00  0.00     0.093 A 
ATOM      2  C   UNL d   1       0.249   0.667  -0.090  0.00  0.00     0.047 A 
ATOM      3  C   UNL d   1       2.520   0.072  -0.037  0.00  0.00     0.109 A 
ATOM      4  C   UNL d   1       1.615   1.117  -0.098  0.00  0.00     0.064 A 
ATOM      5  N   UNL d   1      -1.047  -1.405  -0.033  0.00  0.00    -0.327 N 
ATOM      6  S   UNL d   1       1.710  -1.433  -0.042  0.00  0.00    -0.063 SA
ATOM      7  C   UNL d   1      -0.975   1.458  -0.072  0.00  0.00     0.027 A 
ATOM      8  C   UNL d   1      -2.227  -0.664   0.030  0.00  0.00     0.103 A 
ATOM      9  C   UNL d   1      -2.167   0.829   0.009  0.00  0.00     0.072 A 
ATOM     10  N   UNL d   1      -3.432  -1.144   0.107  0.00  0.00    -0.385 N 
ATOM     11  HN  UNL d   1      -4.279  -0.576   0.137  1.00  0.00     0.157 HD
ATOM     12  N   UNL d   1       1.959   2.423  -0.129  0.00  0.00    -0.397 N 
ATOM     13  H   UNL d   1      -3.421  -2.162   0.132  0.00  0.00     0.157 HD
ATOM     14  H   UNL d   1       1.233   3.119   0.050  0.00  0.00     0.156 HD
ATOM     15  H   UNL d   1       2.912   2.740   0.034  0.00  0.00     0.156 HD
ENDROOT
BRANCH   3  16
ATOM     16  C   UNL d   1       3.964   0.039   0.075  0.00  0.00     0.302 C 
ATOM     17  O   UNL d   1       4.661  -0.972   0.169  0.00  0.00    -0.259 OA
BRANCH  16  18
ATOM     18  O   UNL d   1       4.468   1.308   0.168  0.00  0.00    -0.317 OA
BRANCH  18  19
ATOM     19  C   UNL d   1       5.797   1.400   0.696  0.00  0.00     0.174 C 
ATOM     20  C   UNL d   1       5.695   1.473   2.208  0.00  0.00     0.034 C 
ENDBRANCH  18  19
ENDBRANCH  16  18
ENDBRANCH   3  16
BRANCH   5  21
ATOM     21  C   UNL d   1      -1.045  -2.872  -0.096  0.00  0.00     0.127 C 
ATOM     22  C   UNL d   1      -0.985  -3.493   1.294  0.00  0.00     0.027 C 
ENDBRANCH   5  21
BRANCH   7  23
ATOM     23  N   UNL d   1      -0.927   2.867  -0.088  0.00  0.00    -0.292 NA
ATOM     24  H   UNL d   1      -1.717   3.210   0.462  0.00  0.00     0.127 HD
BRANCH  23  25
ATOM     25  C   UNL d   1      -0.972   3.554  -1.389  0.00  0.00     0.088 C 
ATOM     26  C   UNL d   1      -1.022   5.058  -1.166  0.00  0.00     0.021 C 
ENDBRANCH  23  25
ENDBRANCH   7  23
TORSDOF 6
