REMARK  5 active torsions:
REMARK  status: ('A' for Active; 'I' for Inactive)
REMARK    1  A    between atoms: C_2  and  C_1 
REMARK       I    between atoms: N_5  and  C_2 
REMARK    2  A    between atoms: C_14  and  N_5 
REMARK    3  A    between atoms: C_12  and  C_6 
REMARK    4  A    between atoms: S_11  and  C_12 
REMARK    5  A    between atoms: C_13  and  S_11 
ROOT
ATOM      1  C   UNL d   1      -0.061   1.143  -0.055  0.00  0.00     0.143 A 
ATOM      2  O   UNL d   1      -0.906   0.057  -0.027  0.00  0.00    -0.309 OA
ATOM      3  C   UNL d   1       1.251   0.709  -0.048  0.00  0.00     0.045 A 
ATOM      4  C   UNL d   1      -0.108  -1.067  -0.009  0.00  0.00     0.063 A 
ATOM      5  C   UNL d   1       1.223  -0.694  -0.049  0.00  0.00     0.036 A 
ENDROOT
BRANCH   1   6
ATOM      6  C   UNL d   1      -0.537   2.516  -0.108  0.00  0.00     0.280 C 
ATOM      7  N   UNL d   1      -1.909   2.689  -0.111  0.00  0.00    -0.320 N 
ATOM      8  H   UNL d   1      -2.469   1.860   0.047  0.00  0.00     0.169 HD
ATOM      9  O   UNL d   1       0.268   3.446  -0.142  0.00  0.00    -0.265 OA
BRANCH   7  10
ATOM     10  C   UNL d   1      -2.576   3.931  -0.272  0.00  0.00     0.050 A 
ATOM     11  C   UNL d   1      -1.955   5.125  -0.646  0.00  0.00     0.117 A 
ATOM     12  N   UNL d   1      -2.596   6.310  -0.817  0.00  0.00    -0.373 N 
ATOM     13  C   UNL d   1      -3.924   6.319  -0.599  0.00  0.00     0.088 A 
ATOM     14  HN  UNL d   1      -2.095   7.153  -1.098  1.00  0.00     0.164 HD
ATOM     15  C   UNL d   1      -4.641   5.194  -0.227  0.00  0.00     0.019 A 
ATOM     16  C   UNL d   1      -3.957   3.985  -0.069  0.00  0.00     0.032 A 
ENDBRANCH   7  10
ENDBRANCH   1   6
BRANCH   4  17
ATOM     17  C   UNL d   1      -0.767  -2.411   0.037  0.00  0.00     0.144 C 
BRANCH  17  18
ATOM     18  S   UNL d   1       0.203  -3.532   1.129  0.00  0.00    -0.123 SA
BRANCH  18  19
ATOM     19  C   UNL d   1      -0.519  -5.140   0.867  0.00  0.00     0.001 A 
ATOM     20  C   UNL d   1       0.340  -6.250   0.917  0.00  0.00     0.020 A 
ATOM     21  C   UNL d   1      -0.164  -7.553   0.851  0.00  0.00     0.025 A 
ATOM     22  C   UNL d   1      -1.536  -7.752   0.739  0.00  0.00     0.034 A 
ATOM     23  C   UNL d   1      -2.401  -6.661   0.676  0.00  0.00     0.025 A 
ATOM     24 CL   UNL d   1      -2.168  -9.352   0.706  0.00  0.00    -0.084 Cl
ATOM     25  C   UNL d   1      -1.894  -5.357   0.741  0.00  0.00     0.020 A 
ENDBRANCH  18  19
ENDBRANCH  17  18
ENDBRANCH   4  17
TORSDOF 5
