REMARK  4 active torsions:
REMARK  status: ('A' for Active; 'I' for Inactive)
REMARK    1  A    between atoms: N_3  and  C_1 
REMARK    2  A    between atoms: C_8  and  C_1 
REMARK       I    between atoms: C_2  and  N_5 
REMARK    3  A    between atoms: C_4  and  C_2 
REMARK    4  A    between atoms: N_5  and  N_3 
ROOT
ATOM      1  N   UNL d   1       0.432  -1.191   0.310  0.00  0.00    -0.186 NA
ATOM      2  H   UNL d   1      -0.566  -1.084   0.075  0.00  0.00     0.154 HD
ENDROOT
BRANCH   1   3
ATOM      3  C   UNL d   1       1.186  -0.056   0.054  0.00  0.00     0.119 C 
ATOM      4  N   UNL d   1       2.486  -0.073   0.002  0.00  0.00    -0.387 N 
ATOM      5  H   UNL d   1       2.796  -1.027   0.183  0.00  0.00     0.157 HD
ATOM      6  HN  UNL d   1       3.090   0.727  -0.186  1.00  0.00     0.157 HD
BRANCH   3   7
ATOM      7  C   UNL d   1       0.473   1.256  -0.155  0.00  0.00     0.071 A 
ATOM      8  N   UNL d   1      -0.884   1.208  -0.134  0.00  0.00    -0.363 N 
ATOM      9  C   UNL d   1      -1.521   2.386  -0.328  0.00  0.00     0.088 A 
ATOM     10  HN  UNL d   1      -1.393   0.337   0.019  1.00  0.00     0.165 HD
ATOM     11  C   UNL d   1      -0.874   3.597  -0.542  0.00  0.00     0.017 A 
ATOM     12  C   UNL d   1       0.516   3.611  -0.559  0.00  0.00     0.004 A 
ATOM     13  C   UNL d   1       1.206   2.421  -0.363  0.00  0.00     0.033 A 
ENDBRANCH   3   7
ENDBRANCH   1   3
BRANCH   1  14
ATOM     14  N   UNL d   1       0.984  -2.412  -0.138  0.00  0.00    -0.281 N 
ATOM     15  C   UNL d   1       0.105  -3.376  -0.602  0.00  0.00     0.267 C 
ATOM     16  O   UNL d   1      -1.109  -3.221  -0.673  0.00  0.00    -0.266 OA
ATOM     17  H   UNL d   1       1.829  -2.715   0.334  0.00  0.00     0.184 HD
BRANCH  15  18
ATOM     18  C   UNL d   1       0.733  -4.652  -1.014  0.00  0.00     0.048 A 
ATOM     19  C   UNL d   1       0.030  -5.841  -0.874  0.00  0.00     0.104 A 
ATOM     20  N   UNL d   1       0.515  -7.050  -1.255  0.00  0.00    -0.374 N 
ATOM     21  C   UNL d   1       1.740  -7.067  -1.825  0.00  0.00     0.087 A 
ATOM     22  HN  UNL d   1      -0.021  -7.907  -1.117  1.00  0.00     0.164 HD
ATOM     23  C   UNL d   1       2.512  -5.931  -2.019  0.00  0.00     0.018 A 
ATOM     24  C   UNL d   1       2.001  -4.704  -1.602  0.00  0.00     0.020 A 
ENDBRANCH  15  18
ENDBRANCH   1  14
TORSDOF 4
