REMARK  6 active torsions:
REMARK  status: ('A' for Active; 'I' for Inactive)
REMARK    1  A    between atoms: C_10  and  N_3 
REMARK    2  A    between atoms: C_7  and  C_4 
REMARK    3  A    between atoms: C_12  and  C_5 
REMARK    4  A    between atoms: O_15  and  C_9 
REMARK    5  A    between atoms: O_16  and  C_11 
REMARK    6  A    between atoms: C_21  and  O_16 
ROOT
ATOM      1  N   UNL d   1       1.131  -0.194   0.051  0.00  0.00    -0.301 N 
ATOM      2  HN  UNL d   1       2.126  -0.387   0.163  1.00  0.00     0.187 HD
ATOM      3  N   UNL d   1       0.128  -1.116  -0.017  0.00  0.00    -0.283 N 
ATOM      4  C   UNL d   1      -1.213  -0.528  -0.080  0.00  0.00     0.147 A 
ATOM      5  C   UNL d   1       0.577   0.976  -0.055  0.00  0.00     0.038 A 
ATOM      6  C   UNL d   1      -0.923   0.972  -0.153  0.00  0.00     0.091 A 
ENDROOT
BRANCH   4   7
ATOM      7  C   UNL d   1      -2.062  -0.858   1.142  0.00  0.00    -0.030 A 
ATOM      8  C   UNL d   1      -1.477  -1.008   2.413  0.00  0.00     0.049 A 
ATOM      9  C   UNL d   1      -2.232  -1.300   3.556  0.00  0.00     0.102 A 
ATOM     10  C   UNL d   1      -3.626  -1.430   3.428  0.00  0.00     0.102 A 
ATOM     11  C   UNL d   1      -4.215  -1.268   2.163  0.00  0.00     0.040 A 
ATOM     12  C   UNL d   1      -3.448  -0.986   1.032  0.00  0.00     0.012 A 
BRANCH   9  13
ATOM     13  O   UNL d   1      -1.664  -1.457   4.792  0.00  0.00    -0.353 OA
ATOM     14  C   UNL d   1      -0.249  -1.362   4.900  0.00  0.00     0.210 C 
ENDBRANCH   9  13
BRANCH  10  15
ATOM     15  O   UNL d   1      -4.553  -1.704   4.404  0.00  0.00    -0.349 OA
BRANCH  15  16
ATOM     16  C   UNL d   1      -4.096  -1.898   5.739  0.00  0.00     0.171 C 
ATOM     17  C   UNL d   1      -5.295  -2.172   6.629  0.00  0.00     0.034 C 
ENDBRANCH  15  16
ENDBRANCH  10  15
ENDBRANCH   4   7
BRANCH   3  18
ATOM     18  C   UNL d   1       0.402  -2.483   0.011  0.00  0.00     0.051 A 
ATOM     19  C   UNL d   1       1.585  -2.966   0.593  0.00  0.00     0.031 A 
ATOM     20  C   UNL d   1       1.859  -4.335   0.669  0.00  0.00     0.002 A 
ATOM     21  C   UNL d   1       0.964  -5.254   0.130  0.00  0.00     0.000 A 
ATOM     22  C   UNL d   1      -0.204  -4.801  -0.473  0.00  0.00     0.002 A 
ATOM     23  C   UNL d   1      -0.484  -3.431  -0.521  0.00  0.00     0.031 A 
ENDBRANCH   3  18
BRANCH   5  24
ATOM     24  C   UNL d   1       1.353   2.240  -0.109  0.00  0.00    -0.012 A 
ATOM     25  C   UNL d   1       2.750   2.187  -0.049  0.00  0.00     0.013 A 
ATOM     26  C   UNL d   1       3.504   3.358  -0.148  0.00  0.00     0.001 A 
ATOM     27  C   UNL d   1       2.866   4.588  -0.308  0.00  0.00     0.000 A 
ATOM     28  C   UNL d   1       1.475   4.648  -0.362  0.00  0.00     0.001 A 
ATOM     29  C   UNL d   1       0.717   3.479  -0.262  0.00  0.00     0.013 A 
ENDBRANCH   5  24
TORSDOF 6
