REMARK  1 active torsions:
REMARK  status: ('A' for Active; 'I' for Inactive)
REMARK    1  A    between atoms: C_11  and  C_5 
ROOT
ATOM      1  C   UNL d   1      -2.494   0.551  -0.341  0.00  0.00     0.003 C 
ATOM      2  C   UNL d   1      -1.275   1.393  -0.140  0.00  0.00     0.190 C 
ATOM      3  C   UNL d   1       0.028   0.665  -0.046  0.00  0.00     0.034 A 
ATOM      4  S   UNL d   1      -1.281  -1.839  -0.158  0.00  0.00    -0.124 SA
ATOM      5  C   UNL d   1      -3.410   0.981  -1.235  0.00  0.00     0.023 C 
ATOM      6  C   UNL d   1       0.124  -0.740  -0.096  0.00  0.00     0.015 A 
ATOM      7  C   UNL d   1      -2.535  -0.700   0.472  0.00  0.00     0.122 C 
ATOM      8  C   UNL d   1       1.198   1.435   0.042  0.00  0.00     0.059 A 
ATOM      9  O   UNL d   1      -1.340   2.610  -0.058  0.00  0.00    -0.287 OA
ATOM     10  C   UNL d   1       1.388  -1.349  -0.095  0.00  0.00     0.022 A 
ATOM     11  C   UNL d   1       2.439   0.807   0.056  0.00  0.00     0.117 A 
ATOM     12  C   UNL d   1       2.545  -0.576  -0.018  0.00  0.00     0.043 A 
ATOM     13  F   UNL d   1       3.552   1.546   0.132  0.00  0.00    -0.206 F 
ENDROOT
BRANCH   5  14
ATOM     14  C   UNL d   1      -4.560   0.153  -1.603  0.00  0.00    -0.036 A 
ATOM     15  C   UNL d   1      -5.750   0.225  -0.877  0.00  0.00     0.012 A 
ATOM     16  C   UNL d   1      -6.739  -0.746  -1.062  0.00  0.00     0.007 A 
ATOM     17  C   UNL d   1      -6.562  -1.778  -1.993  0.00  0.00    -0.062 A 
ATOM     18  C   UNL d   1      -5.409  -1.788  -2.785  0.00  0.00     0.007 A 
ATOM     19  C   UNL d   1      -7.565  -2.891  -2.073  0.00  0.00     0.048 C 
ATOM     20  C   UNL d   1      -4.412  -0.830  -2.589  0.00  0.00     0.012 A 
ENDBRANCH   5  14
TORSDOF 1
