REMARK  2 active torsions:
REMARK  status: ('A' for Active; 'I' for Inactive)
REMARK    1  A    between atoms: C_2  and  C_1 
REMARK       I    between atoms: N_3  and  C_2 
REMARK    2  A    between atoms: C_5  and  N_3 
ROOT
ATOM      1  C   UNL d   1      -2.971  -0.563   0.509  0.00  0.00     0.265 C 
ATOM      2  N   UNL d   1      -3.703   0.433  -0.107  0.00  0.00    -0.321 N 
ATOM      3  O   UNL d   1      -3.516  -1.570   0.966  0.00  0.00    -0.267 OA
ATOM      4  H   UNL d   1      -3.202   1.036  -0.756  0.00  0.00     0.169 HD
ENDROOT
BRANCH   2   5
ATOM      5  C   UNL d   1      -5.109   0.529  -0.071  0.00  0.00     0.057 A 
ATOM      6  C   UNL d   1      -5.808   1.105  -1.143  0.00  0.00     0.062 A 
ATOM      7  C   UNL d   1      -7.204   1.233  -1.099  0.00  0.00     0.050 A 
ATOM      8 CL   UNL d   1      -4.986   1.596  -2.582  0.00  0.00    -0.082 Cl
ATOM      9  C   UNL d   1      -7.894   0.828   0.040  0.00  0.00     0.035 A 
ATOM     10  C   UNL d   1      -7.214   0.272   1.120  0.00  0.00     0.026 A 
ATOM     11 CL   UNL d   1      -9.600   1.030   0.122  0.00  0.00    -0.084 Cl
ATOM     12  C   UNL d   1      -5.831   0.115   1.060  0.00  0.00     0.033 A 
ENDBRANCH   2   5
BRANCH   1  13
ATOM     13  C   UNL d   1      -1.459  -0.394   0.488  0.00  0.00     0.097 C 
ATOM     14  C   UNL d   1      -0.608  -1.283   1.061  0.00  0.00     0.064 C 
ATOM     15  O   UNL d   1       0.772  -1.232   0.998  0.00  0.00    -0.353 OA
ATOM     16  C   UNL d   1      -0.993  -2.492   1.880  0.00  0.00     0.078 C 
ATOM     17  C   UNL d   1       1.475  -0.253   0.241  0.00  0.00     0.185 C 
ATOM     18  C   UNL d   1       0.710   0.414  -0.882  0.00  0.00     0.106 C 
ATOM     19  S   UNL d   1      -0.862   1.059  -0.283  0.00  0.00    -0.120 SA
ENDBRANCH   1  13
TORSDOF 2
