REMARK  0 active torsions:
REMARK  status: ('A' for Active; 'I' for Inactive)
ROOT
ATOM      1  C   UNL d   1       1.192  -0.750  -0.084  0.00  0.00     0.022 A 
ATOM      2  C   UNL d   1       1.163   0.594  -0.100  0.00  0.00     0.064 A 
ATOM      3  O   UNL d   1      -0.024   1.320  -0.098  0.00  0.00    -0.314 OA
ATOM      4  C   UNL d   1       2.498  -1.463  -0.105  0.00  0.00     0.159 C 
ATOM      5  C   UNL d   1      -0.043  -1.588  -0.037  0.00  0.00     0.086 A 
ATOM      6  C   UNL d   1      -1.296  -0.757  -0.025  0.00  0.00    -0.018 A 
ATOM      7  C   UNL d   1      -1.218   0.639  -0.060  0.00  0.00     0.082 A 
ATOM      8  C   UNL d   1       2.396   1.453  -0.079  0.00  0.00     0.075 C 
ATOM      9  C   UNL d   1       3.634   0.720   0.483  0.00  0.00    -0.035 C 
ATOM     10  C   UNL d   1       3.765  -0.642  -0.220  0.00  0.00     0.092 C 
ATOM     11  C   UNL d   1      -2.554  -1.375   0.024  0.00  0.00     0.029 A 
ATOM     12  O   UNL d   1       2.531  -2.692  -0.087  0.00  0.00    -0.293 OA
ATOM     13  C   UNL d   1      -2.380   1.414  -0.054  0.00  0.00     0.039 A 
ATOM     14  C   UNL d   1      -3.711  -0.596   0.032  0.00  0.00     0.011 A 
ATOM     15  C   UNL d   1      -3.630   0.795  -0.007  0.00  0.00     0.022 A 
ATOM     16 BR   UNL d   1      -5.403  -1.436   0.099  0.00  0.00    -0.051 Br
ATOM     17  C   UNL d   1       3.510   0.527   2.011  0.00  0.00     0.015 C 
ATOM     18  C   UNL d   1       4.896   1.557   0.212  0.00  0.00     0.015 C 
ENDROOT
TORSDOF 0
