REMARK  2 active torsions:
REMARK  status: ('A' for Active; 'I' for Inactive)
REMARK    1  A    between atoms: N_8  and  N_2 
REMARK    2  A    between atoms: C_11  and  N_8 
ROOT
ATOM      1  C   UNL d   1      -5.259  -2.226   1.386  0.00  0.00     0.111 A 
ATOM      2  C   UNL d   1      -4.634  -3.514   1.433  0.00  0.00     0.105 C 
ATOM      3  N   UNL d   1      -4.112  -4.549   1.470  0.00  0.00    -0.191 NA
ATOM      4  C   UNL d   1      -4.542  -1.065   1.032  0.00  0.00     0.071 A 
ATOM      5  C   UNL d   1      -6.612  -2.134   1.725  0.00  0.00     0.139 A 
ATOM      6  F   UNL d   1      -7.305  -3.235   2.051  0.00  0.00    -0.204 F 
ATOM      7  C   UNL d   1      -6.570   0.249   1.441  0.00  0.00     0.005 A 
ATOM      8  C   UNL d   1      -5.218   0.170   1.097  0.00  0.00     0.032 A 
ATOM      9  C   UNL d   1      -7.272  -0.909   1.749  0.00  0.00     0.044 A 
ENDROOT
BRANCH   4  10
ATOM     10  N   UNL d   1      -3.161  -1.114   0.740  0.00  0.00    -0.299 N 
ATOM     11  H   UNL d   1      -2.799  -2.016   0.395  0.00  0.00     0.187 HD
BRANCH  10  12
ATOM     12  N   UNL d   1      -2.492   0.037   0.457  0.00  0.00    -0.294 N 
ATOM     13  C   UNL d   1      -1.260  -0.051   0.032  0.00  0.00     0.140 C 
ATOM     14  C   UNL d   1      -0.555  -1.382  -0.190  0.00  0.00     0.181 C 
ATOM     15  C   UNL d   1      -0.516   1.258  -0.204  0.00  0.00     0.181 C 
ATOM     16  C   UNL d   1       0.928  -1.352  -0.430  0.00  0.00     0.095 C 
ATOM     17  O   UNL d   1      -1.198  -2.425  -0.252  0.00  0.00    -0.291 OA
ATOM     18  C   UNL d   1       1.629  -0.083   0.071  0.00  0.00    -0.034 C 
ATOM     19  C   UNL d   1       0.952   1.155  -0.539  0.00  0.00     0.095 C 
ATOM     20  C   UNL d   1       3.096  -0.140  -0.401  0.00  0.00     0.015 C 
ATOM     21  C   UNL d   1       1.629  -0.009   1.610  0.00  0.00     0.015 C 
ATOM     22  O   UNL d   1      -1.104   2.331  -0.178  0.00  0.00    -0.291 OA
ATOM     23  HN  UNL d   1      -2.940   0.946   0.574  1.00  0.00     0.187 HD
ENDBRANCH  10  12
ENDBRANCH   4  10
TORSDOF 2
