REMARK  6 active torsions:
REMARK  status: ('A' for Active; 'I' for Inactive)
REMARK    1  A    between atoms: C_2  and  S_1 
REMARK    2  A    between atoms: C_5  and  S_1 
REMARK    3  A    between atoms: C_13  and  C_5 
REMARK    4  A    between atoms: N_11  and  C_8 
REMARK    5  A    between atoms: C_21  and  N_11 
REMARK    6  A    between atoms: C_12  and  C_21 
ROOT
ATOM      1  C   UNL d   1       0.077  -1.441  -0.504  0.00  0.00     0.149 C 
ATOM      2  C   UNL d   1      -1.127  -1.754   0.175  0.00  0.00     0.112 C 
ATOM      3  N   UNL d   1      -2.124  -2.032   0.700  0.00  0.00    -0.191 NA
ATOM      4  C   UNL d   1       0.635  -2.254  -1.421  0.00  0.00     0.092 C 
ENDROOT
BRANCH   1   5
ATOM      5  S   UNL d   1       0.948  -0.010  -0.008  0.00  0.00     0.190 S 
ATOM      6  O   UNL d   1       2.346  -0.362   0.182  0.00  0.00    -0.222 OA
ATOM      7  O   UNL d   1       0.213   0.645   1.060  0.00  0.00    -0.222 OA
BRANCH   5   8
ATOM      8  C   UNL d   1       0.836   1.018  -1.469  0.00  0.00     0.185 C 
BRANCH   8   9
ATOM      9  C   UNL d   1       1.511   2.359  -1.274  0.00  0.00    -0.044 A 
ATOM     10  C   UNL d   1       2.655   2.687  -2.021  0.00  0.00     0.010 A 
ATOM     11  C   UNL d   1       3.213   3.969  -1.952  0.00  0.00     0.024 A 
ATOM     12  C   UNL d   1       2.638   4.932  -1.127  0.00  0.00     0.034 A 
ATOM     13  C   UNL d   1       1.525   4.617  -0.355  0.00  0.00     0.024 A 
ATOM     14 CL   UNL d   1       3.291   6.523  -1.084  0.00  0.00    -0.084 Cl
ATOM     15  C   UNL d   1       0.962   3.338  -0.429  0.00  0.00     0.010 A 
ENDBRANCH   8   9
ENDBRANCH   5   8
ENDBRANCH   1   5
BRANCH   4  16
ATOM     16  N   UNL d   1       0.194  -3.496  -1.863  0.00  0.00    -0.296 NA
ATOM     17  H   UNL d   1       0.984  -4.125  -2.013  0.00  0.00     0.127 HD
BRANCH  16  18
ATOM     18  C   UNL d   1      -0.787  -3.680  -2.940  0.00  0.00     0.131 C 
BRANCH  18  19
ATOM     19  C   UNL d   1      -0.118  -3.725  -4.289  0.00  0.00    -0.030 A 
ATOM     20  C   UNL d   1      -0.479  -2.835  -5.296  0.00  0.00     0.096 A 
ATOM     21  N   UNL d   1       0.061  -2.827  -6.537  0.00  0.00    -0.375 N 
ATOM     22  C   UNL d   1       0.999  -3.761  -6.802  0.00  0.00     0.087 A 
ATOM     23  HN  UNL d   1      -0.228  -2.147  -7.240  1.00  0.00     0.164 HD
ATOM     24  C   UNL d   1       1.423  -4.701  -5.879  0.00  0.00     0.018 A 
ATOM     25  C   UNL d   1       0.852  -4.684  -4.610  0.00  0.00     0.011 A 
ENDBRANCH  18  19
ENDBRANCH  16  18
ENDBRANCH   4  16
TORSDOF 6
