REMARK  5 active torsions:
REMARK  status: ('A' for Active; 'I' for Inactive)
REMARK    1  A    between atoms: C_8  and  C_3 
REMARK    2  A    between atoms: C_10  and  C_7 
REMARK    3  A    between atoms: C_11  and  C_19 
REMARK    4  A    between atoms: O_18  and  C_13 
REMARK    5  A    between atoms: C_19  and  O_18 
ROOT
ATOM      1  N   UNL d   1       1.553  -0.063   0.016  0.00  0.00    -0.331 N 
ATOM      2  HN  UNL d   1       2.502  -0.438   0.013  1.00  0.00     0.168 HD
ATOM      3  C   UNL d   1       1.174   1.173  -0.006  0.00  0.00     0.162 A 
ATOM      4  C   UNL d   1       0.363  -0.744   0.045  0.00  0.00     0.111 A 
ATOM      5  O   UNL d   1      -0.155   1.426   0.030  0.00  0.00    -0.256 OA
ATOM      6  C   UNL d   1      -0.780   0.216   0.070  0.00  0.00     0.316 A 
ATOM      7  C   UNL d   1       0.284  -2.080   0.018  0.00  0.00     0.047 C 
ATOM      8  O   UNL d   1      -1.978   0.025   0.119  0.00  0.00    -0.257 OA
ENDROOT
BRANCH   7   9
ATOM      9  C   UNL d   1      -0.953  -2.852   0.008  0.00  0.00    -0.034 A 
ATOM     10  C   UNL d   1      -1.525  -3.256  -1.202  0.00  0.00     0.014 A 
ATOM     11  C   UNL d   1      -2.688  -4.031  -1.202  0.00  0.00     0.037 A 
ATOM     12  C   UNL d   1      -3.278  -4.415   0.003  0.00  0.00     0.069 A 
ATOM     13  C   UNL d   1      -2.736  -3.964   1.208  0.00  0.00     0.037 A 
ATOM     14  C   UNL d   1      -1.571  -3.196   1.212  0.00  0.00     0.014 A 
BRANCH  12  15
ATOM     15  O   UNL d   1      -4.373  -5.232  -0.106  0.00  0.00    -0.348 OA
BRANCH  15  16
ATOM     16  C   UNL d   1      -4.656  -6.013   1.055  0.00  0.00     0.202 C 
BRANCH  16  17
ATOM     17  C   UNL d   1      -5.500  -7.182   0.647  0.00  0.00    -0.011 C 
ATOM     18  C   UNL d   1      -5.115  -8.460   0.774  0.00  0.00     0.009 C 
ENDBRANCH  16  17
ENDBRANCH  15  16
ENDBRANCH  12  15
ENDBRANCH   7   9
BRANCH   3  19
ATOM     19  C   UNL d   1       2.038   2.359  -0.095  0.00  0.00     0.015 A 
ATOM     20  C   UNL d   1       3.425   2.181  -0.164  0.00  0.00     0.016 A 
ATOM     21  C   UNL d   1       4.265   3.285  -0.307  0.00  0.00     0.001 A 
ATOM     22  C   UNL d   1       3.724   4.569  -0.381  0.00  0.00     0.000 A 
ATOM     23  C   UNL d   1       2.343   4.752  -0.299  0.00  0.00     0.001 A 
ATOM     24  C   UNL d   1       1.498   3.650  -0.154  0.00  0.00     0.016 A 
ENDBRANCH   3  19
TORSDOF 5
