REMARK  7 active torsions:
REMARK  status: ('A' for Active; 'I' for Inactive)
REMARK    1  A    between atoms: N_4  and  C_1 
REMARK    2  A    between atoms: N_5  and  C_1 
REMARK    3  A    between atoms: C_2  and  N_3 
REMARK    4  A    between atoms: N_6  and  C_2 
REMARK    5  A    between atoms: N_3  and  N_4 
REMARK    6  A    between atoms: C_9  and  N_5 
REMARK    7  A    between atoms: C_10  and  N_6 
ROOT
ATOM      1  N   UNL d   1       0.709   1.314   1.817  0.00  0.00    -0.274 N 
ATOM      2  H   UNL d   1       1.630   0.910   1.992  0.00  0.00     0.189 HD
ENDROOT
BRANCH   1   3
ATOM      3  C   UNL d   1       0.246   2.231   2.732  0.00  0.00     0.191 C 
ATOM      4  S   UNL d   1      -0.778   3.513   2.399  0.00  0.00    -0.039 SA
BRANCH   3   5
ATOM      5  N   UNL d   1       0.693   2.076   4.018  0.00  0.00    -0.332 N 
ATOM      6  H   UNL d   1       0.582   2.900   4.598  0.00  0.00     0.168 HD
BRANCH   5   7
ATOM      7  C   UNL d   1       1.136   0.907   4.669  0.00  0.00     0.034 A 
ATOM      8  C   UNL d   1       1.825   1.056   5.874  0.00  0.00     0.029 A 
ATOM      9  C   UNL d   1       2.278  -0.067   6.571  0.00  0.00     0.002 A 
ATOM     10  C   UNL d   1       2.020  -1.346   6.081  0.00  0.00     0.000 A 
ATOM     11  C   UNL d   1       1.300  -1.503   4.901  0.00  0.00     0.002 A 
ATOM     12  C   UNL d   1       0.855  -0.382   4.201  0.00  0.00     0.029 A 
ENDBRANCH   5   7
ENDBRANCH   3   5
ENDBRANCH   1   3
BRANCH   1  13
ATOM     13  N   UNL d   1       0.316   1.355   0.476  0.00  0.00    -0.274 N 
ATOM     14  H   UNL d   1      -0.669   1.163   0.324  0.00  0.00     0.189 HD
BRANCH  13  15
ATOM     15  C   UNL d   1       1.188   1.081  -0.545  0.00  0.00     0.191 C 
ATOM     16  S   UNL d   1       2.811   0.717  -0.336  0.00  0.00    -0.039 SA
BRANCH  15  17
ATOM     17  N   UNL d   1       0.678   1.052  -1.815  0.00  0.00    -0.332 N 
ATOM     18  H   UNL d   1       1.313   0.631  -2.486  0.00  0.00     0.168 HD
BRANCH  17  19
ATOM     19  C   UNL d   1      -0.552   1.509  -2.333  0.00  0.00     0.034 A 
ATOM     20  C   UNL d   1      -1.380   2.430  -1.686  0.00  0.00     0.029 A 
ATOM     21  C   UNL d   1      -2.605   2.803  -2.240  0.00  0.00     0.002 A 
ATOM     22  C   UNL d   1      -2.998   2.289  -3.473  0.00  0.00     0.000 A 
ATOM     23  C   UNL d   1      -2.155   1.414  -4.155  0.00  0.00     0.002 A 
ATOM     24  C   UNL d   1      -0.935   1.032  -3.592  0.00  0.00     0.029 A 
ENDBRANCH  17  19
ENDBRANCH  15  17
ENDBRANCH  13  15
ENDBRANCH   1  13
TORSDOF 7
