REMARK  4 active torsions:
REMARK  status: ('A' for Active; 'I' for Inactive)
REMARK    1  A    between atoms: C_2  and  S_1 
REMARK    2  A    between atoms: N_9  and  S_1 
REMARK    3  A    between atoms: C_6  and  C_3 
REMARK       I    between atoms: N_8  and  C_6 
REMARK    4  A    between atoms: C_13  and  N_8 
ROOT
ATOM      1  C   UNL d   1       0.721  -1.419   1.159  0.00  0.00     0.191 A 
ATOM      2  C   UNL d   1      -0.118  -2.547   2.965  0.00  0.00     0.065 A 
ATOM      3  C   UNL d   1       0.120  -1.257   2.404  0.00  0.00     0.071 A 
ATOM      4  O   UNL d   1       0.864  -2.769   0.937  0.00  0.00    -0.301 OA
ATOM      5  C   UNL d   1       0.377  -3.432   2.019  0.00  0.00     0.066 A 
ATOM      6  C   UNL d   1       0.489  -4.909   1.976  0.00  0.00     0.078 C 
ENDROOT
BRANCH   2   7
ATOM      7  C   UNL d   1      -0.721  -2.955   4.240  0.00  0.00     0.258 C 
ATOM      8  N   UNL d   1      -1.104  -1.903   5.056  0.00  0.00    -0.323 N 
ATOM      9  H   UNL d   1      -0.962  -0.969   4.704  0.00  0.00     0.169 HD
ATOM     10  O   UNL d   1      -0.853  -4.143   4.509  0.00  0.00    -0.267 OA
BRANCH   8  11
ATOM     11  C   UNL d   1      -1.690  -1.981   6.342  0.00  0.00     0.035 A 
ATOM     12  C   UNL d   1      -1.971  -3.178   7.005  0.00  0.00     0.029 A 
ATOM     13  C   UNL d   1      -2.566  -3.169   8.272  0.00  0.00     0.002 A 
ATOM     14  C   UNL d   1      -2.883  -1.963   8.891  0.00  0.00     0.000 A 
ATOM     15  C   UNL d   1      -2.597  -0.763   8.246  0.00  0.00     0.002 A 
ATOM     16  C   UNL d   1      -2.003  -0.772   6.980  0.00  0.00     0.029 A 
ENDBRANCH   8  11
ENDBRANCH   2   7
BRANCH   1  17
ATOM     17  S   UNL d   1       1.276  -0.182  -0.026  0.00  0.00     0.282 S 
ATOM     18  O   UNL d   1       2.370   0.478   0.651  0.00  0.00    -0.198 OA
ATOM     19  O   UNL d   1       0.067   0.529  -0.377  0.00  0.00    -0.198 OA
BRANCH  17  20
ATOM     20  N   UNL d   1       1.882  -0.949  -1.418  0.00  0.00    -0.314 N 
ATOM     21  C   UNL d   1       3.144  -1.688  -1.247  0.00  0.00     0.162 C 
ATOM     22  C   UNL d   1       0.897  -1.624  -2.275  0.00  0.00     0.162 C 
ENDBRANCH  17  20
ENDBRANCH   1  17
TORSDOF 4
