REMARK  5 active torsions:
REMARK  status: ('A' for Active; 'I' for Inactive)
REMARK    1  A    between atoms: C_5  and  C_1 
REMARK    2  A    between atoms: N_8  and  C_2 
REMARK       I    between atoms: C_10  and  N_8 
REMARK    3  A    between atoms: C_9  and  C_21 
REMARK       I    between atoms: N_20  and  C_10 
REMARK    4  A    between atoms: O_24  and  C_12 
REMARK    5  A    between atoms: N_14  and  N_20 
ROOT
ATOM      1  N   UNL d   1       0.602  -2.380  -0.908  0.00  0.00    -0.303 N 
ATOM      2  C   UNL d   1       1.853  -2.838  -0.573  0.00  0.00     0.339 C 
ATOM      3  N   UNL d   1       2.604  -2.003   0.228  0.00  0.00    -0.252 N 
ATOM      4  O   UNL d   1       2.236  -3.893  -1.079  0.00  0.00    -0.245 OA
ATOM      5  H   UNL d   1       0.212  -2.862  -1.709  0.00  0.00     0.171 HD
ATOM      6  H   UNL d   1       2.294  -1.037   0.257  0.00  0.00     0.191 HD
ENDROOT
BRANCH   1   7
ATOM      7  C   UNL d   1      -0.218  -1.452  -0.278  0.00  0.00     0.097 A 
ATOM      8  C   UNL d   1      -1.329  -0.742  -0.856  0.00  0.00     0.097 A 
ATOM      9  N   UNL d   1      -1.890   0.066   0.057  0.00  0.00    -0.258 N 
ATOM     10  O   UNL d   1      -1.233  -0.168   1.239  0.00  0.00    -0.240 OA
ATOM     11  HN  UNL d   1      -2.654   0.725  -0.097  1.00  0.00     0.195 HD
ATOM     12  C   UNL d   1      -0.284  -1.124   1.060  0.00  0.00     0.101 A 
ATOM     13  C   UNL d   1       0.290  -1.654   2.312  0.00  0.00     0.081 C 
BRANCH   8  14
ATOM     14  C   UNL d   1      -1.895  -0.817  -2.205  0.00  0.00     0.038 A 
ATOM     15  C   UNL d   1      -2.372  -2.037  -2.723  0.00  0.00     0.048 A 
ATOM     16 CL   UNL d   1      -2.271  -3.538  -1.854  0.00  0.00    -0.083 Cl
ATOM     17  C   UNL d   1      -2.994  -2.101  -3.974  0.00  0.00     0.025 A 
ATOM     18  C   UNL d   1      -3.183  -0.950  -4.728  0.00  0.00     0.003 A 
ATOM     19  C   UNL d   1      -2.721   0.270  -4.239  0.00  0.00     0.025 A 
ATOM     20  C   UNL d   1      -2.074   0.336  -2.995  0.00  0.00     0.048 A 
ATOM     21 CL   UNL d   1      -1.490   1.902  -2.525  0.00  0.00    -0.083 Cl
ENDBRANCH   8  14
ENDBRANCH   1   7
BRANCH   3  22
ATOM     22  N   UNL d   1       3.922  -2.139   0.598  0.00  0.00    -0.307 N 
ATOM     23  C   UNL d   1       4.492  -3.303   0.588  0.00  0.00     0.121 C 
ATOM     24  HN  UNL d   1       4.456  -1.318   0.883  1.00  0.00     0.186 HD
BRANCH  23  25
ATOM     25  C   UNL d   1       5.903  -3.461   1.029  0.00  0.00     0.017 A 
ATOM     26  C   UNL d   1       6.454  -4.737   1.190  0.00  0.00     0.099 A 
ATOM     27  C   UNL d   1       7.757  -4.876   1.685  0.00  0.00     0.069 A 
ATOM     28 CL   UNL d   1       8.435  -6.445   1.928  0.00  0.00    -0.081 Cl
ATOM     29  C   UNL d   1       8.518  -3.753   2.006  0.00  0.00     0.050 A 
ATOM     30  C   UNL d   1       7.974  -2.486   1.819  0.00  0.00     0.036 A 
ATOM     31  C   UNL d   1       6.675  -2.330   1.332  0.00  0.00     0.039 A 
ATOM     32 CL   UNL d   1       8.911  -1.095   2.205  0.00  0.00    -0.084 Cl
BRANCH  26  33
ATOM     33  O   UNL d   1       5.711  -5.845   0.881  0.00  0.00    -0.358 OA
ATOM     34  H   UNL d   1       6.265  -6.635   1.032  0.00  0.00     0.217 HD
ENDBRANCH  26  33
ENDBRANCH  23  25
ENDBRANCH   3  22
TORSDOF 5
