REMARK  5 active torsions:
REMARK  status: ('A' for Active; 'I' for Inactive)
REMARK    1  A    between atoms: C_3  and  C_1 
REMARK       I    between atoms: N_4  and  C_1 
REMARK    2  A    between atoms: C_2  and  N_5 
REMARK    3  A    between atoms: N_6  and  C_2 
REMARK    4  A    between atoms: N_5  and  N_4 
REMARK    5  A    between atoms: C_13  and  N_6 
ROOT
ATOM      1  C   UNL d   1      -1.773  -0.906   2.183  0.00  0.00     0.191 C 
ATOM      2  S   UNL d   1      -3.298  -1.488   1.796  0.00  0.00    -0.039 SA
ENDROOT
BRANCH   1   3
ATOM      3  N   UNL d   1      -1.192   0.204   1.617  0.00  0.00    -0.273 N 
ATOM      4  H   UNL d   1      -0.463   0.660   2.169  0.00  0.00     0.189 HD
BRANCH   3   5
ATOM      5  N   UNL d   1      -1.996   1.119   0.893  0.00  0.00    -0.262 N 
ATOM      6  C   UNL d   1      -1.882   2.470   1.182  0.00  0.00     0.293 C 
ATOM      7  O   UNL d   1      -0.975   2.898   1.901  0.00  0.00    -0.264 OA
ATOM      8  H   UNL d   1      -2.849   0.764   0.465  0.00  0.00     0.190 HD
BRANCH   6   9
ATOM      9  C   UNL d   1      -2.897   3.310   0.585  0.00  0.00     0.144 A 
ATOM     10  O   UNL d   1      -3.926   2.740  -0.122  0.00  0.00    -0.317 OA
ATOM     11  C   UNL d   1      -4.719   3.751  -0.563  0.00  0.00     0.143 A 
ATOM     12  C   UNL d   1      -4.221   4.969  -0.158  0.00  0.00     0.027 A 
ATOM     13  C   UNL d   1      -3.052   4.685   0.588  0.00  0.00     0.045 A 
ENDBRANCH   6   9
ENDBRANCH   3   5
ENDBRANCH   1   3
BRANCH   1  14
ATOM     14  N   UNL d   1      -1.080  -1.525   3.185  0.00  0.00    -0.332 N 
ATOM     15  H   UNL d   1      -1.663  -2.113   3.772  0.00  0.00     0.168 HD
BRANCH  14  16
ATOM     16  C   UNL d   1       0.303  -1.607   3.436  0.00  0.00     0.034 A 
ATOM     17  C   UNL d   1       0.696  -2.018   4.714  0.00  0.00     0.030 A 
ATOM     18  C   UNL d   1       2.044  -2.241   5.008  0.00  0.00     0.009 A 
ATOM     19  C   UNL d   1       3.017  -2.097   4.015  0.00  0.00    -0.062 A 
ATOM     20  C   UNL d   1       2.626  -1.667   2.742  0.00  0.00     0.009 A 
ATOM     21  C   UNL d   1       4.451  -2.414   4.324  0.00  0.00     0.048 C 
ATOM     22  C   UNL d   1       1.276  -1.415   2.455  0.00  0.00     0.030 A 
ENDBRANCH  14  16
ENDBRANCH   1  14
TORSDOF 5
