REMARK  7 active torsions:
REMARK  status: ('A' for Active; 'I' for Inactive)
REMARK    1  A    between atoms: C_2  and  C_1 
REMARK    2  A    between atoms: N_3  and  C_1 
REMARK    3  A    between atoms: C_7  and  C_1 
REMARK    4  A    between atoms: C_14  and  C_7 
REMARK    5  A    between atoms: C_8  and  C_14 
REMARK    6  A    between atoms: O_15  and  C_8 
REMARK    7  A    between atoms: C_20  and  O_15 
ROOT
ATOM      1  C   UNL d   1       0.940  -0.097  -0.090  0.00  0.00     0.152 C 
ATOM      2  C   UNL d   1       0.514   0.177  -1.511  0.00  0.00     0.096 C 
ATOM      3  N   UNL d   1       0.173   0.401  -2.605  0.00  0.00    -0.194 NA
ENDROOT
BRANCH   1   4
ATOM      4  C   UNL d   1       0.547  -1.564   0.232  0.00  0.00     0.025 C 
ATOM      5  S   UNL d   1       1.475  -2.532   1.328  0.00  0.00    -0.103 SA
ATOM      6  C   UNL d   1       0.387  -3.834   1.235  0.00  0.00     0.050 C 
ATOM      7  C   UNL d   1      -0.598  -3.614   0.302  0.00  0.00     0.008 C 
ATOM      8  C   UNL d   1      -0.490  -2.324  -0.294  0.00  0.00     0.019 C 
ENDBRANCH   1   4
BRANCH   1   9
ATOM      9  N   UNL d   1       0.325   0.906   0.840  0.00  0.00    -0.384 N 
ATOM     10  C   UNL d   1       0.733   0.914   2.258  0.00  0.00     0.145 C 
ATOM     11  C   UNL d   1      -0.130   0.071   3.221  0.00  0.00     0.187 C 
ATOM     12  O   UNL d   1      -1.528   0.334   3.067  0.00  0.00    -0.388 OA
ATOM     13  C   UNL d   1      -1.937   0.146   1.710  0.00  0.00     0.187 C 
ATOM     14  C   UNL d   1      -1.144   1.072   0.774  0.00  0.00     0.145 C 
ENDBRANCH   1   9
BRANCH   1  15
ATOM     15  C   UNL d   1       2.503   0.025  -0.121  0.00  0.00     0.062 C 
BRANCH  15  16
ATOM     16  C   UNL d   1       3.080   1.384  -0.534  0.00  0.00     0.115 C 
BRANCH  16  17
ATOM     17  C   UNL d   1       4.580   1.365  -0.342  0.00  0.00     0.258 C 
ATOM     18  O   UNL d   1       5.223   0.409   0.070  0.00  0.00    -0.265 OA
BRANCH  17  19
ATOM     19  O   UNL d   1       5.085   2.599  -0.602  0.00  0.00    -0.322 OA
BRANCH  19  20
ATOM     20  C   UNL d   1       6.383   2.842  -0.042  0.00  0.00     0.174 C 
ATOM     21  C   UNL d   1       6.188   3.305   1.391  0.00  0.00     0.034 C 
ENDBRANCH  19  20
ENDBRANCH  17  19
ENDBRANCH  16  17
ENDBRANCH  15  16
ENDBRANCH   1  15
TORSDOF 7
