REMARK  6 active torsions:
REMARK  status: ('A' for Active; 'I' for Inactive)
REMARK       I    between atoms: N_4  and  C_1 
REMARK    1  A    between atoms: C_12  and  C_1 
REMARK    2  A    between atoms: C_7  and  N_4 
REMARK    3  A    between atoms: C_6  and  C_14 
REMARK    4  A    between atoms: O_17  and  C_6 
REMARK    5  A    between atoms: C_8  and  C_12 
REMARK    6  A    between atoms: C_14  and  C_8 
ROOT
ATOM      1  C   UNL d   1       1.121   0.037   0.337  0.00  0.00     0.222 C 
ATOM      2  N   UNL d   1       0.268   0.654   1.236  0.00  0.00    -0.327 N 
ATOM      3  O   UNL d   1       2.316  -0.170   0.520  0.00  0.00    -0.273 OA
ATOM      4  H   UNL d   1      -0.726   0.575   1.057  0.00  0.00     0.169 HD
ENDROOT
BRANCH   2   5
ATOM      5  C   UNL d   1       0.638   1.382   2.388  0.00  0.00     0.037 A 
ATOM      6  C   UNL d   1       1.959   1.703   2.712  0.00  0.00     0.069 A 
ATOM      7  C   UNL d   1       2.249   2.508   3.822  0.00  0.00     0.104 A 
ATOM      8  O   UNL d   1       3.588   2.699   4.064  0.00  0.00    -0.348 OA
ATOM      9  C   UNL d   1       1.208   3.062   4.574  0.00  0.00     0.102 A 
ATOM     10  C   UNL d   1       3.897   2.748   5.457  0.00  0.00     0.178 C 
ATOM     11  C   UNL d   1       3.737   4.159   5.999  0.00  0.00     0.053 C 
ATOM     12  C   UNL d   1       2.489   4.826   5.449  0.00  0.00     0.178 C 
ATOM     13  O   UNL d   1       1.354   3.968   5.594  0.00  0.00    -0.348 OA
ATOM     14  C   UNL d   1      -0.107   2.690   4.296  0.00  0.00     0.042 A 
ATOM     15  C   UNL d   1      -0.391   1.854   3.211  0.00  0.00     0.032 A 
ENDBRANCH   2   5
BRANCH   1  16
ATOM     16  C   UNL d   1       0.436  -0.324  -0.979  0.00  0.00     0.112 C 
BRANCH  16  17
ATOM     17  C   UNL d   1       0.943  -1.618  -1.675  0.00  0.00    -0.030 C 
ATOM     18  C   UNL d   1       0.129  -1.822  -2.974  0.00  0.00     0.016 C 
ATOM     19  C   UNL d   1       2.421  -1.481  -2.110  0.00  0.00     0.016 C 
BRANCH  17  20
ATOM     20  C   UNL d   1       0.828  -2.862  -0.756  0.00  0.00     0.119 C 
BRANCH  20  21
ATOM     21  C   UNL d   1      -0.555  -3.182  -0.221  0.00  0.00     0.140 C 
ATOM     22  O   UNL d   1      -1.588  -2.602  -0.507  0.00  0.00    -0.650 OA
BRANCH  21  23
ATOM     23  O   UNL d   1      -0.534  -4.215   0.654  0.00  0.00    -0.776 OA
ATOM     24  H   UNL d   1       0.358  -4.578   0.814  0.00  0.00     0.167 HD
ENDBRANCH  21  23
ENDBRANCH  20  21
ENDBRANCH  17  20
ENDBRANCH  16  17
ENDBRANCH   1  16
TORSDOF 6
