REMARK  6 active torsions:
REMARK  status: ('A' for Active; 'I' for Inactive)
REMARK    1  A    between atoms: N_2  and  C_1 
REMARK    2  A    between atoms: C_4  and  C_1 
REMARK    3  A    between atoms: O_11  and  C_4 
REMARK    4  A    between atoms: C_10  and  N_5 
REMARK    5  A    between atoms: N_9  and  C_7 
REMARK    6  A    between atoms: C_13  and  O_11 
ROOT
ATOM      1  C   UNL d   1       1.099   0.127   0.035  0.00  0.00     0.140 C 
ATOM      2  C   UNL d   1       2.454  -0.022   0.042  0.00  0.00     0.013 C 
ATOM      3  C   UNL d   1       3.285  -0.341   1.267  0.00  0.00     0.064 C 
ENDROOT
BRANCH   1   4
ATOM      4  N   UNL d   1       0.379   0.396  -1.120  0.00  0.00    -0.293 N 
ATOM      5  N   UNL d   1       0.739   1.427  -1.726  0.00  0.00    -0.300 N 
ATOM      6  HN  UNL d   1       1.509   2.016  -1.407  1.00  0.00     0.187 HD
ATOM      7  HN  UNL d   1      -0.382  -0.199  -1.448  1.00  0.00     0.187 HD
BRANCH   5   8
ATOM      8  C   UNL d   1      -0.007   1.710  -2.889  0.00  0.00     0.048 A 
ATOM      9  C   UNL d   1      -1.327   1.291  -3.110  0.00  0.00     0.031 A 
ATOM     10  C   UNL d   1      -2.028   1.708  -4.247  0.00  0.00     0.002 A 
ATOM     11  C   UNL d   1      -1.417   2.545  -5.178  0.00  0.00     0.000 A 
ATOM     12  C   UNL d   1      -0.100   2.952  -4.986  0.00  0.00     0.002 A 
ATOM     13  C   UNL d   1       0.596   2.534  -3.849  0.00  0.00     0.031 A 
ENDBRANCH   5   8
ENDBRANCH   1   4
BRANCH   1  14
ATOM     14  C   UNL d   1       0.296  -0.079   1.288  0.00  0.00     0.312 C 
ATOM     15  O   UNL d   1       0.637   0.241   2.414  0.00  0.00    -0.258 OA
BRANCH  14  16
ATOM     16  O   UNL d   1      -0.843  -0.754   0.968  0.00  0.00    -0.317 OA
BRANCH  16  17
ATOM     17  C   UNL d   1      -1.536  -1.383   2.054  0.00  0.00     0.175 C 
ATOM     18  C   UNL d   1      -1.195  -2.861   2.015  0.00  0.00     0.034 C 
ENDBRANCH  16  17
ENDBRANCH  14  16
ENDBRANCH   1  14
BRANCH   2  19
ATOM     19  N   UNL d   1       3.219   0.081  -1.125  0.00  0.00    -0.304 NA
ATOM     20  H   UNL d   1       2.688   0.525  -1.879  0.00  0.00     0.124 HD
ATOM     21  H   UNL d   1       4.118   0.535  -0.975  0.00  0.00     0.124 HD
ENDBRANCH   2  19
TORSDOF 6
