REMARK  3 active torsions:
REMARK  status: ('A' for Active; 'I' for Inactive)
REMARK       I    between atoms: C_8  and  N_1 
REMARK    1  A    between atoms: C_6  and  C_4 
REMARK    2  A    between atoms: C_9  and  C_5 
REMARK    3  A    between atoms: O_19  and  C_13 
ROOT
ATOM      1  N   UNL d   1       0.185  -1.099   0.056  0.00  0.00    -0.252 N 
ATOM      2  N   UNL d   1       1.162  -0.142   0.028  0.00  0.00    -0.298 N 
ATOM      3  HN  UNL d   1       2.168  -0.299   0.088  1.00  0.00     0.187 HD
ATOM      4  C   UNL d   1      -1.173  -0.546   0.023  0.00  0.00     0.151 A 
ATOM      5  C   UNL d   1       0.562   1.006  -0.089  0.00  0.00     0.041 A 
ATOM      6  C   UNL d   1      -0.941   0.952  -0.157  0.00  0.00     0.091 A 
ATOM      7  C   UNL d   1       0.450  -2.448  -0.068  0.00  0.00     0.234 C 
ATOM      8  O   UNL d   1      -0.441  -3.298  -0.154  0.00  0.00    -0.272 OA
ATOM      9  C   UNL d   1       1.902  -2.860  -0.129  0.00  0.00     0.119 C 
ENDROOT
BRANCH   4  10
ATOM     10  C   UNL d   1      -2.004  -0.848   1.262  0.00  0.00    -0.011 A 
ATOM     11  C   UNL d   1      -3.410  -0.893   1.204  0.00  0.00     0.044 A 
ATOM     12  C   UNL d   1      -4.170  -1.193   2.339  0.00  0.00     0.048 A 
ATOM     13 CL   UNL d   1      -4.274  -0.552  -0.256  0.00  0.00    -0.084 Cl
ATOM     14  C   UNL d   1      -3.535  -1.439   3.551  0.00  0.00     0.035 A 
ATOM     15  C   UNL d   1      -2.149  -1.372   3.644  0.00  0.00     0.024 A 
ATOM     16 CL   UNL d   1      -4.468  -1.814   4.946  0.00  0.00    -0.084 Cl
ATOM     17  C   UNL d   1      -1.389  -1.072   2.510  0.00  0.00     0.013 A 
ENDBRANCH   4  10
BRANCH   5  18
ATOM     18  C   UNL d   1       1.308   2.283  -0.144  0.00  0.00     0.021 A 
ATOM     19  C   UNL d   1       2.609   2.362   0.375  0.00  0.00     0.077 A 
ATOM     20  C   UNL d   1       3.314   3.562   0.342  0.00  0.00     0.037 A 
ATOM     21  C   UNL d   1       2.736   4.691  -0.237  0.00  0.00     0.003 A 
ATOM     22  C   UNL d   1       1.451   4.618  -0.775  0.00  0.00     0.001 A 
ATOM     23  C   UNL d   1       0.732   3.420  -0.723  0.00  0.00     0.016 A 
BRANCH  19  24
ATOM     24  O   UNL d   1       3.256   1.296   0.941  0.00  0.00    -0.360 OA
ATOM     25  H   UNL d   1       2.726   0.492   0.754  0.00  0.00     0.217 HD
ENDBRANCH  19  24
ENDBRANCH   5  18
TORSDOF 3
