REMARK  4 active torsions:
REMARK  status: ('A' for Active; 'I' for Inactive)
REMARK    1  A    between atoms: C_9  and  C_3 
REMARK    2  A    between atoms: O_16  and  C_4 
REMARK    3  A    between atoms: S_14  and  C_5 
REMARK    4  A    between atoms: C_13  and  C_9 
ROOT
ATOM      1  N   UNL d   1       0.474   0.751  -0.876  0.00  0.00    -0.317 N 
ATOM      2  HN  UNL d   1       0.808   1.256  -1.697  1.00  0.00     0.170 HD
ATOM      3  C   UNL d   1      -0.705  -1.117   0.097  0.00  0.00     0.019 A 
ATOM      4  C   UNL d   1      -0.243  -0.371  -0.975  0.00  0.00     0.150 A 
ATOM      5  C   UNL d   1       0.727   1.170   0.366  0.00  0.00     0.143 A 
ATOM      6  N   UNL d   1       0.299   0.565   1.484  0.00  0.00    -0.340 N 
ATOM      7  HN  UNL d   1       0.503   0.951   2.406  1.00  0.00     0.167 HD
ATOM      8  C   UNL d   1      -0.413  -0.574   1.343  0.00  0.00     0.018 A 
ATOM      9  C   UNL d   1      -0.867  -1.212   2.623  0.00  0.00     0.069 C 
ENDROOT
BRANCH   3  10
ATOM     10  C   UNL d   1      -1.454  -2.407  -0.078  0.00  0.00     0.083 C 
BRANCH  10  11
ATOM     11  C   UNL d   1      -2.962  -2.325  -0.207  0.00  0.00    -0.052 A 
ATOM     12  C   UNL d   1      -3.679  -3.531  -0.312  0.00  0.00     0.033 A 
ATOM     13  C   UNL d   1      -5.069  -3.537  -0.485  0.00  0.00     0.056 A 
ATOM     14 CL   UNL d   1      -5.855  -5.069  -0.617  0.00  0.00    -0.083 Cl
ATOM     15  C   UNL d   1      -5.764  -2.328  -0.553  0.00  0.00     0.055 A 
ATOM     16  C   UNL d   1      -5.066  -1.124  -0.429  0.00  0.00     0.026 A 
ATOM     17 CL   UNL d   1      -7.471  -2.249  -0.798  0.00  0.00    -0.083 Cl
ATOM     18  C   UNL d   1      -3.678  -1.121  -0.255  0.00  0.00     0.009 A 
ENDBRANCH  10  11
ENDBRANCH   3  10
BRANCH   4  19
ATOM     19  O   UNL d   1      -0.504  -0.733  -2.265  0.00  0.00    -0.346 OA
ATOM     20  H   UNL d   1      -1.415  -1.063  -2.304  0.00  0.00     0.219 HD
ENDBRANCH   4  19
BRANCH   5  21
ATOM     21  S   UNL d   1       1.685   2.642   0.537  0.00  0.00    -0.107 SA
ATOM     22  H   UNL d   1       1.868   2.774  -0.782  0.00  0.00     0.110 HD
ENDBRANCH   5  21
TORSDOF 4
