REMARK  9 active torsions:
REMARK  status: ('A' for Active; 'I' for Inactive)
REMARK    1  A    between atoms: N_2  and  C_1 
REMARK    2  A    between atoms: C_3  and  C_1 
REMARK    3  A    between atoms: C_6  and  C_1 
REMARK    4  A    between atoms: N_7  and  C_1 
REMARK       I    between atoms: C_4  and  N_2 
REMARK    5  A    between atoms: C_12  and  C_4 
REMARK    6  A    between atoms: C_5  and  C_8 
REMARK    7  A    between atoms: O_20  and  C_6 
REMARK    8  A    between atoms: C_9  and  N_7 
REMARK    9  A    between atoms: C_26  and  O_20 
ROOT
ATOM      1  C   UNL d   1       0.923   0.107   0.025  0.00  0.00     0.297 C 
ENDROOT
BRANCH   1   2
ATOM      2  N   UNL d   1       0.311   1.362   0.497  0.00  0.00    -0.315 N 
ATOM      3  C   UNL d   1       0.228   2.478  -0.288  0.00  0.00     0.254 C 
ATOM      4  O   UNL d   1       0.629   2.516  -1.445  0.00  0.00    -0.268 OA
ATOM      5  H   UNL d   1      -0.206   1.322   1.366  0.00  0.00     0.166 HD
BRANCH   3   6
ATOM      6  C   UNL d   1      -0.400   3.667   0.337  0.00  0.00     0.032 A 
ATOM      7  C   UNL d   1      -0.031   4.072   1.626  0.00  0.00     0.017 A 
ATOM      8  C   UNL d   1      -0.565   5.251   2.161  0.00  0.00     0.001 A 
ATOM      9  C   UNL d   1      -1.465   6.011   1.415  0.00  0.00     0.000 A 
ATOM     10  C   UNL d   1      -1.844   5.598   0.138  0.00  0.00     0.001 A 
ATOM     11  C   UNL d   1      -1.308   4.429  -0.406  0.00  0.00     0.017 A 
ENDBRANCH   3   6
ENDBRANCH   1   2
BRANCH   1  12
ATOM     12  C   UNL d   1       0.449  -0.391  -1.393  0.00  0.00     0.442 C 
ATOM     13  F   UNL d   1      -0.738   0.150  -1.764  0.00  0.00    -0.166 F 
ATOM     14  F   UNL d   1       1.357  -0.087  -2.358  0.00  0.00    -0.166 F 
ATOM     15  F   UNL d   1       0.278  -1.738  -1.458  0.00  0.00    -0.166 F 
ENDBRANCH   1  12
BRANCH   1  16
ATOM     16  C   UNL d   1       0.453  -1.042   0.952  0.00  0.00     0.318 C 
ATOM     17  O   UNL d   1      -0.592  -1.008   1.599  0.00  0.00    -0.260 OA
BRANCH  16  18
ATOM     18  O   UNL d   1       1.363  -2.061   1.006  0.00  0.00    -0.318 OA
BRANCH  18  19
ATOM     19  C   UNL d   1       1.092  -3.132   1.917  0.00  0.00     0.174 C 
ATOM     20  C   UNL d   1       1.438  -2.732   3.341  0.00  0.00     0.034 C 
ENDBRANCH  18  19
ENDBRANCH  16  18
ENDBRANCH   1  16
BRANCH   1  21
ATOM     21  N   UNL d   1       2.401   0.319   0.116  0.00  0.00    -0.348 N 
ATOM     22  H   UNL d   1       2.765   0.764  -0.722  0.00  0.00     0.163 HD
BRANCH  21  23
ATOM     23  C   UNL d   1       3.136   0.570   1.264  0.00  0.00     0.031 A 
ATOM     24  C   UNL d   1       2.591   0.642   2.550  0.00  0.00     0.045 A 
ATOM     25  C   UNL d   1       3.384   0.794   3.701  0.00  0.00     0.050 A 
ATOM     26  C   UNL d   1       4.774   0.851   3.562  0.00  0.00     0.016 A 
ATOM     27  C   UNL d   1       5.346   0.759   2.297  0.00  0.00     0.003 A 
ATOM     28  C   UNL d   1       4.534   0.618   1.165  0.00  0.00     0.029 A 
BRANCH  25  29
ATOM     29  C   UNL d   1       2.740   0.878   5.062  0.00  0.00     0.417 C 
ATOM     30  F   UNL d   1       1.380   0.797   5.020  0.00  0.00    -0.166 F 
ATOM     31  F   UNL d   1       3.146  -0.115   5.899  0.00  0.00    -0.166 F 
ATOM     32  F   UNL d   1       3.020   2.049   5.699  0.00  0.00    -0.166 F 
ENDBRANCH  25  29
ENDBRANCH  21  23
ENDBRANCH   1  21
TORSDOF 9
