REMARK  3 active torsions:
REMARK  status: ('A' for Active; 'I' for Inactive)
REMARK    1  A    between atoms: C_8  and  C_3 
REMARK    2  A    between atoms: C_12  and  C_7 
REMARK    3  A    between atoms: N_11  and  C_10 
ROOT
ATOM      1  N   UNL d   1       1.573  -0.056   0.014  0.00  0.00    -0.331 N 
ATOM      2  HN  UNL d   1       2.519  -0.438  -0.012  1.00  0.00     0.168 HD
ATOM      3  C   UNL d   1       1.203   1.186   0.027  0.00  0.00     0.162 A 
ATOM      4  C   UNL d   1       0.376  -0.729   0.043  0.00  0.00     0.111 A 
ATOM      5  O   UNL d   1      -0.121   1.446   0.069  0.00  0.00    -0.256 OA
ATOM      6  C   UNL d   1      -0.758   0.240   0.080  0.00  0.00     0.316 A 
ATOM      7  C   UNL d   1       0.280  -2.063   0.025  0.00  0.00     0.047 C 
ATOM      8  O   UNL d   1      -1.956   0.068   0.115  0.00  0.00    -0.257 OA
ENDROOT
BRANCH   7   9
ATOM      9  C   UNL d   1      -0.971  -2.819   0.021  0.00  0.00    -0.034 A 
ATOM     10  C   UNL d   1      -1.534  -3.235  -1.181  0.00  0.00     0.013 A 
ATOM     11  C   UNL d   1      -2.735  -3.963  -1.190  0.00  0.00     0.030 A 
ATOM     12  C   UNL d   1      -3.414  -4.310  -0.011  0.00  0.00     0.029 A 
ATOM     13  C   UNL d   1      -2.815  -3.875   1.186  0.00  0.00     0.030 A 
ATOM     14  C   UNL d   1      -1.619  -3.140   1.210  0.00  0.00     0.013 A 
BRANCH  12  15
ATOM     15  N   UNL d   1      -4.571  -5.078  -0.005  0.00  0.00    -0.390 N 
ATOM     16  C   UNL d   1      -5.598  -4.886   1.018  0.00  0.00     0.149 C 
ATOM     17  C   UNL d   1      -5.030  -5.811  -1.182  0.00  0.00     0.149 C 
ENDBRANCH  12  15
ENDBRANCH   7   9
BRANCH   3  18
ATOM     18  C   UNL d   1       2.070   2.373   0.003  0.00  0.00     0.015 A 
ATOM     19  C   UNL d   1       3.455   2.208  -0.128  0.00  0.00     0.017 A 
ATOM     20  C   UNL d   1       4.294   3.326  -0.149  0.00  0.00     0.025 A 
ATOM     21  C   UNL d   1       3.749   4.605  -0.036  0.00  0.00     0.034 A 
ATOM     22  C   UNL d   1       2.372   4.777   0.091  0.00  0.00     0.025 A 
ATOM     23 CL   UNL d   1       4.781   5.981  -0.053  0.00  0.00    -0.084 Cl
ATOM     24  C   UNL d   1       1.530   3.663   0.109  0.00  0.00     0.017 A 
ENDBRANCH   3  18
TORSDOF 3
