REMARK  5 active torsions:
REMARK  status: ('A' for Active; 'I' for Inactive)
REMARK    1  A    between atoms: C_5  and  C_1 
REMARK       I    between atoms: N_10  and  C_5 
REMARK    2  A    between atoms: C_14  and  N_10 
REMARK    3  A    between atoms: O_13  and  C_11 
REMARK    4  A    between atoms: C_16  and  C_14 
REMARK    5  A    between atoms: C_17  and  C_16 
ROOT
ATOM      1  C   UNL d   1      -2.437  -0.154  -0.056  0.00  0.00     0.102 A 
ATOM      2  N   UNL d   1      -1.636   0.971  -0.032  0.00  0.00    -0.351 N 
ATOM      3  C   UNL d   1      -1.579  -1.239  -0.027  0.00  0.00     0.049 A 
ATOM      4  C   UNL d   1      -0.244  -0.761  -0.014  0.00  0.00    -0.004 A 
ATOM      5  C   UNL d   1      -0.302   0.628  -0.020  0.00  0.00     0.043 A 
ATOM      6  C   UNL d   1       1.012  -1.394  -0.005  0.00  0.00     0.050 A 
ATOM      7  C   UNL d   1       0.852   1.421  -0.016  0.00  0.00     0.033 A 
ATOM      8  C   UNL d   1       2.181  -0.626  -0.016  0.00  0.00     0.069 A 
ATOM      9  C   UNL d   1       2.095   0.766  -0.019  0.00  0.00     0.039 A 
ATOM     10  H   UNL d   1      -1.999   1.916  -0.039  0.00  0.00     0.166 HD
ENDROOT
BRANCH   1  11
ATOM     11  C   UNL d   1      -3.884  -0.075  -0.108  0.00  0.00     0.268 C 
ATOM     12  O   UNL d   1      -4.482   0.993  -0.152  0.00  0.00    -0.266 OA
ATOM     13  N   UNL d   1      -4.523  -1.296  -0.107  0.00  0.00    -0.356 N 
ATOM     14  H   UNL d   1      -3.966  -2.135  -0.119  0.00  0.00     0.162 HD
BRANCH  13  15
ATOM     15  C   UNL d   1      -5.958  -1.444  -0.210  0.00  0.00     0.123 C 
BRANCH  15  16
ATOM     16  C   UNL d   1      -6.442  -1.499  -1.659  0.00  0.00     0.019 C 
BRANCH  16  17
ATOM     17  C   UNL d   1      -5.894  -2.706  -2.426  0.00  0.00    -0.003 C 
ATOM     18  C   UNL d   1      -6.420  -2.743  -3.853  0.00  0.00     0.005 C 
ENDBRANCH  16  17
ENDBRANCH  15  16
ENDBRANCH  13  15
ENDBRANCH   1  11
BRANCH   8  19
ATOM     19  O   UNL d   1       3.331  -1.368  -0.024  0.00  0.00    -0.356 OA
ATOM     20  C   UNL d   1       4.560  -0.657  -0.064  0.00  0.00     0.210 C 
ENDBRANCH   8  19
TORSDOF 5
