REMARK  8 active torsions:
REMARK  status: ('A' for Active; 'I' for Inactive)
REMARK    1  A    between atoms: C_8  and  C_1 
REMARK    2  A    between atoms: C_9  and  C_1 
REMARK    3  A    between atoms: N_11  and  C_4 
REMARK    4  A    between atoms: C_5  and  N_11 
REMARK    5  A    between atoms: O_15  and  C_8 
REMARK    6  A    between atoms: O_14  and  C_9 
REMARK    7  A    between atoms: C_18  and  O_14 
REMARK    8  A    between atoms: C_17  and  O_15 
ROOT
ATOM      1  C   UNL d   1       1.060   0.042   0.051  0.00  0.00     0.129 C 
ATOM      2  C   UNL d   1       0.410  -0.573   1.062  0.00  0.00     0.113 C 
ENDROOT
BRANCH   1   3
ATOM      3  C   UNL d   1       0.302   0.733  -1.016  0.00  0.00     0.300 C 
ATOM      4  O   UNL d   1       0.749   1.660  -1.677  0.00  0.00    -0.259 OA
BRANCH   3   5
ATOM      5  O   UNL d   1      -0.982   0.290  -1.086  0.00  0.00    -0.318 OA
BRANCH   5   6
ATOM      6  C   UNL d   1      -1.893   1.163  -1.770  0.00  0.00     0.174 C 
ATOM      7  C   UNL d   1      -2.386   2.216  -0.791  0.00  0.00     0.034 C 
ENDBRANCH   5   6
ENDBRANCH   3   5
ENDBRANCH   1   3
BRANCH   1   8
ATOM      8  C   UNL d   1       2.529   0.172   0.139  0.00  0.00     0.300 C 
ATOM      9  O   UNL d   1       3.165   0.074   1.184  0.00  0.00    -0.259 OA
BRANCH   8  10
ATOM     10  O   UNL d   1       3.065   0.416  -1.082  0.00  0.00    -0.318 OA
BRANCH  10  11
ATOM     11  C   UNL d   1       4.394   0.951  -1.081  0.00  0.00     0.174 C 
ATOM     12  C   UNL d   1       4.305   2.460  -0.942  0.00  0.00     0.034 C 
ENDBRANCH  10  11
ENDBRANCH   8  10
ENDBRANCH   1   8
BRANCH   2  13
ATOM     13  N   UNL d   1       0.926  -1.129   2.219  0.00  0.00    -0.350 N 
ATOM     14  H   UNL d   1       1.933  -0.978   2.333  0.00  0.00     0.166 HD
BRANCH  13  15
ATOM     15  C   UNL d   1       0.225  -1.676   3.236  0.00  0.00     0.121 A 
ATOM     16  N   UNL d   1      -1.091  -1.908   3.267  0.00  0.00    -0.284 N 
ATOM     17  N   UNL d   1      -1.301  -2.469   4.468  0.00  0.00    -0.306 N 
ATOM     18  HN  UNL d   1      -1.779  -1.705   2.542  1.00  0.00     0.188 HD
ATOM     19  C   UNL d   1      -2.626  -2.899   4.843  0.00  0.00     0.177 C 
ATOM     20  C   UNL d   1      -0.171  -2.588   5.220  0.00  0.00     0.113 A 
ATOM     21  C   UNL d   1       0.843  -2.079   4.443  0.00  0.00     0.068 A 
ENDBRANCH  13  15
ENDBRANCH   2  13
TORSDOF 8
