REMARK  8 active torsions:
REMARK  status: ('A' for Active; 'I' for Inactive)
REMARK    1  A    between atoms: C_3  and  C_1 
REMARK    2  A    between atoms: C_11  and  C_1 
REMARK    3  A    between atoms: C_5  and  C_2 
REMARK    4  A    between atoms: C_13  and  C_3 
REMARK    5  A    between atoms: C_9  and  C_4 
REMARK    6  A    between atoms: C_6  and  C_5 
REMARK    7  A    between atoms: N_8  and  C_9 
REMARK    8  A    between atoms: O_18  and  C_10 
ROOT
ATOM      1  C   UNL d   1       0.595  -2.630  -0.374  0.00  0.00     0.183 C 
ATOM      2  O   UNL d   1       0.167  -2.922  -1.485  0.00  0.00    -0.288 OA
ENDROOT
BRANCH   1   3
ATOM      3  C   UNL d   1      -0.323  -2.624   0.800  0.00  0.00     0.072 C 
ATOM      4  C   UNL d   1      -1.589  -2.149   0.740  0.00  0.00     0.029 C 
BRANCH   4   5
ATOM      5  C   UNL d   1      -1.957  -1.162  -0.346  0.00  0.00     0.193 C 
ATOM      6  O   UNL d   1      -1.133  -0.335  -0.737  0.00  0.00    -0.287 OA
BRANCH   5   7
ATOM      7  C   UNL d   1      -3.378  -1.039  -0.789  0.00  0.00     0.015 A 
ATOM      8  C   UNL d   1      -3.874   0.253  -1.030  0.00  0.00     0.015 A 
ATOM      9  C   UNL d   1      -5.218   0.453  -1.345  0.00  0.00     0.001 A 
ATOM     10  C   UNL d   1      -6.079  -0.641  -1.441  0.00  0.00     0.000 A 
ATOM     11  C   UNL d   1      -5.588  -1.932  -1.238  0.00  0.00     0.001 A 
ATOM     12  C   UNL d   1      -4.240  -2.135  -0.921  0.00  0.00     0.015 A 
ENDBRANCH   5   7
ENDBRANCH   4   5
BRANCH   4  13
ATOM     13  C   UNL d   1      -2.564  -2.513   1.802  0.00  0.00    -0.022 A 
ATOM     14  C   UNL d   1      -3.419  -1.555   2.368  0.00  0.00     0.012 A 
ATOM     15  C   UNL d   1      -4.444  -1.934   3.238  0.00  0.00     0.001 A 
ATOM     16  C   UNL d   1      -4.610  -3.272   3.584  0.00  0.00     0.000 A 
ATOM     17  C   UNL d   1      -3.749  -4.234   3.062  0.00  0.00     0.001 A 
ATOM     18  C   UNL d   1      -2.738  -3.861   2.174  0.00  0.00     0.012 A 
ENDBRANCH   4  13
ENDBRANCH   1   3
BRANCH   1  19
ATOM     19  C   UNL d   1       2.067  -2.511  -0.157  0.00  0.00     0.015 A 
ATOM     20  C   UNL d   1       2.639  -1.605   0.743  0.00  0.00     0.027 A 
ATOM     21  C   UNL d   1       4.044  -1.421   0.785  0.00  0.00    -0.006 A 
ATOM     22  C   UNL d   1       4.871  -2.219  -0.034  0.00  0.00     0.076 A 
ATOM     23  C   UNL d   1       4.297  -3.171  -0.879  0.00  0.00     0.038 A 
ATOM     24  C   UNL d   1       2.905  -3.291  -0.962  0.00  0.00     0.018 A 
BRANCH  21  25
ATOM     25  C   UNL d   1       4.649  -0.368   1.698  0.00  0.00     0.158 C 
BRANCH  25  26
ATOM     26  N   UNL d   1       4.638   1.026   1.252  0.00  0.00    -0.404 N 
ATOM     27  C   UNL d   1       3.335   1.693   1.196  0.00  0.00     0.143 C 
ATOM     28  C   UNL d   1       2.660   1.704  -0.187  0.00  0.00     0.187 C 
ATOM     29  O   UNL d   1       3.553   2.182  -1.200  0.00  0.00    -0.388 OA
ATOM     30  C   UNL d   1       4.713   1.343  -1.259  0.00  0.00     0.187 C 
ATOM     31  C   UNL d   1       5.465   1.347   0.081  0.00  0.00     0.143 C 
ENDBRANCH  25  26
ENDBRANCH  21  25
BRANCH  22  32
ATOM     32  O   UNL d   1       6.221  -2.024   0.084  0.00  0.00    -0.355 OA
ATOM     33  C   UNL d   1       7.044  -2.376  -1.022  0.00  0.00     0.210 C 
ENDBRANCH  22  32
ENDBRANCH   1  19
TORSDOF 8
