REMARK  2 active torsions:
REMARK  status: ('A' for Active; 'I' for Inactive)
REMARK    1  A    between atoms: C_7  and  N_1 
REMARK    2  A    between atoms: C_8  and  C_2 
ROOT
ATOM      1  N   UNL d   1       0.970  -0.716  -0.040  0.00  0.00    -0.271 N 
ATOM      2  C   UNL d   1       0.935   0.662  -0.008  0.00  0.00     0.141 A 
ATOM      3  N   UNL d   1      -0.267   1.168   0.031  0.00  0.00    -0.282 N 
ATOM      4  HN  UNL d   1      -0.527   2.154   0.079  1.00  0.00     0.188 HD
ATOM      5  C   UNL d   1      -0.368  -1.093  -0.030  0.00  0.00     0.199 A 
ATOM      6  N   UNL d   1      -1.094   0.092  -0.005  0.00  0.00    -0.274 N 
ATOM      7  S   UNL d   1      -1.127  -2.570   0.049  0.00  0.00    -0.039 SA
ATOM      8  H   UNL d   1      -2.101   0.181   0.061  0.00  0.00     0.189 HD
ENDROOT
BRANCH   1   9
ATOM      9  C   UNL d   1       2.092  -1.581   0.054  0.00  0.00     0.045 A 
ATOM     10  C   UNL d   1       3.181  -1.268   0.883  0.00  0.00     0.054 A 
ATOM     11  C   UNL d   1       4.314  -2.084   0.910  0.00  0.00     0.036 A 
ATOM     12 CL   UNL d   1       5.660  -1.638   1.886  0.00  0.00    -0.084 Cl
ATOM     13  C   UNL d   1       4.374  -3.242   0.142  0.00  0.00     0.024 A 
ATOM     14  C   UNL d   1       3.290  -3.586  -0.660  0.00  0.00     0.004 A 
ATOM     15  C   UNL d   1       2.163  -2.759  -0.707  0.00  0.00     0.030 A 
ENDBRANCH   1   9
BRANCH   2  16
ATOM     16  C   UNL d   1       2.118   1.536  -0.059  0.00  0.00     0.025 A 
ATOM     17  C   UNL d   1       2.134   2.680   0.729  0.00  0.00     0.102 A 
ATOM     18  N   UNL d   1       3.186   3.533   0.798  0.00  0.00    -0.374 N 
ATOM     19  C   UNL d   1       4.257   3.240   0.030  0.00  0.00     0.087 A 
ATOM     20  HN  UNL d   1       3.169   4.355   1.402  1.00  0.00     0.164 HD
ATOM     21  C   UNL d   1       4.317   2.148  -0.823  0.00  0.00     0.018 A 
ATOM     22  C   UNL d   1       3.219   1.293  -0.883  0.00  0.00     0.018 A 
ENDBRANCH   2  16
TORSDOF 2
