REMARK  4 active torsions:
REMARK  status: ('A' for Active; 'I' for Inactive)
REMARK    1  A    between atoms: N_14  and  N_6 
REMARK    2  A    between atoms: C_9  and  C_12 
REMARK    3  A    between atoms: C_10  and  C_11 
REMARK    4  A    between atoms: C_17  and  N_14 
ROOT
ATOM      1  C   UNL d   1       3.088   5.272  -3.215  0.00  0.00     0.050 A 
ATOM      2  C   UNL d   1       5.032   3.820  -3.464  0.00  0.00     0.050 A 
ATOM      3  C   UNL d   1       4.363   5.021  -3.741  0.00  0.00     0.032 A 
ATOM      4  C   UNL d   1       3.140   3.099  -2.089  0.00  0.00     0.049 A 
ATOM      5  C   UNL d   1       2.489   4.301  -2.395  0.00  0.00     0.047 A 
ATOM      6  C   UNL d   1       4.416   2.878  -2.622  0.00  0.00     0.047 A 
ENDROOT
BRANCH   4   7
ATOM      7  N   UNL d   1       2.557   2.120  -1.267  0.00  0.00    -0.300 N 
ATOM      8  H   UNL d   1       3.072   1.239  -1.161  0.00  0.00     0.187 HD
BRANCH   7   9
ATOM      9  N   UNL d   1       1.249   2.233  -0.915  0.00  0.00    -0.290 N 
ATOM     10  C   UNL d   1       0.574   1.135  -0.699  0.00  0.00     0.199 C 
ATOM     11  C   UNL d   1       1.132  -0.247  -0.904  0.00  0.00     0.320 C 
ATOM     12  C   UNL d   1      -0.876   1.268  -0.324  0.00  0.00     0.320 C 
ATOM     13  O   UNL d   1       0.238  -1.126  -1.365  0.00  0.00    -0.278 OA
ATOM     14  O   UNL d   1       2.322  -0.490  -0.769  0.00  0.00    -0.257 OA
ATOM     15  C   UNL d   1      -1.134  -0.994  -0.978  0.00  0.00     0.175 C 
ATOM     16  O   UNL d   1      -1.643   0.341  -0.909  0.00  0.00    -0.278 OA
ATOM     17  C   UNL d   1      -1.957  -1.718  -2.043  0.00  0.00     0.080 C 
ATOM     18  C   UNL d   1      -1.329  -1.676   0.378  0.00  0.00     0.080 C 
ATOM     19  O   UNL d   1      -1.302   2.175   0.370  0.00  0.00    -0.257 OA
ATOM     20  HN  UNL d   1       0.808   3.148  -0.822  1.00  0.00     0.187 HD
ENDBRANCH   7   9
ENDBRANCH   4   7
BRANCH   1  21
ATOM     21  C   UNL d   1       2.349   6.548  -3.539  0.00  0.00     0.417 C 
ATOM     22  F   UNL d   1       3.073   7.404  -4.314  0.00  0.00    -0.166 F 
ATOM     23  F   UNL d   1       1.193   6.321  -4.221  0.00  0.00    -0.166 F 
ATOM     24  F   UNL d   1       2.003   7.255  -2.429  0.00  0.00    -0.166 F 
ENDBRANCH   1  21
BRANCH   2  25
ATOM     25  C   UNL d   1       6.376   3.520  -4.081  0.00  0.00     0.417 C 
ATOM     26  F   UNL d   1       6.826   4.507  -4.905  0.00  0.00    -0.166 F 
ATOM     27  F   UNL d   1       7.352   3.333  -3.151  0.00  0.00    -0.166 F 
ATOM     28  F   UNL d   1       6.354   2.388  -4.837  0.00  0.00    -0.166 F 
ENDBRANCH   2  25
TORSDOF 4
