REMARK  1 active torsions:
REMARK  status: ('A' for Active; 'I' for Inactive)
REMARK    1  A    between atoms: C_4  and  N_1 
ROOT
ATOM      1  N   UNL d   1       0.712   1.119  -0.504  0.00  0.00    -0.252 N 
ATOM      2  C   UNL d   1       1.391  -0.022  -0.085  0.00  0.00     0.232 C 
ATOM      3  C   UNL d   1      -0.592   1.283  -0.046  0.00  0.00     0.232 C 
ATOM      4  C   UNL d   1       0.620  -1.313  -0.234  0.00  0.00     0.113 C 
ATOM      5  C   UNL d   1      -1.462   0.047  -0.186  0.00  0.00     0.113 C 
ATOM      6  C   UNL d   1      -0.796  -1.230   0.328  0.00  0.00    -0.031 C 
ATOM      7  O   UNL d   1       2.541  -0.044   0.352  0.00  0.00    -0.273 OA
ATOM      8  O   UNL d   1      -1.087   2.315   0.406  0.00  0.00    -0.273 OA
ATOM      9  C   UNL d   1      -1.592  -2.449  -0.168  0.00  0.00     0.016 C 
ATOM     10  C   UNL d   1      -0.772  -1.248   1.866  0.00  0.00     0.016 C 
ENDROOT
BRANCH   1  11
ATOM     11  C   UNL d   1       1.468   2.209  -1.079  0.00  0.00     0.047 A 
ATOM     12  C   UNL d   1       2.696   1.941  -1.720  0.00  0.00     0.055 A 
ATOM     13  C   UNL d   1       3.411   2.933  -2.410  0.00  0.00     0.058 A 
ATOM     14 CL   UNL d   1       4.873   2.463  -3.202  0.00  0.00    -0.082 Cl
ATOM     15  C   UNL d   1       2.913   4.232  -2.468  0.00  0.00     0.055 A 
ATOM     16  C   UNL d   1       1.704   4.525  -1.841  0.00  0.00     0.028 A 
ATOM     17 CL   UNL d   1       3.719   5.502  -3.313  0.00  0.00    -0.083 Cl
ATOM     18  C   UNL d   1       0.986   3.524  -1.168  0.00  0.00     0.032 A 
ENDBRANCH   1  11
TORSDOF 1
