REMARK  6 active torsions:
REMARK  status: ('A' for Active; 'I' for Inactive)
REMARK    1  A    between atoms: C_5  and  N_1 
REMARK       I    between atoms: N_2  and  C_4 
REMARK    2  A    between atoms: C_3  and  N_2 
REMARK    3  A    between atoms: N_6  and  C_3 
REMARK    4  A    between atoms: C_4  and  C_9 
REMARK    5  A    between atoms: C_20  and  N_6 
REMARK    6  A    between atoms: C_11  and  C_12 
ROOT
ATOM      1  C   UNL d   1      -3.290  -0.267  -4.598  0.00  0.00     0.179 C 
ATOM      2  S   UNL d   1      -3.415  -1.710  -5.441  0.00  0.00    -0.040 SA
ENDROOT
BRANCH   1   3
ATOM      3  N   UNL d   1      -3.634   0.881  -5.287  0.00  0.00    -0.299 N 
ATOM      4  C   UNL d   1      -3.526   2.221  -4.928  0.00  0.00     0.257 C 
ATOM      5  O   UNL d   1      -3.213   2.608  -3.809  0.00  0.00    -0.267 OA
ATOM      6  H   UNL d   1      -3.946   0.663  -6.223  0.00  0.00     0.171 HD
BRANCH   4   7
ATOM      7  C   UNL d   1      -3.904   3.221  -5.984  0.00  0.00     0.032 A 
ATOM      8  C   UNL d   1      -4.327   4.491  -5.559  0.00  0.00     0.019 A 
ATOM      9  C   UNL d   1      -4.776   5.453  -6.480  0.00  0.00     0.037 A 
ATOM     10  C   UNL d   1      -4.790   5.138  -7.845  0.00  0.00     0.102 A 
ATOM     11  C   UNL d   1      -4.321   3.900  -8.293  0.00  0.00     0.037 A 
ATOM     12  C   UNL d   1      -3.877   2.941  -7.363  0.00  0.00     0.019 A 
BRANCH  10  13
ATOM     13  N   UNL d   1      -5.305   6.127  -8.808  0.00  0.00    -0.116 N 
ATOM     14  O   UNL d   1      -5.044   5.936 -10.008  0.00  0.00    -0.532 OA
ATOM     15  O   UNL d   1      -5.973   7.066  -8.364  0.00  0.00    -0.532 OA
ENDBRANCH  10  13
ENDBRANCH   4   7
ENDBRANCH   1   3
BRANCH   1  16
ATOM     16  N   UNL d   1      -2.932  -0.125  -3.285  0.00  0.00    -0.333 N 
ATOM     17  H   UNL d   1      -3.451   0.573  -2.759  0.00  0.00     0.168 HD
BRANCH  16  18
ATOM     18  C   UNL d   1      -1.946  -0.841  -2.567  0.00  0.00     0.034 A 
ATOM     19  C   UNL d   1      -2.026  -0.907  -1.177  0.00  0.00     0.030 A 
ATOM     20  C   UNL d   1      -0.994  -1.500  -0.428  0.00  0.00     0.010 A 
ATOM     21  C   UNL d   1       0.173  -1.996  -1.038  0.00  0.00    -0.051 A 
ATOM     22  C   UNL d   1       0.225  -1.934  -2.440  0.00  0.00     0.010 A 
ATOM     23  C   UNL d   1      -0.821  -1.375  -3.190  0.00  0.00     0.030 A 
BRANCH  21  24
ATOM     24  C   UNL d   1       1.344  -2.526  -0.187  0.00  0.00    -0.024 C 
ATOM     25  C   UNL d   1       2.593  -2.911  -1.016  0.00  0.00     0.019 C 
ATOM     26  C   UNL d   1       1.794  -1.440   0.817  0.00  0.00     0.019 C 
ATOM     27  C   UNL d   1       0.915  -3.782   0.600  0.00  0.00     0.019 C 
ENDBRANCH  21  24
ENDBRANCH  16  18
ENDBRANCH   1  16
TORSDOF 6
