REMARK  2 active torsions:
REMARK  status: ('A' for Active; 'I' for Inactive)
REMARK    1  A    between atoms: C_6  and  N_1 
REMARK    2  A    between atoms: C_11  and  C_12 
ROOT
ATOM      1  N   UNL d   1       2.440   0.029   0.077  0.00  0.00    -0.252 N 
ATOM      2  C   UNL d   1       1.661  -1.123   0.035  0.00  0.00     0.236 C 
ATOM      3  C   UNL d   1       1.642   1.169   0.122  0.00  0.00     0.236 C 
ATOM      4  C   UNL d   1       0.280  -0.648  -0.309  0.00  0.00     0.092 C 
ATOM      5  C   UNL d   1       0.251   0.688   0.403  0.00  0.00     0.092 C 
ATOM      6  C   UNL d   1      -0.921   1.522  -0.072  0.00  0.00     0.015 C 
ATOM      7  O   UNL d   1       1.976  -2.292   0.175  0.00  0.00    -0.272 OA
ATOM      8  O   UNL d   1       1.941   2.344  -0.019  0.00  0.00    -0.272 OA
ATOM      9  C   UNL d   1      -0.941  -1.464   0.059  0.00  0.00     0.019 C 
ATOM     10  C   UNL d   1      -2.221   0.747   0.194  0.00  0.00     0.005 C 
ATOM     11  C   UNL d   1      -2.213  -0.694  -0.371  0.00  0.00    -0.018 C 
ATOM     12  C   UNL d   1      -2.368  -0.676  -1.898  0.00  0.00     0.010 C 
ENDROOT
BRANCH   1  13
ATOM     13  C   UNL d   1       3.855   0.051   0.029  0.00  0.00     0.045 A 
ATOM     14  C   UNL d   1       4.588  -1.026  -0.484  0.00  0.00     0.031 A 
ATOM     15  C   UNL d   1       5.986  -0.973  -0.561  0.00  0.00     0.010 A 
ATOM     16  C   UNL d   1       6.708   0.141  -0.101  0.00  0.00    -0.051 A 
ATOM     17  C   UNL d   1       5.963   1.210   0.415  0.00  0.00     0.010 A 
ATOM     18  C   UNL d   1       4.568   1.168   0.472  0.00  0.00     0.031 A 
BRANCH  16  19
ATOM     19  C   UNL d   1       8.244   0.159  -0.147  0.00  0.00    -0.024 C 
ATOM     20  C   UNL d   1       8.857   1.441   0.460  0.00  0.00     0.019 C 
ATOM     21  C   UNL d   1       8.796  -1.038   0.656  0.00  0.00     0.019 C 
ATOM     22  C   UNL d   1       8.733   0.061  -1.607  0.00  0.00     0.019 C 
ENDBRANCH  16  19
ENDBRANCH   1  13
TORSDOF 2
