REMARK  6 active torsions:
REMARK  status: ('A' for Active; 'I' for Inactive)
REMARK    1  A    between atoms: C_5  and  C_1 
REMARK    2  A    between atoms: N_13  and  C_4 
REMARK       I    between atoms: N_17  and  C_5 
REMARK    3  A    between atoms: N_8  and  N_13 
REMARK    4  A    between atoms: C_12  and  N_8 
REMARK    5  A    between atoms: N_20  and  N_17 
REMARK    6  A    between atoms: O_22  and  C_18 
ROOT
ATOM      1  N   UNL d   1       0.105  -2.452   0.050  0.00  0.00    -0.279 N 
ATOM      2  H   UNL d   1      -0.104  -1.994   0.931  0.00  0.00     0.189 HD
ENDROOT
BRANCH   1   3
ATOM      3  N   UNL d   1       1.151  -3.324  -0.007  0.00  0.00    -0.302 N 
ATOM      4  HN  UNL d   1       1.172  -4.054  -0.719  1.00  0.00     0.186 HD
BRANCH   3   5
ATOM      5  C   UNL d   1       2.125  -3.219   0.852  0.00  0.00     0.036 C 
ATOM      6  C   UNL d   1       3.250  -4.206   0.776  0.00  0.00    -0.006 A 
ATOM      7  C   UNL d   1       4.391  -4.049   1.575  0.00  0.00    -0.043 A 
ATOM      8  C   UNL d   1       3.160  -5.301  -0.096  0.00  0.00     0.017 A 
ATOM      9  C   UNL d   1       5.429  -4.987   1.477  0.00  0.00     0.044 A 
ATOM     10  C   UNL d   1       4.533  -2.877   2.505  0.00  0.00     0.040 C 
ATOM     11  C   UNL d   1       5.335  -6.086   0.617  0.00  0.00     0.068 A 
ATOM     12  C   UNL d   1       4.197  -6.238  -0.172  0.00  0.00     0.037 A 
ATOM     13  C   UNL d   1       3.173  -2.465   3.042  0.00  0.00     0.011 C 
ATOM     14  C   UNL d   1       2.222  -2.121   1.906  0.00  0.00     0.060 C 
BRANCH  11  15
ATOM     15  O   UNL d   1       6.414  -6.925   0.648  0.00  0.00    -0.356 OA
ATOM     16  C   UNL d   1       6.359  -8.077  -0.184  0.00  0.00     0.210 C 
ENDBRANCH  11  15
ENDBRANCH   3   5
ENDBRANCH   1   3
BRANCH   1  17
ATOM     17  C   UNL d   1      -0.998  -2.574  -0.737  0.00  0.00     0.164 A 
ATOM     18  N   UNL d   1      -2.171  -2.097  -0.372  0.00  0.00    -0.331 N 
ATOM     19  C   UNL d   1      -3.146  -2.417  -1.322  0.00  0.00     0.110 A 
ATOM     20  HN  UNL d   1      -2.344  -1.569   0.483  1.00  0.00     0.168 HD
ATOM     21  C   UNL d   1      -2.668  -3.088  -2.430  0.00  0.00     0.088 A 
ATOM     22  S   UNL d   1      -0.989  -3.364  -2.272  0.00  0.00    -0.062 SA
BRANCH  19  23
ATOM     23  C   UNL d   1      -4.553  -2.071  -1.118  0.00  0.00     0.282 C 
ATOM     24  O   UNL d   1      -5.442  -2.321  -1.929  0.00  0.00    -0.265 OA
ATOM     25  N   UNL d   1      -4.784  -1.445   0.102  0.00  0.00    -0.288 N 
ATOM     26  H   UNL d   1      -3.998  -1.383   0.751  0.00  0.00     0.183 HD
BRANCH  25  27
ATOM     27  N   UNL d   1      -6.101  -1.176   0.541  0.00  0.00    -0.247 NA
ATOM     28  H   UNL d   1      -6.740  -1.635  -0.124  0.00  0.00     0.143 HD
ATOM     29  H   UNL d   1      -6.277  -0.177   0.408  0.00  0.00     0.143 HD
ENDBRANCH  25  27
ENDBRANCH  19  23
ENDBRANCH   1  17
TORSDOF 6
