REMARK  4 active torsions:
REMARK  status: ('A' for Active; 'I' for Inactive)
REMARK       I    between atoms: N_2  and  C_1 
REMARK    1  A    between atoms: O_3  and  C_1 
REMARK    2  A    between atoms: C_10  and  O_3 
REMARK    3  A    between atoms: C_4  and  C_8 
REMARK    4  A    between atoms: O_13  and  C_4 
ROOT
ATOM      1  C   UNL d   1       0.954  -0.033   0.091  0.00  0.00     0.363 C 
ATOM      2  N   UNL d   1       0.425  -0.983   0.952  0.00  0.00    -0.328 N 
ATOM      3  O   UNL d   1       0.618   0.062  -1.082  0.00  0.00    -0.238 OA
ATOM      4  C   UNL d   1      -0.562  -1.927   0.464  0.00  0.00     0.129 C 
ATOM      5  C   UNL d   1       0.780  -1.120   2.358  0.00  0.00     0.129 C 
ATOM      6  C   UNL d   1      -1.654  -1.846   2.754  0.00  0.00     0.087 C 
ATOM      7  C   UNL d   1      -1.867  -1.759   1.238  0.00  0.00     0.035 C 
ATOM      8  C   UNL d   1      -0.467  -0.992   3.236  0.00  0.00     0.035 C 
ENDROOT
BRANCH   1   9
ATOM      9  O   UNL d   1       1.864   0.778   0.692  0.00  0.00    -0.294 OA
BRANCH   9  10
ATOM     10  C   UNL d   1       2.524   1.832  -0.061  0.00  0.00     0.061 C 
ATOM     11  C   UNL d   1       1.526   2.894  -0.541  0.00  0.00     0.046 C 
ATOM     12  C   UNL d   1       3.490   2.499   0.933  0.00  0.00     0.046 C 
ATOM     13  C   UNL d   1       3.352   1.258  -1.219  0.00  0.00     0.046 C 
ENDBRANCH   9  10
ENDBRANCH   1   9
BRANCH   6  14
ATOM     14  C   UNL d   1      -1.508  -3.297   3.174  0.00  0.00     0.143 C 
ATOM     15  O   UNL d   1      -0.444  -3.871   3.345  0.00  0.00    -0.650 OA
BRANCH  14  16
ATOM     16  O   UNL d   1      -2.696  -3.927   3.322  0.00  0.00    -0.776 OA
ATOM     17  H   UNL d   1      -3.479  -3.365   3.160  0.00  0.00     0.167 HD
ENDBRANCH  14  16
ENDBRANCH   6  14
TORSDOF 4
