REMARK  5 active torsions:
REMARK  status: ('A' for Active; 'I' for Inactive)
REMARK    1  A    between atoms: C_2  and  S_1 
REMARK    2  A    between atoms: C_3  and  S_1 
REMARK    3  A    between atoms: C_4  and  C_2 
REMARK    4  A    between atoms: O_10  and  C_4 
REMARK    5  A    between atoms: C_9  and  C_5 
ROOT
ATOM      1  S   UNL d   1       1.111   0.101   0.080  0.00  0.00     0.175 S 
ATOM      2  O   UNL d   1       0.959   0.591  -1.283  0.00  0.00    -0.223 OA
ATOM      3  O   UNL d   1       2.421  -0.296   0.557  0.00  0.00    -0.223 OA
ENDROOT
BRANCH   1   4
ATOM      4  C   UNL d   1       0.072  -1.309   0.191  0.00  0.00     0.254 C 
BRANCH   4   5
ATOM      5  C   UNL d   1      -1.318  -0.963  -0.212  0.00  0.00     0.154 C 
ATOM      6  O   UNL d   1      -2.278  -1.123   0.529  0.00  0.00    -0.649 OA
BRANCH   5   7
ATOM      7  O   UNL d   1      -1.471  -0.504  -1.474  0.00  0.00    -0.776 OA
ATOM      8  H   UNL d   1      -0.638  -0.296  -1.963  0.00  0.00     0.167 HD
ENDBRANCH   5   7
ENDBRANCH   4   5
ENDBRANCH   1   4
BRANCH   1   9
ATOM      9  C   UNL d   1       0.397   1.242   1.175  0.00  0.00     0.110 C 
ATOM     10  C   UNL d   1       0.760   1.241   2.467  0.00  0.00     0.023 C 
BRANCH  10  11
ATOM     11  C   UNL d   1       0.210   2.150   3.486  0.00  0.00    -0.036 A 
ATOM     12  C   UNL d   1      -1.095   2.658   3.422  0.00  0.00     0.011 A 
ATOM     13  C   UNL d   1      -1.593   3.475   4.442  0.00  0.00     0.001 A 
ATOM     14  C   UNL d   1      -0.797   3.784   5.543  0.00  0.00     0.000 A 
ATOM     15  C   UNL d   1       0.498   3.280   5.623  0.00  0.00     0.001 A 
ATOM     16  C   UNL d   1       0.997   2.466   4.603  0.00  0.00     0.011 A 
ENDBRANCH  10  11
ENDBRANCH   1   9
TORSDOF 5
