REMARK  7 active torsions:
REMARK  status: ('A' for Active; 'I' for Inactive)
REMARK    1  A    between atoms: C_2  and  C_1 
REMARK       I    between atoms: N_4  and  C_1 
REMARK    2  A    between atoms: N_3  and  C_5 
REMARK    3  A    between atoms: C_6  and  N_4 
REMARK    4  A    between atoms: C_7  and  N_4 
REMARK    5  A    between atoms: C_9  and  C_7 
REMARK    6  A    between atoms: O_14  and  C_9 
REMARK    7  A    between atoms: C_19  and  O_14 
ROOT
ATOM      1  C   UNL d   1       0.738   0.088  -0.111  0.00  0.00     0.257 C 
ATOM      2  N   UNL d   1       0.224   1.108   0.724  0.00  0.00    -0.330 N 
ATOM      3  O   UNL d   1       1.932  -0.189  -0.196  0.00  0.00    -0.267 OA
ENDROOT
BRANCH   1   4
ATOM      4  C   UNL d   1      -0.124  -0.744  -0.997  0.00  0.00     0.065 A 
ATOM      5  C   UNL d   1       0.274  -1.060  -2.307  0.00  0.00     0.118 A 
ATOM      6  C   UNL d   1      -0.523  -1.839  -3.166  0.00  0.00     0.037 A 
ATOM      7  C   UNL d   1      -1.744  -2.322  -2.708  0.00  0.00     0.002 A 
ATOM      8  C   UNL d   1      -2.128  -2.079  -1.391  0.00  0.00     0.001 A 
ATOM      9  C   UNL d   1      -1.305  -1.339  -0.533  0.00  0.00     0.020 A 
BRANCH   5  10
ATOM     10  N   UNL d   1       1.538  -0.593  -2.853  0.00  0.00    -0.115 N 
ATOM     11  O   UNL d   1       1.627   0.621  -3.092  0.00  0.00    -0.532 OA
ATOM     12  O   UNL d   1       2.367  -1.458  -3.160  0.00  0.00    -0.532 OA
ENDBRANCH   5  10
ENDBRANCH   1   4
BRANCH   2  13
ATOM     13  C   UNL d   1       1.147   2.019   1.523  0.00  0.00     0.025 C 
ATOM     14  C   UNL d   1       1.139   3.407   0.851  0.00  0.00     0.037 C 
ATOM     15  C   UNL d   1       0.698   2.144   3.008  0.00  0.00     0.037 C 
ATOM     16  C   UNL d   1       2.628   1.575   1.627  0.00  0.00     0.037 C 
ENDBRANCH   2  13
BRANCH   2  17
ATOM     17  C   UNL d   1      -1.230   1.325   0.933  0.00  0.00     0.238 C 
BRANCH  17  18
ATOM     18  C   UNL d   1      -2.234   1.644  -0.169  0.00  0.00     0.276 C 
ATOM     19  O   UNL d   1      -3.441   1.674   0.056  0.00  0.00    -0.263 OA
BRANCH  18  20
ATOM     20  O   UNL d   1      -1.661   1.956  -1.357  0.00  0.00    -0.321 OA
BRANCH  20  21
ATOM     21  C   UNL d   1      -2.586   2.413  -2.359  0.00  0.00     0.174 C 
ATOM     22  C   UNL d   1      -3.297   1.249  -3.027  0.00  0.00     0.034 C 
ENDBRANCH  20  21
ENDBRANCH  18  20
ENDBRANCH  17  18
ENDBRANCH   2  17
TORSDOF 7
