REMARK  2 active torsions:
REMARK  status: ('A' for Active; 'I' for Inactive)
REMARK    1  A    between atoms: C_12  and  C_3 
REMARK    2  A    between atoms: O_18  and  C_15 
ROOT
ATOM      1  C   UNL d   1      -1.072   0.924   0.617  0.00  0.00     0.182 A 
ATOM      2  C   UNL d   1       0.290   0.830  -0.036  0.00  0.00     0.182 A 
ATOM      3  C   UNL d   1      -0.643  -0.377  -0.062  0.00  0.00     0.098 A 
ATOM      4  C   UNL d   1      -1.165   0.938   2.048  0.00  0.00     0.088 C 
ATOM      5  C   UNL d   1      -2.095   1.739   0.023  0.00  0.00     0.088 C 
ATOM      6  C   UNL d   1       0.552   1.613  -1.209  0.00  0.00     0.088 C 
ATOM      7  C   UNL d   1       1.467   0.713   0.777  0.00  0.00     0.088 C 
ATOM      8  N   UNL d   1      -1.219   0.939   3.205  0.00  0.00    -0.195 NA
ATOM      9  N   UNL d   1      -2.928   2.385  -0.458  0.00  0.00    -0.195 NA
ATOM     10  N   UNL d   1       0.776   2.248  -2.152  0.00  0.00    -0.195 NA
ATOM     11  N   UNL d   1       2.405   0.591   1.450  0.00  0.00    -0.195 NA
ENDROOT
BRANCH   3  12
ATOM     12  C   UNL d   1      -1.356  -0.877  -1.306  0.00  0.00    -0.048 A 
ATOM     13  C   UNL d   1      -0.693  -1.084  -2.527  0.00  0.00     0.010 A 
ATOM     14  C   UNL d   1      -1.373  -1.539  -3.666  0.00  0.00     0.037 A 
ATOM     15  C   UNL d   1      -2.735  -1.818  -3.604  0.00  0.00     0.068 A 
ATOM     16  C   UNL d   1      -3.400  -1.677  -2.390  0.00  0.00     0.037 A 
ATOM     17  C   UNL d   1      -2.721  -1.215  -1.259  0.00  0.00     0.010 A 
BRANCH  15  18
ATOM     18  O   UNL d   1      -3.495  -2.279  -4.642  0.00  0.00    -0.356 OA
ATOM     19  C   UNL d   1      -3.071  -1.873  -5.940  0.00  0.00     0.210 C 
ENDBRANCH  15  18
ENDBRANCH   3  12
TORSDOF 2
