REMARK  6 active torsions:
REMARK  status: ('A' for Active; 'I' for Inactive)
REMARK    1  A    between atoms: C_3  and  N_1 
REMARK    2  A    between atoms: CA_6  and  C_2 
REMARK    3  A    between atoms: OXT_13  and  C_2 
REMARK    4  A    between atoms: CA_6  and  C_8 
REMARK    5  A    between atoms: N_12  and  CA_6 
REMARK    6  A    between atoms: C_8  and  C_11 
ROOT
ATOM      1  C   UNL d   1       0.281   0.403   0.948  0.00  0.00     0.102 A 
ATOM      2  C   UNL d   1       0.766   1.541   1.601  0.00  0.00     0.036 A 
ATOM      3  C   UNL d   1      -0.924  -0.186   1.350  0.00  0.00     0.036 A 
ATOM      4  C   UNL d   1      -1.167   1.503   3.083  0.00  0.00    -0.056 A 
ATOM      5  C   UNL d   1      -1.648   0.370   2.409  0.00  0.00     0.009 A 
ATOM      6  C   UNL d   1       0.042   2.084   2.665  0.00  0.00     0.009 A 
ENDROOT
BRANCH   4   7
ATOM      7  C   UNL d   1      -1.959   2.139   4.205  0.00  0.00     0.085 C 
BRANCH   7   8
ATOM      8  CA  UNL d   1      -2.240   1.220   5.406  0.00  0.00     0.318 C 
BRANCH   8   9
ATOM      9  C   UNL d   1      -0.928   0.857   6.119  0.00  0.00     0.174 C 
ATOM     10  O   UNL d   1      -0.412   1.549   6.990  0.00  0.00    -0.648 OA
BRANCH   9  11
ATOM     11  OXT UNL d   1      -0.390  -0.317   5.722  0.00  0.00    -0.775 OA
ATOM     12  HXT UNL d   1      -0.889  -0.776   5.021  0.00  0.00     0.167 HD
ENDBRANCH   9  11
ENDBRANCH   8   9
BRANCH   8  13
ATOM     13  N   UNL d   1      -3.147   1.912   6.357  0.00  0.00     0.093 N 
ATOM     14  H1  UNL d   1      -2.760   2.839   6.555  0.00  0.00     0.314 HD
ATOM     15  H2  UNL d   1      -3.092   1.437   7.263  0.00  0.00     0.314 HD
ENDBRANCH   8  13
ENDBRANCH   7   8
ENDBRANCH   4   7
BRANCH   1  16
ATOM     16  N   UNL d   1       1.034  -0.169  -0.176  0.00  0.00    -0.116 N 
ATOM     17  O   UNL d   1       2.078   0.400  -0.522  0.00  0.00    -0.532 OA
ATOM     18  O   UNL d   1       0.580  -1.192  -0.710  0.00  0.00    -0.532 OA
ENDBRANCH   1  16
TORSDOF 6
