REMARK  5 active torsions:
REMARK  status: ('A' for Active; 'I' for Inactive)
REMARK    1  A    between atoms: C_8  and  C_2 
REMARK    2  A    between atoms: S_9  and  C_5 
REMARK    3  A    between atoms: C_16  and  S_9 
REMARK    4  A    between atoms: C_10  and  C_11 
REMARK    5  A    between atoms: C_18  and  C_16 
ROOT
ATOM      1  S   UNL d   1       0.907  -0.047  -0.760  0.00  0.00    -0.044 SA
ATOM      2  C   UNL d   1      -0.141   1.119  -0.042  0.00  0.00     0.101 A 
ATOM      3  N   UNL d   1      -1.191   0.576   0.551  0.00  0.00    -0.292 N 
ATOM      4  HN  UNL d   1      -1.892   1.114   1.061  1.00  0.00     0.187 HD
ATOM      5  C   UNL d   1      -0.206  -1.250  -0.269  0.00  0.00     0.129 A 
ATOM      6  N   UNL d   1      -1.236  -0.795   0.406  0.00  0.00    -0.287 N 
ATOM      7  HN  UNL d   1      -1.980  -1.385   0.779  1.00  0.00     0.188 HD
ENDROOT
BRANCH   2   8
ATOM      8  C   UNL d   1       0.142   2.561  -0.075  0.00  0.00    -0.001 A 
ATOM      9  C   UNL d   1       0.889   3.173  -1.088  0.00  0.00     0.015 A 
ATOM     10  C   UNL d   1       1.098   4.560  -1.093  0.00  0.00     0.009 A 
ATOM     11  C   UNL d   1       0.573   5.390  -0.085  0.00  0.00    -0.051 A 
ATOM     12  C   UNL d   1      -0.177   4.768   0.924  0.00  0.00     0.009 A 
ATOM     13  C   UNL d   1      -0.390   3.383   0.926  0.00  0.00     0.015 A 
BRANCH  11  14
ATOM     14  C   UNL d   1       0.830   6.907  -0.113  0.00  0.00    -0.024 C 
ATOM     15  C   UNL d   1       0.189   7.668   1.071  0.00  0.00     0.019 C 
ATOM     16  C   UNL d   1       2.349   7.176  -0.059  0.00  0.00     0.019 C 
ATOM     17  C   UNL d   1       0.256   7.519  -1.409  0.00  0.00     0.019 C 
ENDBRANCH  11  14
ENDBRANCH   2   8
BRANCH   5  18
ATOM     18  S   UNL d   1       0.003  -2.944  -0.637  0.00  0.00    -0.099 SA
BRANCH  18  19
ATOM     19  C   UNL d   1      -1.735  -3.479  -0.647  0.00  0.00     0.120 C 
BRANCH  19  20
ATOM     20  C   UNL d   1      -1.848  -4.949  -0.974  0.00  0.00    -0.048 A 
ATOM     21  C   UNL d   1      -1.855  -5.906   0.054  0.00  0.00     0.009 A 
ATOM     22  C   UNL d   1      -1.924  -7.267  -0.245  0.00  0.00     0.024 A 
ATOM     23  C   UNL d   1      -1.985  -7.683  -1.574  0.00  0.00     0.034 A 
ATOM     24  C   UNL d   1      -1.980  -6.747  -2.606  0.00  0.00     0.024 A 
ATOM     25 CL   UNL d   1      -2.058  -9.362  -1.942  0.00  0.00    -0.084 Cl
ATOM     26  C   UNL d   1      -1.910  -5.384  -2.307  0.00  0.00     0.009 A 
ENDBRANCH  19  20
ENDBRANCH  18  19
ENDBRANCH   5  18
TORSDOF 5
