REMARK  6 active torsions:
REMARK  status: ('A' for Active; 'I' for Inactive)
REMARK    1  A    between atoms: C_2  and  C_1 
REMARK    2  A    between atoms: S_4  and  C_12 
REMARK    3  A    between atoms: C_18  and  S_4 
REMARK    4  A    between atoms: C_12  and  C_8 
REMARK    5  A    between atoms: C_9  and  C_15 
REMARK    6  A    between atoms: C_20  and  C_18 
ROOT
ATOM      1  C   UNL d   1       4.404  -0.668  -0.218  0.00  0.00     0.057 A 
ATOM      2  N   UNL d   1       5.239  -0.293   0.824  0.00  0.00    -0.352 N 
ATOM      3  HN  UNL d   1       5.593  -0.928   1.539  1.00  0.00     0.166 HD
ATOM      4  C   UNL d   1       5.514   0.989   0.765  0.00  0.00     0.065 A 
ATOM      5  C   UNL d   1       4.044   0.371  -1.055  0.00  0.00     0.082 A 
ATOM      6  S   UNL d   1       4.796   1.830  -0.549  0.00  0.00    -0.085 SA
ENDROOT
BRANCH   4   7
ATOM      7  C   UNL d   1       6.440   1.663   1.712  0.00  0.00     0.205 C 
BRANCH   7   8
ATOM      8  S   UNL d   1       5.525   2.254   3.119  0.00  0.00     0.154 S 
ATOM      9  O   UNL d   1       6.502   2.880   3.996  0.00  0.00    -0.227 OA
ATOM     10  O   UNL d   1       4.388   3.022   2.641  0.00  0.00    -0.227 OA
BRANCH   8  11
ATOM     11  C   UNL d   1       4.941   0.761   3.928  0.00  0.00     0.179 C 
BRANCH  11  12
ATOM     12  C   UNL d   1       4.138   1.133   5.151  0.00  0.00    -0.043 A 
ATOM     13  C   UNL d   1       4.755   1.288   6.404  0.00  0.00     0.024 A 
ATOM     14  C   UNL d   1       4.002   1.622   7.544  0.00  0.00     0.048 A 
ATOM     15  C   UNL d   1       2.620   1.818   7.412  0.00  0.00     0.016 A 
ATOM     16  C   UNL d   1       2.001   1.678   6.170  0.00  0.00     0.001 A 
ATOM     17  C   UNL d   1       2.755   1.337   5.049  0.00  0.00     0.008 A 
BRANCH  14  18
ATOM     18  C   UNL d   1       4.651   1.761   8.900  0.00  0.00     0.417 C 
ATOM     19  F   UNL d   1       5.991   1.514   8.894  0.00  0.00    -0.166 F 
ATOM     20  F   UNL d   1       4.501   3.006   9.432  0.00  0.00    -0.166 F 
ATOM     21  F   UNL d   1       4.122   0.900   9.815  0.00  0.00    -0.166 F 
ENDBRANCH  14  18
ENDBRANCH  11  12
ENDBRANCH   8  11
ENDBRANCH   7   8
ENDBRANCH   4   7
BRANCH   1  22
ATOM     22  C   UNL d   1       3.972  -2.106  -0.391  0.00  0.00     0.039 A 
ATOM     23  S   UNL d   1       3.033  -2.625  -1.724  0.00  0.00    -0.087 SA
ATOM     24  C   UNL d   1       3.062  -4.266  -1.234  0.00  0.00     0.016 A 
ATOM     25  C   UNL d   1       2.491  -5.368  -1.905  0.00  0.00     0.019 A 
ATOM     26  C   UNL d   1       3.745  -4.418  -0.029  0.00  0.00    -0.012 A 
ATOM     27  C   UNL d   1       2.605  -6.641  -1.341  0.00  0.00     0.001 A 
ATOM     28  C   UNL d   1       3.261  -6.819  -0.135  0.00  0.00     0.001 A 
ATOM     29  C   UNL d   1       3.831  -5.724   0.522  0.00  0.00     0.013 A 
ATOM     30  C   UNL d   1       4.284  -3.158   0.461  0.00  0.00    -0.031 A 
ATOM     31  C   UNL d   1       5.079  -3.116   1.732  0.00  0.00     0.050 C 
ENDBRANCH   1  22
TORSDOF 6
