REMARK  4 active torsions:
REMARK  status: ('A' for Active; 'I' for Inactive)
REMARK    1  A    between atoms: C_2  and  S_1 
REMARK    2  A    between atoms: C_3  and  S_1 
REMARK    3  A    between atoms: C_8  and  C_2 
REMARK    4  A    between atoms: N_4  and  C_8 
ROOT
ATOM      1  S   UNL d   1       1.147  -0.041  -0.079  0.00  0.00     0.177 S 
ATOM      2  O   UNL d   1       0.542  -0.891   0.931  0.00  0.00    -0.223 OA
ATOM      3  O   UNL d   1       2.587   0.070  -0.196  0.00  0.00    -0.223 OA
ENDROOT
BRANCH   1   4
ATOM      4  C   UNL d   1       0.466   1.597   0.072  0.00  0.00     0.176 C 
BRANCH   4   5
ATOM      5  C   UNL d   1       0.963   2.278   1.346  0.00  0.00     0.287 C 
BRANCH   5   6
ATOM      6  N   UNL d   1       0.381   3.626   1.550  0.00  0.00     0.090 N 
ATOM      7  C   UNL d   1       0.785   4.579   0.492  0.00  0.00     0.282 C 
ATOM      8  C   UNL d   1       0.065   5.931   0.584  0.00  0.00     0.104 C 
ATOM      9  S   UNL d   1       0.460   6.817   2.118  0.00  0.00    -0.166 SA
ATOM     10  C   UNL d   1       0.084   5.458   3.267  0.00  0.00     0.104 C 
ATOM     11  C   UNL d   1       0.790   4.151   2.878  0.00  0.00     0.282 C 
ENDBRANCH   5   6
ENDBRANCH   4   5
ENDBRANCH   1   4
BRANCH   1  12
ATOM     12  C   UNL d   1       0.533  -0.582  -1.663  0.00  0.00     0.059 A 
ATOM     13  C   UNL d   1       1.286  -0.334  -2.816  0.00  0.00     0.025 A 
ATOM     14  C   UNL d   1       0.814  -0.775  -4.054  0.00  0.00     0.025 A 
ATOM     15  C   UNL d   1      -0.395  -1.469  -4.130  0.00  0.00     0.034 A 
ATOM     16  C   UNL d   1      -1.138  -1.728  -2.977  0.00  0.00     0.025 A 
ATOM     17 CL   UNL d   1      -0.972  -2.013  -5.656  0.00  0.00    -0.084 Cl
ATOM     18  C   UNL d   1      -0.672  -1.288  -1.734  0.00  0.00     0.025 A 
ENDBRANCH   1  12
TORSDOF 4
