REMARK  2 active torsions:
REMARK  status: ('A' for Active; 'I' for Inactive)
REMARK    1  A    between atoms: C_15  and  N_1 
REMARK    2  A    between atoms: C_16  and  N_2 
ROOT
ATOM      1  N   UNL d   1      -3.120  -1.150   0.164  0.00  0.00    -0.153 NA
ATOM      2  N   UNL d   1       3.100   1.443   0.165  0.00  0.00    -0.153 NA
ATOM      3  C   UNL d   1      -0.578   1.514  -0.550  0.00  0.00    -0.001 C 
ATOM      4  C   UNL d   1      -2.897   0.180  -0.163  0.00  0.00     0.217 C 
ATOM      5  C   UNL d   1       1.998   2.222  -0.155  0.00  0.00     0.217 C 
ATOM      6  C   UNL d   1       2.778   0.187  -0.306  0.00  0.00     0.216 C 
ATOM      7  C   UNL d   1      -1.982  -1.819  -0.235  0.00  0.00     0.216 C 
ATOM      8  C   UNL d   1      -1.460   0.479   0.213  0.00  0.00     0.099 C 
ATOM      9  C   UNL d   1       0.780   1.402   0.209  0.00  0.00     0.099 C 
ATOM     10  C   UNL d   1       1.350  -0.039   0.096  0.00  0.00     0.095 C 
ATOM     11  C   UNL d   1      -0.825  -0.933   0.120  0.00  0.00     0.095 C 
ATOM     12  C   UNL d   1       0.435  -0.931  -0.756  0.00  0.00     0.040 C 
ATOM     13  C   UNL d   1      -0.379   1.002  -1.962  0.00  0.00    -0.013 C 
ATOM     14  C   UNL d   1       0.129  -0.236  -2.069  0.00  0.00    -0.081 C 
ATOM     15  O   UNL d   1      -1.893  -2.947  -0.683  0.00  0.00    -0.278 OA
ATOM     16  O   UNL d   1      -3.707   0.982  -0.594  0.00  0.00    -0.278 OA
ATOM     17  O   UNL d   1       3.502  -0.623  -0.855  0.00  0.00    -0.278 OA
ATOM     18  O   UNL d   1       2.000   3.360  -0.591  0.00  0.00    -0.278 OA
ATOM     19  C   UNL d   1      -1.159   2.923  -0.521  0.00  0.00     0.021 C 
ATOM     20  C   UNL d   1       0.375  -0.919  -3.377  0.00  0.00     0.043 C 
ENDROOT
BRANCH   1  21
ATOM     21  C   UNL d   1      -3.567  -1.360   1.532  0.00  0.00     0.028 A 
ATOM     22  C   UNL d   1      -2.834  -2.152   2.438  0.00  0.00     0.048 A 
ATOM     23  C   UNL d   1      -3.114  -2.115   3.806  0.00  0.00     0.037 A 
ATOM     24 CL   UNL d   1      -2.076  -2.941   4.904  0.00  0.00    -0.084 Cl
ATOM     25  C   UNL d   1      -4.176  -1.366   4.292  0.00  0.00     0.047 A 
ATOM     26  C   UNL d   1      -4.962  -0.650   3.392  0.00  0.00     0.037 A 
ATOM     27  C   UNL d   1      -4.658  -0.627   2.027  0.00  0.00     0.048 A 
ATOM     28 CL   UNL d   1      -6.298   0.259   3.981  0.00  0.00    -0.084 Cl
ENDBRANCH   1  21
BRANCH   2  29
ATOM     29  C   UNL d   1       3.531   1.516   1.557  0.00  0.00     0.028 A 
ATOM     30  C   UNL d   1       3.938   0.362   2.256  0.00  0.00     0.048 A 
ATOM     31  C   UNL d   1       4.092   0.389   3.646  0.00  0.00     0.037 A 
ATOM     32 CL   UNL d   1       4.452  -1.068   4.490  0.00  0.00    -0.084 Cl
ATOM     33  C   UNL d   1       3.900   1.564   4.361  0.00  0.00     0.047 A 
ATOM     34  C   UNL d   1       3.573   2.726   3.670  0.00  0.00     0.037 A 
ATOM     35  C   UNL d   1       3.396   2.712   2.281  0.00  0.00     0.048 A 
ATOM     36 CL   UNL d   1       3.323   4.187   4.544  0.00  0.00    -0.084 Cl
ENDBRANCH   2  29
TORSDOF 2
