REMARK  8 active torsions:
REMARK  status: ('A' for Active; 'I' for Inactive)
REMARK    1  A    between atoms: N_7  and  C_1 
REMARK    2  A    between atoms: N_4  and  C_2 
REMARK    3  A    between atoms: N_5  and  C_3 
REMARK    4  A    between atoms: C_6  and  C_8 
REMARK    5  A    between atoms: N_11  and  N_7 
REMARK    6  A    between atoms: C_14  and  C_16 
REMARK    7  A    between atoms: C_29  and  C_19 
REMARK    8  A    between atoms: O_30  and  C_23 
ROOT
ATOM      1  N   UNL d   1       3.596   2.373  -2.416  0.00  0.00    -0.197 NA
ATOM      2  C   UNL d   1       4.573   2.477  -1.802  0.00  0.00     0.063 C 
ATOM      3  C   UNL d   1       5.838   2.564  -1.035  0.00  0.00     0.165 C 
ENDROOT
BRANCH   3   4
ATOM      4  C   UNL d   1       6.244   1.317  -0.263  0.00  0.00    -0.011 A 
ATOM      5  C   UNL d   1       5.405   0.170  -0.312  0.00  0.00     0.024 A 
ATOM      6  C   UNL d   1       5.666  -0.993   0.426  0.00  0.00    -0.012 A 
ATOM      7  C   UNL d   1       6.795  -1.033   1.236  0.00  0.00     0.016 A 
ATOM      8  C   UNL d   1       7.639   0.079   1.300  0.00  0.00     0.038 A 
ATOM      9  C   UNL d   1       7.381   1.251   0.564  0.00  0.00     0.075 A 
BRANCH   6  10
ATOM     10  C   UNL d   1       4.680  -2.123   0.384  0.00  0.00     0.032 C 
ATOM     11  N   UNL d   1       3.414  -1.840   0.233  0.00  0.00    -0.304 N 
ATOM     12  HN  UNL d   1       3.111  -0.874   0.107  1.00  0.00     0.186 HD
ATOM     13  C   UNL d   1       5.199  -3.536   0.550  0.00  0.00     0.070 C 
BRANCH  11  14
ATOM     14  N   UNL d   1       2.515  -2.845   0.244  0.00  0.00    -0.296 N 
ATOM     15  H   UNL d   1       2.797  -3.827   0.160  0.00  0.00     0.187 HD
BRANCH  14  16
ATOM     16  C   UNL d   1       1.154  -2.608   0.547  0.00  0.00     0.114 A 
ATOM     17  C   UNL d   1       0.642  -1.352   0.935  0.00  0.00     0.134 A 
ATOM     18  C   UNL d   1      -0.735  -1.097   1.124  0.00  0.00     0.054 A 
ATOM     19  C   UNL d   1      -1.675  -2.113   0.940  0.00  0.00     0.052 A 
ATOM     20  C   UNL d   1      -1.206  -3.385   0.588  0.00  0.00     0.054 A 
ATOM     21  C   UNL d   1       0.179  -3.630   0.398  0.00  0.00     0.134 A 
BRANCH  17  22
ATOM     22  N   UNL d   1       1.522  -0.253   1.299  0.00  0.00    -0.113 N 
ATOM     23  O   UNL d   1       2.096  -0.339   2.395  0.00  0.00    -0.532 OA
ATOM     24  O   UNL d   1       1.498   0.749   0.570  0.00  0.00    -0.532 OA
ENDBRANCH  17  22
BRANCH  19  25
ATOM     25  C   UNL d   1      -3.148  -1.843   1.149  0.00  0.00     0.417 C 
ATOM     26  F   UNL d   1      -3.931  -2.937   0.946  0.00  0.00    -0.166 F 
ATOM     27  F   UNL d   1      -3.416  -1.418   2.413  0.00  0.00    -0.166 F 
ATOM     28  F   UNL d   1      -3.621  -0.879   0.315  0.00  0.00    -0.166 F 
ENDBRANCH  19  25
BRANCH  21  29
ATOM     29  N   UNL d   1       0.566  -5.021   0.079  0.00  0.00    -0.113 N 
ATOM     30  O   UNL d   1       1.773  -5.306   0.062  0.00  0.00    -0.532 OA
ATOM     31  O   UNL d   1      -0.341  -5.838  -0.126  0.00  0.00    -0.532 OA
ENDBRANCH  21  29
ENDBRANCH  14  16
ENDBRANCH  11  14
ENDBRANCH   6  10
BRANCH   9  32
ATOM     32  O   UNL d   1       8.264   2.250   0.878  0.00  0.00    -0.355 OA
ATOM     33  C   UNL d   1       8.687   3.153  -0.130  0.00  0.00     0.210 C 
ENDBRANCH   9  32
ENDBRANCH   3   4
TORSDOF 8
