REMARK  2 active torsions:
REMARK  status: ('A' for Active; 'I' for Inactive)
REMARK    1  A    between atoms: C_7  and  S_8 
REMARK    2  A    between atoms: S_8  and  C_10 
ROOT
ATOM      1  N   UNL d   1       1.139   0.807   0.140  0.00  0.00    -0.197 NA
ATOM      2  C   UNL d   1       2.295   0.709   0.190  0.00  0.00     0.069 C 
ATOM      3  C   UNL d   1       3.766   0.605   0.235  0.00  0.00     0.203 C 
ENDROOT
BRANCH   3   4
ATOM      4  S   UNL d   1       4.321  -0.392   1.666  0.00  0.00    -0.116 SA
BRANCH   4   5
ATOM      5  C   UNL d   1       6.098  -0.346   1.487  0.00  0.00     0.002 A 
ATOM      6  C   UNL d   1       6.820   0.853   1.475  0.00  0.00     0.030 A 
ATOM      7  C   UNL d   1       8.230   0.852   1.451  0.00  0.00    -0.025 A 
ATOM      8  C   UNL d   1       8.969   2.047   1.461  0.00  0.00     0.012 A 
ATOM      9  C   UNL d   1       8.924  -0.380   1.438  0.00  0.00    -0.026 A 
ATOM     10  C   UNL d   1      10.366   2.028   1.455  0.00  0.00     0.001 A 
ATOM     11  C   UNL d   1      11.044   0.813   1.439  0.00  0.00     0.001 A 
ATOM     12  C   UNL d   1      10.329  -0.384   1.431  0.00  0.00     0.012 A 
ATOM     13  C   UNL d   1       8.193  -1.575   1.448  0.00  0.00     0.013 A 
ATOM     14  C   UNL d   1       6.795  -1.557   1.480  0.00  0.00     0.019 A 
ENDBRANCH   4   5
ENDBRANCH   3   4
TORSDOF 2
