REMARK  5 active torsions:
REMARK  status: ('A' for Active; 'I' for Inactive)
REMARK    1  A    between atoms: N_15  and  C_5 
REMARK    2  A    between atoms: C_14  and  C_6 
REMARK    3  A    between atoms: O_23  and  C_7 
REMARK    4  A    between atoms: C_8  and  C_13 
REMARK    5  A    between atoms: C_24  and  O_23 
ROOT
ATOM      1  C   UNL d   1       0.954  -0.364  -0.039  0.00  0.00     0.095 A 
ATOM      2  C   UNL d   1      -1.443  -0.081   0.002  0.00  0.00     0.108 A 
ATOM      3  N   UNL d   1       0.017   1.848   0.062  0.00  0.00    -0.325 N 
ATOM      4  HN  UNL d   1       0.138   2.861   0.097  1.00  0.00     0.169 HD
ATOM      5  C   UNL d   1       1.074   1.029   0.061  0.00  0.00     0.101 A 
ATOM      6  C   UNL d   1      -0.335  -0.972  -0.061  0.00  0.00     0.023 A 
ATOM      7  C   UNL d   1      -1.210   1.298   0.015  0.00  0.00     0.165 A 
ATOM      8  C   UNL d   1      -2.800  -0.522   0.106  0.00  0.00     0.104 C 
ATOM      9  C   UNL d   1       2.174  -1.110  -0.147  0.00  0.00     0.103 C 
ATOM     10  N   UNL d   1       3.179  -1.685  -0.231  0.00  0.00    -0.191 NA
ATOM     11  N   UNL d   1      -3.898  -0.892   0.191  0.00  0.00    -0.191 NA
ENDROOT
BRANCH   6  12
ATOM     12  C   UNL d   1      -0.511  -2.467  -0.147  0.00  0.00    -0.023 A 
ATOM     13  C   UNL d   1      -1.514  -3.059  -0.940  0.00  0.00     0.013 A 
ATOM     14  C   UNL d   1      -1.682  -4.451  -1.020  0.00  0.00     0.017 A 
ATOM     15  C   UNL d   1      -0.803  -5.315  -0.364  0.00  0.00     0.048 A 
ATOM     16  C   UNL d   1       0.218  -4.753   0.406  0.00  0.00     0.017 A 
ATOM     17  C   UNL d   1       0.330  -3.362   0.544  0.00  0.00     0.013 A 
BRANCH  15  18
ATOM     18  C   UNL d   1      -0.929  -6.814  -0.483  0.00  0.00     0.417 C 
ATOM     19  F   UNL d   1      -2.044  -7.215  -1.155  0.00  0.00    -0.166 F 
ATOM     20  F   UNL d   1       0.124  -7.373  -1.141  0.00  0.00    -0.166 F 
ATOM     21  F   UNL d   1      -0.982  -7.432   0.730  0.00  0.00    -0.166 F 
ENDBRANCH  15  18
ENDBRANCH   6  12
BRANCH   7  22
ATOM     22  O   UNL d   1      -2.295   2.152  -0.081  0.00  0.00    -0.335 OA
BRANCH  22  23
ATOM     23  C   UNL d   1      -1.988   3.498   0.294  0.00  0.00     0.173 C 
ATOM     24  C   UNL d   1      -3.192   4.380   0.017  0.00  0.00     0.034 C 
ENDBRANCH  22  23
ENDBRANCH   7  22
BRANCH   5  25
ATOM     25  N   UNL d   1       2.287   1.675   0.276  0.00  0.00    -0.287 NA
ATOM     26  H   UNL d   1       2.134   2.681   0.263  0.00  0.00     0.125 HD
ATOM     27  H   UNL d   1       3.052   1.387  -0.321  0.00  0.00     0.125 HD
ENDBRANCH   5  25
TORSDOF 5
