REMARK  8 active torsions:
REMARK  status: ('A' for Active; 'I' for Inactive)
REMARK    1  A    between atoms: N_2  and  C_1 
REMARK    2  A    between atoms: C_3  and  C_1 
REMARK    3  A    between atoms: C_4  and  C_1 
REMARK    4  A    between atoms: N_7  and  C_1 
REMARK       I    between atoms: C_5  and  N_2 
REMARK    5  A    between atoms: C_6  and  C_5 
REMARK    6  A    between atoms: C_16  and  N_7 
REMARK    7  A    between atoms: O_21  and  C_9 
REMARK    8  A    between atoms: C_25  and  O_21 
ROOT
ATOM      1  C   UNL d   1       1.267   0.620  -0.406  0.00  0.00     0.306 C 
ENDROOT
BRANCH   1   2
ATOM      2  N   UNL d   1       0.976  -0.720   0.144  0.00  0.00    -0.315 N 
ATOM      3  C   UNL d   1      -0.281  -1.101   0.560  0.00  0.00     0.256 C 
ATOM      4  O   UNL d   1      -1.091  -0.294   0.993  0.00  0.00    -0.267 OA
ATOM      5  H   UNL d   1       1.575  -1.454  -0.211  0.00  0.00     0.165 HD
BRANCH   3   6
ATOM      6  C   UNL d   1      -0.673  -2.541   0.416  0.00  0.00     0.065 A 
ATOM      7  C   UNL d   1       0.209  -3.552  -0.010  0.00  0.00     0.084 A 
ATOM      8  C   UNL d   1      -0.291  -4.830  -0.275  0.00  0.00     0.038 A 
ATOM      9  C   UNL d   1      -1.646  -5.117  -0.079  0.00  0.00     0.003 A 
ATOM     10  C   UNL d   1      -2.510  -4.136   0.398  0.00  0.00     0.001 A 
ATOM     11  C   UNL d   1      -2.026  -2.853   0.644  0.00  0.00     0.020 A 
BRANCH   7  12
ATOM     12  O   UNL d   1       1.510  -3.187  -0.201  0.00  0.00    -0.350 OA
BRANCH  12  13
ATOM     13  C   UNL d   1       2.545  -4.166  -0.211  0.00  0.00     0.171 C 
ATOM     14  C   UNL d   1       2.999  -4.373  -1.643  0.00  0.00     0.034 C 
ENDBRANCH  12  13
ENDBRANCH   7  12
ENDBRANCH   3   6
ENDBRANCH   1   2
BRANCH   1  15
ATOM     15  C   UNL d   1       0.483   1.820   0.251  0.00  0.00     0.441 C 
ATOM     16  F   UNL d   1      -0.818   1.903  -0.077  0.00  0.00    -0.166 F 
ATOM     17  F   UNL d   1       0.597   1.786   1.605  0.00  0.00    -0.166 F 
ATOM     18  F   UNL d   1       1.043   3.011  -0.114  0.00  0.00    -0.166 F 
ENDBRANCH   1  15
BRANCH   1  19
ATOM     19  C   UNL d   1       0.836   0.777  -1.899  0.00  0.00     0.441 C 
ATOM     20  F   UNL d   1      -0.341   0.130  -2.131  0.00  0.00    -0.166 F 
ATOM     21  F   UNL d   1       0.660   2.054  -2.302  0.00  0.00    -0.166 F 
ATOM     22  F   UNL d   1       1.712   0.227  -2.772  0.00  0.00    -0.166 F 
ENDBRANCH   1  19
BRANCH   1  23
ATOM     23  N   UNL d   1       2.721   0.786  -0.064  0.00  0.00    -0.349 N 
ATOM     24  H   UNL d   1       2.782   1.071   0.913  0.00  0.00     0.162 HD
BRANCH  23  25
ATOM     25  C   UNL d   1       3.892   0.143  -0.439  0.00  0.00     0.030 A 
ATOM     26  C   UNL d   1       4.065  -0.708  -1.522  0.00  0.00     0.029 A 
ATOM     27  C   UNL d   1       5.340  -1.210  -1.871  0.00  0.00     0.009 A 
ATOM     28  C   UNL d   1       6.477  -0.872  -1.132  0.00  0.00    -0.062 A 
ATOM     29  C   UNL d   1       6.317  -0.032  -0.032  0.00  0.00     0.009 A 
ATOM     30  C   UNL d   1       7.826  -1.421  -1.476  0.00  0.00     0.048 C 
ATOM     31  C   UNL d   1       5.051   0.477   0.285  0.00  0.00     0.029 A 
ENDBRANCH  23  25
ENDBRANCH   1  23
TORSDOF 8
