REMARK  3 active torsions:
REMARK  status: ('A' for Active; 'I' for Inactive)
REMARK    1  A    between atoms: C_2  and  S_1 
REMARK    2  A    between atoms: N_5  and  S_1 
REMARK    3  A    between atoms: C_3  and  N_6 
ROOT
ATOM      1  N   UNL d   1       0.472  -1.166   0.974  0.00  0.00    -0.304 N 
ATOM      2  N   UNL d   1       0.940  -3.993   0.600  0.00  0.00    -0.363 N 
ATOM      3  C   UNL d   1       1.456  -1.888   1.832  0.00  0.00     0.155 C 
ATOM      4  C   UNL d   1      -0.623  -2.079   0.527  0.00  0.00     0.155 C 
ATOM      5  C   UNL d   1      -0.072  -3.314  -0.213  0.00  0.00     0.145 C 
ATOM      6  C   UNL d   1       2.027  -3.139   1.122  0.00  0.00     0.145 C 
ENDROOT
BRANCH   1   7
ATOM      7  S   UNL d   1       1.057  -0.020  -0.119  0.00  0.00     0.262 S 
ATOM      8  O   UNL d   1       2.480  -0.264  -0.291  0.00  0.00    -0.200 OA
ATOM      9  O   UNL d   1       0.179   0.052  -1.266  0.00  0.00    -0.200 OA
BRANCH   7  10
ATOM     10  C   UNL d   1       0.878   1.507   0.780  0.00  0.00     0.101 A 
ATOM     11  C   UNL d   1      -0.367   1.943   1.247  0.00  0.00     0.059 A 
ATOM     12  C   UNL d   1      -0.435   3.045   2.110  0.00  0.00     0.049 A 
ATOM     13 CL   UNL d   1      -1.877   1.238   0.798  0.00  0.00    -0.083 Cl
ATOM     14  C   UNL d   1       0.722   3.745   2.446  0.00  0.00     0.035 A 
ATOM     15  C   UNL d   1       1.946   3.383   1.892  0.00  0.00     0.025 A 
ATOM     16 CL   UNL d   1       0.636   5.058   3.554  0.00  0.00    -0.084 Cl
ATOM     17  C   UNL d   1       2.028   2.259   1.066  0.00  0.00     0.029 A 
ENDBRANCH   7  10
ENDBRANCH   1   7
BRANCH   2  18
ATOM     18  C   UNL d   1       1.289  -5.320   0.373  0.00  0.00     0.117 A 
ATOM     19  C   UNL d   1       1.116  -6.065  -0.827  0.00  0.00     0.042 A 
ATOM     20  C   UNL d   1       1.455  -7.413  -0.767  0.00  0.00     0.088 A 
ATOM     21  C   UNL d   1       0.686  -5.742  -2.166  0.00  0.00     0.025 A 
ATOM     22  S   UNL d   1       1.219  -8.241  -2.240  0.00  0.00    -0.083 SA
ATOM     23  N   UNL d   1       1.924  -8.081   0.298  0.00  0.00    -0.346 N 
ATOM     24  C   UNL d   1       0.692  -6.823  -3.021  0.00  0.00     0.053 A 
ATOM     25  C   UNL d   1       2.073  -7.292   1.358  0.00  0.00     0.182 A 
ATOM     26  HN  UNL d   1       2.140  -9.078   0.296  1.00  0.00     0.167 HD
ATOM     27  N   UNL d   1       1.805  -5.982   1.444  0.00  0.00    -0.338 N 
ATOM     28  HN  UNL d   1       1.989  -5.480   2.312  1.00  0.00     0.168 HD
ENDBRANCH   2  18
TORSDOF 3
