REMARK  7 active torsions:
REMARK  status: ('A' for Active; 'I' for Inactive)
REMARK    1  A    between atoms: O_14  and  C_3 
REMARK    2  A    between atoms: S_10  and  C_4 
REMARK    3  A    between atoms: C_15  and  C_5 
REMARK    4  A    between atoms: C_9  and  C_12 
REMARK    5  A    between atoms: C_11  and  C_9 
REMARK    6  A    between atoms: C_12  and  S_10 
REMARK    7  A    between atoms: C_20  and  C_15 
ROOT
ATOM      1  N   UNL d   1      -0.716   1.278   0.018  0.00  0.00    -0.317 N 
ATOM      2  HN  UNL d   1      -1.201   2.176   0.032  1.00  0.00     0.170 HD
ATOM      3  C   UNL d   1      -1.365   0.101   0.048  0.00  0.00     0.150 A 
ATOM      4  C   UNL d   1       0.619   1.177  -0.030  0.00  0.00     0.146 A 
ATOM      5  C   UNL d   1      -0.796  -1.158   0.030  0.00  0.00     0.015 A 
ATOM      6  N   UNL d   1       1.291   0.016  -0.005  0.00  0.00    -0.340 N 
ATOM      7  HN  UNL d   1       2.311   0.005  -0.011  1.00  0.00     0.167 HD
ATOM      8  C   UNL d   1       0.589  -1.138   0.029  0.00  0.00     0.018 A 
ATOM      9  C   UNL d   1       1.412  -2.391   0.022  0.00  0.00     0.069 C 
ENDROOT
BRANCH   4  10
ATOM     10  S   UNL d   1       1.637   2.608  -0.289  0.00  0.00    -0.086 SA
BRANCH  10  11
ATOM     11  C   UNL d   1       0.585   3.959   0.298  0.00  0.00     0.161 C 
BRANCH  11  12
ATOM     12  C   UNL d   1       1.220   5.295  -0.086  0.00  0.00     0.144 C 
ATOM     13  O   UNL d   1       0.924   5.809  -1.173  0.00  0.00    -0.296 OA
BRANCH  12  14
ATOM     14  C   UNL d   1       2.279   5.965   0.829  0.00  0.00     0.010 C 
ATOM     15  C   UNL d   1       3.680   5.435   0.494  0.00  0.00     0.022 C 
ATOM     16  C   UNL d   1       2.265   7.485   0.555  0.00  0.00     0.022 C 
ATOM     17  C   UNL d   1       1.990   5.757   2.320  0.00  0.00     0.022 C 
ENDBRANCH  12  14
ENDBRANCH  11  12
ENDBRANCH  10  11
ENDBRANCH   4  10
BRANCH   3  18
ATOM     18  O   UNL d   1      -2.720   0.236   0.070  0.00  0.00    -0.346 OA
ATOM     19  H   UNL d   1      -2.812   1.204   0.025  0.00  0.00     0.219 HD
ENDBRANCH   3  18
BRANCH   5  20
ATOM     20  C   UNL d   1      -1.609  -2.423  -0.018  0.00  0.00     0.044 C 
BRANCH  20  21
ATOM     21  C   UNL d   1      -1.893  -3.024   1.361  0.00  0.00     0.000 C 
ATOM     22  C   UNL d   1      -2.596  -4.370   1.243  0.00  0.00     0.005 C 
ENDBRANCH  20  21
ENDBRANCH   5  20
TORSDOF 7
