REMARK  3 active torsions:
REMARK  status: ('A' for Active; 'I' for Inactive)
REMARK    1  A    between atoms: N_6  and  C_1 
REMARK    2  A    between atoms: N_2  and  C_10 
REMARK       I    between atoms: C_7  and  N_6 
REMARK    3  A    between atoms: C_11  and  C_7 
ROOT
ATOM      1  C   UNL d   1      -1.734  -1.288  -0.029  0.00  0.00     0.112 C 
ATOM      2  C   UNL d   1      -1.974   0.158   0.271  0.00  0.00     0.315 C 
ATOM      3  O   UNL d   1      -0.897   1.024   0.185  0.00  0.00    -0.273 OA
ATOM      4  C   UNL d   1      -0.481  -1.749  -0.152  0.00  0.00     0.050 C 
ATOM      5  C   UNL d   1       0.651  -0.841  -0.032  0.00  0.00     0.003 A 
ATOM      6  C   UNL d   1       0.410   0.527   0.065  0.00  0.00     0.090 A 
ATOM      7  C   UNL d   1       3.024  -0.371   0.030  0.00  0.00     0.103 A 
ATOM      8  C   UNL d   1       1.972  -1.300  -0.037  0.00  0.00     0.050 A 
ATOM      9  O   UNL d   1      -3.112   0.550   0.530  0.00  0.00    -0.257 OA
ATOM     10  C   UNL d   1       1.447   1.459   0.089  0.00  0.00     0.041 A 
ATOM     11  C   UNL d   1       2.767   1.009   0.068  0.00  0.00     0.039 A 
ENDROOT
BRANCH   1  12
ATOM     12  N   UNL d   1      -2.890  -2.042  -0.156  0.00  0.00    -0.318 N 
ATOM     13  C   UNL d   1      -3.021  -3.357  -0.543  0.00  0.00     0.256 C 
ATOM     14  O   UNL d   1      -2.101  -4.127  -0.798  0.00  0.00    -0.267 OA
ATOM     15  H   UNL d   1      -3.733  -1.513   0.067  0.00  0.00     0.169 HD
BRANCH  13  16
ATOM     16  C   UNL d   1      -4.420  -3.866  -0.631  0.00  0.00     0.034 A 
ATOM     17  C   UNL d   1      -5.487  -3.046  -1.017  0.00  0.00     0.042 A 
ATOM     18  C   UNL d   1      -6.787  -3.566  -1.064  0.00  0.00     0.056 A 
ATOM     19 CL   UNL d   1      -8.059  -2.495  -1.536  0.00  0.00    -0.083 Cl
ATOM     20  C   UNL d   1      -7.021  -4.907  -0.736  0.00  0.00     0.055 A 
ATOM     21  C   UNL d   1      -5.950  -5.731  -0.380  0.00  0.00     0.026 A 
ATOM     22 CL   UNL d   1      -8.601  -5.604  -0.753  0.00  0.00    -0.083 Cl
ATOM     23  C   UNL d   1      -4.653  -5.215  -0.334  0.00  0.00     0.019 A 
ENDBRANCH  13  16
ENDBRANCH   1  12
BRANCH   7  24
ATOM     24  N   UNL d   1       4.412  -0.849   0.085  0.00  0.00    -0.116 N 
ATOM     25  O   UNL d   1       4.597  -2.072   0.141  0.00  0.00    -0.532 OA
ATOM     26  O   UNL d   1       5.314   0.001   0.082  0.00  0.00    -0.532 OA
ENDBRANCH   7  24
TORSDOF 3
