REMARK  5 active torsions:
REMARK  status: ('A' for Active; 'I' for Inactive)
REMARK       I    between atoms: N_6  and  C_1 
REMARK    1  A    between atoms: C_11  and  C_1 
REMARK    2  A    between atoms: O_13  and  C_2 
REMARK    3  A    between atoms: N_3  and  N_6 
REMARK    4  A    between atoms: C_5  and  C_12 
REMARK    5  A    between atoms: O_14  and  C_8 
ROOT
ATOM      1  N   UNL d   1      -0.931   3.612   0.710  0.00  0.00    -0.308 N 
ATOM      2  HN  UNL d   1      -1.408   4.502   0.850  1.00  0.00     0.186 HD
ATOM      3  C   UNL d   1       0.300   3.573   0.316  0.00  0.00     0.121 C 
ENDROOT
BRANCH   1   4
ATOM      4  N   UNL d   1      -1.572   2.434   0.932  0.00  0.00    -0.266 N 
ATOM      5  C   UNL d   1      -2.880   2.492   1.396  0.00  0.00     0.270 C 
ATOM      6  O   UNL d   1      -3.505   3.527   1.613  0.00  0.00    -0.266 OA
ATOM      7  H   UNL d   1      -1.051   1.568   0.887  0.00  0.00     0.190 HD
BRANCH   5   8
ATOM      8  C   UNL d   1      -3.549   1.195   1.675  0.00  0.00     0.036 A 
ATOM      9  C   UNL d   1      -4.549   1.181   2.650  0.00  0.00     0.034 A 
ATOM     10  C   UNL d   1      -5.202  -0.010   2.897  0.00  0.00     0.088 A 
ATOM     11  N   UNL d   1      -4.929  -1.158   2.244  0.00  0.00    -0.375 N 
ATOM     12  C   UNL d   1      -3.972  -1.112   1.292  0.00  0.00     0.088 A 
ATOM     13  HN  UNL d   1      -5.424  -2.024   2.459  1.00  0.00     0.164 HD
ATOM     14  C   UNL d   1      -3.256   0.029   0.970  0.00  0.00     0.034 A 
ENDBRANCH   5   8
ENDBRANCH   1   4
BRANCH   3  15
ATOM     15  C   UNL d   1       1.028   4.838   0.077  0.00  0.00     0.017 A 
ATOM     16  C   UNL d   1       2.129   4.917  -0.790  0.00  0.00     0.113 A 
ATOM     17  C   UNL d   1       2.815   6.139  -0.899  0.00  0.00     0.102 A 
ATOM     18  C   UNL d   1       2.403   7.252  -0.154  0.00  0.00     0.040 A 
ATOM     19  C   UNL d   1       1.292   7.174   0.679  0.00  0.00     0.004 A 
ATOM     20  C   UNL d   1       0.602   5.971   0.790  0.00  0.00     0.016 A 
BRANCH  16  21
ATOM     21  O   UNL d   1       2.617   3.822  -1.458  0.00  0.00    -0.352 OA
ATOM     22  C   UNL d   1       1.712   3.311  -2.439  0.00  0.00     0.210 C 
ENDBRANCH  16  21
BRANCH  17  23
ATOM     23  O   UNL d   1       3.946   6.344  -1.646  0.00  0.00    -0.353 OA
ATOM     24  C   UNL d   1       3.808   5.983  -3.017  0.00  0.00     0.210 C 
ENDBRANCH  17  23
ENDBRANCH   3  15
TORSDOF 5
