REMARK  4 active torsions:
REMARK  status: ('A' for Active; 'I' for Inactive)
REMARK    1  A    between atoms: C_2  and  C_1 
REMARK    2  A    between atoms: O_7  and  C_2 
REMARK    3  A    between atoms: C_11  and  C_3 
REMARK    4  A    between atoms: C_10  and  O_7 
ROOT
ATOM      1  C   UNL d   1       0.923  -0.106   0.096  0.00  0.00     0.120 C 
ATOM      2  C   UNL d   1       0.146   0.620  -0.736  0.00  0.00     0.040 C 
ATOM      3  C   UNL d   1       0.380  -0.942   1.109  0.00  0.00     0.105 C 
ATOM      4  N   UNL d   1      -0.104  -1.609   1.927  0.00  0.00    -0.191 NA
ENDROOT
BRANCH   1   5
ATOM      5  C   UNL d   1       2.397   0.019  -0.063  0.00  0.00     0.304 C 
ATOM      6  O   UNL d   1       2.925   0.819  -0.824  0.00  0.00    -0.258 OA
BRANCH   5   7
ATOM      7  O   UNL d   1       3.054  -0.853   0.746  0.00  0.00    -0.307 OA
BRANCH   7   8
ATOM      8  C   UNL d   1       4.508  -0.859   0.814  0.00  0.00     0.060 C 
ATOM      9  C   UNL d   1       5.045   0.484   1.324  0.00  0.00     0.046 C 
ATOM     10  C   UNL d   1       4.859  -1.949   1.841  0.00  0.00     0.046 C 
ATOM     11  C   UNL d   1       5.137  -1.242  -0.531  0.00  0.00     0.046 C 
ENDBRANCH   7   8
ENDBRANCH   5   7
ENDBRANCH   1   5
BRANCH   2  12
ATOM     12  C   UNL d   1      -1.321   0.640  -0.685  0.00  0.00    -0.035 A 
ATOM     13  C   UNL d   1      -1.980   1.595   0.097  0.00  0.00     0.013 A 
ATOM     14  C   UNL d   1      -3.376   1.589   0.192  0.00  0.00     0.023 A 
ATOM     15  C   UNL d   1      -4.124   0.628  -0.497  0.00  0.00     0.044 A 
ATOM     16  C   UNL d   1      -5.554   0.616  -0.392  0.00  0.00     0.099 C 
ATOM     17  C   UNL d   1      -3.467  -0.321  -1.288  0.00  0.00     0.023 A 
ATOM     18  N   UNL d   1      -6.713   0.608  -0.308  0.00  0.00    -0.191 NA
ATOM     19  C   UNL d   1      -2.070  -0.315  -1.382  0.00  0.00     0.013 A 
ENDBRANCH   2  12
TORSDOF 4
