REMARK  2 active torsions:
REMARK  status: ('A' for Active; 'I' for Inactive)
REMARK    1  A    between atoms: C_3  and  S_1 
REMARK    2  A    between atoms: N_5  and  S_1 
ROOT
ATOM      1  S   UNL d   1       1.092  -0.031  -0.029  0.00  0.00     0.216 S 
ATOM      2  O   UNL d   1       0.444  -1.050  -0.822  0.00  0.00    -0.211 OA
ATOM      3  O   UNL d   1       2.516   0.202  -0.125  0.00  0.00    -0.211 OA
ENDROOT
BRANCH   1   4
ATOM      4  C   UNL d   1       0.701  -0.354   1.672  0.00  0.00     0.139 C 
ATOM      5  C   UNL d   1       1.327  -1.656   2.140  0.00  0.00     0.161 C 
ATOM      6  S   UNL d   1       0.593  -1.879   3.743  0.00  0.00     0.145 S 
ATOM      7  O   UNL d   1       1.357  -1.094   4.690  0.00  0.00    -0.228 OA
ATOM      8  O   UNL d   1       0.303  -3.280   3.944  0.00  0.00    -0.228 OA
ATOM      9  C   UNL d   1      -0.924  -0.998   3.390  0.00  0.00     0.142 C 
ATOM     10  C   UNL d   1      -0.797  -0.512   1.947  0.00  0.00     0.037 C 
ENDBRANCH   1   4
BRANCH   1  11
ATOM     11  N   UNL d   1       0.293   1.440  -0.285  0.00  0.00    -0.206 NA
ATOM     12  C   UNL d   1      -0.186   1.698  -1.682  0.00  0.00     0.133 C 
ATOM     13  C   UNL d   1       0.924   2.293  -2.552  0.00  0.00     0.183 C 
ATOM     14  O   UNL d   1       1.429   3.507  -1.977  0.00  0.00    -0.389 OA
ATOM     15  C   UNL d   1       1.988   3.253  -0.680  0.00  0.00     0.183 C 
ATOM     16  C   UNL d   1       0.931   2.679   0.273  0.00  0.00     0.133 C 
ENDBRANCH   1  11
TORSDOF 2
