REMARK  8 active torsions:
REMARK  status: ('A' for Active; 'I' for Inactive)
REMARK    1  A    between atoms: N_9  and  C_1 
REMARK    2  A    between atoms: N_12  and  C_1 
REMARK    3  A    between atoms: N_3  and  N_9 
REMARK    4  A    between atoms: C_19  and  N_12 
REMARK    5  A    between atoms: C_15  and  C_14 
REMARK    6  A    between atoms: C_17  and  C_19 
REMARK    7  A    between atoms: C_20  and  C_17 
REMARK    8  A    between atoms: O_18  and  C_20 
ROOT
ATOM      1  N   UNL d   1      -1.197  -0.447   1.063  0.00  0.00    -0.309 N 
ATOM      2  HN  UNL d   1      -1.742  -0.077   0.284  1.00  0.00     0.186 HD
ATOM      3  C   UNL d   1      -1.760  -1.016   2.081  0.00  0.00     0.118 C 
ENDROOT
BRANCH   1   4
ATOM      4  N   UNL d   1       0.165  -0.369   1.090  0.00  0.00    -0.277 N 
ATOM      5  H   UNL d   1       0.692  -0.732   1.878  0.00  0.00     0.189 HD
BRANCH   4   6
ATOM      6  C   UNL d   1       0.864   0.049  -0.026  0.00  0.00     0.186 C 
ATOM      7  S   UNL d   1       2.528  -0.004  -0.037  0.00  0.00    -0.040 SA
BRANCH   6   8
ATOM      8  N   UNL d   1       0.043   0.461  -1.045  0.00  0.00    -0.366 N 
ATOM      9  H   UNL d   1      -0.929   0.421  -0.753  0.00  0.00     0.161 HD
BRANCH   8  10
ATOM     10  C   UNL d   1       0.344   0.522  -2.465  0.00  0.00     0.124 C 
BRANCH  10  11
ATOM     11  C   UNL d   1       0.030  -0.796  -3.171  0.00  0.00     0.046 C 
BRANCH  11  12
ATOM     12  C   UNL d   1      -1.459  -1.128  -3.142  0.00  0.00     0.168 C 
BRANCH  12  13
ATOM     13  O   UNL d   1      -1.685  -2.330  -3.878  0.00  0.00    -0.396 OA
ATOM     14  C   UNL d   1      -3.058  -2.700  -3.861  0.00  0.00     0.201 C 
ENDBRANCH  12  13
ENDBRANCH  11  12
ENDBRANCH  10  11
ENDBRANCH   8  10
ENDBRANCH   6   8
ENDBRANCH   4   6
ENDBRANCH   1   4
BRANCH   3  15
ATOM     15  C   UNL d   1      -3.232  -1.131   2.145  0.00  0.00    -0.017 A 
ATOM     16  C   UNL d   1      -3.836  -1.699   3.273  0.00  0.00     0.052 A 
ATOM     17  C   UNL d   1      -5.216  -1.721   3.301  0.00  0.00     0.105 A 
ATOM     18  O   UNL d   1      -5.984  -2.200   4.318  0.00  0.00    -0.323 OA
ATOM     19  C   UNL d   1      -5.977  -1.224   2.267  0.00  0.00     0.105 A 
ATOM     20  C   UNL d   1      -7.308  -1.894   3.830  0.00  0.00     0.352 A 
ATOM     21  O   UNL d   1      -7.311  -1.325   2.504  0.00  0.00    -0.323 OA
ATOM     22  C   UNL d   1      -5.406  -0.681   1.137  0.00  0.00     0.040 A 
ATOM     23  C   UNL d   1      -4.015  -0.634   1.080  0.00  0.00     0.016 A 
ENDBRANCH   3  15
TORSDOF 8
