REMARK  4 active torsions:
REMARK  status: ('A' for Active; 'I' for Inactive)
REMARK    1  A    between atoms: N_5  and  C_1 
REMARK    2  A    between atoms: C_9  and  C_4 
REMARK       I    between atoms: C_8  and  N_5 
REMARK    3  A    between atoms: C_12  and  C_8 
REMARK    4  A    between atoms: O_24  and  C_20 
ROOT
ATOM      1  C   UNL d   1      -1.516   0.200  -0.188  0.00  0.00     0.152 A 
ATOM      2  N   UNL d   1      -1.372  -1.090  -0.278  0.00  0.00    -0.335 N 
ATOM      3  HN  UNL d   1      -2.129  -1.753  -0.444  1.00  0.00     0.168 HD
ATOM      4  C   UNL d   1      -0.038  -1.434  -0.115  0.00  0.00     0.057 A 
ATOM      5  S   UNL d   1      -0.095   1.101   0.073  0.00  0.00    -0.057 SA
ATOM      6  C   UNL d   1       0.829  -0.354  -0.006  0.00  0.00     0.010 A 
ATOM      7  C   UNL d   1       2.316  -0.287   0.040  0.00  0.00     0.059 C 
ENDROOT
BRANCH   1   8
ATOM      8  N   UNL d   1      -2.658   0.952  -0.240  0.00  0.00    -0.303 N 
ATOM      9  C   UNL d   1      -3.874   0.400  -0.586  0.00  0.00     0.257 C 
ATOM     10  O   UNL d   1      -4.063  -0.732  -1.014  0.00  0.00    -0.267 OA
ATOM     11  H   UNL d   1      -2.562   1.911   0.043  0.00  0.00     0.171 HD
BRANCH   9  12
ATOM     12  C   UNL d   1      -5.064   1.286  -0.398  0.00  0.00     0.032 A 
ATOM     13  C   UNL d   1      -4.986   2.684  -0.375  0.00  0.00     0.020 A 
ATOM     14  C   UNL d   1      -6.131   3.450  -0.117  0.00  0.00     0.038 A 
ATOM     15  C   UNL d   1      -7.359   2.827   0.109  0.00  0.00     0.068 A 
ATOM     16  C   UNL d   1      -7.452   1.440   0.019  0.00  0.00     0.038 A 
ATOM     17  C   UNL d   1      -6.312   0.671  -0.226  0.00  0.00     0.020 A 
BRANCH  15  18
ATOM     18  O   UNL d   1      -8.528   3.483   0.374  0.00  0.00    -0.356 OA
ATOM     19  C   UNL d   1      -8.388   4.679   1.136  0.00  0.00     0.210 C 
ENDBRANCH  15  18
ENDBRANCH   9  12
ENDBRANCH   1   8
BRANCH   4  20
ATOM     20  C   UNL d   1       0.333  -2.846  -0.101  0.00  0.00    -0.007 A 
ATOM     21  C   UNL d   1      -0.392  -3.749  -0.890  0.00  0.00     0.038 A 
ATOM     22  C   UNL d   1      -0.101  -5.118  -0.858  0.00  0.00     0.040 A 
ATOM     23 CL   UNL d   1      -1.047  -6.171  -1.848  0.00  0.00    -0.084 Cl
ATOM     24  C   UNL d   1       0.921  -5.613  -0.034  0.00  0.00    -0.040 A 
ATOM     25  C   UNL d   1       1.631  -4.709   0.767  0.00  0.00     0.009 A 
ATOM     26  C   UNL d   1       1.256  -7.076   0.028  0.00  0.00     0.050 C 
ATOM     27  C   UNL d   1       1.333  -3.343   0.741  0.00  0.00     0.014 A 
ENDBRANCH   4  20
TORSDOF 4
