REMARK  3 active torsions:
REMARK  status: ('A' for Active; 'I' for Inactive)
REMARK    1  A    between atoms: C_3  and  C_1 
REMARK       I    between atoms: N_8  and  C_3 
REMARK    2  A    between atoms: C_15  and  C_4 
REMARK    3  A    between atoms: C_7  and  N_8 
ROOT
ATOM      1  C   UNL d   1      -2.818  -1.275  -0.039  0.00  0.00     0.259 C 
ATOM      2  N   UNL d   1      -3.942  -0.474  -0.029  0.00  0.00    -0.309 N 
ATOM      3  O   UNL d   1      -2.815  -2.494  -0.177  0.00  0.00    -0.267 OA
ATOM      4  H   UNL d   1      -3.815   0.520   0.018  0.00  0.00     0.170 HD
ENDROOT
BRANCH   1   5
ATOM      5  C   UNL d   1      -1.532  -0.575   0.089  0.00  0.00     0.064 A 
ATOM      6  C   UNL d   1      -0.264  -1.187  -0.193  0.00  0.00     0.053 A 
ATOM      7  C   UNL d   1       0.718  -0.251   0.042  0.00  0.00     0.062 A 
ATOM      8  O   UNL d   1       0.132   0.909   0.447  0.00  0.00    -0.318 OA
ATOM      9  C   UNL d   1      -1.218   0.714   0.500  0.00  0.00     0.065 A 
ATOM     10  C   UNL d   1      -1.957   1.900   0.985  0.00  0.00     0.077 C 
BRANCH   7  11
ATOM     11  C   UNL d   1       2.223  -0.246  -0.044  0.00  0.00    -0.002 C 
ATOM     12  C   UNL d   1       2.764  -1.639  -0.414  0.00  0.00     0.021 C 
ATOM     13  C   UNL d   1       2.676   0.758  -1.118  0.00  0.00     0.021 C 
ATOM     14  C   UNL d   1       2.817   0.159   1.318  0.00  0.00     0.021 C 
ENDBRANCH   7  11
ENDBRANCH   1   5
BRANCH   2  15
ATOM     15  C   UNL d   1      -5.261  -0.931  -0.200  0.00  0.00     0.111 A 
ATOM     16  N   UNL d   1      -5.517  -2.231  -0.376  0.00  0.00    -0.332 N 
ATOM     17  C   UNL d   1      -6.791  -2.593  -0.596  0.00  0.00     0.078 A 
ATOM     18  HN  UNL d   1      -4.770  -2.925  -0.345  1.00  0.00     0.168 HD
ATOM     19  C   UNL d   1      -7.075  -4.039  -0.855  0.00  0.00     0.089 C 
ATOM     20  N   UNL d   1      -7.827  -1.739  -0.646  0.00  0.00    -0.350 N 
ATOM     21  C   UNL d   1      -7.550  -0.436  -0.458  0.00  0.00     0.010 A 
ATOM     22  HN  UNL d   1      -8.779  -2.063  -0.820  1.00  0.00     0.167 HD
ATOM     23  C   UNL d   1      -6.266   0.017  -0.216  0.00  0.00     0.073 A 
ATOM     24  C   UNL d   1      -8.694   0.527  -0.552  0.00  0.00     0.068 C 
ENDBRANCH   2  15
TORSDOF 3
