REMARK  6 active torsions:
REMARK  status: ('A' for Active; 'I' for Inactive)
REMARK    1  A    between atoms: O_6  and  C_1 
REMARK    2  A    between atoms: C_7  and  C_1 
REMARK    3  A    between atoms: N_2  and  O_6 
REMARK    4  A    between atoms: C_4  and  C_9 
REMARK    5  A    between atoms: C_9  and  C_5 
REMARK    6  A    between atoms: N_12  and  C_5 
ROOT
ATOM      1  N   UNL d   1      -1.057   0.594   0.945  0.00  0.00    -0.251 N 
ATOM      2  HN  UNL d   1      -0.038   0.643   0.929  1.00  0.00     0.196 HD
ATOM      3  C   UNL d   1      -1.784   0.939   1.965  0.00  0.00     0.080 C 
ENDROOT
BRANCH   3   4
ATOM      4  C   UNL d   1      -1.054   1.446   3.214  0.00  0.00     0.111 C 
BRANCH   4   5
ATOM      5  C   UNL d   1      -0.889   2.955   3.232  0.00  0.00    -0.041 A 
ATOM      6  C   UNL d   1      -1.799   3.846   3.876  0.00  0.00    -0.019 A 
ATOM      7  C   UNL d   1      -1.559   5.243   3.788  0.00  0.00    -0.025 A 
ATOM      8  C   UNL d   1      -2.932   3.434   4.617  0.00  0.00     0.013 A 
ATOM      9  C   UNL d   1      -2.440   6.156   4.393  0.00  0.00     0.012 A 
ATOM     10  C   UNL d   1      -0.435   5.724   3.103  0.00  0.00     0.012 A 
ATOM     11  C   UNL d   1      -3.555   5.715   5.101  0.00  0.00     0.001 A 
ATOM     12  C   UNL d   1      -3.797   4.353   5.219  0.00  0.00     0.001 A 
ATOM     13  C   UNL d   1       0.457   4.849   2.495  0.00  0.00     0.001 A 
ATOM     14  C   UNL d   1       0.228   3.479   2.550  0.00  0.00     0.008 A 
ENDBRANCH   4   5
ENDBRANCH   3   4
BRANCH   3  15
ATOM     15  N   UNL d   1      -3.158   0.880   2.002  0.00  0.00    -0.290 NA
ATOM     16  H   UNL d   1      -3.575   0.805   1.082  0.00  0.00     0.125 HD
ATOM     17  H   UNL d   1      -3.612   1.575   2.584  0.00  0.00     0.125 HD
ENDBRANCH   3  15
BRANCH   1  18
ATOM     18  O   UNL d   1      -1.844   0.143  -0.140  0.00  0.00    -0.198 OA
BRANCH  18  19
ATOM     19  C   UNL d   1      -1.029  -0.295  -1.157  0.00  0.00     0.288 C 
ATOM     20  O   UNL d   1       0.200  -0.308  -1.141  0.00  0.00    -0.262 OA
BRANCH  19  21
ATOM     21  C   UNL d   1      -1.831  -0.759  -2.388  0.00  0.00     0.039 C 
ATOM     22  C   UNL d   1      -3.344  -0.839  -2.143  0.00  0.00     0.025 C 
ATOM     23  C   UNL d   1      -1.556   0.233  -3.528  0.00  0.00     0.025 C 
ATOM     24  C   UNL d   1      -1.327  -2.154  -2.794  0.00  0.00     0.025 C 
ENDBRANCH  19  21
ENDBRANCH  18  19
ENDBRANCH   1  18
TORSDOF 6
