REMARK  4 active torsions:
REMARK  status: ('A' for Active; 'I' for Inactive)
REMARK    1  A    between atoms: C_2  and  C_1 
REMARK    2  A    between atoms: O_7  and  C_2 
REMARK    3  A    between atoms: C_4  and  C_9 
REMARK    4  A    between atoms: C_9  and  O_7 
ROOT
ATOM      1  C   UNL d   1      -2.560   2.347  -0.020  0.00  0.00     0.219 C 
ENDROOT
BRANCH   1   2
ATOM      2  C   UNL d   1      -3.861   3.113   0.032  0.00  0.00    -0.012 A 
ATOM      3  C   UNL d   1      -4.196   3.966   1.098  0.00  0.00     0.044 A 
ATOM      4  C   UNL d   1      -5.415   4.651   1.110  0.00  0.00     0.048 A 
ATOM      5 CL   UNL d   1      -3.141   4.197   2.446  0.00  0.00    -0.084 Cl
ATOM      6  C   UNL d   1      -6.316   4.478   0.064  0.00  0.00     0.035 A 
ATOM      7  C   UNL d   1      -6.011   3.630  -0.996  0.00  0.00     0.024 A 
ATOM      8 CL   UNL d   1      -7.819   5.315   0.083  0.00  0.00    -0.084 Cl
ATOM      9  C   UNL d   1      -4.789   2.954  -1.014  0.00  0.00     0.013 A 
ENDBRANCH   1   2
BRANCH   1  10
ATOM     10  O   UNL d   1      -1.420   3.215  -0.018  0.00  0.00    -0.312 OA
BRANCH  10  11
ATOM     11  C   UNL d   1      -1.016   3.669  -1.236  0.00  0.00     0.300 C 
ATOM     12  O   UNL d   1      -1.589   3.401  -2.288  0.00  0.00    -0.259 OA
BRANCH  11  13
ATOM     13  C   UNL d   1       0.178   4.493  -1.141  0.00  0.00     0.080 A 
ATOM     14  S   UNL d   1       1.006   4.774   0.333  0.00  0.00    -0.096 SA
ATOM     15  C   UNL d   1       2.198   5.733  -0.433  0.00  0.00     0.050 A 
ATOM     16  C   UNL d   1       1.974   5.850  -1.785  0.00  0.00     0.009 A 
ATOM     17  C   UNL d   1       0.811   5.136  -2.192  0.00  0.00     0.025 A 
ENDBRANCH  11  13
ENDBRANCH  10  11
ENDBRANCH   1  10
TORSDOF 4
