REMARK  16 active torsions:
REMARK  status: ('A' for Active; 'I' for Inactive)
REMARK    1  A    between atoms: C_1  and  O_6 
REMARK    2  A    between atoms: C_1  and  C_3 
REMARK    3  A    between atoms: C_1  and  C_2 
REMARK    4  A    between atoms: C_2  and  O_7 
REMARK    5  A    between atoms: C_2  and  C_4 
REMARK    6  A    between atoms: C_3  and  O_8 
REMARK    7  A    between atoms: C_5  and  C_3 
REMARK    8  A    between atoms: C_17  and  C_4 
REMARK    9  A    between atoms: C_16  and  C_5 
REMARK   10  A    between atoms: C_5  and  O_9 
REMARK   11  A    between atoms: C_10  and  O_6 
REMARK   12  A    between atoms: C_11  and  O_7 
REMARK   13  A    between atoms: C_12  and  O_8 
REMARK   14  A    between atoms: C_13  and  O_9 
REMARK   15  A    between atoms: C_14  and  O_18 
REMARK   16  A    between atoms: O_18  and  C_16 
ROOT
ATOM      1  C   UNL d   1       1.452   4.767  -0.602  0.00  0.00     0.201 C 
ENDROOT
BRANCH   1   2
ATOM      2  O   UNL d   1       0.451   5.426   0.227  0.00  0.00    -0.310 OA
BRANCH   2   3
ATOM      3  C   UNL d   1       0.822   5.654   1.518  0.00  0.00     0.255 C 
ATOM      4  O   UNL d   1       1.964   5.541   1.945  0.00  0.00    -0.266 OA
ATOM      5  C   UNL d   1      -0.353   6.020   2.367  0.00  0.00     0.126 C 
ENDBRANCH   2   3
ENDBRANCH   1   2
BRANCH   1   6
ATOM      6  C   UNL d   1       1.240   3.222  -0.368  0.00  0.00     0.196 C 
BRANCH   6   7
ATOM      7  O   UNL d   1       0.086   2.716  -1.083  0.00  0.00    -0.311 OA
BRANCH   7   8
ATOM      8  C   UNL d   1      -1.050   2.534  -0.351  0.00  0.00     0.255 C 
ATOM      9  O   UNL d   1      -1.179   2.789   0.837  0.00  0.00    -0.266 OA
ATOM     10  C   UNL d   1      -2.169   2.009  -1.202  0.00  0.00     0.126 C 
ENDBRANCH   7   8
ENDBRANCH   6   7
BRANCH   6  11
ATOM     11  C   UNL d   1       2.442   2.242  -0.446  0.00  0.00     0.188 C 
BRANCH  11  12
ATOM     12  C   UNL d   1       2.773   1.491  -1.738  0.00  0.00     0.213 C 
BRANCH  12  13
ATOM     13  O   UNL d   1       1.708   0.660  -2.213  0.00  0.00    -0.319 OA
BRANCH  13  14
ATOM     14  C   UNL d   1       1.228   0.975  -3.444  0.00  0.00     0.254 C 
ATOM     15  O   UNL d   1       1.497   1.992  -4.067  0.00  0.00    -0.266 OA
ATOM     16  C   UNL d   1       0.307  -0.091  -3.949  0.00  0.00     0.126 C 
ENDBRANCH  13  14
ENDBRANCH  12  13
ENDBRANCH  11  12
BRANCH  11  17
ATOM     17  O   UNL d   1       3.629   2.930   0.006  0.00  0.00    -0.311 OA
BRANCH  17  18
ATOM     18  C   UNL d   1       4.486   2.215   0.789  0.00  0.00     0.255 C 
ATOM     19  O   UNL d   1       4.338   1.046   1.109  0.00  0.00    -0.266 OA
ATOM     20  C   UNL d   1       5.678   3.047   1.135  0.00  0.00     0.126 C 
ENDBRANCH  17  18
ENDBRANCH  11  17
ENDBRANCH   6  11
ENDBRANCH   1   6
BRANCH   1  21
ATOM     21  C   UNL d   1       1.257   5.275  -2.039  0.00  0.00     0.238 C 
BRANCH  21  22
ATOM     22  O   UNL d   1       2.217   4.723  -2.957  0.00  0.00    -0.305 OA
BRANCH  22  23
ATOM     23  C   UNL d   1       3.506   5.123  -2.867  0.00  0.00     0.255 C 
ATOM     24  O   UNL d   1       3.941   5.909  -2.043  0.00  0.00    -0.266 OA
ATOM     25  C   UNL d   1       4.359   4.400  -3.866  0.00  0.00     0.126 C 
ENDBRANCH  22  23
ENDBRANCH  21  22
BRANCH  21  26
ATOM     26  C   UNL d   1       0.903   6.769  -2.342  0.00  0.00     0.191 C 
ATOM     27  O   UNL d   1       0.200   6.995  -3.340  0.00  0.00    -0.289 OA
BRANCH  26  28
ATOM     28  C   UNL d   1       1.341   7.984  -1.556  0.00  0.00     0.013 A 
ATOM     29  C   UNL d   1       0.772   9.226  -1.934  0.00  0.00     0.015 A 
ATOM     30  C   UNL d   1       1.113  10.421  -1.292  0.00  0.00     0.001 A 
ATOM     31  C   UNL d   1       2.020  10.407  -0.239  0.00  0.00     0.000 A 
ATOM     32  C   UNL d   1       2.595   9.192   0.147  0.00  0.00     0.001 A 
ATOM     33  C   UNL d   1       2.262   7.996  -0.518  0.00  0.00     0.015 A 
ENDBRANCH  26  28
ENDBRANCH  21  26
ENDBRANCH   1  21
TORSDOF 16
