REMARK  6 active torsions:
REMARK  status: ('A' for Active; 'I' for Inactive)
REMARK    1  A    between atoms: C_2  and  S_1 
REMARK    2  A    between atoms: C_3  and  S_1 
REMARK    3  A    between atoms: C_4  and  C_6 
REMARK    4  A    between atoms: C_5  and  C_7 
REMARK    5  A    between atoms: N_15  and  C_8 
REMARK    6  A    between atoms: C_17  and  N_15 
ROOT
ATOM      1  C   UNL d   1       0.448   1.505   0.399  0.00  0.00     0.159 C 
ATOM      2  C   UNL d   1      -0.299   2.185  -0.491  0.00  0.00     0.123 C 
ATOM      3  C   UNL d   1       0.898   0.188   0.168  0.00  0.00     0.113 C 
ATOM      4  N   UNL d   1       1.256  -0.883  -0.093  0.00  0.00    -0.191 NA
ENDROOT
BRANCH   1   5
ATOM      5  S   UNL d   1       0.757   2.252   1.924  0.00  0.00     0.224 S 
ATOM      6  O   UNL d   1      -0.283   1.854   2.858  0.00  0.00    -0.216 OA
ATOM      7  O   UNL d   1       1.074   3.657   1.742  0.00  0.00    -0.216 OA
BRANCH   5   8
ATOM      8  C   UNL d   1       2.241   1.558   2.630  0.00  0.00     0.105 A 
ATOM      9  S   UNL d   1       3.674   1.663   1.699  0.00  0.00    -0.090 SA
ATOM     10  C   UNL d   1       4.607   0.931   2.934  0.00  0.00     0.051 A 
ATOM     11  C   UNL d   1       3.849   0.626   4.043  0.00  0.00     0.009 A 
ATOM     12  C   UNL d   1       2.483   0.986   3.866  0.00  0.00     0.032 A 
ENDBRANCH   5   8
ENDBRANCH   1   5
BRANCH   2  13
ATOM     13  N   UNL d   1      -0.775   1.756  -1.711  0.00  0.00    -0.364 N 
ATOM     14  H   UNL d   1      -0.625   0.776  -1.947  0.00  0.00     0.165 HD
BRANCH  13  15
ATOM     15  C   UNL d   1      -1.332   2.515  -2.755  0.00  0.00     0.033 A 
ATOM     16  C   UNL d   1      -1.177   3.900  -2.868  0.00  0.00     0.045 A 
ATOM     17  C   UNL d   1      -1.749   4.615  -3.937  0.00  0.00     0.050 A 
ATOM     18  C   UNL d   1      -2.535   3.930  -4.876  0.00  0.00     0.032 A 
ATOM     19  C   UNL d   1      -2.734   2.548  -4.769  0.00  0.00     0.050 A 
ATOM     20  C   UNL d   1      -2.128   1.858  -3.705  0.00  0.00     0.045 A 
BRANCH  17  21
ATOM     21  C   UNL d   1      -1.479   6.095  -4.075  0.00  0.00     0.417 C 
ATOM     22  F   UNL d   1      -2.073   6.655  -5.165  0.00  0.00    -0.166 F 
ATOM     23  F   UNL d   1      -1.913   6.809  -3.002  0.00  0.00    -0.166 F 
ATOM     24  F   UNL d   1      -0.150   6.365  -4.197  0.00  0.00    -0.166 F 
ENDBRANCH  17  21
BRANCH  19  25
ATOM     25  C   UNL d   1      -3.561   1.787  -5.778  0.00  0.00     0.417 C 
ATOM     26  F   UNL d   1      -4.102   2.578  -6.745  0.00  0.00    -0.166 F 
ATOM     27  F   UNL d   1      -2.833   0.842  -6.432  0.00  0.00    -0.166 F 
ATOM     28  F   UNL d   1      -4.605   1.127  -5.205  0.00  0.00    -0.166 F 
ENDBRANCH  19  25
ENDBRANCH  13  15
ENDBRANCH   2  13
TORSDOF 6
