REMARK  8 active torsions:
REMARK  status: ('A' for Active; 'I' for Inactive)
REMARK    1  A    between atoms: C_3  and  C_1 
REMARK    2  A    between atoms: C_4  and  C_1 
REMARK    3  A    between atoms: N_8  and  C_2 
REMARK    4  A    between atoms: O_13  and  C_3 
REMARK    5  A    between atoms: N_5  and  C_4 
REMARK    6  A    between atoms: C_9  and  N_8 
REMARK    7  A    between atoms: N_12  and  C_11 
REMARK    8  A    between atoms: C_16  and  O_13 
ROOT
ATOM      1  C   UNL d   1       0.985  -0.056   0.082  0.00  0.00     0.112 C 
ATOM      2  C   UNL d   1       0.311   0.114  -1.066  0.00  0.00     0.090 C 
ENDROOT
BRANCH   2   3
ATOM      3  N   UNL d   1       0.804   0.368  -2.334  0.00  0.00    -0.266 NA
ATOM      4  H   UNL d   1       1.783   0.672  -2.362  0.00  0.00     0.133 HD
BRANCH   3   5
ATOM      5  C   UNL d   1       0.680  -0.565  -3.410  0.00  0.00     0.033 A 
ATOM      6  C   UNL d   1       1.202  -0.193  -4.672  0.00  0.00     0.027 A 
ATOM      7  C   UNL d   1       1.252  -1.140  -5.697  0.00  0.00     0.025 A 
ATOM      8  C   UNL d   1       0.685  -2.403  -5.520  0.00  0.00     0.002 A 
ATOM      9  C   UNL d   1       0.091  -2.739  -4.306  0.00  0.00     0.002 A 
ATOM     10  C   UNL d   1       0.083  -1.820  -3.254  0.00  0.00     0.025 A 
BRANCH   6  11
ATOM     11  N   UNL d   1       1.877   1.042  -4.822  0.00  0.00    -0.301 NA
ATOM     12  H   UNL d   1       1.439   1.756  -4.241  0.00  0.00     0.124 HD
ATOM     13  H   UNL d   1       1.928   1.340  -5.792  0.00  0.00     0.124 HD
ENDBRANCH   6  11
ENDBRANCH   3   5
ENDBRANCH   2   3
BRANCH   1  14
ATOM     14  C   UNL d   1       0.261  -0.205   1.360  0.00  0.00     0.303 C 
ATOM     15  O   UNL d   1      -0.952  -0.126   1.482  0.00  0.00    -0.258 OA
BRANCH  14  16
ATOM     16  O   UNL d   1       1.155  -0.353   2.369  0.00  0.00    -0.317 OA
BRANCH  16  17
ATOM     17  C   UNL d   1       0.651  -0.167   3.699  0.00  0.00     0.174 C 
ATOM     18  C   UNL d   1       0.759   1.306   4.046  0.00  0.00     0.034 C 
ENDBRANCH  16  17
ENDBRANCH  14  16
ENDBRANCH   1  14
BRANCH   1  19
ATOM     19  C   UNL d   1       2.505  -0.056   0.082  0.00  0.00    -0.030 C 
BRANCH  19  20
ATOM     20  N   UNL d   1       3.765  -0.056   0.082  0.00  0.00    -0.365 N 
ATOM     21  HN2 UNL d   1       2.745  -0.056   0.082  1.00  0.00     0.165 HD
ATOM     22  HN1 UNL d   1       4.785  -0.056   0.082  1.00  0.00     0.165 HD
ENDBRANCH  19  20
ENDBRANCH   1  19
TORSDOF 8
