REMARK  10 active torsions:
REMARK  status: ('A' for Active; 'I' for Inactive)
REMARK    1  A    between atoms: C_5  and  C_1 
REMARK    2  A    between atoms: C_6  and  C_2 
REMARK    3  A    between atoms: C_9  and  C_2 
REMARK    4  A    between atoms: N_7  and  C_3 
REMARK    5  A    between atoms: C_4  and  N_7 
REMARK    6  A    between atoms: O_15  and  C_5 
REMARK    7  A    between atoms: O_16  and  C_6 
REMARK    8  A    between atoms: C_17  and  C_9 
REMARK    9  A    between atoms: C_18  and  O_16 
REMARK   10  A    between atoms: C_20  and  C_17 
ROOT
ATOM      1  C   UNL d   1       0.324   5.132  -0.166  0.00  0.00     0.100 C 
ATOM      2  C   UNL d   1       0.681   3.830  -0.210  0.00  0.00     0.110 C 
ENDROOT
BRANCH   2   3
ATOM      3  N   UNL d   1      -0.104   2.697  -0.152  0.00  0.00    -0.358 N 
ATOM      4  H   UNL d   1      -1.054   2.892   0.176  0.00  0.00     0.166 HD
BRANCH   3   5
ATOM      5  C   UNL d   1       0.249   1.381  -0.183  0.00  0.00     0.090 A 
ATOM      6  C   UNL d   1       1.308   0.685  -0.762  0.00  0.00     0.073 A 
ATOM      7  C   UNL d   1       1.261  -0.716  -0.407  0.00  0.00     0.028 A 
ATOM      8  C   UNL d   1       0.172  -1.049   0.357  0.00  0.00     0.053 A 
ATOM      9  S   UNL d   1      -0.817   0.300   0.651  0.00  0.00    -0.083 SA
BRANCH   6  10
ATOM     10  C   UNL d   1       2.367   1.201  -1.629  0.00  0.00     0.295 C 
ATOM     11  O   UNL d   1       3.469   0.665  -1.698  0.00  0.00    -0.259 OA
BRANCH  10  12
ATOM     12  O   UNL d   1       1.991   2.260  -2.401  0.00  0.00    -0.322 OA
ATOM     13  C   UNL d   1       3.020   2.753  -3.261  0.00  0.00     0.213 C 
ENDBRANCH  10  12
ENDBRANCH   6  10
ENDBRANCH   3   5
ENDBRANCH   2   3
BRANCH   1  14
ATOM     14  C   UNL d   1      -1.082   5.594  -0.080  0.00  0.00     0.298 C 
ATOM     15  O   UNL d   1      -1.446   6.707  -0.430  0.00  0.00    -0.259 OA
BRANCH  14  16
ATOM     16  O   UNL d   1      -1.896   4.655   0.477  0.00  0.00    -0.318 OA
BRANCH  16  17
ATOM     17  C   UNL d   1      -3.272   5.046   0.636  0.00  0.00     0.174 C 
ATOM     18  C   UNL d   1      -3.457   5.805   1.938  0.00  0.00     0.034 C 
ENDBRANCH  16  17
ENDBRANCH  14  16
ENDBRANCH   1  14
BRANCH   1  19
ATOM     19  C   UNL d   1       1.452   6.119  -0.269  0.00  0.00     0.167 C 
ATOM     20  O   UNL d   1       2.526   5.788  -0.781  0.00  0.00    -0.292 OA
BRANCH  19  21
ATOM     21  C   UNL d   1       1.282   7.529   0.270  0.00  0.00     0.084 C 
BRANCH  21  22
ATOM     22  C   UNL d   1       0.981   7.571   1.766  0.00  0.00     0.003 C 
ATOM     23  C   UNL d   1       0.877   9.002   2.268  0.00  0.00     0.005 C 
ENDBRANCH  21  22
ENDBRANCH  19  21
ENDBRANCH   1  19
TORSDOF 10
