REMARK  5 active torsions:
REMARK  status: ('A' for Active; 'I' for Inactive)
REMARK    1  A    between atoms: C_2  and  S_1 
REMARK    2  A    between atoms: N_4  and  S_1 
REMARK    3  A    between atoms: C_17  and  N_11 
REMARK    4  A    between atoms: C_22  and  C_17 
REMARK    5  A    between atoms: C_23  and  C_17 
ROOT
ATOM      1  N   UNL d   1       0.497   0.716  -1.082  0.00  0.00    -0.203 NA
ATOM      2  N   UNL d   1      -1.415   2.924  -0.294  0.00  0.00     0.104 N 
ATOM      3  C   UNL d   1       0.833   2.159  -1.244  0.00  0.00     0.138 C 
ATOM      4  C   UNL d   1      -0.991   0.550  -1.227  0.00  0.00     0.138 C 
ATOM      5  C   UNL d   1      -1.786   1.485  -0.279  0.00  0.00     0.289 C 
ATOM      6  C   UNL d   1       0.057   3.025  -0.231  0.00  0.00     0.289 C 
ENDROOT
BRANCH   1   7
ATOM      7  S   UNL d   1       1.216  -0.059   0.287  0.00  0.00     0.246 S 
ATOM      8  O   UNL d   1       1.637   0.924   1.257  0.00  0.00    -0.206 OA
ATOM      9  O   UNL d   1       0.324  -1.128   0.668  0.00  0.00    -0.206 OA
BRANCH   7  10
ATOM     10  C   UNL d   1       2.690  -0.845  -0.277  0.00  0.00     0.105 A 
ATOM     11  C   UNL d   1       3.827  -0.170  -0.751  0.00  0.00     0.108 A 
ATOM     12  C   UNL d   1       5.112  -0.858  -0.914  0.00  0.00     0.086 A 
ATOM     13  N   UNL d   1       4.021   1.109  -1.103  0.00  0.00    -0.238 N 
ATOM     14  N   UNL d   1       6.018   0.023  -1.353  0.00  0.00    -0.239 N 
ATOM     15  C   UNL d   1       5.295  -2.221  -0.617  0.00  0.00     0.034 A 
ATOM     16  O   UNL d   1       5.346   1.223  -1.474  0.00  0.00    -0.156 OA
ATOM     17  HN  UNL d   1       7.002  -0.155  -1.557  1.00  0.00     0.197 HD
ATOM     18  C   UNL d   1       4.140  -2.883  -0.172  0.00  0.00     0.004 A 
ATOM     19  C   UNL d   1       2.891  -2.225  -0.008  0.00  0.00     0.027 A 
ATOM     20  HN  UNL d   1       3.324   1.854  -1.098  1.00  0.00     0.197 HD
ENDBRANCH   7  10
ENDBRANCH   1   7
BRANCH   2  21
ATOM     21  C   UNL d   1      -2.061   3.724  -1.373  0.00  0.00     0.289 C 
BRANCH  21  22
ATOM     22  C   UNL d   1      -3.591   3.699  -1.235  0.00  0.00    -0.021 A 
ATOM     23  C   UNL d   1      -4.218   4.170  -0.067  0.00  0.00     0.010 A 
ATOM     24  C   UNL d   1      -5.607   4.143   0.065  0.00  0.00     0.001 A 
ATOM     25  C   UNL d   1      -6.393   3.634  -0.964  0.00  0.00     0.000 A 
ATOM     26  C   UNL d   1      -5.789   3.142  -2.121  0.00  0.00     0.001 A 
ATOM     27  C   UNL d   1      -4.398   3.176  -2.260  0.00  0.00     0.010 A 
ENDBRANCH  21  22
BRANCH  21  28
ATOM     28  C   UNL d   1      -1.576   5.192  -1.460  0.00  0.00    -0.021 A 
ATOM     29  C   UNL d   1      -1.477   5.834  -2.706  0.00  0.00     0.010 A 
ATOM     30  C   UNL d   1      -0.956   7.131  -2.807  0.00  0.00     0.001 A 
ATOM     31  C   UNL d   1      -0.538   7.810  -1.666  0.00  0.00     0.000 A 
ATOM     32  C   UNL d   1      -0.680   7.215  -0.417  0.00  0.00     0.001 A 
ATOM     33  C   UNL d   1      -1.218   5.931  -0.314  0.00  0.00     0.010 A 
ENDBRANCH  21  28
ENDBRANCH   2  21
TORSDOF 5
