REMARK  4 active torsions:
REMARK  status: ('A' for Active; 'I' for Inactive)
REMARK    1  A    between atoms: N_8  and  C_3 
REMARK    2  A    between atoms: O_12  and  C_4 
REMARK    3  A    between atoms: C_14  and  C_7 
REMARK    4  A    between atoms: C_11  and  C_14 
ROOT
ATOM      1  N   UNL d   1      -0.710   1.215  -0.136  0.00  0.00    -0.170 N 
ATOM      2  HN  UNL d   1      -1.150   2.131  -0.221  1.00  0.00     0.186 HD
ATOM      3  C   UNL d   1      -1.433   0.099   0.003  0.00  0.00     0.682 A 
ATOM      4  C   UNL d   1       0.619   1.069  -0.157  0.00  0.00     0.163 A 
ATOM      5  N   UNL d   1      -0.863  -1.108   0.126  0.00  0.00    -0.195 N 
ATOM      6  HN  UNL d   1      -1.441  -1.941   0.237  1.00  0.00     0.184 HD
ATOM      7  C   UNL d   1       1.310  -0.116  -0.070  0.00  0.00     0.019 A 
ATOM      8  C   UNL d   1       0.489  -1.212   0.103  0.00  0.00     0.033 A 
ATOM      9  C   UNL d   1       1.013  -2.613   0.229  0.00  0.00     0.069 C 
ENDROOT
BRANCH   3  10
ATOM     10  N   UNL d   1      -2.803   0.196   0.049  0.00  0.00    -0.216 N 
ATOM     11  C   UNL d   1      -3.628  -0.988   0.284  0.00  0.00     0.151 C 
ATOM     12  C   UNL d   1      -4.396  -1.412  -0.971  0.00  0.00     0.094 C 
ATOM     13  S   UNL d   1      -5.490  -0.087  -1.593  0.00  0.00    -0.166 SA
ATOM     14  C   UNL d   1      -4.230   1.232  -1.693  0.00  0.00     0.094 C 
ATOM     15  C   UNL d   1      -3.479   1.423  -0.370  0.00  0.00     0.151 C 
ENDBRANCH   3  10
BRANCH   4  16
ATOM     16  O   UNL d   1       1.272   2.255  -0.268  0.00  0.00    -0.345 OA
ATOM     17  H   UNL d   1       0.519   2.869  -0.221  0.00  0.00     0.219 HD
ENDBRANCH   4  16
BRANCH   7  18
ATOM     18  C   UNL d   1       2.809  -0.164  -0.147  0.00  0.00     0.071 C 
BRANCH  18  19
ATOM     19  C   UNL d   1       3.574   0.021   1.136  0.00  0.00    -0.032 C 
ATOM     20  C   UNL d   1       3.092   0.150   2.382  0.00  0.00     0.007 C 
ENDBRANCH  18  19
ENDBRANCH   7  18
TORSDOF 4
