REMARK  4 active torsions:
REMARK  status: ('A' for Active; 'I' for Inactive)
REMARK    1  A    between atoms: C_9  and  C_1 
REMARK    2  A    between atoms: C_18  and  N_2 
REMARK    3  A    between atoms: N_7  and  C_13 
REMARK    4  A    between atoms: C_14  and  C_8 
ROOT
ATOM      1  C   UNL d   1       3.361  -3.639   0.835  0.00  0.00     0.086 A 
ATOM      2  C   UNL d   1       0.209  -2.151  -0.005  0.00  0.00     0.056 C 
ATOM      3  O   UNL d   1       2.130  -3.142   1.157  0.00  0.00    -0.310 OA
ATOM      4  C   UNL d   1       1.467  -2.809  -0.002  0.00  0.00     0.077 A 
ATOM      5  C   UNL d   1       3.478  -3.699  -0.538  0.00  0.00     0.041 A 
ATOM      6  C   UNL d   1       2.273  -3.176  -1.069  0.00  0.00     0.040 A 
ENDROOT
BRANCH   2   7
ATOM      7  C   UNL d   1       0.135  -0.815  -0.019  0.00  0.00     0.060 A 
ATOM      8  C   UNL d   1       1.250   0.164  -0.068  0.00  0.00     0.279 A 
ATOM      9  N   UNL d   1       0.584   1.396   0.021  0.00  0.00    -0.220 N 
ATOM     10  O   UNL d   1       2.432  -0.099  -0.172  0.00  0.00    -0.265 OA
ATOM     11  N   UNL d   1      -0.806   1.293   0.086  0.00  0.00    -0.294 N 
ATOM     12  C   UNL d   1      -1.079   0.016   0.041  0.00  0.00     0.038 A 
ATOM     13  HN  UNL d   1      -1.474   2.060   0.154  1.00  0.00     0.187 HD
ATOM     14  C   UNL d   1      -2.469  -0.528   0.032  0.00  0.00     0.071 C 
BRANCH   9  15
ATOM     15  C   UNL d   1       1.179   2.682  -0.011  0.00  0.00     0.060 A 
ATOM     16  C   UNL d   1       2.538   2.853  -0.314  0.00  0.00     0.031 A 
ATOM     17  C   UNL d   1       3.115   4.124  -0.358  0.00  0.00     0.002 A 
ATOM     18  C   UNL d   1       2.345   5.248  -0.084  0.00  0.00     0.000 A 
ATOM     19  C   UNL d   1       0.996   5.100   0.230  0.00  0.00     0.002 A 
ATOM     20  C   UNL d   1       0.416   3.827   0.259  0.00  0.00     0.031 A 
ENDBRANCH   9  15
ENDBRANCH   2   7
BRANCH   1  21
ATOM     21  C   UNL d   1       4.254  -3.950   1.951  0.00  0.00     0.000 A 
ATOM     22  C   UNL d   1       3.867  -3.724   3.281  0.00  0.00     0.050 A 
ATOM     23  C   UNL d   1       4.757  -3.996   4.333  0.00  0.00     0.103 A 
ATOM     24  C   UNL d   1       6.037  -4.502   4.077  0.00  0.00     0.036 A 
ATOM     25  C   UNL d   1       6.426  -4.733   2.759  0.00  0.00     0.003 A 
ATOM     26  C   UNL d   1       5.543  -4.457   1.710  0.00  0.00     0.014 A 
BRANCH  23  27
ATOM     27  N   UNL d   1       4.345  -3.740   5.720  0.00  0.00    -0.116 N 
ATOM     28  O   UNL d   1       3.213  -3.275   5.912  0.00  0.00    -0.532 OA
ATOM     29  O   UNL d   1       5.156  -4.007   6.619  0.00  0.00    -0.532 OA
ENDBRANCH  23  27
ENDBRANCH   1  21
TORSDOF 4
