REMARK  3 active torsions:
REMARK  status: ('A' for Active; 'I' for Inactive)
REMARK    1  A    between atoms: C_12  and  C_3 
REMARK    2  A    between atoms: C_8  and  C_4 
REMARK    3  A    between atoms: C_6  and  C_11 
ROOT
ATOM      1  N   UNL d   1       1.336  -0.466  -0.577  0.00  0.00    -0.349 N 
ATOM      2  HN  UNL d   1       2.138  -0.874  -1.057  1.00  0.00     0.166 HD
ATOM      3  C   UNL d   1       0.168  -1.063  -0.423  0.00  0.00     0.084 A 
ATOM      4  C   UNL d   1       1.319   0.793   0.005  0.00  0.00     0.050 A 
ATOM      5  S   UNL d   1      -1.039  -0.088   0.335  0.00  0.00    -0.081 SA
ATOM      6  C   UNL d   1       0.100   1.169   0.531  0.00  0.00     0.082 A 
ENDROOT
BRANCH   4   7
ATOM      7  C   UNL d   1       2.501   1.646   0.022  0.00  0.00    -0.006 A 
ATOM      8  C   UNL d   1       2.717   2.571   1.054  0.00  0.00     0.053 A 
ATOM      9  C   UNL d   1       3.831   3.417   1.040  0.00  0.00     0.102 A 
ATOM     10  O   UNL d   1       3.884   4.310   2.082  0.00  0.00    -0.348 OA
ATOM     11  C   UNL d   1       4.781   3.301   0.018  0.00  0.00     0.102 A 
ATOM     12  C   UNL d   1       4.398   5.586   1.700  0.00  0.00     0.178 C 
ATOM     13  C   UNL d   1       5.915   5.609   1.772  0.00  0.00     0.053 C 
ATOM     14  C   UNL d   1       6.528   4.352   1.179  0.00  0.00     0.178 C 
ATOM     15  O   UNL d   1       5.937   4.034  -0.082  0.00  0.00    -0.348 OA
ATOM     16  C   UNL d   1       4.570   2.385  -1.015  0.00  0.00     0.040 A 
ATOM     17  C   UNL d   1       3.442   1.559  -1.010  0.00  0.00     0.017 A 
ENDBRANCH   4   7
BRANCH   3  18
ATOM     18  C   UNL d   1      -0.142  -2.430  -0.881  0.00  0.00    -0.002 A 
ATOM     19  C   UNL d   1      -1.122  -3.227  -0.268  0.00  0.00     0.015 A 
ATOM     20  C   UNL d   1      -1.391  -4.520  -0.726  0.00  0.00     0.017 A 
ATOM     21  C   UNL d   1      -0.684  -5.056  -1.811  0.00  0.00     0.048 A 
ATOM     22  C   UNL d   1       0.307  -4.273  -2.418  0.00  0.00     0.017 A 
ATOM     23  C   UNL d   1       0.577  -2.979  -1.955  0.00  0.00     0.015 A 
BRANCH  21  24
ATOM     24  C   UNL d   1      -0.998  -6.451  -2.293  0.00  0.00     0.417 C 
ATOM     25  F   UNL d   1      -0.254  -6.840  -3.364  0.00  0.00    -0.166 F 
ATOM     26  F   UNL d   1      -0.791  -7.392  -1.331  0.00  0.00    -0.166 F 
ATOM     27  F   UNL d   1      -2.299  -6.587  -2.673  0.00  0.00    -0.166 F 
ENDBRANCH  21  24
ENDBRANCH   3  18
TORSDOF 3
