REMARK  5 active torsions:
REMARK  status: ('A' for Active; 'I' for Inactive)
REMARK    1  A    between atoms: C_4  and  C_1 
REMARK    2  A    between atoms: N_6  and  N_2 
REMARK    3  A    between atoms: O_12  and  C_4 
REMARK    4  A    between atoms: C_10  and  N_6 
REMARK    5  A    between atoms: C_17  and  O_12 
ROOT
ATOM      1  N   UNL d   1       0.941  -2.385  -0.351  0.00  0.00    -0.301 N 
ATOM      2  H   UNL d   1       1.948  -2.472  -0.332  0.00  0.00     0.187 HD
ENDROOT
BRANCH   1   3
ATOM      3  N   UNL d   1       0.277  -1.207  -0.246  0.00  0.00    -0.299 N 
ATOM      4  C   UNL d   1       0.963  -0.123  -0.016  0.00  0.00     0.097 C 
ATOM      5  C   UNL d   1       2.463  -0.005   0.121  0.00  0.00     0.076 C 
ATOM      6  HN  UNL d   1      -0.738  -1.170  -0.345  1.00  0.00     0.186 HD
BRANCH   4   7
ATOM      7  C   UNL d   1       0.228   1.207   0.130  0.00  0.00     0.306 C 
ATOM      8  O   UNL d   1       0.766   2.254  -0.206  0.00  0.00    -0.258 OA
BRANCH   7   9
ATOM      9  O   UNL d   1      -0.971   1.077   0.726  0.00  0.00    -0.317 OA
BRANCH   9  10
ATOM     10  C   UNL d   1      -1.677   2.307   0.951  0.00  0.00     0.175 C 
ATOM     11  C   UNL d   1      -1.213   2.958   2.242  0.00  0.00     0.034 C 
ENDBRANCH   9  10
ENDBRANCH   7   9
ENDBRANCH   4   7
ENDBRANCH   1   3
BRANCH   1  12
ATOM     12  C   UNL d   1       0.258  -3.581  -0.646  0.00  0.00     0.048 A 
ATOM     13  C   UNL d   1      -1.119  -3.628  -0.880  0.00  0.00     0.038 A 
ATOM     14  C   UNL d   1      -1.783  -4.842  -1.143  0.00  0.00    -0.054 A 
ATOM     15  C   UNL d   1      -3.265  -4.822  -1.400  0.00  0.00     0.049 C 
ATOM     16  C   UNL d   1      -1.049  -6.045  -1.154  0.00  0.00    -0.056 A 
ATOM     17  C   UNL d   1       0.328  -6.004  -0.906  0.00  0.00     0.009 A 
ATOM     18  C   UNL d   1      -1.712  -7.367  -1.427  0.00  0.00     0.049 C 
ATOM     19  C   UNL d   1       0.969  -4.788  -0.653  0.00  0.00     0.031 A 
ENDBRANCH   1  12
TORSDOF 5
