REMARK  3 active torsions:
REMARK  status: ('A' for Active; 'I' for Inactive)
REMARK    1  A    between atoms: S_4  and  C_1 
REMARK    2  A    between atoms: C_7  and  N_2 
REMARK    3  A    between atoms: C_12  and  S_4 
ROOT
ATOM      1  C   UNL d   1      -0.736  -1.460   0.065  0.00  0.00     0.215 C 
ATOM      2  N   UNL d   1      -0.015   0.767  -0.121  0.00  0.00    -0.251 N 
ATOM      3  C   UNL d   1      -1.105  -0.015   0.203  0.00  0.00     0.250 C 
ATOM      4  C   UNL d   1       1.115  -0.006  -0.262  0.00  0.00     0.233 C 
ATOM      5  C   UNL d   1       0.771  -1.440   0.008  0.00  0.00     0.134 C 
ATOM      6  O   UNL d   1      -2.214   0.349   0.567  0.00  0.00    -0.271 OA
ATOM      7  O   UNL d   1       2.273   0.346  -0.436  0.00  0.00    -0.273 OA
ENDROOT
BRANCH   1   8
ATOM      8  S   UNL d   1      -1.483  -2.075  -1.417  0.00  0.00     0.188 S 
ATOM      9  O   UNL d   1      -2.922  -1.979  -1.311  0.00  0.00    -0.222 OA
ATOM     10  O   UNL d   1      -0.779  -1.488  -2.542  0.00  0.00    -0.222 OA
BRANCH   8  11
ATOM     11  C   UNL d   1      -1.108  -3.825  -1.410  0.00  0.00     0.060 A 
ATOM     12  C   UNL d   1      -1.968  -4.707  -0.745  0.00  0.00     0.023 A 
ATOM     13  C   UNL d   1      -1.724  -6.080  -0.800  0.00  0.00     0.002 A 
ATOM     14  C   UNL d   1      -0.632  -6.569  -1.520  0.00  0.00     0.000 A 
ATOM     15  C   UNL d   1       0.217  -5.687  -2.190  0.00  0.00     0.002 A 
ATOM     16  C   UNL d   1      -0.024  -4.312  -2.146  0.00  0.00     0.023 A 
ENDBRANCH   8  11
ENDBRANCH   1   8
BRANCH   2  17
ATOM     17  C   UNL d   1      -0.014   2.198  -0.195  0.00  0.00     0.048 A 
ATOM     18  C   UNL d   1      -0.994   2.975   0.444  0.00  0.00     0.054 A 
ATOM     19  C   UNL d   1      -0.962   4.374   0.378  0.00  0.00     0.037 A 
ATOM     20 CL   UNL d   1      -2.151   5.295   1.219  0.00  0.00    -0.084 Cl
ATOM     21  C   UNL d   1       0.024   5.034  -0.343  0.00  0.00     0.048 A 
ATOM     22  C   UNL d   1       0.989   4.279  -0.995  0.00  0.00     0.037 A 
ATOM     23  C   UNL d   1       0.978   2.882  -0.919  0.00  0.00     0.054 A 
ATOM     24 CL   UNL d   1       2.207   5.075  -1.916  0.00  0.00    -0.084 Cl
ENDBRANCH   2  17
TORSDOF 3
