REMARK  10 active torsions:
REMARK  status: ('A' for Active; 'I' for Inactive)
REMARK    1  A    between atoms: C_5  and  C_1 
REMARK    2  A    between atoms: C_6  and  C_2 
REMARK    3  A    between atoms: C_7  and  C_2 
REMARK    4  A    between atoms: C_3  and  N_9 
REMARK    5  A    between atoms: N_9  and  C_4 
REMARK    6  A    between atoms: O_15  and  C_5 
REMARK    7  A    between atoms: O_17  and  C_6 
REMARK    8  A    between atoms: O_16  and  C_7 
REMARK    9  A    between atoms: C_19  and  O_16 
REMARK   10  A    between atoms: C_18  and  O_17 
ROOT
ATOM      1  C   UNL d   1       4.032   3.575   0.180  0.00  0.00     0.129 C 
ATOM      2  C   UNL d   1       2.871   2.890   0.238  0.00  0.00     0.112 C 
ENDROOT
BRANCH   2   3
ATOM      3  N   UNL d   1       2.549   1.543   0.132  0.00  0.00    -0.363 N 
ATOM      4  H   UNL d   1       3.358   0.942  -0.056  0.00  0.00     0.165 HD
BRANCH   3   5
ATOM      5  C   UNL d   1       1.297   0.987   0.176  0.00  0.00     0.055 A 
ATOM      6  C   UNL d   1       1.002  -0.366   0.046  0.00  0.00     0.106 A 
ATOM      7  S   UNL d   1      -0.705  -0.646   0.162  0.00  0.00    -0.094 SA
ATOM      8  C   UNL d   1      -1.044   0.997   0.396  0.00  0.00     0.053 A 
ATOM      9  C   UNL d   1       0.099   1.756   0.382  0.00  0.00     0.038 A 
BRANCH   6  10
ATOM     10  C   UNL d   1       1.811  -1.559  -0.155  0.00  0.00     0.302 C 
ATOM     11  O   UNL d   1       1.391  -2.712  -0.167  0.00  0.00    -0.259 OA
BRANCH  10  12
ATOM     12  O   UNL d   1       3.134  -1.250  -0.332  0.00  0.00    -0.322 OA
ATOM     13  C   UNL d   1       3.949  -2.415  -0.517  0.00  0.00     0.213 C 
ENDBRANCH  10  12
ENDBRANCH   6  10
ENDBRANCH   3   5
ENDBRANCH   2   3
BRANCH   1  14
ATOM     14  C   UNL d   1       5.362   2.973  -0.045  0.00  0.00     0.300 C 
ATOM     15  O   UNL d   1       6.424   3.547   0.156  0.00  0.00    -0.259 OA
BRANCH  14  16
ATOM     16  O   UNL d   1       5.231   1.731  -0.579  0.00  0.00    -0.318 OA
BRANCH  16  17
ATOM     17  C   UNL d   1       6.400   1.220  -1.236  0.00  0.00     0.174 C 
ATOM     18  C   UNL d   1       6.363   1.680  -2.683  0.00  0.00     0.034 C 
ENDBRANCH  16  17
ENDBRANCH  14  16
ENDBRANCH   1  14
BRANCH   1  19
ATOM     19  C   UNL d   1       3.867   5.051   0.247  0.00  0.00     0.300 C 
ATOM     20  O   UNL d   1       2.924   5.612   0.791  0.00  0.00    -0.259 OA
BRANCH  19  21
ATOM     21  O   UNL d   1       4.791   5.660  -0.535  0.00  0.00    -0.318 OA
BRANCH  21  22
ATOM     22  C   UNL d   1       4.502   7.010  -0.931  0.00  0.00     0.174 C 
ATOM     23  C   UNL d   1       3.908   6.955  -2.327  0.00  0.00     0.034 C 
ENDBRANCH  21  22
ENDBRANCH  19  21
ENDBRANCH   1  19
TORSDOF 10
