REMARK  4 active torsions:
REMARK  status: ('A' for Active; 'I' for Inactive)
REMARK    1  A    between atoms: N_2  and  S_1 
REMARK    2  A    between atoms: C_3  and  S_1 
REMARK    3  A    between atoms: C_6  and  N_2 
REMARK    4  A    between atoms: C_9  and  C_6 
ROOT
ATOM      1  S   UNL d   1       1.044   0.041   0.114  0.00  0.00     0.242 S 
ATOM      2  O   UNL d   1       2.261   0.752  -0.188  0.00  0.00    -0.206 OA
ATOM      3  O   UNL d   1       0.916  -0.771   1.308  0.00  0.00    -0.206 OA
ENDROOT
BRANCH   1   4
ATOM      4  N   UNL d   1       0.577  -0.953  -1.176  0.00  0.00    -0.207 NA
ATOM      5  H   UNL d   1      -0.404  -1.215  -1.080  0.00  0.00     0.140 HD
BRANCH   4   6
ATOM      6  C   UNL d   1       0.956  -0.570  -2.555  0.00  0.00     0.100 C 
ATOM      7  C   UNL d   1       0.244  -1.520  -3.527  0.00  0.00     0.032 C 
BRANCH   6   8
ATOM      8  C   UNL d   1       2.450  -0.630  -2.818  0.00  0.00    -0.040 A 
ATOM      9  C   UNL d   1       3.268  -1.568  -2.165  0.00  0.00     0.009 A 
ATOM     10  C   UNL d   1       4.650  -1.556  -2.347  0.00  0.00     0.001 A 
ATOM     11  C   UNL d   1       5.231  -0.630  -3.209  0.00  0.00     0.000 A 
ATOM     12  C   UNL d   1       4.428   0.278  -3.898  0.00  0.00     0.001 A 
ATOM     13  C   UNL d   1       3.045   0.278  -3.706  0.00  0.00     0.009 A 
ENDBRANCH   6   8
ENDBRANCH   4   6
ENDBRANCH   1   4
BRANCH   1  14
ATOM     14  C   UNL d   1      -0.268   1.238   0.162  0.00  0.00     0.074 A 
ATOM     15  C   UNL d   1      -1.321   1.064   1.062  0.00  0.00     0.025 A 
ATOM     16  C   UNL d   1      -2.321   2.031   1.144  0.00  0.00     0.008 A 
ATOM     17  C   UNL d   1      -2.271   3.174   0.332  0.00  0.00    -0.062 A 
ATOM     18  C   UNL d   1      -1.197   3.345  -0.553  0.00  0.00     0.008 A 
ATOM     19  C   UNL d   1      -3.355   4.205   0.440  0.00  0.00     0.048 C 
ATOM     20  C   UNL d   1      -0.189   2.383  -0.633  0.00  0.00     0.025 A 
ENDBRANCH   1  14
TORSDOF 4
