REMARK  2 active torsions:
REMARK  status: ('A' for Active; 'I' for Inactive)
REMARK    1  A    between atoms: C_5  and  C_2 
REMARK    2  A    between atoms: O_13  and  C_10 
ROOT
ATOM      1  C   UNL d   1      -0.639  -0.722   0.237  0.00  0.00     0.058 C 
ATOM      2  C   UNL d   1      -1.606  -1.639   0.104  0.00  0.00     0.041 C 
ATOM      3  C   UNL d   1       0.800  -1.193   0.291  0.00  0.00     0.174 C 
ATOM      4  N   UNL d   1      -0.714   0.690   0.289  0.00  0.00    -0.280 NA
ATOM      5  C   UNL d   1       1.749  -0.001   0.318  0.00  0.00     0.064 C 
ATOM      6  C   UNL d   1      -0.102   1.228   1.542  0.00  0.00     0.096 C 
ATOM      7  C   UNL d   1      -0.029   1.363  -0.857  0.00  0.00     0.096 C 
ATOM      8  O   UNL d   1       1.157  -2.366   0.284  0.00  0.00    -0.291 OA
ATOM      9  C   UNL d   1       1.420   0.830  -0.941  0.00  0.00     0.027 C 
ATOM     10  C   UNL d   1       1.387   0.807   1.581  0.00  0.00     0.027 C 
ENDROOT
BRANCH   2  11
ATOM     11  C   UNL d   1      -3.015  -1.325  -0.132  0.00  0.00    -0.001 A 
ATOM     12  C   UNL d   1      -3.579  -1.173  -1.412  0.00  0.00     0.078 A 
ATOM     13  C   UNL d   1      -4.925  -0.794  -1.525  0.00  0.00     0.037 A 
ATOM     14  C   UNL d   1      -5.722  -0.615  -0.394  0.00  0.00     0.003 A 
ATOM     15  C   UNL d   1      -5.178  -0.806   0.870  0.00  0.00     0.001 A 
ATOM     16  C   UNL d   1      -3.833  -1.153   1.001  0.00  0.00     0.014 A 
BRANCH  12  17
ATOM     17  O   UNL d   1      -2.960  -1.304  -2.630  0.00  0.00    -0.355 OA
ATOM     18  C   UNL d   1      -1.894  -2.239  -2.740  0.00  0.00     0.210 C 
ENDBRANCH  12  17
ENDBRANCH   2  11
TORSDOF 2
