REMARK  5 active torsions:
REMARK  status: ('A' for Active; 'I' for Inactive)
REMARK       I    between atoms: N_2  and  C_1 
REMARK    1  A    between atoms: C_4  and  C_1 
REMARK    2  A    between atoms: C_6  and  N_3 
REMARK    3  A    between atoms: N_5  and  C_4 
REMARK    4  A    between atoms: C_7  and  N_5 
REMARK    5  A    between atoms: O_16  and  C_15 
ROOT
ATOM      1  C   UNL d   1       1.161   0.090  -0.201  0.00  0.00     0.237 C 
ATOM      2  N   UNL d   1       0.804   0.301   1.138  0.00  0.00    -0.348 N 
ATOM      3  N   UNL d   1      -0.295   1.266   3.612  0.00  0.00    -0.376 N 
ATOM      4  C   UNL d   1       1.264   1.563   1.737  0.00  0.00     0.145 C 
ATOM      5  C   UNL d   1      -0.481  -0.206   1.644  0.00  0.00     0.145 C 
ATOM      6  C   UNL d   1       1.091   1.634   3.271  0.00  0.00     0.143 C 
ATOM      7  C   UNL d   1      -0.627  -0.102   3.172  0.00  0.00     0.143 C 
ATOM      8  O   UNL d   1       1.821   0.922  -0.831  0.00  0.00    -0.272 OA
ENDROOT
BRANCH   1   9
ATOM      9  C   UNL d   1       0.720  -1.248  -0.850  0.00  0.00     0.149 C 
ATOM     10  C   UNL d   1       1.729  -1.627  -1.937  0.00  0.00     0.036 C 
BRANCH   9  11
ATOM     11  N   UNL d   1      -0.633  -1.095  -1.429  0.00  0.00    -0.266 NA
ATOM     12  H   UNL d   1      -0.608  -0.507  -2.260  0.00  0.00     0.130 HD
BRANCH  11  13
ATOM     13  C   UNL d   1      -1.311  -2.294  -1.698  0.00  0.00     0.080 A 
ATOM     14  N   UNL d   1      -0.843  -3.457  -1.187  0.00  0.00    -0.357 N 
ATOM     15  C   UNL d   1      -1.544  -4.585  -1.431  0.00  0.00     0.089 A 
ATOM     16  HN  UNL d   1       0.014  -3.481  -0.634  1.00  0.00     0.166 HD
ATOM     17  C   UNL d   1      -2.717  -4.624  -2.156  0.00  0.00     0.017 A 
ATOM     18  C   UNL d   1      -3.208  -3.427  -2.659  0.00  0.00     0.005 A 
ATOM     19  C   UNL d   1      -2.500  -2.250  -2.419  0.00  0.00     0.042 A 
ENDBRANCH  11  13
ENDBRANCH   9  11
ENDBRANCH   1   9
BRANCH   3  20
ATOM     20  C   UNL d   1      -0.879   1.781   4.769  0.00  0.00     0.064 A 
ATOM     21  C   UNL d   1      -1.032   3.167   5.011  0.00  0.00     0.094 A 
ATOM     22  C   UNL d   1      -1.748   3.638   6.124  0.00  0.00     0.039 A 
ATOM     23  C   UNL d   1      -2.323   2.752   7.029  0.00  0.00     0.003 A 
ATOM     24  C   UNL d   1      -2.142   1.389   6.851  0.00  0.00     0.002 A 
ATOM     25  C   UNL d   1      -1.430   0.919   5.742  0.00  0.00     0.032 A 
BRANCH  21  26
ATOM     26  O   UNL d   1      -0.459   4.169   4.266  0.00  0.00    -0.354 OA
ATOM     27  C   UNL d   1      -0.872   4.215   2.906  0.00  0.00     0.210 C 
ENDBRANCH  21  26
ENDBRANCH   3  20
TORSDOF 5
