REMARK  3 active torsions:
REMARK  status: ('A' for Active; 'I' for Inactive)
REMARK    1  A    between atoms: C_3  and  C_1 
REMARK    2  A    between atoms: N_2  and  C_4 
REMARK    3  A    between atoms: C_20  and  N_8 
ROOT
ATOM      1  N   UNL d   1       0.121   6.733   8.723  0.00  0.00    -0.195 NA
ATOM      2  C   UNL d   1      -0.316   6.643   7.649  0.00  0.00     0.089 C 
ATOM      3  C   UNL d   1      -0.821   6.539   6.262  0.00  0.00     0.395 C 
ENDROOT
BRANCH   3   4
ATOM      4  N   UNL d   1      -1.558   5.289   5.969  0.00  0.00     0.104 N 
ATOM      5  C   UNL d   1      -2.077   5.298   4.583  0.00  0.00     0.293 C 
ATOM      6  C   UNL d   1      -1.004   5.228   3.468  0.00  0.00     0.154 C 
ATOM      7  N   UNL d   1      -0.011   4.172   3.709  0.00  0.00    -0.364 N 
ATOM      8  C   UNL d   1       0.434   3.951   5.093  0.00  0.00     0.154 C 
ATOM      9  C   UNL d   1      -0.717   4.074   6.112  0.00  0.00     0.293 C 
BRANCH   7  10
ATOM     10  C   UNL d   1       0.045   3.107   2.822  0.00  0.00     0.103 A 
ATOM     11  C   UNL d   1       0.104   3.349   1.448  0.00  0.00     0.049 A 
ATOM     12  C   UNL d   1       0.182   2.288   0.547  0.00  0.00     0.021 A 
ATOM     13  C   UNL d   1       0.201   0.982   1.028  0.00  0.00     0.063 A 
ATOM     14  C   UNL d   1       0.160   0.819   2.402  0.00  0.00     0.106 A 
ATOM     15  N   UNL d   1       0.090   1.843   3.290  0.00  0.00    -0.352 N 
ATOM     16  HN  UNL d   1       0.072   1.660   4.294  1.00  0.00     0.166 HD
BRANCH  13  17
ATOM     17  C   UNL d   1       0.264  -0.191   0.103  0.00  0.00     0.418 C 
ATOM     18  F   UNL d   1       0.253  -1.395   0.739  0.00  0.00    -0.166 F 
ATOM     19  F   UNL d   1       1.385  -0.188  -0.669  0.00  0.00    -0.166 F 
ATOM     20  F   UNL d   1      -0.784  -0.221  -0.767  0.00  0.00    -0.166 F 
ENDBRANCH  13  17
ENDBRANCH   7  10
ENDBRANCH   3   4
TORSDOF 3
