REMARK  8 active torsions:
REMARK  status: ('A' for Active; 'I' for Inactive)
REMARK    1  A    between atoms: C_8  and  C_1 
REMARK    2  A    between atoms: C_3  and  N_23 
REMARK    3  A    between atoms: C_6  and  C_4 
REMARK    4  A    between atoms: N_23  and  C_29 
REMARK    5  A    between atoms: C_28  and  C_24 
REMARK    6  A    between atoms: S_25  and  C_28 
REMARK    7  A    between atoms: C_31  and  S_25 
REMARK    8  A    between atoms: C_29  and  C_31 
ROOT
ATOM      1  C   UNL d   1       1.560 -10.698  -0.881  0.00  0.00     0.074 C 
ATOM      2  C   UNL d   1       2.295  -9.593  -0.658  0.00  0.00     0.009 C 
ATOM      3  C   UNL d   1       2.780  -9.441  -3.185  0.00  0.00     0.031 C 
ATOM      4  C   UNL d   1       1.621 -11.430  -2.167  0.00  0.00     0.151 C 
ATOM      5  C   UNL d   1       3.160  -8.997  -1.758  0.00  0.00     0.066 C 
ATOM      6  C   UNL d   1       2.585 -10.960  -3.224  0.00  0.00     0.092 C 
ATOM      7  O   UNL d   1       0.957 -12.460  -2.300  0.00  0.00    -0.293 OA
ENDROOT
BRANCH   2   8
ATOM      8  N   UNL d   1       2.308  -8.903   0.539  0.00  0.00    -0.392 N 
ATOM      9  H   UNL d   1       2.633  -7.936   0.498  0.00  0.00     0.159 HD
BRANCH   8  10
ATOM     10  C   UNL d   1       1.664  -9.293   1.788  0.00  0.00     0.130 C 
BRANCH  10  11
ATOM     11  C   UNL d   1       2.047  -8.342   2.928  0.00  0.00     0.093 C 
BRANCH  11  12
ATOM     12  S   UNL d   1       1.296  -6.700   2.669  0.00  0.00    -0.163 SA
BRANCH  12  13
ATOM     13  C   UNL d   1       1.938  -5.849   4.145  0.00  0.00     0.112 C 
BRANCH  13  14
ATOM     14  C   UNL d   1       1.413  -4.435   4.196  0.00  0.00    -0.048 A 
ATOM     15  C   UNL d   1       0.195  -4.152   4.832  0.00  0.00     0.024 A 
ATOM     16  C   UNL d   1      -0.344  -2.855   4.819  0.00  0.00     0.048 A 
ATOM     17  C   UNL d   1       0.363  -1.833   4.167  0.00  0.00     0.016 A 
ATOM     18  C   UNL d   1       1.575  -2.105   3.532  0.00  0.00     0.001 A 
ATOM     19  C   UNL d   1       2.094  -3.399   3.542  0.00  0.00     0.008 A 
BRANCH  16  20
ATOM     20  C   UNL d   1      -1.670  -2.556   5.473  0.00  0.00     0.417 C 
ATOM     21  F   UNL d   1      -2.266  -3.650   6.025  0.00  0.00    -0.166 F 
ATOM     22  F   UNL d   1      -2.579  -2.039   4.601  0.00  0.00    -0.166 F 
ATOM     23  F   UNL d   1      -1.561  -1.646   6.481  0.00  0.00    -0.166 F 
ENDBRANCH  16  20
ENDBRANCH  13  14
ENDBRANCH  12  13
ENDBRANCH  11  12
ENDBRANCH  10  11
ENDBRANCH   8  10
ENDBRANCH   2   8
BRANCH   3  24
ATOM     24  C   UNL d   1       1.609  -8.685  -3.810  0.00  0.00    -0.050 A 
ATOM     25  C   UNL d   1       1.550  -8.569  -5.215  0.00  0.00     0.047 A 
ATOM     26  C   UNL d   1       0.500  -7.867  -5.776  0.00  0.00     0.105 A 
ATOM     27  O   UNL d   1       0.307  -7.652  -7.105  0.00  0.00    -0.323 OA
ATOM     28  C   UNL d   1      -0.480  -7.291  -5.007  0.00  0.00     0.105 A 
ATOM     29  C   UNL d   1      -0.925  -6.900  -7.080  0.00  0.00     0.352 A 
ATOM     30  O   UNL d   1      -1.415  -6.643  -5.750  0.00  0.00    -0.323 OA
ATOM     31  C   UNL d   1      -0.470  -7.386  -3.638  0.00  0.00     0.040 A 
ATOM     32  C   UNL d   1       0.582  -8.087  -3.042  0.00  0.00     0.010 A 
ENDBRANCH   3  24
TORSDOF 8
