REMARK  3 active torsions:
REMARK  status: ('A' for Active; 'I' for Inactive)
REMARK    1  A    between atoms: C_8  and  C_3 
REMARK    2  A    between atoms: C_11  and  C_7 
REMARK    3  A    between atoms: O_18  and  C_12 
ROOT
ATOM      1  N   UNL d   1       1.569  -0.061   0.066  0.00  0.00    -0.331 N 
ATOM      2  HN  UNL d   1       2.518  -0.437   0.065  1.00  0.00     0.168 HD
ATOM      3  C   UNL d   1       1.192   1.177   0.047  0.00  0.00     0.162 A 
ATOM      4  C   UNL d   1       0.378  -0.743   0.089  0.00  0.00     0.111 A 
ATOM      5  O   UNL d   1      -0.136   1.430   0.073  0.00  0.00    -0.256 OA
ATOM      6  C   UNL d   1      -0.764   0.220   0.104  0.00  0.00     0.316 A 
ATOM      7  C   UNL d   1       0.296  -2.079   0.067  0.00  0.00     0.047 C 
ATOM      8  O   UNL d   1      -1.960   0.032   0.134  0.00  0.00    -0.257 OA
ENDROOT
BRANCH   7   9
ATOM      9  C   UNL d   1      -0.941  -2.856   0.017  0.00  0.00    -0.034 A 
ATOM     10  C   UNL d   1      -1.487  -3.208  -1.220  0.00  0.00     0.014 A 
ATOM     11  C   UNL d   1      -2.665  -3.960  -1.289  0.00  0.00     0.037 A 
ATOM     12  C   UNL d   1      -3.309  -4.363  -0.118  0.00  0.00     0.068 A 
ATOM     13  C   UNL d   1      -2.758  -4.014   1.118  0.00  0.00     0.037 A 
ATOM     14  C   UNL d   1      -1.580  -3.264   1.189  0.00  0.00     0.014 A 
BRANCH  12  15
ATOM     15  O   UNL d   1      -4.466  -5.089  -0.049  0.00  0.00    -0.356 OA
ATOM     16  C   UNL d   1      -5.073  -5.446  -1.286  0.00  0.00     0.210 C 
ENDBRANCH  12  15
ENDBRANCH   7   9
BRANCH   3  17
ATOM     17  C   UNL d   1       2.054   2.369  -0.021  0.00  0.00     0.016 A 
ATOM     18  C   UNL d   1       3.441   2.202  -0.139  0.00  0.00     0.022 A 
ATOM     19  C   UNL d   1       4.285   3.317  -0.241  0.00  0.00    -0.061 A 
ATOM     20  C   UNL d   1       5.769   3.155  -0.388  0.00  0.00     0.048 C 
ATOM     21  C   UNL d   1       3.725   4.601  -0.215  0.00  0.00     0.007 A 
ATOM     22  C   UNL d   1       2.346   4.770  -0.091  0.00  0.00     0.002 A 
ATOM     23  C   UNL d   1       1.510   3.658   0.004  0.00  0.00     0.016 A 
ENDBRANCH   3  17
TORSDOF 3
