REMARK  4 active torsions:
REMARK  status: ('A' for Active; 'I' for Inactive)
REMARK    1  A    between atoms: C_9  and  C_3 
REMARK    2  A    between atoms: O_11  and  C_4 
REMARK    3  A    between atoms: S_10  and  C_5 
REMARK    4  A    between atoms: C_12  and  C_9 
ROOT
ATOM      1  N   UNL d   1       0.490   0.760  -0.844  0.00  0.00    -0.317 N 
ATOM      2  HN  UNL d   1       0.827   1.277  -1.656  1.00  0.00     0.170 HD
ATOM      3  C   UNL d   1      -0.688  -1.122   0.098  0.00  0.00     0.019 A 
ATOM      4  C   UNL d   1      -0.227  -0.361  -0.963  0.00  0.00     0.150 A 
ATOM      5  C   UNL d   1       0.739   1.162   0.405  0.00  0.00     0.143 A 
ATOM      6  N   UNL d   1       0.312   0.540   1.512  0.00  0.00    -0.340 N 
ATOM      7  HN  UNL d   1       0.516   0.912   2.440  1.00  0.00     0.167 HD
ATOM      8  C   UNL d   1      -0.398  -0.598   1.353  0.00  0.00     0.018 A 
ATOM      9  C   UNL d   1      -0.861  -1.250   2.624  0.00  0.00     0.069 C 
ENDROOT
BRANCH   3  10
ATOM     10  C   UNL d   1      -1.442  -2.410  -0.093  0.00  0.00     0.083 C 
BRANCH  10  11
ATOM     11  C   UNL d   1      -2.954  -2.337  -0.022  0.00  0.00    -0.054 A 
ATOM     12  C   UNL d   1      -3.674  -1.131   0.018  0.00  0.00     0.010 A 
ATOM     13  C   UNL d   1      -5.067  -1.139   0.127  0.00  0.00     0.043 A 
ATOM     14  C   UNL d   1      -5.748  -2.348   0.181  0.00  0.00     0.116 A 
ATOM     15  C   UNL d   1      -5.063  -3.553   0.113  0.00  0.00     0.043 A 
ATOM     16  F   UNL d   1      -7.081  -2.351   0.304  0.00  0.00    -0.206 F 
ATOM     17  C   UNL d   1      -3.672  -3.548   0.007  0.00  0.00     0.010 A 
ENDBRANCH  10  11
ENDBRANCH   3  10
BRANCH   4  18
ATOM     18  O   UNL d   1      -0.485  -0.698  -2.260  0.00  0.00    -0.346 OA
ATOM     19  H   UNL d   1      -1.366  -1.100  -2.300  0.00  0.00     0.219 HD
ENDBRANCH   4  18
BRANCH   5  20
ATOM     20  S   UNL d   1       1.693   2.634   0.599  0.00  0.00    -0.107 SA
ATOM     21  H   UNL d   1       1.872   2.789  -0.718  0.00  0.00     0.110 HD
ENDBRANCH   5  20
TORSDOF 4
