REMARK  6 active torsions:
REMARK  status: ('A' for Active; 'I' for Inactive)
REMARK    1  A    between atoms: C_13  and  C_1 
REMARK    2  A    between atoms: C_20  and  N_3 
REMARK    3  A    between atoms: C_22  and  N_4 
REMARK    4  A    between atoms: C_23  and  N_5 
REMARK    5  A    between atoms: C_21  and  N_6 
REMARK    6  A    between atoms: O_19  and  C_9 
ROOT
ATOM      1  N   UNL d   2      -0.679   1.193   0.001  0.00  0.00    -0.375 N 
ATOM      2  HN  UNL d   2      -1.194   2.063  -0.132  1.00  0.00     0.164 HD
ATOM      3  C   UNL d   2      -1.551  -0.074  -0.985  0.00  0.00     0.087 A 
ATOM      4  C   UNL d   2       0.741   1.596   1.145  0.00  0.00     0.087 A 
ATOM      5  C   UNL d   2      -0.614  -0.907  -0.634  0.00  0.00     0.017 A 
ATOM      6  C   UNL d   2       1.522   0.602   1.403  0.00  0.00     0.017 A 
ATOM      7  C   UNL d   2       0.868  -0.429   0.605  0.00  0.00     0.003 A 
ENDROOT
TORSDOF 6
