REMARK  0 active torsions:
REMARK  status: ('A' for Active; 'I' for Inactive)
ROOT
ATOM      1  C   UNL d   1      -0.072   1.135  -0.001  0.00  0.00     0.112 A 
ATOM      2  C   UNL d   1      -0.364  -0.220  -0.002  0.00  0.00     0.075 A 
ATOM      3  N   UNL d   1       1.164   1.655  -0.001  0.00  0.00    -0.349 N 
ATOM      4  HN  UNL d   1       1.351   2.657  -0.000  1.00  0.00     0.166 HD
ATOM      5  N   UNL d   1       0.582  -1.170  -0.003  0.00  0.00    -0.352 N 
ATOM      6  HN  UNL d   1       0.367  -2.167  -0.003  1.00  0.00     0.166 HD
ATOM      7  C   UNL d   1      -1.356   1.871  -0.001  0.00  0.00     0.211 A 
ATOM      8  C   UNL d   1      -1.788  -0.423  -0.002  0.00  0.00     0.007 A 
ATOM      9  C   UNL d   1      -2.417   0.834  -0.001  0.00  0.00     0.029 A 
ATOM     10  C   UNL d   1       1.850  -0.691  -0.002  0.00  0.00     0.060 A 
ATOM     11  C   UNL d   1       2.138   0.718  -0.001  0.00  0.00     0.059 A 
ATOM     12  O   UNL d   1      -1.542   3.070   0.000  0.00  0.00    -0.285 OA
ATOM     13  C   UNL d   1       2.910  -1.589  -0.002  0.00  0.00     0.038 A 
ATOM     14  C   UNL d   1       3.462   1.129  -0.001  0.00  0.00     0.032 A 
ATOM     15  C   UNL d   1       4.245  -1.161  -0.001  0.00  0.00    -0.060 A 
ATOM     16  C   UNL d   1       4.513   0.208  -0.001  0.00  0.00     0.009 A 
ATOM     17  C   UNL d   1      -2.549  -1.578  -0.002  0.00  0.00     0.015 A 
ATOM     18  C   UNL d   1      -3.790   0.987  -0.000  0.00  0.00     0.016 A 
ATOM     19  C   UNL d   1       5.358  -2.167  -0.001  0.00  0.00     0.048 C 
ATOM     20  C   UNL d   1      -4.558  -0.179  -0.000  0.00  0.00     0.001 A 
ATOM     21  C   UNL d   1      -3.944  -1.448  -0.001  0.00  0.00     0.001 A 
ENDROOT
TORSDOF 0
