REMARK  4 active torsions:
REMARK  status: ('A' for Active; 'I' for Inactive)
REMARK    1  A    between atoms: C_2  and  S_1 
REMARK    2  A    between atoms: C_6  and  S_1 
REMARK    3  A    between atoms: N_4  and  C_3 
REMARK       I    between atoms: C_5  and  N_4 
REMARK    4  A    between atoms: C_12  and  C_5 
ROOT
ATOM      1  C   UNL d   1      -0.064  -1.371   0.772  0.00  0.00     0.098 A 
ATOM      2  C   UNL d   1       0.716  -2.439   0.212  0.00  0.00     0.064 A 
ATOM      3  S   UNL d   1      -0.513  -3.404   2.277  0.00  0.00    -0.110 SA
ATOM      4  C   UNL d   1      -0.762  -1.758   1.901  0.00  0.00     0.075 A 
ATOM      5  C   UNL d   1       0.524  -3.604   0.937  0.00  0.00     0.080 A 
ENDROOT
BRANCH   2   6
ATOM      6  N   UNL d   1       1.557  -2.344  -0.907  0.00  0.00    -0.321 N 
ATOM      7  C   UNL d   1       1.812  -3.432  -1.731  0.00  0.00     0.256 C 
ATOM      8  O   UNL d   1       1.203  -4.498  -1.646  0.00  0.00    -0.267 OA
ATOM      9  H   UNL d   1       1.846  -1.406  -1.172  0.00  0.00     0.169 HD
BRANCH   7  10
ATOM     10  C   UNL d   1       2.812  -3.295  -2.832  0.00  0.00     0.032 A 
ATOM     11  C   UNL d   1       3.091  -4.461  -3.572  0.00  0.00     0.018 A 
ATOM     12  C   UNL d   1       3.962  -4.439  -4.662  0.00  0.00     0.025 A 
ATOM     13  C   UNL d   1       4.572  -3.243  -5.021  0.00  0.00     0.034 A 
ATOM     14  C   UNL d   1       4.337  -2.083  -4.279  0.00  0.00     0.025 A 
ATOM     15 CL   UNL d   1       5.605  -3.193  -6.394  0.00  0.00    -0.084 Cl
ATOM     16  C   UNL d   1       3.460  -2.105  -3.181  0.00  0.00     0.018 A 
ENDBRANCH   7  10
ENDBRANCH   2   6
BRANCH   1  17
ATOM     17  S   UNL d   1      -0.235   0.205   0.074  0.00  0.00     0.209 S 
ATOM     18  O   UNL d   1       0.962   0.384  -0.730  0.00  0.00    -0.217 OA
ATOM     19  O   UNL d   1      -0.568   1.063   1.188  0.00  0.00    -0.217 OA
BRANCH  17  20
ATOM     20  C   UNL d   1      -1.627   0.133  -1.030  0.00  0.00     0.064 A 
ATOM     21  C   UNL d   1      -2.529   1.204  -1.058  0.00  0.00     0.025 A 
ATOM     22  C   UNL d   1      -3.641   1.152  -1.906  0.00  0.00     0.025 A 
ATOM     23  C   UNL d   1      -3.846   0.035  -2.716  0.00  0.00     0.034 A 
ATOM     24  C   UNL d   1      -2.943  -1.027  -2.696  0.00  0.00     0.025 A 
ATOM     25 CL   UNL d   1      -5.224  -0.035  -3.743  0.00  0.00    -0.084 Cl
ATOM     26  C   UNL d   1      -1.829  -0.982  -1.853  0.00  0.00     0.025 A 
ENDBRANCH  17  20
ENDBRANCH   1  17
TORSDOF 4
