REMARK  4 active torsions:
REMARK  status: ('A' for Active; 'I' for Inactive)
REMARK    1  A    between atoms: N_3  and  S_1 
REMARK    2  A    between atoms: C_7  and  S_1 
REMARK    3  A    between atoms: C_2  and  N_4 
REMARK    4  A    between atoms: N_4  and  N_3 
ROOT
ATOM      1  N   UNL d   1       0.462   0.886  -1.102  0.00  0.00    -0.222 N 
ATOM      2  H   UNL d   1       0.034   0.345  -1.858  0.00  0.00     0.200 HD
ENDROOT
BRANCH   1   3
ATOM      3  S   UNL d   1       1.010   0.059   0.274  0.00  0.00     0.276 S 
ATOM      4  O   UNL d   1       0.348   0.631   1.426  0.00  0.00    -0.199 OA
ATOM      5  O   UNL d   1       2.456  -0.005   0.199  0.00  0.00    -0.199 OA
BRANCH   3   6
ATOM      6  C   UNL d   1       0.364  -1.565  -0.004  0.00  0.00     0.081 A 
ATOM      7  C   UNL d   1       1.140  -2.514  -0.676  0.00  0.00     0.026 A 
ATOM      8  C   UNL d   1       0.633  -3.799  -0.872  0.00  0.00     0.008 A 
ATOM      9  C   UNL d   1      -0.639  -4.143  -0.394  0.00  0.00    -0.062 A 
ATOM     10  C   UNL d   1      -1.398  -3.187   0.295  0.00  0.00     0.008 A 
ATOM     11  C   UNL d   1      -1.166  -5.532  -0.612  0.00  0.00     0.048 C 
ATOM     12  C   UNL d   1      -0.897  -1.899   0.494  0.00  0.00     0.026 A 
ENDBRANCH   3   6
ENDBRANCH   1   3
BRANCH   1  13
ATOM     13  N   UNL d   1       0.678   2.315  -1.215  0.00  0.00    -0.288 N 
ATOM     14  H   UNL d   1       1.050   2.775  -0.378  0.00  0.00     0.188 HD
BRANCH  13  15
ATOM     15  C   UNL d   1       0.330   3.164  -2.283  0.00  0.00     0.092 A 
ATOM     16  C   UNL d   1       0.202   4.549  -2.025  0.00  0.00     0.065 A 
ATOM     17  C   UNL d   1      -0.183   5.458  -3.013  0.00  0.00     0.050 A 
ATOM     18 CL   UNL d   1       0.509   5.181  -0.438  0.00  0.00    -0.082 Cl
ATOM     19  C   UNL d   1      -0.443   4.996  -4.295  0.00  0.00     0.037 A 
ATOM     20  C   UNL d   1      -0.331   3.642  -4.592  0.00  0.00     0.050 A 
ATOM     21 CL   UNL d   1      -0.908   6.105  -5.524  0.00  0.00    -0.084 Cl
ATOM     22  C   UNL d   1       0.041   2.731  -3.592  0.00  0.00     0.065 A 
ATOM     23 CL   UNL d   1       0.170   1.073  -4.085  0.00  0.00    -0.082 Cl
ENDBRANCH  13  15
ENDBRANCH   1  13
TORSDOF 4
