REMARK  10 active torsions:
REMARK  status: ('A' for Active; 'I' for Inactive)
REMARK    1  A    between atoms: N_2  and  S_1 
REMARK    2  A    between atoms: C_11  and  S_1 
REMARK       I    between atoms: N_7  and  C_4 
REMARK       I    between atoms: N_8  and  C_4 
REMARK    3  A    between atoms: C_5  and  N_13 
REMARK    4  A    between atoms: N_14  and  C_5 
REMARK    5  A    between atoms: C_6  and  N_12 
REMARK    6  A    between atoms: N_15  and  C_6 
REMARK    7  A    between atoms: N_12  and  N_7 
REMARK    8  A    between atoms: N_13  and  N_8 
REMARK    9  A    between atoms: C_18  and  N_14 
REMARK   10  A    between atoms: C_19  and  N_15 
ROOT
ATOM      1  N   UNL d   1       1.067  -0.936  -1.430  0.00  0.00    -0.110 N 
ATOM      2  HN  UNL d   1       0.675  -1.868  -1.562  1.00  0.00     0.197 HD
ATOM      3  C   UNL d   1       1.408  -0.287  -2.496  0.00  0.00     0.721 C 
ATOM      4  N   UNL d   1       2.139   0.855  -2.732  0.00  0.00    -0.128 N 
ATOM      5  N   UNL d   1       0.935  -0.808  -3.692  0.00  0.00    -0.128 N 
ATOM      6  H   UNL d   1       1.727   1.564  -3.340  0.00  0.00     0.205 HD
ATOM      7  H   UNL d   1       0.518  -1.738  -3.610  0.00  0.00     0.205 HD
ENDROOT
BRANCH   1   8
ATOM      8  S   UNL d   1       1.205  -0.409   0.087  0.00  0.00     0.276 S 
ATOM      9  O   UNL d   1      -0.074   0.104   0.525  0.00  0.00    -0.200 OA
ATOM     10  O   UNL d   1       2.421   0.366   0.268  0.00  0.00    -0.200 OA
BRANCH   8  11
ATOM     11  C   UNL d   1       1.527  -1.856   1.074  0.00  0.00     0.080 A 
ATOM     12  C   UNL d   1       1.653  -3.118   0.492  0.00  0.00     0.025 A 
ATOM     13  C   UNL d   1       2.077  -4.186   1.282  0.00  0.00     0.002 A 
ATOM     14  C   UNL d   1       2.371  -3.990   2.634  0.00  0.00     0.000 A 
ATOM     15  C   UNL d   1       2.231  -2.727   3.211  0.00  0.00     0.002 A 
ATOM     16  C   UNL d   1       1.807  -1.655   2.432  0.00  0.00     0.025 A 
ENDBRANCH   8  11
ENDBRANCH   1   8
BRANCH   4  17
ATOM     17  N   UNL d   1       3.178   1.287  -1.909  0.00  0.00    -0.262 N 
ATOM     18  H   UNL d   1       3.273   0.757  -1.036  0.00  0.00     0.190 HD
BRANCH  17  19
ATOM     19  C   UNL d   1       3.352   2.658  -1.733  0.00  0.00     0.191 C 
ATOM     20  S   UNL d   1       2.673   3.808  -2.755  0.00  0.00    -0.039 SA
BRANCH  19  21
ATOM     21  N   UNL d   1       4.221   2.898  -0.674  0.00  0.00    -0.332 N 
ATOM     22  H   UNL d   1       4.969   2.224  -0.579  0.00  0.00     0.168 HD
BRANCH  21  23
ATOM     23  C   UNL d   1       4.334   4.074   0.088  0.00  0.00     0.034 A 
ATOM     24  C   UNL d   1       3.219   4.857   0.405  0.00  0.00     0.032 A 
ATOM     25  C   UNL d   1       3.371   6.030   1.144  0.00  0.00     0.044 A 
ATOM     26  C   UNL d   1       4.637   6.407   1.571  0.00  0.00     0.116 A 
ATOM     27  C   UNL d   1       5.747   5.612   1.310  0.00  0.00     0.044 A 
ATOM     28  F   UNL d   1       4.790   7.550   2.252  0.00  0.00    -0.206 F 
ATOM     29  C   UNL d   1       5.592   4.426   0.587  0.00  0.00     0.032 A 
ENDBRANCH  21  23
ENDBRANCH  19  21
ENDBRANCH  17  19
ENDBRANCH   4  17
BRANCH   5  30
ATOM     30  N   UNL d   1       1.698  -0.619  -4.871  0.00  0.00    -0.262 N 
ATOM     31  H   UNL d   1       2.484   0.020  -4.763  0.00  0.00     0.190 HD
BRANCH  30  32
ATOM     32  C   UNL d   1       1.883  -1.669  -5.733  0.00  0.00     0.191 C 
ATOM     33  S   UNL d   1       1.254  -3.209  -5.512  0.00  0.00    -0.039 SA
BRANCH  32  34
ATOM     34  N   UNL d   1       2.663  -1.455  -6.835  0.00  0.00    -0.332 N 
ATOM     35  H   UNL d   1       2.921  -2.322  -7.299  0.00  0.00     0.168 HD
BRANCH  34  36
ATOM     36  C   UNL d   1       3.024  -0.277  -7.522  0.00  0.00     0.034 A 
ATOM     37  C   UNL d   1       2.447   0.978  -7.300  0.00  0.00     0.032 A 
ATOM     38  C   UNL d   1       2.823   2.077  -8.083  0.00  0.00     0.044 A 
ATOM     39  C   UNL d   1       3.764   1.919  -9.092  0.00  0.00     0.116 A 
ATOM     40  C   UNL d   1       4.341   0.680  -9.333  0.00  0.00     0.044 A 
ATOM     41  F   UNL d   1       4.105   2.967  -9.852  0.00  0.00    -0.206 F 
ATOM     42  C   UNL d   1       3.967  -0.415  -8.553  0.00  0.00     0.032 A 
ENDBRANCH  34  36
ENDBRANCH  32  34
ENDBRANCH  30  32
ENDBRANCH   5  30
TORSDOF 10
