REMARK  6 active torsions:
REMARK  status: ('A' for Active; 'I' for Inactive)
REMARK       I    between atoms: C_2  and  N_1 
REMARK    1  A    between atoms: C_3  and  N_1 
REMARK    2  A    between atoms: C_11  and  C_2 
REMARK    3  A    between atoms: C_6  and  C_12 
REMARK    4  A    between atoms: O_10  and  C_6 
REMARK    5  A    between atoms: O_9  and  C_11 
REMARK    6  A    between atoms: C_12  and  O_9 
ROOT
ATOM      1  N   UNL d   1       1.088   0.378   0.017  0.00  0.00    -0.311 N 
ATOM      2  C   UNL d   1       0.301   1.513  -0.055  0.00  0.00     0.246 C 
ATOM      3  O   UNL d   1       0.666   2.668  -0.229  0.00  0.00    -0.271 OA
ATOM      4  H   UNL d   1       0.614  -0.504   0.134  0.00  0.00     0.170 HD
ENDROOT
BRANCH   1   5
ATOM      5  C   UNL d   1       2.487   0.362  -0.017  0.00  0.00     0.107 A 
ATOM      6  N   UNL d   1       3.182   1.510  -0.058  0.00  0.00    -0.352 N 
ATOM      7  C   UNL d   1       4.530   1.440  -0.068  0.00  0.00     0.089 A 
ATOM      8  HN  UNL d   1       2.705   2.411  -0.082  1.00  0.00     0.166 HD
ATOM      9  C   UNL d   1       5.236   0.252  -0.044  0.00  0.00     0.017 A 
ATOM     10  C   UNL d   1       4.512  -0.932  -0.008  0.00  0.00     0.005 A 
ATOM     11  C   UNL d   1       3.118  -0.879   0.009  0.00  0.00     0.048 A 
ENDBRANCH   1   5
BRANCH   2  12
ATOM     12  C   UNL d   1      -1.192   1.183   0.027  0.00  0.00     0.271 C 
BRANCH  12  13
ATOM     13  O   UNL d   1      -1.496   0.245   1.067  0.00  0.00    -0.372 OA
BRANCH  13  14
ATOM     14  C   UNL d   1      -2.907   0.199   1.314  0.00  0.00     0.277 C 
BRANCH  14  15
ATOM     15  C   UNL d   1      -3.582  -0.741   0.328  0.00  0.00     0.164 C 
ATOM     16  O   UNL d   1      -4.646  -0.526  -0.228  0.00  0.00    -0.648 OA
BRANCH  15  17
ATOM     17  O   UNL d   1      -2.856  -1.871   0.135  0.00  0.00    -0.775 OA
ATOM     18  H   UNL d   1      -2.036  -1.835   0.670  0.00  0.00     0.167 HD
ENDBRANCH  15  17
ENDBRANCH  14  15
ENDBRANCH  13  14
ENDBRANCH  12  13
ENDBRANCH   2  12
TORSDOF 6
