REMARK  4 active torsions:
REMARK  status: ('A' for Active; 'I' for Inactive)
REMARK    1  A    between atoms: C_3  and  C_1 
REMARK       I    between atoms: N_8  and  C_3 
REMARK    2  A    between atoms: C_11  and  C_5 
REMARK    3  A    between atoms: N_6  and  C_9 
REMARK    4  A    between atoms: C_14  and  N_8 
ROOT
ATOM      1  C   UNL d   1      -0.151  -1.221   0.240  0.00  0.00     0.064 A 
ATOM      2  C   UNL d   1      -1.448  -0.647   0.421  0.00  0.00     0.057 A 
ATOM      3  C   UNL d   1       0.695  -0.133   0.051  0.00  0.00     0.065 A 
ATOM      4  C   UNL d   1      -1.319   0.721   0.297  0.00  0.00     0.087 A 
ATOM      5  O   UNL d   1      -0.011   1.031   0.086  0.00  0.00    -0.314 OA
ATOM      6  C   UNL d   1       2.148   0.029  -0.183  0.00  0.00     0.077 C 
ENDROOT
BRANCH   1   7
ATOM      7  C   UNL d   1       0.275  -2.624   0.230  0.00  0.00     0.258 C 
ATOM      8  N   UNL d   1      -0.754  -3.540   0.377  0.00  0.00    -0.323 N 
ATOM      9  H   UNL d   1      -1.693  -3.178   0.420  0.00  0.00     0.169 HD
ATOM     10  O   UNL d   1       1.450  -2.917   0.056  0.00  0.00    -0.267 OA
BRANCH   8  11
ATOM     11  C   UNL d   1      -0.633  -4.946   0.305  0.00  0.00     0.037 A 
ATOM     12  C   UNL d   1       0.591  -5.620   0.316  0.00  0.00     0.065 A 
ATOM     13  C   UNL d   1       0.628  -7.011   0.149  0.00  0.00     0.105 A 
ATOM     14  C   UNL d   1      -0.553  -7.743  -0.010  0.00  0.00     0.036 A 
ATOM     15  C   UNL d   1      -1.778  -7.078   0.024  0.00  0.00     0.005 A 
ATOM     16  C   UNL d   1      -1.817  -5.690   0.189  0.00  0.00     0.029 A 
BRANCH  13  17
ATOM     17  N   UNL d   1       1.923  -7.703   0.127  0.00  0.00    -0.116 N 
ATOM     18  O   UNL d   1       2.946  -7.030   0.316  0.00  0.00    -0.532 OA
ATOM     19  O   UNL d   1       1.916  -8.925  -0.078  0.00  0.00    -0.532 OA
ENDBRANCH  13  17
ENDBRANCH   8  11
ENDBRANCH   1   7
BRANCH   4  20
ATOM     20  C   UNL d   1      -2.256   1.839   0.335  0.00  0.00    -0.002 A 
ATOM     21  C   UNL d   1      -1.810   3.162   0.489  0.00  0.00     0.016 A 
ATOM     22  C   UNL d   1      -2.719   4.224   0.540  0.00  0.00     0.024 A 
ATOM     23  C   UNL d   1      -4.084   3.973   0.434  0.00  0.00     0.034 A 
ATOM     24  C   UNL d   1      -4.547   2.671   0.268  0.00  0.00     0.024 A 
ATOM     25 CL   UNL d   1      -5.205   5.275   0.508  0.00  0.00    -0.084 Cl
ATOM     26  C   UNL d   1      -3.637   1.611   0.220  0.00  0.00     0.016 A 
ENDBRANCH   4  20
TORSDOF 4
