REMARK  6 active torsions:
REMARK  status: ('A' for Active; 'I' for Inactive)
REMARK    1  A    between atoms: C_3  and  C_1 
REMARK    2  A    between atoms: S_15  and  C_6 
REMARK    3  A    between atoms: C_11  and  C_16 
REMARK    4  A    between atoms: C_23  and  S_15 
REMARK    5  A    between atoms: C_17  and  C_23 
REMARK       I    between atoms: N_18  and  C_17 
REMARK    6  A    between atoms: C_27  and  N_18 
ROOT
ATOM      1  S   UNL d   1       1.062  -2.480   1.250  0.00  0.00    -0.083 SA
ENDROOT
BRANCH   1   2
ATOM      2  C   UNL d   1       0.676  -0.835   0.855  0.00  0.00     0.163 A 
ATOM      3  N   UNL d   1      -0.250  -0.083   1.528  0.00  0.00    -0.314 N 
ATOM      4  C   UNL d   1      -0.367   1.083   0.807  0.00  0.00     0.151 A 
ATOM      5  C   UNL d   1      -0.942  -0.474   2.727  0.00  0.00     0.160 C 
ATOM      6  N   UNL d   1       0.517   1.063  -0.175  0.00  0.00    -0.281 N 
ATOM      7  N   UNL d   1       1.172  -0.143  -0.142  0.00  0.00    -0.278 N 
ATOM      8  HN  UNL d   1       0.683   1.816  -0.843  1.00  0.00     0.188 HD
ATOM      9  HN  UNL d   1       1.910  -0.446  -0.778  1.00  0.00     0.189 HD
BRANCH   4  10
ATOM     10  C   UNL d   1      -1.339   2.199   1.015  0.00  0.00     0.085 A 
ATOM     11  N   UNL d   1      -2.248   2.204   2.056  0.00  0.00    -0.351 N 
ATOM     12  C   UNL d   1      -3.025   3.261   1.974  0.00  0.00     0.047 A 
ATOM     13  HN  UNL d   1      -2.308   1.490   2.782  1.00  0.00     0.166 HD
ATOM     14  C   UNL d   1      -4.133   3.552   2.924  0.00  0.00     0.076 C 
ATOM     15  S   UNL d   1      -2.704   4.313   0.655  0.00  0.00    -0.087 SA
ATOM     16  C   UNL d   1      -1.428   3.279   0.160  0.00  0.00     0.084 A 
ENDBRANCH   4  10
ENDBRANCH   1   2
BRANCH   1  17
ATOM     17  C   UNL d   1       2.299  -2.815  -0.033  0.00  0.00     0.185 C 
BRANCH  17  18
ATOM     18  C   UNL d   1       2.780  -4.254  -0.121  0.00  0.00     0.231 C 
ATOM     19  N   UNL d   1       2.084  -5.203   0.606  0.00  0.00    -0.327 N 
ATOM     20  H   UNL d   1       1.226  -4.889   1.051  0.00  0.00     0.169 HD
ATOM     21  O   UNL d   1       3.737  -4.501  -0.861  0.00  0.00    -0.272 OA
BRANCH  19  22
ATOM     22  C   UNL d   1       2.448  -6.559   0.787  0.00  0.00     0.034 A 
ATOM     23  C   UNL d   1       3.674  -7.086   0.375  0.00  0.00     0.030 A 
ATOM     24  C   UNL d   1       4.011  -8.420   0.628  0.00  0.00     0.018 A 
ATOM     25  C   UNL d   1       3.125  -9.263   1.302  0.00  0.00     0.048 A 
ATOM     26  C   UNL d   1       1.884  -8.745   1.703  0.00  0.00     0.018 A 
ATOM     27  C   UNL d   1       1.551  -7.405   1.453  0.00  0.00     0.030 A 
BRANCH  25  28
ATOM     28  C   UNL d   1       3.505 -10.691   1.611  0.00  0.00     0.417 C 
ATOM     29  F   UNL d   1       4.753 -11.031   1.183  0.00  0.00    -0.166 F 
ATOM     30  F   UNL d   1       3.489 -10.955   2.948  0.00  0.00    -0.166 F 
ATOM     31  F   UNL d   1       2.658 -11.593   1.043  0.00  0.00    -0.166 F 
ENDBRANCH  25  28
ENDBRANCH  19  22
ENDBRANCH  17  18
ENDBRANCH   1  17
TORSDOF 6
