REMARK  7 active torsions:
REMARK  status: ('A' for Active; 'I' for Inactive)
REMARK    1  A    between atoms: C_12  and  N_1 
REMARK    2  A    between atoms: N_2  and  C_11 
REMARK    3  A    between atoms: C_11  and  N_13 
REMARK    4  A    between atoms: N_13  and  C_12 
REMARK    5  A    between atoms: C_18  and  N_13 
REMARK    6  A    between atoms: C_22  and  C_18 
REMARK    7  A    between atoms: C_20  and  C_22 
ROOT
ATOM      1  N   UNL d   1       3.829   1.339  -0.016  0.00  0.00     0.124 N 
ENDROOT
BRANCH   1   2
ATOM      2  C   UNL d   1       3.478   1.910   1.300  0.00  0.00     0.410 C 
BRANCH   2   3
ATOM      3  N   UNL d   1       4.008   1.139   2.397  0.00  0.00    -0.252 N 
ATOM      4  C   UNL d   1       3.341   0.127   3.029  0.00  0.00     0.263 C 
ATOM      5  C   UNL d   1       4.298  -0.471   3.957  0.00  0.00     0.048 A 
ATOM      6  O   UNL d   1       2.189  -0.237   2.912  0.00  0.00    -0.267 OA
ATOM      7  C   UNL d   1       4.222  -1.637   4.689  0.00  0.00     0.018 A 
ATOM      8  C   UNL d   1       5.432   0.318   3.950  0.00  0.00     0.048 A 
ATOM      9  C   UNL d   1       5.354  -1.995   5.430  0.00  0.00     0.001 A 
ATOM     10  C   UNL d   1       6.508  -1.182   5.431  0.00  0.00     0.001 A 
ATOM     11  C   UNL d   1       6.554  -0.001   4.686  0.00  0.00     0.018 A 
ATOM     12  C   UNL d   1       5.210   1.398   2.994  0.00  0.00     0.263 C 
ATOM     13  O   UNL d   1       5.993   2.308   2.800  0.00  0.00    -0.267 OA
ENDBRANCH   2   3
ENDBRANCH   1   2
BRANCH   1  14
ATOM     14  C   UNL d   1       3.228   0.037  -0.326  0.00  0.00     0.410 C 
BRANCH  14  15
ATOM     15  N   UNL d   1       1.819  -0.061  -0.052  0.00  0.00    -0.252 N 
ATOM     16  C   UNL d   1       0.859   0.866  -0.340  0.00  0.00     0.263 C 
ATOM     17  C   UNL d   1      -0.400   0.313   0.154  0.00  0.00     0.048 A 
ATOM     18  O   UNL d   1       0.939   1.948  -0.889  0.00  0.00    -0.267 OA
ATOM     19  C   UNL d   1      -1.631   0.913   0.324  0.00  0.00     0.018 A 
ATOM     20  C   UNL d   1      -0.163  -0.994   0.532  0.00  0.00     0.048 A 
ATOM     21  C   UNL d   1      -2.638   0.141   0.910  0.00  0.00     0.001 A 
ATOM     22  C   UNL d   1      -2.400  -1.201   1.277  0.00  0.00     0.001 A 
ATOM     23  C   UNL d   1      -1.147  -1.790   1.079  0.00  0.00     0.018 A 
ATOM     24  C   UNL d   1       1.256  -1.260   0.306  0.00  0.00     0.263 C 
ATOM     25  O   UNL d   1       1.771  -2.358   0.388  0.00  0.00    -0.267 OA
ENDBRANCH  14  15
ENDBRANCH   1  14
BRANCH   1  26
ATOM     26  C   UNL d   1       5.291   1.344  -0.241  0.00  0.00     0.281 C 
BRANCH  26  27
ATOM     27  C   UNL d   1       5.743   0.909  -1.648  0.00  0.00     0.069 C 
BRANCH  27  28
ATOM     28  C   UNL d   1       7.247   0.838  -1.793  0.00  0.00    -0.056 A 
ATOM     29  C   UNL d   1       7.873  -0.399  -2.017  0.00  0.00     0.009 A 
ATOM     30  C   UNL d   1       9.256  -0.473  -2.200  0.00  0.00     0.024 A 
ATOM     31  C   UNL d   1      10.020   0.690  -2.156  0.00  0.00     0.034 A 
ATOM     32  C   UNL d   1       9.416   1.922  -1.919  0.00  0.00     0.024 A 
ATOM     33 CL   UNL d   1      11.721   0.603  -2.404  0.00  0.00    -0.084 Cl
ATOM     34  C   UNL d   1       8.032   1.997  -1.739  0.00  0.00     0.009 A 
ENDBRANCH  27  28
ENDBRANCH  26  27
ENDBRANCH   1  26
TORSDOF 7
