REMARK  1 active torsions:
REMARK  status: ('A' for Active; 'I' for Inactive)
REMARK    1  A    between atoms: C_2  and  C_1 
REMARK       I    between atoms: N_8  and  C_2 
ROOT
ATOM      1  C   UNL d   1      -0.120   1.028  -0.091  0.00  0.00     0.087 C 
ATOM      2  N   UNL d   1      -0.406  -1.242  -0.036  0.00  0.00    -0.265 N 
ATOM      3  HN  UNL d   1      -0.796  -2.174  -0.169  1.00  0.00     0.194 HD
ATOM      4  C   UNL d   1       0.858   0.445   0.696  0.00  0.00     0.090 C 
ATOM      5  O   UNL d   1       0.662  -0.895   0.758  0.00  0.00    -0.242 OA
ATOM      6  C   UNL d   1      -0.830  -0.100  -0.599  0.00  0.00     0.047 C 
ATOM      7  C   UNL d   1       2.042   0.943   1.426  0.00  0.00     0.080 C 
ATOM      8  C   UNL d   1      -1.872  -0.192  -1.645  0.00  0.00     0.071 C 
ENDROOT
BRANCH   1   9
ATOM      9  C   UNL d   1      -0.174   2.453  -0.376  0.00  0.00     0.258 C 
ATOM     10  N   UNL d   1      -1.372   3.160  -0.241  0.00  0.00    -0.346 N 
ATOM     11  C   UNL d   1      -1.353   4.617  -0.440  0.00  0.00     0.136 C 
ATOM     12  C   UNL d   1      -2.707   2.615   0.015  0.00  0.00     0.136 C 
ATOM     13  C   UNL d   1      -2.098   5.038  -1.706  0.00  0.00     0.093 C 
ATOM     14  S   UNL d   1      -3.855   4.527  -1.665  0.00  0.00    -0.166 SA
ATOM     15  C   UNL d   1      -3.611   2.773  -1.214  0.00  0.00     0.093 C 
ATOM     16  O   UNL d   1       0.869   3.040  -0.667  0.00  0.00    -0.267 OA
ENDBRANCH   1   9
TORSDOF 1
