REMARK  5 active torsions:
REMARK  status: ('A' for Active; 'I' for Inactive)
REMARK    1  A    between atoms: C_3  and  C_1 
REMARK    2  A    between atoms: C_9  and  C_1 
REMARK    3  A    between atoms: C_4  and  C_2 
REMARK    4  A    between atoms: C_12  and  C_3 
REMARK    5  A    between atoms: C_5  and  C_4 
ROOT
ATOM      1  C   UNL d   1       0.905   0.120  -0.226  0.00  0.00     0.029 C 
ATOM      2  C   UNL d   1       0.193  -1.002   0.004  0.00  0.00     0.072 C 
ENDROOT
BRANCH   1   3
ATOM      3  C   UNL d   1       2.344   0.177  -0.701  0.00  0.00     0.193 C 
ATOM      4  O   UNL d   1       3.173  -0.669  -0.405  0.00  0.00    -0.287 OA
BRANCH   3   5
ATOM      5  C   UNL d   1       2.796   1.430  -1.397  0.00  0.00     0.015 A 
ATOM      6  C   UNL d   1       3.996   2.032  -0.991  0.00  0.00     0.015 A 
ATOM      7  C   UNL d   1       4.349   3.294  -1.480  0.00  0.00     0.001 A 
ATOM      8  C   UNL d   1       3.513   3.956  -2.378  0.00  0.00     0.000 A 
ATOM      9  C   UNL d   1       2.345   3.339  -2.825  0.00  0.00     0.001 A 
ATOM     10  C   UNL d   1       2.000   2.069  -2.357  0.00  0.00     0.015 A 
ENDBRANCH   3   5
ENDBRANCH   1   3
BRANCH   1  11
ATOM     11  C   UNL d   1       0.130   1.381  -0.017  0.00  0.00    -0.022 A 
ATOM     12  C   UNL d   1       0.670   2.462   0.693  0.00  0.00     0.012 A 
ATOM     13  C   UNL d   1       0.005   3.690   0.715  0.00  0.00     0.001 A 
ATOM     14  C   UNL d   1      -1.224   3.838   0.071  0.00  0.00     0.000 A 
ATOM     15  C   UNL d   1      -1.797   2.759  -0.594  0.00  0.00     0.001 A 
ATOM     16  C   UNL d   1      -1.120   1.544  -0.649  0.00  0.00     0.012 A 
ENDBRANCH   1  11
BRANCH   2  17
ATOM     17  C   UNL d   1       0.430  -2.449  -0.268  0.00  0.00     0.183 C 
ATOM     18  O   UNL d   1       1.483  -2.985  -0.559  0.00  0.00    -0.288 OA
BRANCH  17  19
ATOM     19  C   UNL d   1      -0.850  -3.217  -0.253  0.00  0.00     0.017 A 
ATOM     20  C   UNL d   1      -1.651  -3.189  -1.403  0.00  0.00     0.055 A 
ATOM     21  C   UNL d   1      -2.969  -3.634  -1.331  0.00  0.00     0.103 A 
ATOM     22  O   UNL d   1      -3.727  -3.494  -2.465  0.00  0.00    -0.346 OA
ATOM     23  C   UNL d   1      -3.472  -4.154  -0.133  0.00  0.00     0.102 A 
ATOM     24  C   UNL d   1      -5.127  -3.550  -2.164  0.00  0.00     0.202 C 
ATOM     25  C   UNL d   1      -5.435  -4.722  -1.247  0.00  0.00     0.202 C 
ATOM     26  O   UNL d   1      -4.768  -4.582   0.014  0.00  0.00    -0.346 OA
ATOM     27  C   UNL d   1      -2.661  -4.212   1.001  0.00  0.00     0.040 A 
ATOM     28  C   UNL d   1      -1.345  -3.738   0.947  0.00  0.00     0.018 A 
ENDBRANCH  17  19
ENDBRANCH   2  17
TORSDOF 5
