REMARK  7 active torsions:
REMARK  status: ('A' for Active; 'I' for Inactive)
REMARK    1  A    between atoms: O_15  and  C_3 
REMARK    2  A    between atoms: C_11  and  C_4 
REMARK    3  A    between atoms: S_12  and  C_5 
REMARK    4  A    between atoms: C_8  and  C_10 
REMARK    5  A    between atoms: C_10  and  S_12 
REMARK    6  A    between atoms: C_18  and  C_11 
REMARK    7  A    between atoms: C_23  and  C_18 
ROOT
ATOM      1  N   UNL d   1      -0.563   1.315  -0.058  0.00  0.00    -0.317 N 
ATOM      2  HN  UNL d   1      -1.023   2.225  -0.053  1.00  0.00     0.170 HD
ATOM      3  C   UNL d   1      -1.250   0.159  -0.039  0.00  0.00     0.150 A 
ATOM      4  C   UNL d   1      -0.721  -1.120  -0.070  0.00  0.00     0.015 A 
ATOM      5  C   UNL d   1       0.767   1.180  -0.083  0.00  0.00     0.146 A 
ATOM      6  N   UNL d   1       1.406   0.002  -0.081  0.00  0.00    -0.340 N 
ATOM      7  HN  UNL d   1       2.425  -0.039  -0.092  1.00  0.00     0.167 HD
ATOM      8  C   UNL d   1       0.668  -1.129  -0.065  0.00  0.00     0.018 A 
ATOM      9  C   UNL d   1       1.467  -2.400  -0.022  0.00  0.00     0.069 C 
ENDROOT
BRANCH   5  10
ATOM     10  S   UNL d   1       1.834   2.600  -0.091  0.00  0.00    -0.089 SA
BRANCH  10  11
ATOM     11  C   UNL d   1       0.647   3.978  -0.069  0.00  0.00     0.124 C 
BRANCH  11  12
ATOM     12  C   UNL d   1       1.373   5.305   0.050  0.00  0.00    -0.005 A 
ATOM     13  C   UNL d   1       1.800   6.021  -1.087  0.00  0.00     0.042 A 
ATOM     14 CL   UNL d   1       1.500   5.455  -2.695  0.00  0.00    -0.084 Cl
ATOM     15  C   UNL d   1       2.500   7.230  -0.969  0.00  0.00     0.024 A 
ATOM     16  C   UNL d   1       2.799   7.752   0.286  0.00  0.00     0.003 A 
ATOM     17  C   UNL d   1       2.401   7.061   1.424  0.00  0.00     0.024 A 
ATOM     18  C   UNL d   1       1.700   5.851   1.310  0.00  0.00     0.042 A 
ATOM     19 CL   UNL d   1       1.270   5.066   2.793  0.00  0.00    -0.084 Cl
ENDBRANCH  11  12
ENDBRANCH  10  11
ENDBRANCH   5  10
BRANCH   3  20
ATOM     20  O   UNL d   1      -2.591   0.358   0.037  0.00  0.00    -0.346 OA
ATOM     21  H   UNL d   1      -2.634   1.330   0.025  0.00  0.00     0.219 HD
ENDBRANCH   3  20
BRANCH   4  22
ATOM     22  C   UNL d   1      -1.520  -2.398  -0.003  0.00  0.00     0.045 C 
BRANCH  22  23
ATOM     23  C   UNL d   1      -2.892  -2.478  -0.692  0.00  0.00     0.009 C 
BRANCH  23  24
ATOM     24  C   UNL d   1      -2.906  -2.150  -2.197  0.00  0.00    -0.023 C 
ATOM     25  C   UNL d   1      -2.037  -3.107  -3.015  0.00  0.00     0.009 C 
ATOM     26  C   UNL d   1      -4.346  -2.187  -2.715  0.00  0.00     0.009 C 
ENDBRANCH  23  24
ENDBRANCH  22  23
ENDBRANCH   4  22
TORSDOF 7
