REMARK  3 active torsions:
REMARK  status: ('A' for Active; 'I' for Inactive)
REMARK    1  A    between atoms: O_5  and  C_4 
REMARK    2  A    between atoms: C_10  and  O_5 
REMARK    3  A    between atoms: C_12  and  C_10 
ROOT
ATOM      1  N   UNL d   1       3.079   0.987  -2.774  0.00  0.00    -0.191 NA
ATOM      2  C   UNL d   1       2.170   0.443  -2.306  0.00  0.00     0.099 C 
ATOM      3  C   UNL d   1       0.140  -2.170  -0.556  0.00  0.00     0.068 A 
ATOM      4  C   UNL d   1      -1.146  -1.608  -0.601  0.00  0.00     0.090 A 
ATOM      5  C   UNL d   1       1.224  -1.492  -1.135  0.00  0.00     0.049 A 
ATOM      6  C   UNL d   1       1.050  -0.240  -1.727  0.00  0.00     0.046 A 
ATOM      7  C   UNL d   1      -1.301  -0.336  -1.174  0.00  0.00     0.040 A 
ATOM      8 CL   UNL d   1       0.543  -3.648   0.245  0.00  0.00    -0.081 Cl
ATOM      9  C   UNL d   1      -0.216   0.345  -1.734  0.00  0.00     0.025 A 
ENDROOT
BRANCH   4  10
ATOM     10  O   UNL d   1      -2.324  -2.116  -0.113  0.00  0.00    -0.345 OA
BRANCH  10  11
ATOM     11  C   UNL d   1      -2.477  -3.534  -0.126  0.00  0.00     0.214 C 
BRANCH  11  12
ATOM     12  C   UNL d   1      -3.941  -3.911  -0.188  0.00  0.00    -0.034 A 
ATOM     13  C   UNL d   1      -4.425  -4.687  -1.252  0.00  0.00     0.011 A 
ATOM     14  C   UNL d   1      -5.753  -5.118  -1.270  0.00  0.00     0.024 A 
ATOM     15  C   UNL d   1      -6.606  -4.772  -0.224  0.00  0.00     0.034 A 
ATOM     16  C   UNL d   1      -6.146  -3.990   0.832  0.00  0.00     0.024 A 
ATOM     17 CL   UNL d   1      -8.235  -5.327  -0.234  0.00  0.00    -0.084 Cl
ATOM     18  C   UNL d   1      -4.816  -3.557   0.850  0.00  0.00     0.011 A 
ENDBRANCH  11  12
ENDBRANCH  10  11
ENDBRANCH   4  10
TORSDOF 3
