REMARK  5 active torsions:
REMARK  status: ('A' for Active; 'I' for Inactive)
REMARK    1  A    between atoms: C_6  and  S_1 
REMARK    2  A    between atoms: C_8  and  S_1 
REMARK    3  A    between atoms: C_7  and  C_4 
REMARK    4  A    between atoms: C_5  and  C_8 
REMARK    5  A    between atoms: O_24  and  C_21 
ROOT
ATOM      1  N   UNL d   1       0.940   0.332  -3.101  0.00  0.00    -0.322 N 
ATOM      2  HN  UNL d   1       0.675   1.215  -2.664  1.00  0.00     0.169 HD
ATOM      3  C   UNL d   1       1.375   0.116  -4.325  0.00  0.00     0.183 A 
ATOM      4  C   UNL d   1       0.934  -0.929  -2.563  0.00  0.00     0.118 A 
ATOM      5  N   UNL d   1       1.323  -1.898  -3.400  0.00  0.00    -0.246 N 
ATOM      6  HN  UNL d   1       1.366  -2.903  -3.231  1.00  0.00     0.196 HD
ATOM      7  O   UNL d   1       1.654  -1.200  -4.561  0.00  0.00    -0.217 OA
ENDROOT
BRANCH   3   8
ATOM      8  C   UNL d   1       1.726   1.075  -5.363  0.00  0.00     0.037 A 
ATOM      9  C   UNL d   1       1.619   0.823  -6.741  0.00  0.00     0.025 A 
ATOM     10  C   UNL d   1       2.054   1.777  -7.666  0.00  0.00     0.023 A 
ATOM     11 BR   UNL d   1       0.845  -0.756  -7.470  0.00  0.00    -0.050 Br
ATOM     12  C   UNL d   1       2.585   2.989  -7.226  0.00  0.00     0.038 A 
ATOM     13  C   UNL d   1       2.669   3.277  -5.865  0.00  0.00     0.069 A 
ATOM     14  C   UNL d   1       2.229   2.327  -4.943  0.00  0.00     0.054 A 
BRANCH  13  15
ATOM     15  O   UNL d   1       3.202   4.500  -5.575  0.00  0.00    -0.356 OA
ATOM     16  C   UNL d   1       3.357   4.835  -4.201  0.00  0.00     0.210 C 
ENDBRANCH  13  15
ENDBRANCH   3   8
BRANCH   4  17
ATOM     17  C   UNL d   1       0.458  -1.196  -1.198  0.00  0.00     0.224 C 
BRANCH  17  18
ATOM     18  S   UNL d   1       1.743  -1.050   0.011  0.00  0.00     0.182 S 
ATOM     19  O   UNL d   1       1.133  -1.074   1.330  0.00  0.00    -0.222 OA
ATOM     20  O   UNL d   1       2.859  -1.910  -0.309  0.00  0.00    -0.222 OA
BRANCH  18  21
ATOM     21  C   UNL d   1       2.376   0.564  -0.114  0.00  0.00     0.066 A 
ATOM     22  C   UNL d   1       1.882   1.688   0.617  0.00  0.00     0.031 A 
ATOM     23  C   UNL d   1       2.565   2.844   0.309  0.00  0.00     0.051 A 
ATOM     24  S   UNL d   1       3.824   2.568  -0.817  0.00  0.00    -0.112 SA
ATOM     25  C   UNL d   1       3.451   0.901  -0.913  0.00  0.00     0.072 A 
ENDBRANCH  18  21
ENDBRANCH  17  18
ENDBRANCH   4  17
TORSDOF 5
