REMARK  6 active torsions:
REMARK  status: ('A' for Active; 'I' for Inactive)
REMARK    1  A    between atoms: C_2  and  C_1 
REMARK    2  A    between atoms: C_5  and  C_1 
REMARK    3  A    between atoms: C_6  and  C_1 
REMARK    4  A    between atoms: O_8  and  C_2 
REMARK    5  A    between atoms: C_9  and  C_5 
REMARK    6  A    between atoms: C_10  and  C_6 
ROOT
ATOM      1  C   UNL d   1       0.920   0.049  -0.066  0.00  0.00     0.144 C 
ATOM      2  C   UNL d   1       0.452  -1.350  -0.147  0.00  0.00     0.080 C 
ATOM      3  N   UNL d   1       0.113  -2.462  -0.180  0.00  0.00    -0.196 NA
ENDROOT
BRANCH   1   4
ATOM      4  C   UNL d   1       0.567   0.770  -1.363  0.00  0.00     0.282 C 
ATOM      5  O   UNL d   1       0.069   1.887  -1.439  0.00  0.00    -0.263 OA
BRANCH   4   6
ATOM      6  O   UNL d   1       0.997   0.073  -2.459  0.00  0.00    -0.325 OA
ATOM      7  C   UNL d   1       0.853   0.784  -3.691  0.00  0.00     0.213 C 
ENDBRANCH   4   6
ENDBRANCH   1   4
BRANCH   1   8
ATOM      8  C   UNL d   1       0.293   0.743   1.176  0.00  0.00     0.074 C 
BRANCH   8   9
ATOM      9  C   UNL d   1      -1.220   0.811   1.260  0.00  0.00    -0.056 A 
ATOM     10  C   UNL d   1      -1.964  -0.242   1.807  0.00  0.00     0.007 A 
ATOM     11  C   UNL d   1      -3.358  -0.163   1.878  0.00  0.00     0.001 A 
ATOM     12  C   UNL d   1      -4.022   0.968   1.407  0.00  0.00     0.000 A 
ATOM     13  C   UNL d   1      -3.294   2.027   0.874  0.00  0.00     0.001 A 
ATOM     14  C   UNL d   1      -1.902   1.952   0.811  0.00  0.00     0.007 A 
ENDBRANCH   8   9
ENDBRANCH   1   8
BRANCH   1  15
ATOM     15  C   UNL d   1       2.479   0.022   0.063  0.00  0.00     0.074 C 
BRANCH  15  16
ATOM     16  C   UNL d   1       3.154   1.380   0.058  0.00  0.00    -0.056 A 
ATOM     17  C   UNL d   1       3.436   2.048   1.257  0.00  0.00     0.007 A 
ATOM     18  C   UNL d   1       3.944   3.349   1.240  0.00  0.00     0.001 A 
ATOM     19  C   UNL d   1       4.179   3.995   0.029  0.00  0.00     0.000 A 
ATOM     20  C   UNL d   1       3.945   3.327  -1.169  0.00  0.00     0.001 A 
ATOM     21  C   UNL d   1       3.456   2.021  -1.154  0.00  0.00     0.007 A 
ENDBRANCH  15  16
ENDBRANCH   1  15
TORSDOF 6
