REMARK  3 active torsions:
REMARK  status: ('A' for Active; 'I' for Inactive)
REMARK    1  A    between atoms: C_3  and  C_1 
REMARK    2  A    between atoms: O_11  and  C_1 
REMARK    3  A    between atoms: C_2  and  C_4 
ROOT
ATOM      1  C   UNL d   1       0.298  -0.081   1.164  0.00  0.00     0.039 A 
ATOM      2  C   UNL d   1      -1.201  -0.124   3.590  0.00  0.00    -0.023 A 
ATOM      3  C   UNL d   1       0.643   0.755   2.230  0.00  0.00     0.018 A 
ATOM      4  C   UNL d   1      -0.806  -0.929   1.305  0.00  0.00     0.018 A 
ATOM      5  C   UNL d   1      -0.090   0.727   3.425  0.00  0.00     0.013 A 
ATOM      6  C   UNL d   1      -1.542  -0.937   2.495  0.00  0.00     0.013 A 
ENDROOT
BRANCH   2   7
ATOM      7  C   UNL d   1      -1.977  -0.160   4.858  0.00  0.00     0.013 A 
ATOM      8  C   UNL d   1      -2.577  -1.339   5.342  0.00  0.00     0.127 A 
ATOM      9  F   UNL d   1      -2.442  -2.498   4.677  0.00  0.00    -0.205 F 
ATOM     10  C   UNL d   1      -3.321  -1.369   6.523  0.00  0.00     0.043 A 
ATOM     11  C   UNL d   1      -3.474  -0.211   7.276  0.00  0.00     0.003 A 
ATOM     12  C   UNL d   1      -2.885   0.971   6.840  0.00  0.00     0.001 A 
ATOM     13  C   UNL d   1      -2.152   0.997   5.644  0.00  0.00     0.015 A 
ENDBRANCH   2   7
BRANCH   1  14
ATOM     14  C   UNL d   1       1.117  -0.032  -0.077  0.00  0.00     0.292 C 
ATOM     15  O   UNL d   1       2.030   0.761  -0.252  0.00  0.00    -0.259 OA
BRANCH  14  16
ATOM     16  O   UNL d   1       0.711  -0.991  -0.947  0.00  0.00    -0.323 OA
ATOM     17  C   UNL d   1       1.436  -1.053  -2.179  0.00  0.00     0.213 C 
ENDBRANCH  14  16
ENDBRANCH   1  14
TORSDOF 3
