REMARK  3 active torsions:
REMARK  status: ('A' for Active; 'I' for Inactive)
REMARK    1  A    between atoms: O_12  and  C_3 
REMARK    2  A    between atoms: O_13  and  C_4 
REMARK    3  A    between atoms: O_14  and  C_8 
ROOT
ATOM      1  O   UNL d   1       2.539   0.144  -0.192  0.00  0.00    -0.331 OA
ATOM      2  C   UNL d   1       0.510   1.218   0.188  0.00  0.00     0.057 C 
ATOM      3  C   UNL d   1       1.829   1.367  -0.523  0.00  0.00     0.267 C 
ATOM      4  C   UNL d   1       1.607  -0.837   0.340  0.00  0.00     0.267 C 
ATOM      5  C   UNL d   1       0.246  -0.259   0.076  0.00  0.00     0.054 C 
ATOM      6  C   UNL d   1      -0.849   1.931   0.010  0.00  0.00     0.024 C 
ATOM      7  C   UNL d   1      -1.032  -0.546   0.891  0.00  0.00    -0.003 C 
ATOM      8  C   UNL d   1      -1.903   1.098  -0.801  0.00  0.00     0.123 C 
ATOM      9  C   UNL d   1      -2.182  -0.269  -0.101  0.00  0.00     0.037 C 
ATOM     10  C   UNL d   1      -1.405   1.933   1.468  0.00  0.00     0.008 C 
ATOM     11  C   UNL d   1      -1.266   0.488   2.045  0.00  0.00     0.006 C 
ENDROOT
BRANCH   3  12
ATOM     12  O   UNL d   1       1.753   1.568  -1.919  0.00  0.00    -0.366 OA
ATOM     13  C   UNL d   1       3.062   1.861  -2.424  0.00  0.00     0.204 C 
ENDBRANCH   3  12
BRANCH   4  14
ATOM     14  O   UNL d   1       1.682  -2.078  -0.363  0.00  0.00    -0.366 OA
ATOM     15  C   UNL d   1       2.996  -2.597  -0.467  0.00  0.00     0.204 C 
ENDBRANCH   4  14
BRANCH   8  16
ATOM     16  O   UNL d   1      -3.128   1.828  -0.903  0.00  0.00    -0.395 OA
ATOM     17  H   UNL d   1      -3.830   1.206  -1.149  0.00  0.00     0.210 HD
ENDBRANCH   8  16
TORSDOF 3
