REMARK  2 active torsions:
REMARK  status: ('A' for Active; 'I' for Inactive)
REMARK    1  A    between atoms: C_12  and  C_3 
REMARK    2  A    between atoms: O_13  and  C_12 
ROOT
ATOM      1  C   UNL d   1      -0.211   0.601  -0.003  0.00  0.00     0.179 A 
ATOM      2  C   UNL d   1      -0.248  -0.772  -0.000  0.00  0.00     0.049 A 
ATOM      3  C   UNL d   1       1.015  -1.426  -0.021  0.00  0.00    -0.012 A 
ATOM      4  O   UNL d   1       0.824   1.424  -0.018  0.00  0.00    -0.256 OA
ATOM      5  N   UNL d   1      -1.502   1.020   0.012  0.00  0.00    -0.279 N 
ATOM      6  N   UNL d   1      -2.385   0.004   0.041  0.00  0.00    -0.302 N 
ATOM      7  HN  UNL d   1      -3.403   0.062   0.070  1.00  0.00     0.186 HD
ATOM      8  C   UNL d   1       2.050   0.824  -0.026  0.00  0.00     0.290 A 
ATOM      9  C   UNL d   1       2.125  -0.663  -0.029  0.00  0.00     0.093 A 
ATOM     10  C   UNL d   1      -1.622  -1.105   0.023  0.00  0.00     0.037 A 
ATOM     11  O   UNL d   1       3.090   1.478  -0.022  0.00  0.00    -0.260 OA
ATOM     12  C   UNL d   1      -2.316  -2.417   0.034  0.00  0.00     0.070 C 
ATOM     13  H   UNL d   1      -1.852   1.971   0.006  0.00  0.00     0.189 HD
ENDROOT
BRANCH   3  14
ATOM     14  C   UNL d   1       1.066  -2.924   0.006  0.00  0.00     0.206 C 
BRANCH  14  15
ATOM     15  O   UNL d   1       0.495  -3.442  -1.193  0.00  0.00    -0.391 OA
ATOM     16  C   UNL d   1       0.433  -4.863  -1.177  0.00  0.00     0.201 C 
ENDBRANCH  14  15
ENDBRANCH   3  14
TORSDOF 2
