REMARK  1 active torsions:
REMARK  status: ('A' for Active; 'I' for Inactive)
REMARK    1  A    between atoms: C_2  and  N_1 
ROOT
ATOM      1  N   UNL d   1       0.570   1.178  -0.478  0.00  0.00    -0.248 N 
ATOM      2  C   UNL d   1       1.417   0.089  -0.207  0.00  0.00     0.240 C 
ATOM      3  C   UNL d   1      -0.723   1.280   0.049  0.00  0.00     0.240 C 
ATOM      4  S   UNL d   1      -0.735  -1.373   0.731  0.00  0.00    -0.150 SA
ATOM      5  O   UNL d   1       2.626   0.209  -0.005  0.00  0.00    -0.272 OA
ATOM      6  O   UNL d   1      -1.245   2.307   0.481  0.00  0.00    -0.272 OA
ATOM      7  C   UNL d   1      -1.550   0.015  -0.065  0.00  0.00     0.178 C 
ATOM      8  C   UNL d   1       0.790  -1.289  -0.217  0.00  0.00     0.178 C 
ENDROOT
BRANCH   1   9
ATOM      9  C   UNL d   1       1.194   2.327  -1.067  0.00  0.00     0.084 A 
ATOM     10  C   UNL d   1       1.938   2.131  -2.248  0.00  0.00     0.146 A 
ATOM     11  C   UNL d   1       2.455   3.196  -2.975  0.00  0.00     0.086 A 
ATOM     12  F   UNL d   1       2.061   0.896  -2.763  0.00  0.00    -0.204 F 
ATOM     13  C   UNL d   1       2.246   4.483  -2.509  0.00  0.00     0.119 A 
ATOM     14  C   UNL d   1       1.539   4.714  -1.334  0.00  0.00     0.045 A 
ATOM     15  F   UNL d   1       2.710   5.522  -3.215  0.00  0.00    -0.206 F 
ATOM     16  C   UNL d   1       1.006   3.640  -0.615  0.00  0.00     0.036 A 
ENDBRANCH   1   9
TORSDOF 1
