REMARK  5 active torsions:
REMARK  status: ('A' for Active; 'I' for Inactive)
REMARK    1  A    between atoms: C_3  and  C_1 
REMARK    2  A    between atoms: N_2  and  C_7 
REMARK    3  A    between atoms: C_6  and  C_3 
REMARK    4  A    between atoms: S_13  and  C_4 
REMARK    5  A    between atoms: S_14  and  C_4 
ROOT
ATOM      1  C   UNL d   1       1.177   0.008   0.101  0.00  0.00     0.118 C 
ATOM      2  C   UNL d   1       2.511   0.131   0.349  0.00  0.00     0.061 C 
ATOM      3  C   UNL d   1       0.423  -0.998   0.778  0.00  0.00     0.105 C 
ATOM      4  N   UNL d   1      -0.211  -1.803   1.320  0.00  0.00    -0.191 NA
ENDROOT
BRANCH   1   5
ATOM      5  C   UNL d   1       0.446   0.886  -0.887  0.00  0.00     0.204 C 
ATOM      6  O   UNL d   1       1.011   1.379  -1.863  0.00  0.00    -0.286 OA
BRANCH   5   7
ATOM      7  C   UNL d   1      -1.008   1.204  -0.776  0.00  0.00     0.018 A 
ATOM      8  C   UNL d   1      -2.014   0.246  -0.604  0.00  0.00     0.051 A 
ATOM      9  C   UNL d   1      -3.364   0.640  -0.622  0.00  0.00     0.103 A 
ATOM     10  C   UNL d   1      -3.723   1.973  -0.859  0.00  0.00     0.036 A 
ATOM     11  C   UNL d   1      -2.725   2.920  -1.071  0.00  0.00     0.003 A 
ATOM     12  C   UNL d   1      -1.380   2.538  -1.027  0.00  0.00     0.015 A 
BRANCH   9  13
ATOM     13  N   UNL d   1      -4.418  -0.364  -0.419  0.00  0.00    -0.116 N 
ATOM     14  O   UNL d   1      -4.067  -1.539  -0.246  0.00  0.00    -0.532 OA
ATOM     15  O   UNL d   1      -5.595   0.024  -0.435  0.00  0.00    -0.532 OA
ENDBRANCH   9  13
ENDBRANCH   5   7
ENDBRANCH   1   5
BRANCH   2  16
ATOM     16  S   UNL d   1       3.314  -0.962   1.493  0.00  0.00    -0.126 SA
ATOM     17  C   UNL d   1       4.810  -1.452   0.604  0.00  0.00     0.096 C 
ENDBRANCH   2  16
BRANCH   2  18
ATOM     18  S   UNL d   1       3.470   1.504  -0.186  0.00  0.00    -0.126 SA
ATOM     19  C   UNL d   1       4.021   0.947  -1.817  0.00  0.00     0.096 C 
ENDBRANCH   2  18
TORSDOF 5
