REMARK  4 active torsions:
REMARK  status: ('A' for Active; 'I' for Inactive)
REMARK    1  A    between atoms: C_7  and  C_2 
REMARK    2  A    between atoms: C_14  and  N_3 
REMARK    3  A    between atoms: S_16  and  C_4 
REMARK    4  A    between atoms: C_15  and  C_9 
ROOT
ATOM      1  C   UNL d   1       0.180  -0.162  -1.261  0.00  0.00     0.109 C 
ATOM      2  C   UNL d   1       0.916  -0.508  -0.112  0.00  0.00     0.085 C 
ATOM      3  N   UNL d   1      -0.932   0.322   0.601  0.00  0.00    -0.248 N 
ATOM      4  C   UNL d   1      -1.001   0.383  -0.792  0.00  0.00     0.116 C 
ATOM      5  N   UNL d   1       0.297  -0.112   1.001  0.00  0.00    -0.290 N 
ATOM      6  HN  UNL d   1       0.666  -0.130   1.951  1.00  0.00     0.187 HD
ATOM      7  C   UNL d   1       0.563  -0.302  -2.626  0.00  0.00     0.104 C 
ATOM      8  N   UNL d   1       0.888  -0.403  -3.735  0.00  0.00    -0.191 NA
ENDROOT
BRANCH   2   9
ATOM      9  C   UNL d   1       2.208  -1.198  -0.074  0.00  0.00     0.025 A 
ATOM     10  C   UNL d   1       2.675  -2.124  -1.043  0.00  0.00     0.050 A 
ATOM     11  C   UNL d   1       3.922  -2.549  -0.630  0.00  0.00     0.061 A 
ATOM     12  O   UNL d   1       4.232  -1.951   0.558  0.00  0.00    -0.318 OA
ATOM     13  C   UNL d   1       3.186  -1.143   0.901  0.00  0.00     0.062 A 
ATOM     14  C   UNL d   1       3.340  -0.420   2.181  0.00  0.00     0.077 C 
BRANCH  11  15
ATOM     15  C   UNL d   1       4.947  -3.495  -1.206  0.00  0.00    -0.002 C 
ATOM     16  C   UNL d   1       4.459  -4.076  -2.548  0.00  0.00     0.021 C 
ATOM     17  C   UNL d   1       6.267  -2.745  -1.453  0.00  0.00     0.021 C 
ATOM     18  C   UNL d   1       5.194  -4.661  -0.233  0.00  0.00     0.021 C 
ENDBRANCH  11  15
ENDBRANCH   2   9
BRANCH   4  19
ATOM     19  S   UNL d   1      -2.337   1.067  -1.688  0.00  0.00    -0.113 SA
ATOM     20  C   UNL d   1      -1.571   2.468  -2.532  0.00  0.00     0.097 C 
ENDBRANCH   4  19
BRANCH   3  21
ATOM     21  C   UNL d   1      -1.891   0.623   1.617  0.00  0.00     0.057 A 
ATOM     22  C   UNL d   1      -3.270   0.546   1.397  0.00  0.00     0.033 A 
ATOM     23  C   UNL d   1      -4.169   0.839   2.431  0.00  0.00     0.020 A 
ATOM     24  C   UNL d   1      -3.694   1.207   3.689  0.00  0.00     0.006 A 
ATOM     25  C   UNL d   1      -2.324   1.265   3.930  0.00  0.00     0.020 A 
ATOM     26  I   UNL d   1      -5.034   1.650   5.212  0.00  0.00    -0.045 I 
ATOM     27  C   UNL d   1      -1.426   0.961   2.902  0.00  0.00     0.033 A 
ENDBRANCH   3  21
TORSDOF 4
