REMARK  6 active torsions:
REMARK  status: ('A' for Active; 'I' for Inactive)
REMARK    1  A    between atoms: C_11  and  N_9 
REMARK    2  A    between atoms: C_17  and  C_11 
REMARK    3  A    between atoms: N_14  and  C_19 
REMARK    4  A    between atoms: C_18  and  N_14 
REMARK    5  A    between atoms: C_19  and  C_17 
REMARK    6  A    between atoms: O_26  and  C_17 
ROOT
ATOM      1  C   UNL d   1       0.045  -0.551   0.497  0.00  0.00     0.145 C 
ATOM      2  C   UNL d   1       0.179   0.803   0.616  0.00  0.00     0.149 C 
ATOM      3  N   UNL d   1      -1.176  -1.175   0.582  0.00  0.00    -0.287 N 
ATOM      4  N   UNL d   1      -2.110   0.944   1.167  0.00  0.00    -0.269 N 
ATOM      5  C   UNL d   1      -2.301  -0.435   0.942  0.00  0.00     0.332 C 
ATOM      6  C   UNL d   1      -0.922   1.648   0.939  0.00  0.00     0.282 C 
ATOM      7  N   UNL d   1       1.240  -1.162   0.297  0.00  0.00    -0.336 N 
ATOM      8  HN  UNL d   1       1.421  -2.160   0.185  1.00  0.00     0.168 HD
ATOM      9  N   UNL d   1       1.506   1.051   0.362  0.00  0.00    -0.333 N 
ATOM     10  C   UNL d   1       2.115  -0.177   0.281  0.00  0.00     0.185 C 
ATOM     11  O   UNL d   1      -3.409  -0.968   1.061  0.00  0.00    -0.246 OA
ATOM     12  O   UNL d   1      -0.820   2.872   1.034  0.00  0.00    -0.265 OA
ATOM     13  C   UNL d   1      -1.319  -2.598   0.341  0.00  0.00     0.163 C 
ATOM     14  C   UNL d   1      -3.237   1.712   1.661  0.00  0.00     0.164 C 
ENDROOT
BRANCH   9  15
ATOM     15  C   UNL d   1       2.121   2.361   0.149  0.00  0.00     0.163 C 
BRANCH  15  16
ATOM     16  C   UNL d   1       3.653   2.362  -0.070  0.00  0.00     0.154 C 
BRANCH  16  17
ATOM     17  C   UNL d   1       4.231   3.762  -0.371  0.00  0.00     0.153 C 
BRANCH  17  18
ATOM     18  N   UNL d   1       3.645   4.368  -1.557  0.00  0.00    -0.387 N 
ATOM     19  H   UNL d   1       3.384   5.345  -1.416  0.00  0.00     0.159 HD
BRANCH  18  20
ATOM     20  C   UNL d   1       4.148   4.190  -2.844  0.00  0.00     0.028 A 
ATOM     21  C   UNL d   1       5.287   3.444  -3.171  0.00  0.00     0.032 A 
ATOM     22  C   UNL d   1       5.704   3.314  -4.504  0.00  0.00     0.044 A 
ATOM     23  C   UNL d   1       4.962   3.901  -5.520  0.00  0.00     0.116 A 
ATOM     24  C   UNL d   1       3.810   4.613  -5.232  0.00  0.00     0.044 A 
ATOM     25  F   UNL d   1       5.359   3.772  -6.793  0.00  0.00    -0.206 F 
ATOM     26  C   UNL d   1       3.409   4.752  -3.901  0.00  0.00     0.032 A 
ENDBRANCH  18  20
ENDBRANCH  17  18
ENDBRANCH  16  17
BRANCH  16  27
ATOM     27  O   UNL d   1       4.318   1.847   1.097  0.00  0.00    -0.392 OA
ATOM     28  H   UNL d   1       4.171   2.461   1.839  0.00  0.00     0.210 HD
ENDBRANCH  16  27
ENDBRANCH  15  16
ENDBRANCH   9  15
TORSDOF 6
