REMARK  3 active torsions:
REMARK  status: ('A' for Active; 'I' for Inactive)
REMARK    1  A    between atoms: C_6  and  N_1 
REMARK    2  A    between atoms: C_9  and  C_6 
REMARK    3  A    between atoms: C_11  and  C_9 
ROOT
ATOM      1  C   UNL d   1       0.022   2.247  -0.010  0.00  0.00     0.140 C 
ENDROOT
BRANCH   1   2
ATOM      2  N   UNL d   1      -0.083   0.802  -0.041  0.00  0.00    -0.281 N 
ATOM      3  C   UNL d   1      -0.124  -0.001   1.049  0.00  0.00     0.250 A 
ATOM      4  C   UNL d   1      -0.154  -1.386   0.564  0.00  0.00     0.080 A 
ATOM      5  O   UNL d   1      -0.130   0.305   2.228  0.00  0.00    -0.268 OA
ATOM      6  C   UNL d   1      -0.148  -1.349  -0.770  0.00  0.00     0.080 A 
ATOM      7  C   UNL d   1      -0.112   0.060  -1.175  0.00  0.00     0.250 A 
ATOM      8  O   UNL d   1      -0.102   0.433  -2.334  0.00  0.00    -0.268 OA
ENDBRANCH   1   2
BRANCH   1   9
ATOM      9  C   UNL d   1      -1.343   2.945  -0.076  0.00  0.00     0.059 C 
BRANCH   9  10
ATOM     10  C   UNL d   1      -1.282   4.461  -0.096  0.00  0.00    -0.057 A 
ATOM     11  C   UNL d   1      -0.259   5.161  -0.755  0.00  0.00     0.009 A 
ATOM     12  C   UNL d   1      -0.245   6.558  -0.778  0.00  0.00     0.024 A 
ATOM     13  C   UNL d   1      -1.268   7.272  -0.163  0.00  0.00     0.034 A 
ATOM     14  C   UNL d   1      -2.307   6.599   0.471  0.00  0.00     0.024 A 
ATOM     15 CL   UNL d   1      -1.251   8.992  -0.200  0.00  0.00    -0.084 Cl
ATOM     16  C   UNL d   1      -2.316   5.200   0.502  0.00  0.00     0.009 A 
ENDBRANCH   9  10
ENDBRANCH   1   9
TORSDOF 3
