REMARK  4 active torsions:
REMARK  status: ('A' for Active; 'I' for Inactive)
REMARK    1  A    between atoms: C_7  and  N_1 
REMARK    2  A    between atoms: S_10  and  C_2 
REMARK    3  A    between atoms: C_15  and  S_10 
REMARK    4  A    between atoms: C_11  and  C_15 
REMARK       I    between atoms: N_12  and  C_11 
ROOT
ATOM      1  N   UNL d   1       2.413  -0.824  -0.092  0.00  0.00    -0.258 N 
ATOM      2  C   UNL d   1       2.354   0.559  -0.282  0.00  0.00     0.155 A 
ATOM      3  C   UNL d   1       1.237  -1.570   0.053  0.00  0.00     0.266 A 
ATOM      4  N   UNL d   1       1.260   1.248  -0.234  0.00  0.00    -0.335 N 
ATOM      5  HN  UNL d   1       1.282   2.264  -0.327  1.00  0.00     0.168 HD
ATOM      6  C   UNL d   1      -0.025  -0.807   0.056  0.00  0.00     0.059 A 
ATOM      7  C   UNL d   1       0.051   0.578  -0.053  0.00  0.00     0.049 A 
ATOM      8  O   UNL d   1       1.182  -2.790   0.182  0.00  0.00    -0.267 OA
ATOM      9  C   UNL d   1      -1.266  -1.454   0.134  0.00  0.00     0.019 A 
ATOM     10  C   UNL d   1      -1.133   1.322  -0.057  0.00  0.00     0.030 A 
ATOM     11  C   UNL d   1      -2.441  -0.703   0.100  0.00  0.00     0.001 A 
ATOM     12  C   UNL d   1      -2.374   0.687   0.010  0.00  0.00     0.002 A 
ENDROOT
BRANCH   2  13
ATOM     13  S   UNL d   1       3.821   1.422  -0.752  0.00  0.00    -0.084 SA
BRANCH  13  14
ATOM     14  C   UNL d   1       3.178   3.105  -0.961  0.00  0.00     0.185 C 
BRANCH  14  15
ATOM     15  C   UNL d   1       4.258   4.016  -1.521  0.00  0.00     0.229 C 
ATOM     16  N   UNL d   1       4.265   4.274  -2.886  0.00  0.00    -0.347 N 
ATOM     17  C   UNL d   1       5.250   5.216  -3.425  0.00  0.00     0.152 C 
ATOM     18  C   UNL d   1       3.686   3.407  -3.920  0.00  0.00     0.152 C 
ATOM     19  C   UNL d   1       6.331   4.455  -4.198  0.00  0.00     0.187 C 
ATOM     20  O   UNL d   1       5.737   3.669  -5.248  0.00  0.00    -0.388 OA
ATOM     21  C   UNL d   1       4.806   2.714  -4.712  0.00  0.00     0.187 C 
ATOM     22  O   UNL d   1       5.075   4.541  -0.759  0.00  0.00    -0.273 OA
ENDBRANCH  14  15
ENDBRANCH  13  14
ENDBRANCH   2  13
BRANCH   1  23
ATOM     23  C   UNL d   1       3.646  -1.545  -0.122  0.00  0.00     0.046 A 
ATOM     24  C   UNL d   1       4.666  -1.270   0.799  0.00  0.00     0.055 A 
ATOM     25  C   UNL d   1       5.907  -1.907   0.688  0.00  0.00     0.058 A 
ATOM     26 CL   UNL d   1       7.124  -1.505   1.847  0.00  0.00    -0.082 Cl
ATOM     27  C   UNL d   1       6.132  -2.823  -0.346  0.00  0.00     0.055 A 
ATOM     28  C   UNL d   1       5.100  -3.136  -1.234  0.00  0.00     0.028 A 
ATOM     29 CL   UNL d   1       7.661  -3.588  -0.593  0.00  0.00    -0.083 Cl
ATOM     30  C   UNL d   1       3.857  -2.513  -1.112  0.00  0.00     0.032 A 
ENDBRANCH   1  23
TORSDOF 4
