REMARK  2 active torsions:
REMARK  status: ('A' for Active; 'I' for Inactive)
REMARK    1  A    between atoms: C_2  and  C_1 
REMARK       I    between atoms: N_8  and  C_2 
REMARK    2  A    between atoms: C_10  and  N_8 
ROOT
ATOM      1  C   UNL d   1       0.011   2.409  -0.154  0.00  0.00     0.260 C 
ATOM      2  N   UNL d   1      -1.239   2.997  -0.053  0.00  0.00    -0.323 N 
ATOM      3  O   UNL d   1       1.060   3.043  -0.238  0.00  0.00    -0.267 OA
ATOM      4  H   UNL d   1      -2.007   2.413   0.242  0.00  0.00     0.169 HD
ENDROOT
BRANCH   1   5
ATOM      5  C   UNL d   1       0.049   0.952  -0.125  0.00  0.00     0.087 A 
ATOM      6  C   UNL d   1       1.226   0.234   0.011  0.00  0.00     0.090 A 
ATOM      7  O   UNL d   1       0.965  -1.094  -0.011  0.00  0.00    -0.242 OA
ATOM      8  C   UNL d   1       2.647   0.615   0.159  0.00  0.00     0.080 C 
ATOM      9  N   UNL d   1      -0.385  -1.292  -0.181  0.00  0.00    -0.265 N 
ATOM     10  C   UNL d   1      -0.932  -0.073  -0.275  0.00  0.00     0.047 A 
ATOM     11  HN  UNL d   1      -0.873  -2.188  -0.227  1.00  0.00     0.194 HD
ATOM     12  C   UNL d   1      -2.389   0.007  -0.532  0.00  0.00     0.071 C 
ENDBRANCH   1   5
BRANCH   2  13
ATOM     13  C   UNL d   1      -1.531   4.369  -0.238  0.00  0.00     0.035 A 
ATOM     14  C   UNL d   1      -0.604   5.301  -0.718  0.00  0.00     0.031 A 
ATOM     15  C   UNL d   1      -0.961   6.641  -0.906  0.00  0.00     0.026 A 
ATOM     16  C   UNL d   1      -2.255   7.059  -0.621  0.00  0.00     0.034 A 
ATOM     17  C   UNL d   1      -3.193   6.147  -0.146  0.00  0.00     0.026 A 
ATOM     18 CL   UNL d   1      -2.695   8.704  -0.861  0.00  0.00    -0.084 Cl
ATOM     19  C   UNL d   1      -2.834   4.806   0.043  0.00  0.00     0.031 A 
ENDBRANCH   2  13
TORSDOF 2
