REMARK  3 active torsions:
REMARK  status: ('A' for Active; 'I' for Inactive)
REMARK    1  A    between atoms: C_9  and  C_1 
REMARK    2  A    between atoms: N_7  and  C_2 
REMARK       I    between atoms: C_8  and  N_7 
REMARK    3  A    between atoms: C_12  and  C_8 
ROOT
ATOM      1  C   UNL d   1       1.366   1.029  -0.006  0.00  0.00     0.041 A 
ATOM      2  C   UNL d   1      -1.060   1.401  -0.004  0.00  0.00     0.112 A 
ATOM      3  C   UNL d   1       0.193   1.867  -0.070  0.00  0.00     0.053 A 
ATOM      4  C   UNL d   1       1.182  -0.302   0.081  0.00  0.00     0.067 A 
ATOM      5  C   UNL d   1      -1.260  -0.075   0.082  0.00  0.00     0.315 A 
ATOM      6  O   UNL d   1      -0.137  -0.852   0.114  0.00  0.00    -0.278 OA
ATOM      7  O   UNL d   1      -2.395  -0.545   0.122  0.00  0.00    -0.257 OA
ATOM      8  C   UNL d   1       2.233  -1.370   0.181  0.00  0.00     0.078 C 
ENDROOT
BRANCH   2   9
ATOM      9  N   UNL d   1      -2.209   2.183  -0.012  0.00  0.00    -0.318 N 
ATOM     10  C   UNL d   1      -2.271   3.565  -0.020  0.00  0.00     0.256 C 
ATOM     11  O   UNL d   1      -1.294   4.312  -0.069  0.00  0.00    -0.267 OA
ATOM     12  H   UNL d   1      -3.074   1.648  -0.008  0.00  0.00     0.169 HD
BRANCH  10  13
ATOM     13  C   UNL d   1      -3.615   4.201   0.032  0.00  0.00     0.032 A 
ATOM     14  C   UNL d   1      -4.734   3.589   0.605  0.00  0.00     0.017 A 
ATOM     15  C   UNL d   1      -5.944   4.288   0.677  0.00  0.00     0.001 A 
ATOM     16  C   UNL d   1      -6.039   5.591   0.186  0.00  0.00     0.000 A 
ATOM     17  C   UNL d   1      -4.927   6.205  -0.385  0.00  0.00     0.001 A 
ATOM     18  C   UNL d   1      -3.721   5.513  -0.460  0.00  0.00     0.017 A 
ENDBRANCH  10  13
ENDBRANCH   2   9
BRANCH   1  19
ATOM     19  C   UNL d   1       2.736   1.664  -0.057  0.00  0.00     0.158 C 
ATOM     20  O   UNL d   1       3.711   1.048  -0.483  0.00  0.00    -0.293 OA
ATOM     21  C   UNL d   1       2.885   3.109   0.369  0.00  0.00     0.097 C 
ENDBRANCH   1  19
TORSDOF 3
