REMARK  5 active torsions:
REMARK  status: ('A' for Active; 'I' for Inactive)
REMARK    1  A    between atoms: C_6  and  N_1 
REMARK    2  A    between atoms: N_7  and  C_6 
REMARK    3  A    between atoms: C_18  and  N_10 
REMARK    4  A    between atoms: C_22  and  C_18 
REMARK    5  A    between atoms: O_19  and  C_22 
ROOT
ATOM      1  N   UNL d   1      -0.289  -1.796   0.118  0.00  0.00    -0.285 N 
ATOM      2  C   UNL d   1       1.387  -0.124   0.557  0.00  0.00     0.280 A 
ATOM      3  C   UNL d   1       0.962  -1.629   0.742  0.00  0.00     0.294 A 
ATOM      4  C   UNL d   1       0.248   0.412  -0.262  0.00  0.00     0.040 A 
ATOM      5  C   UNL d   1      -0.682  -0.599  -0.521  0.00  0.00     0.051 A 
ATOM      6  O   UNL d   1       2.611  -0.007  -0.180  0.00  0.00    -0.342 OA
ATOM      7  O   UNL d   1       1.487   0.586   1.794  0.00  0.00    -0.342 OA
ATOM      8  O   UNL d   1       1.614  -2.502   1.304  0.00  0.00    -0.266 OA
ATOM      9  C   UNL d   1       0.076   1.705  -0.754  0.00  0.00     0.015 A 
ATOM     10  C   UNL d   1      -1.796  -0.341  -1.299  0.00  0.00     0.030 A 
ATOM     11  C   UNL d   1       3.398   0.920   0.564  0.00  0.00     0.198 C 
ATOM     12  C   UNL d   1       2.888   0.774   1.970  0.00  0.00     0.198 C 
ATOM     13  C   UNL d   1      -1.055   1.971  -1.523  0.00  0.00     0.001 A 
ATOM     14  C   UNL d   1      -1.986   0.958  -1.794  0.00  0.00     0.002 A 
ENDROOT
BRANCH   1  15
ATOM     15  C   UNL d   1      -0.837  -3.120  -0.056  0.00  0.00     0.405 C 
BRANCH  15  16
ATOM     16  N   UNL d   1      -2.289  -3.149  -0.168  0.00  0.00     0.109 N 
ATOM     17  C   UNL d   1      -2.980  -2.782   1.087  0.00  0.00     0.294 C 
ATOM     18  C   UNL d   1      -3.084  -3.898   2.157  0.00  0.00     0.147 C 
ATOM     19  N   UNL d   1      -3.684  -5.087   1.553  0.00  0.00    -0.407 N 
ATOM     20  C   UNL d   1      -2.881  -5.577   0.437  0.00  0.00     0.147 C 
ATOM     21  C   UNL d   1      -2.769  -4.468  -0.642  0.00  0.00     0.294 C 
BRANCH  19  22
ATOM     22  C   UNL d   1      -4.271  -6.059   2.463  0.00  0.00     0.143 C 
BRANCH  22  23
ATOM     23  C   UNL d   1      -3.491  -7.320   2.851  0.00  0.00     0.183 C 
BRANCH  23  24
ATOM     24  O   UNL d   1      -4.333  -8.132   3.673  0.00  0.00    -0.399 OA
ATOM     25  H   UNL d   1      -3.856  -8.958   3.858  0.00  0.00     0.209 HD
ENDBRANCH  23  24
ENDBRANCH  22  23
ENDBRANCH  19  22
ENDBRANCH  15  16
ENDBRANCH   1  15
TORSDOF 5
