REMARK  2 active torsions:
REMARK  status: ('A' for Active; 'I' for Inactive)
REMARK    1  A    between atoms: C_6  and  C_1 
REMARK    2  A    between atoms: O_13  and  C_2 
ROOT
ATOM      1  C   UNL d   1      -2.502   0.026  -0.009  0.00  0.00     0.059 A 
ATOM      2  C   UNL d   1      -1.689   1.098  -0.009  0.00  0.00     0.091 A 
ATOM      3  C   UNL d   1      -1.626  -1.178   0.004  0.00  0.00     0.197 A 
ATOM      4  C   UNL d   1      -0.296   0.690  -0.007  0.00  0.00     0.012 A 
ATOM      5  C   UNL d   1      -0.246  -0.698   0.001  0.00  0.00     0.028 A 
ATOM      6  O   UNL d   1      -1.980  -2.340   0.019  0.00  0.00    -0.286 OA
ATOM      7  C   UNL d   1       0.877   1.424  -0.008  0.00  0.00     0.015 A 
ATOM      8  C   UNL d   1       0.937  -1.413   0.006  0.00  0.00     0.016 A 
ATOM      9  C   UNL d   1       2.124  -0.679   0.004  0.00  0.00     0.001 A 
ATOM     10  C   UNL d   1       2.094   0.729  -0.003  0.00  0.00     0.001 A 
ENDROOT
BRANCH   1  11
ATOM     11  C   UNL d   1      -3.957  -0.004  -0.006  0.00  0.00    -0.016 A 
ATOM     12  C   UNL d   1      -4.669  -0.017  -1.211  0.00  0.00     0.036 A 
ATOM     13  C   UNL d   1      -6.064  -0.043  -1.196  0.00  0.00     0.036 A 
ATOM     14 CL   UNL d   1      -6.932  -0.058  -2.682  0.00  0.00    -0.084 Cl
ATOM     15  C   UNL d   1      -6.763  -0.051   0.008  0.00  0.00     0.047 A 
ATOM     16  C   UNL d   1      -6.052  -0.038   1.205  0.00  0.00     0.036 A 
ATOM     17  C   UNL d   1      -4.657  -0.013   1.206  0.00  0.00     0.036 A 
ATOM     18 CL   UNL d   1      -6.903  -0.045   2.701  0.00  0.00    -0.084 Cl
ENDBRANCH   1  11
BRANCH   2  19
ATOM     19  O   UNL d   1      -2.007   2.422  -0.006  0.00  0.00    -0.359 OA
ATOM     20  H   UNL d   1      -2.976   2.507   0.013  0.00  0.00     0.217 HD
ENDBRANCH   2  19
TORSDOF 2
