REMARK  3 active torsions:
REMARK  status: ('A' for Active; 'I' for Inactive)
REMARK    1  A    between atoms: C_5  and  N_2 
REMARK    2  A    between atoms: C_11  and  C_3 
REMARK    3  A    between atoms: C_14  and  N_7 
ROOT
ATOM      1  C   UNL d   1       0.989  -0.748  -0.003  0.00  0.00     0.156 C 
ATOM      2  N   UNL d   1       0.962   0.676  -0.062  0.00  0.00    -0.294 N 
ATOM      3  C   UNL d   1      -0.343   1.241   0.189  0.00  0.00     0.033 C 
ATOM      4  S   UNL d   1      -0.604  -1.307   0.585  0.00  0.00    -0.063 SA
ATOM      5  C   UNL d   1      -1.250   0.285   0.496  0.00  0.00     0.079 C 
ATOM      6  N   UNL d   1       1.967  -1.539  -0.336  0.00  0.00    -0.336 N 
ATOM      7  HN  UNL d   1       2.839  -1.124  -0.664  1.00  0.00     0.168 HD
ENDROOT
BRANCH   2   8
ATOM      8  C   UNL d   1       2.204   1.388  -0.076  0.00  0.00     0.043 C 
ATOM      9  C   UNL d   1       3.252   1.020   0.790  0.00  0.00     0.054 C 
ATOM     10  C   UNL d   1       4.439   1.763   0.865  0.00  0.00     0.042 C 
ATOM     11 CL   UNL d   1       5.673   1.216   1.945  0.00  0.00    -0.084 Cl
ATOM     12  C   UNL d   1       4.607   2.919   0.096  0.00  0.00    -0.040 C 
ATOM     13  C   UNL d   1       3.615   3.232  -0.837  0.00  0.00     0.011 C 
ATOM     14  C   UNL d   1       5.808   3.812   0.233  0.00  0.00     0.050 C 
ATOM     15  C   UNL d   1       2.452   2.454  -0.941  0.00  0.00     0.031 C 
ENDBRANCH   2   8
BRANCH   6  16
ATOM     16  C   UNL d   1       1.876  -2.948  -0.265  0.00  0.00     0.035 A 
ATOM     17  C   UNL d   1       2.875  -3.651   0.412  0.00  0.00     0.053 A 
ATOM     18  C   UNL d   1       2.839  -5.047   0.502  0.00  0.00     0.042 A 
ATOM     19 CL   UNL d   1       4.143  -5.841   1.317  0.00  0.00    -0.084 Cl
ATOM     20  C   UNL d   1       1.781  -5.776  -0.061  0.00  0.00    -0.040 A 
ATOM     21  C   UNL d   1       0.811  -5.075  -0.787  0.00  0.00     0.011 A 
ATOM     22  C   UNL d   1       1.679  -7.272   0.054  0.00  0.00     0.050 C 
ATOM     23  C   UNL d   1       0.880  -3.687  -0.916  0.00  0.00     0.030 A 
ENDBRANCH   6  16
BRANCH   3  24
ATOM     24  C   UNL d   1      -0.787   2.729   0.122  0.00  0.00    -0.008 C 
ATOM     25  C   UNL d   1      -1.061   3.119  -1.347  0.00  0.00     0.021 C 
ATOM     26  C   UNL d   1      -2.139   2.968   0.874  0.00  0.00     0.021 C 
ATOM     27  C   UNL d   1       0.176   3.734   0.793  0.00  0.00     0.021 C 
ENDBRANCH   3  24
TORSDOF 3
