REMARK  3 active torsions:
REMARK  status: ('A' for Active; 'I' for Inactive)
REMARK    1  A    between atoms: C_9  and  N_1 
REMARK    2  A    between atoms: C_7  and  C_4 
REMARK    3  A    between atoms: O_13  and  C_7 
ROOT
ATOM      1  N   UNL d   1      -0.614  -1.794   0.266  0.00  0.00    -0.333 N 
ATOM      2  C   UNL d   1       0.766  -1.891  -0.105  0.00  0.00     0.255 C 
ATOM      3  C   UNL d   1      -1.227  -0.388   0.181  0.00  0.00     0.053 C 
ATOM      4  C   UNL d   1      -0.280   0.609   0.935  0.00  0.00     0.146 C 
ATOM      5  C   UNL d   1       1.125   0.543   0.398  0.00  0.00    -0.026 A 
ATOM      6  C   UNL d   1       1.597  -0.650  -0.153  0.00  0.00     0.039 A 
ATOM      7  O   UNL d   1       1.380  -2.932  -0.297  0.00  0.00    -0.267 OA
ATOM      8  C   UNL d   1      -2.682  -0.178   0.698  0.00  0.00     0.032 C 
ATOM      9  C   UNL d   1      -1.312  -0.056  -1.361  0.00  0.00     0.032 C 
ATOM     10  C   UNL d   1       1.971   1.662   0.467  0.00  0.00     0.009 A 
ATOM     11  C   UNL d   1       2.912  -0.717  -0.633  0.00  0.00     0.017 A 
ATOM     12  C   UNL d   1      -1.905   1.311  -1.702  0.00  0.00     0.002 C 
ATOM     13  C   UNL d   1      -3.272   1.212   0.411  0.00  0.00     0.002 C 
ATOM     14  C   UNL d   1       3.277   1.587  -0.012  0.00  0.00     0.001 A 
ATOM     15  C   UNL d   1       3.748   0.399  -0.564  0.00  0.00     0.001 A 
ATOM     16  C   UNL d   1      -3.283   1.504  -1.084  0.00  0.00     0.000 C 
ENDROOT
BRANCH   1  17
ATOM     17  C   UNL d   1      -1.210  -2.974   1.026  0.00  0.00     0.088 C 
ATOM     18  C   UNL d   1      -0.686  -4.382   0.612  0.00  0.00     0.025 C 
ATOM     19  C   UNL d   1      -1.097  -4.733  -0.819  0.00  0.00     0.002 C 
ATOM     20  C   UNL d   1      -2.614  -4.723  -0.990  0.00  0.00     0.000 C 
ATOM     21  C   UNL d   1      -3.284  -3.499  -0.369  0.00  0.00     0.002 C 
ATOM     22  C   UNL d   1      -2.740  -3.178   1.023  0.00  0.00     0.025 C 
ENDBRANCH   1  17
BRANCH   4  23
ATOM     23  C   UNL d   1      -0.339   0.428   2.452  0.00  0.00     0.150 C 
ATOM     24  O   UNL d   1      -1.100   1.082   3.157  0.00  0.00    -0.649 OA
BRANCH  23  25
ATOM     25  O   UNL d   1       0.472  -0.505   2.990  0.00  0.00    -0.776 OA
ATOM     26  H   UNL d   1       1.040  -0.992   2.363  0.00  0.00     0.167 HD
ENDBRANCH  23  25
ENDBRANCH   4  23
TORSDOF 3
