REMARK  5 active torsions:
REMARK  status: ('A' for Active; 'I' for Inactive)
REMARK    1  A    between atoms: C_4  and  C_1 
REMARK    2  A    between atoms: C_12  and  C_2 
REMARK       I    between atoms: N_3  and  C_4 
REMARK    3  A    between atoms: C_18  and  N_5 
REMARK    4  A    between atoms: N_23  and  C_6 
REMARK    5  A    between atoms: N_13  and  C_19 
ROOT
ATOM      1  N   UNL d   1      -1.901   3.077  -0.552  0.00  0.00    -0.202 N 
ATOM      2  C   UNL d   1      -0.740   2.606   0.116  0.00  0.00     0.282 C 
ATOM      3  C   UNL d   1      -2.505   4.337  -0.454  0.00  0.00     0.146 A 
ATOM      4  N   UNL d   1      -2.559   2.275  -1.447  0.00  0.00    -0.299 N 
ATOM      5  HN  UNL d   1      -2.354   1.305  -1.686  1.00  0.00     0.186 HD
ATOM      6  C   UNL d   1      -3.537   4.333  -1.367  0.00  0.00     0.106 A 
ATOM      7  C   UNL d   1      -3.529   3.051  -1.935  0.00  0.00     0.134 A 
ATOM      8  C   UNL d   1      -4.422   5.403  -1.670  0.00  0.00     0.104 C 
ATOM      9  N   UNL d   1      -5.143   6.278  -1.930  0.00  0.00    -0.191 NA
ATOM     10  O   UNL d   1      -0.172   3.398   0.866  0.00  0.00    -0.265 OA
ENDROOT
BRANCH   3  11
ATOM     11  N   UNL d   1      -2.075   5.297   0.399  0.00  0.00    -0.383 N 
ATOM     12  H   UNL d   1      -1.238   5.163   0.979  0.00  0.00     0.157 HD
ATOM     13  H   UNL d   1      -2.469   6.235   0.448  0.00  0.00     0.157 HD
ENDBRANCH   3  11
BRANCH   2  14
ATOM     14  C   UNL d   1      -0.238   1.242  -0.020  0.00  0.00     0.084 A 
ATOM     15  C   UNL d   1       1.091   0.814  -0.053  0.00  0.00     0.157 A 
ATOM     16  N   UNL d   1       1.060  -0.572  -0.038  0.00  0.00    -0.251 N 
ATOM     17  N   UNL d   1      -0.224  -1.025   0.007  0.00  0.00    -0.303 N 
ATOM     18  C   UNL d   1      -0.988   0.058  -0.054  0.00  0.00     0.127 A 
ATOM     19  HN  UNL d   1      -0.534  -1.994   0.075  1.00  0.00     0.186 HD
BRANCH  15  20
ATOM     20  C   UNL d   1       2.339   1.596  -0.032  0.00  0.00     0.435 C 
ATOM     21  F   UNL d   1       2.152   2.919   0.183  0.00  0.00    -0.165 F 
ATOM     22  F   UNL d   1       3.197   1.167   0.925  0.00  0.00    -0.165 F 
ATOM     23  F   UNL d   1       2.987   1.525  -1.222  0.00  0.00    -0.165 F 
ENDBRANCH  15  20
BRANCH  16  24
ATOM     24  C   UNL d   1       2.092  -1.566  -0.082  0.00  0.00     0.057 A 
ATOM     25  C   UNL d   1       1.815  -2.836   0.466  0.00  0.00     0.034 A 
ATOM     26  C   UNL d   1       2.749  -3.875   0.392  0.00  0.00     0.038 A 
ATOM     27  C   UNL d   1       3.967  -3.655  -0.255  0.00  0.00     0.103 A 
ATOM     28  C   UNL d   1       4.263  -2.398  -0.792  0.00  0.00     0.038 A 
ATOM     29  C   UNL d   1       3.328  -1.358  -0.701  0.00  0.00     0.034 A 
BRANCH  27  30
ATOM     30  N   UNL d   1       4.924  -4.757  -0.412  0.00  0.00    -0.116 N 
ATOM     31  O   UNL d   1       5.966  -4.529  -1.043  0.00  0.00    -0.532 OA
ATOM     32  O   UNL d   1       4.629  -5.853   0.085  0.00  0.00    -0.532 OA
ENDBRANCH  27  30
ENDBRANCH  16  24
ENDBRANCH   2  14
TORSDOF 5
