REMARK  3 active torsions:
REMARK  status: ('A' for Active; 'I' for Inactive)
REMARK    1  A    between atoms: C_2  and  S_1 
REMARK    2  A    between atoms: N_3  and  S_1 
REMARK       I    between atoms: C_6  and  N_5 
REMARK    3  A    between atoms: C_18  and  C_6 
ROOT
ATOM      1  N   UNL d   1       0.643  -0.059   1.385  0.00  0.00    -0.203 NA
ATOM      2  N   UNL d   1       2.566   1.353   3.058  0.00  0.00    -0.349 N 
ATOM      3  C   UNL d   1       3.461   1.961   3.938  0.00  0.00     0.224 C 
ATOM      4  C   UNL d   1       0.497   1.399   1.669  0.00  0.00     0.127 C 
ATOM      5  C   UNL d   1       1.334  -0.754   2.517  0.00  0.00     0.127 C 
ATOM      6  C   UNL d   1       2.682  -0.102   2.857  0.00  0.00     0.141 C 
ATOM      7  C   UNL d   1       1.853   2.057   1.984  0.00  0.00     0.141 C 
ATOM      8  O   UNL d   1       4.200   1.286   4.657  0.00  0.00    -0.273 OA
ENDROOT
BRANCH   1   9
ATOM      9  S   UNL d   1       1.140  -0.490  -0.186  0.00  0.00     0.245 S 
ATOM     10  O   UNL d   1       1.987   0.570  -0.686  0.00  0.00    -0.206 OA
ATOM     11  O   UNL d   1       1.600  -1.861  -0.193  0.00  0.00    -0.206 OA
BRANCH   9  12
ATOM     12  C   UNL d   1      -0.382  -0.433  -1.109  0.00  0.00     0.098 A 
ATOM     13  C   UNL d   1      -0.521   0.563  -2.090  0.00  0.00     0.052 A 
ATOM     14  C   UNL d   1      -1.651   0.582  -2.917  0.00  0.00     0.057 A 
ATOM     15 CL   UNL d   1      -1.756   1.833  -4.102  0.00  0.00    -0.083 Cl
ATOM     16  C   UNL d   1      -2.638  -0.394  -2.768  0.00  0.00     0.057 A 
ATOM     17  C   UNL d   1      -2.501  -1.377  -1.785  0.00  0.00     0.051 A 
ATOM     18 CL   UNL d   1      -4.050  -0.444  -3.764  0.00  0.00    -0.082 Cl
ATOM     19  C   UNL d   1      -1.375  -1.402  -0.951  0.00  0.00     0.058 A 
ATOM     20 CL   UNL d   1      -1.336  -2.643   0.248  0.00  0.00    -0.083 Cl
ENDBRANCH   9  12
ENDBRANCH   1   9
BRANCH   3  21
ATOM     21  C   UNL d   1       3.466   3.500   4.022  0.00  0.00     0.078 C 
ATOM     22  C   UNL d   1       4.763   4.065   4.619  0.00  0.00     0.014 C 
ATOM     23  C   UNL d   1       4.882   3.905   6.132  0.00  0.00     0.001 C 
ATOM     24  C   UNL d   1       3.645   4.383   6.882  0.00  0.00     0.000 C 
ATOM     25  C   UNL d   1       2.338   3.866   6.290  0.00  0.00     0.001 C 
ATOM     26  C   UNL d   1       2.246   4.044   4.776  0.00  0.00     0.014 C 
ENDBRANCH   3  21
TORSDOF 3
