REMARK  5 active torsions:
REMARK  status: ('A' for Active; 'I' for Inactive)
REMARK    1  A    between atoms: O_11  and  N_1 
REMARK    2  A    between atoms: C_17  and  C_2 
REMARK    3  A    between atoms: C_3  and  C_7 
REMARK    4  A    between atoms: C_7  and  O_11 
REMARK    5  A    between atoms: C_19  and  C_10 
ROOT
ATOM      1  N   UNL d   1       2.259  -0.849  -0.558  0.00  0.00    -0.157 N 
ATOM      2  C   UNL d   1       2.310   0.539  -0.535  0.00  0.00     0.148 C 
ATOM      3  C   UNL d   1       1.107  -1.549  -0.241  0.00  0.00     0.286 C 
ATOM      4  N   UNL d   1       1.247   1.279  -0.440  0.00  0.00    -0.339 N 
ATOM      5  HN  UNL d   1       1.315   2.297  -0.434  1.00  0.00     0.167 HD
ATOM      6  C   UNL d   1      -0.127  -0.756  -0.265  0.00  0.00     0.061 A 
ATOM      7  C   UNL d   1      -0.003   0.633  -0.345  0.00  0.00     0.049 A 
ATOM      8  O   UNL d   1       1.082  -2.709   0.169  0.00  0.00    -0.265 OA
ATOM      9  C   UNL d   1      -1.371  -1.379  -0.117  0.00  0.00     0.019 A 
ATOM     10  C   UNL d   1      -1.166   1.402  -0.271  0.00  0.00     0.030 A 
ATOM     11  C   UNL d   1      -2.521  -0.599  -0.055  0.00  0.00     0.001 A 
ATOM     12  C   UNL d   1      -2.419   0.790  -0.129  0.00  0.00     0.002 A 
ENDROOT
BRANCH   1  13
ATOM     13  O   UNL d   1       3.398  -1.485  -0.007  0.00  0.00    -0.182 OA
BRANCH  13  14
ATOM     14  C   UNL d   1       3.847  -2.598  -0.674  0.00  0.00     0.320 C 
ATOM     15  O   UNL d   1       3.635  -2.798  -1.861  0.00  0.00    -0.257 OA
BRANCH  14  16
ATOM     16  C   UNL d   1       4.619  -3.440   0.228  0.00  0.00     0.102 A 
ATOM     17  C   UNL d   1       5.326  -4.689   0.072  0.00  0.00     0.084 A 
ATOM     18  N   UNL d   1       5.933  -4.994   1.238  0.00  0.00    -0.259 N 
ATOM     19  O   UNL d   1       5.575  -4.062   2.157  0.00  0.00    -0.241 OA
ATOM     20  HN  UNL d   1       6.553  -5.788   1.400  1.00  0.00     0.195 HD
ATOM     21  C   UNL d   1       4.770  -3.152   1.582  0.00  0.00     0.091 A 
ATOM     22  C   UNL d   1       4.243  -2.122   2.509  0.00  0.00     0.080 C 
BRANCH  17  23
ATOM     23  C   UNL d   1       5.483  -5.668  -1.027  0.00  0.00    -0.006 A 
ATOM     24  C   UNL d   1       4.716  -5.674  -2.195  0.00  0.00     0.014 A 
ATOM     25  C   UNL d   1       4.850  -6.702  -3.144  0.00  0.00     0.001 A 
ATOM     26  C   UNL d   1       5.742  -7.751  -2.937  0.00  0.00     0.000 A 
ATOM     27  C   UNL d   1       6.520  -7.768  -1.790  0.00  0.00     0.001 A 
ATOM     28  C   UNL d   1       6.397  -6.734  -0.857  0.00  0.00     0.014 A 
ENDBRANCH  17  23
ENDBRANCH  14  16
ENDBRANCH  13  14
ENDBRANCH   1  13
BRANCH   2  29
ATOM     29  C   UNL d   1       3.661   1.163  -0.562  0.00  0.00     0.010 A 
ATOM     30  C   UNL d   1       4.615   0.753  -1.502  0.00  0.00     0.015 A 
ATOM     31  C   UNL d   1       5.926   1.221  -1.409  0.00  0.00     0.001 A 
ATOM     32  C   UNL d   1       6.279   2.110  -0.393  0.00  0.00     0.000 A 
ATOM     33  C   UNL d   1       5.317   2.557   0.514  0.00  0.00     0.001 A 
ATOM     34  C   UNL d   1       4.003   2.091   0.428  0.00  0.00     0.015 A 
ENDBRANCH   2  29
TORSDOF 5
