REMARK  6 active torsions:
REMARK  status: ('A' for Active; 'I' for Inactive)
REMARK       I    between atoms: N_2  and  C_1 
REMARK    1  A    between atoms: C_4  and  C_1 
REMARK    2  A    between atoms: C_5  and  N_3 
REMARK    3  A    between atoms: C_6  and  C_4 
REMARK    4  A    between atoms: O_19  and  C_12 
REMARK    5  A    between atoms: C_18  and  C_15 
REMARK    6  A    between atoms: C_22  and  C_18 
ROOT
ATOM      1  C   UNL d   1       1.001   0.177   0.034  0.00  0.00     0.228 C 
ATOM      2  N   UNL d   1       0.471   0.303  -1.249  0.00  0.00    -0.348 N 
ATOM      3  N   UNL d   1      -0.464   0.348  -3.966  0.00  0.00    -0.376 N 
ATOM      4  O   UNL d   1       2.208  -0.029   0.203  0.00  0.00    -0.273 OA
ATOM      5  C   UNL d   1       1.381   0.014  -2.373  0.00  0.00     0.145 C 
ATOM      6  C   UNL d   1      -0.955   0.144  -1.565  0.00  0.00     0.145 C 
ATOM      7  C   UNL d   1       0.950   0.669  -3.707  0.00  0.00     0.143 C 
ATOM      8  C   UNL d   1      -1.352   0.818  -2.890  0.00  0.00     0.143 C 
ENDROOT
BRANCH   1   9
ATOM      9  C   UNL d   1       0.061   0.326   1.240  0.00  0.00     0.107 C 
ATOM     10  C   UNL d   1       0.803   1.044   2.378  0.00  0.00     0.025 C 
BRANCH   9  11
ATOM     11  C   UNL d   1      -0.489  -1.003   1.750  0.00  0.00    -0.045 A 
ATOM     12  C   UNL d   1       0.369  -2.068   2.058  0.00  0.00     0.008 A 
ATOM     13  C   UNL d   1      -0.120  -3.236   2.647  0.00  0.00     0.007 A 
ATOM     14  C   UNL d   1      -1.486  -3.373   2.939  0.00  0.00    -0.058 A 
ATOM     15  C   UNL d   1      -2.344  -2.320   2.607  0.00  0.00     0.007 A 
ATOM     16  C   UNL d   1      -1.855  -1.150   2.017  0.00  0.00     0.008 A 
BRANCH  14  17
ATOM     17  C   UNL d   1      -1.982  -4.606   3.657  0.00  0.00     0.042 C 
BRANCH  17  18
ATOM     18  C   UNL d   1      -3.055  -5.418   2.905  0.00  0.00    -0.019 C 
ATOM     19  C   UNL d   1      -2.530  -5.976   1.580  0.00  0.00     0.010 C 
ATOM     20  C   UNL d   1      -3.544  -6.568   3.791  0.00  0.00     0.010 C 
ENDBRANCH  17  18
ENDBRANCH  14  17
ENDBRANCH   9  11
ENDBRANCH   1   9
BRANCH   3  21
ATOM     21  C   UNL d   1      -0.950   0.156  -5.254  0.00  0.00     0.064 A 
ATOM     22  C   UNL d   1      -0.364  -0.719  -6.200  0.00  0.00     0.094 A 
ATOM     23  C   UNL d   1      -0.981  -0.982  -7.436  0.00  0.00     0.039 A 
ATOM     24  C   UNL d   1      -2.189  -0.377  -7.773  0.00  0.00     0.003 A 
ATOM     25  C   UNL d   1      -2.760   0.536  -6.898  0.00  0.00     0.002 A 
ATOM     26  C   UNL d   1      -2.143   0.792  -5.667  0.00  0.00     0.032 A 
BRANCH  22  27
ATOM     27  O   UNL d   1       0.866  -1.315  -6.060  0.00  0.00    -0.354 OA
ATOM     28  C   UNL d   1       0.931  -2.297  -5.033  0.00  0.00     0.210 C 
ENDBRANCH  22  27
ENDBRANCH   3  21
TORSDOF 6
