REMARK  3 active torsions:
REMARK  status: ('A' for Active; 'I' for Inactive)
REMARK    1  A    between atoms: C_6  and  N_1 
REMARK    2  A    between atoms: O_9  and  C_7 
REMARK    3  A    between atoms: C_8  and  O_9 
ROOT
ATOM      1  N   UNL d   1      -1.861   0.153  -0.128  0.00  0.00    -0.240 N 
ATOM      2  C   UNL d   1      -1.235  -0.953  -0.638  0.00  0.00     0.268 C 
ATOM      3  C   UNL d   1      -0.970   1.171   0.129  0.00  0.00     0.283 C 
ATOM      4  C   UNL d   1       0.195  -0.705  -0.518  0.00  0.00     0.065 A 
ATOM      5  C   UNL d   1       0.361   0.566  -0.014  0.00  0.00     0.117 A 
ATOM      6  N   UNL d   1       1.531   1.127   0.327  0.00  0.00    -0.361 N 
ATOM      7  HN  UNL d   1       1.605   2.071   0.705  1.00  0.00     0.165 HD
ATOM      8  O   UNL d   1      -1.698  -1.958  -1.146  0.00  0.00    -0.267 OA
ATOM      9  O   UNL d   1      -1.194   2.338   0.410  0.00  0.00    -0.265 OA
ATOM     10  C   UNL d   1       1.292  -1.494  -0.772  0.00  0.00     0.021 A 
ATOM     11  C   UNL d   1       2.605   0.328   0.122  0.00  0.00     0.088 A 
ATOM     12  C   UNL d   1       2.535  -0.958  -0.432  0.00  0.00     0.018 A 
ENDROOT
BRANCH   1  13
ATOM     13  C   UNL d   1      -3.254   0.306  -0.070  0.00  0.00     0.079 A 
ATOM     14  C   UNL d   1      -4.040  -0.340   0.902  0.00  0.00     0.106 A 
ATOM     15  C   UNL d   1      -5.435  -0.199   0.857  0.00  0.00     0.058 A 
ATOM     16  C   UNL d   1      -6.038   0.567  -0.139  0.00  0.00     0.013 A 
ATOM     17  C   UNL d   1      -5.264   1.207  -1.102  0.00  0.00     0.021 A 
ATOM     18 BR   UNL d   1      -7.921   0.715  -0.198  0.00  0.00    -0.051 Br
ATOM     19  C   UNL d   1      -3.874   1.088  -1.058  0.00  0.00     0.034 A 
BRANCH  14  20
ATOM     20  O   UNL d   1      -3.609  -1.220   1.852  0.00  0.00    -0.253 OA
BRANCH  20  21
ATOM     21  C   UNL d   1      -2.549  -0.860   2.724  0.00  0.00     0.530 C 
ATOM     22  F   UNL d   1      -2.034   0.360   2.491  0.00  0.00    -0.144 F 
ATOM     23  F   UNL d   1      -2.993  -0.891   3.999  0.00  0.00    -0.144 F 
ATOM     24  F   UNL d   1      -1.559  -1.772   2.599  0.00  0.00    -0.144 F 
ENDBRANCH  20  21
ENDBRANCH  14  20
ENDBRANCH   1  13
TORSDOF 3
