REMARK  6 active torsions:
REMARK  status: ('A' for Active; 'I' for Inactive)
REMARK    1  A    between atoms: C_2  and  C_1 
REMARK    2  A    between atoms: C_16  and  N_6 
REMARK    3  A    between atoms: S_15  and  C_9 
REMARK    4  A    between atoms: N_14  and  C_17 
REMARK    5  A    between atoms: C_25  and  S_15 
REMARK    6  A    between atoms: C_26  and  C_25 
ROOT
ATOM      1  C   UNL d   1       0.013   1.112  -0.011  0.00  0.00     0.152 A 
ATOM      2  N   UNL d   1       0.853   0.023   0.013  0.00  0.00    -0.314 N 
ATOM      3  N   UNL d   1      -1.236   0.679   0.038  0.00  0.00    -0.281 N 
ATOM      4  HN  UNL d   1      -2.069   1.266   0.072  1.00  0.00     0.188 HD
ATOM      5  C   UNL d   1       0.032  -1.077   0.012  0.00  0.00     0.163 A 
ATOM      6  N   UNL d   1      -1.223  -0.696   0.034  0.00  0.00    -0.278 N 
ATOM      7  HN  UNL d   1      -2.039  -1.308   0.046  1.00  0.00     0.189 HD
ATOM      8  C   UNL d   1       2.291  -0.002   0.063  0.00  0.00     0.160 C 
ENDROOT
BRANCH   1   9
ATOM      9  C   UNL d   1       0.365   2.568  -0.090  0.00  0.00     0.096 A 
ATOM     10  N   UNL d   1       1.598   3.031  -0.313  0.00  0.00    -0.290 N 
ATOM     11  N   UNL d   1       1.485   4.387  -0.284  0.00  0.00    -0.261 N 
ATOM     12  HN  UNL d   1       2.444   2.485  -0.472  1.00  0.00     0.188 HD
ATOM     13  C   UNL d   1       0.160   4.782  -0.160  0.00  0.00     0.033 A 
ATOM     14  C   UNL d   1      -0.567   3.620   0.006  0.00  0.00     0.061 A 
ATOM     15  C   UNL d   1      -0.349   6.170  -0.314  0.00  0.00     0.070 C 
BRANCH  11  16
ATOM     16  C   UNL d   1       2.657   5.188  -0.430  0.00  0.00     0.056 A 
ATOM     17  C   UNL d   1       3.752   4.668  -1.141  0.00  0.00     0.034 A 
ATOM     18  C   UNL d   1       4.882   5.459  -1.379  0.00  0.00     0.038 A 
ATOM     19  C   UNL d   1       4.932   6.763  -0.872  0.00  0.00     0.103 A 
ATOM     20  C   UNL d   1       3.874   7.266  -0.106  0.00  0.00     0.038 A 
ATOM     21  C   UNL d   1       2.739   6.477   0.112  0.00  0.00     0.034 A 
BRANCH  19  22
ATOM     22  N   UNL d   1       6.096   7.613  -1.151  0.00  0.00    -0.116 N 
ATOM     23  O   UNL d   1       6.993   7.145  -1.867  0.00  0.00    -0.532 OA
ATOM     24  O   UNL d   1       6.107   8.752  -0.663  0.00  0.00    -0.532 OA
ENDBRANCH  19  22
ENDBRANCH  11  16
ENDBRANCH   1   9
BRANCH   5  25
ATOM     25  S   UNL d   1       0.615  -2.708   0.009  0.00  0.00    -0.088 SA
BRANCH  25  26
ATOM     26  C   UNL d   1      -0.815  -3.585  -0.690  0.00  0.00     0.121 C 
BRANCH  26  27
ATOM     27  C   UNL d   1      -0.596  -5.081  -0.724  0.00  0.00    -0.049 A 
ATOM     28  C   UNL d   1      -1.045  -5.889   0.333  0.00  0.00     0.008 A 
ATOM     29  C   UNL d   1      -0.860  -7.274   0.300  0.00  0.00     0.007 A 
ATOM     30  C   UNL d   1      -0.219  -7.881  -0.787  0.00  0.00    -0.062 A 
ATOM     31  C   UNL d   1       0.247  -7.081  -1.833  0.00  0.00     0.007 A 
ATOM     32  C   UNL d   1      -0.034  -9.371  -0.809  0.00  0.00     0.048 C 
ATOM     33  C   UNL d   1       0.061  -5.691  -1.802  0.00  0.00     0.008 A 
ENDBRANCH  26  27
ENDBRANCH  25  26
ENDBRANCH   5  25
TORSDOF 6
