REMARK  6 active torsions:
REMARK  status: ('A' for Active; 'I' for Inactive)
REMARK    1  A    between atoms: C_2  and  C_1 
REMARK    2  A    between atoms: C_3  and  C_6 
REMARK    3  A    between atoms: O_18  and  C_3 
REMARK    4  A    between atoms: S_9  and  C_7 
REMARK    5  A    between atoms: C_13  and  S_9 
REMARK    6  A    between atoms: C_10  and  C_13 
ROOT
ATOM      1  S   UNL d   1      -1.606   5.392   0.502  0.00  0.00    -0.108 SA
ENDROOT
BRANCH   1   2
ATOM      2  C   UNL d   1      -1.309   3.633   0.504  0.00  0.00     0.069 A 
ATOM      3  C   UNL d   1      -0.792   3.026  -0.634  0.00  0.00     0.038 A 
ATOM      4  C   UNL d   1      -0.499   1.662  -0.592  0.00  0.00     0.020 A 
ATOM      5  C   UNL d   1      -0.727   0.940   0.585  0.00  0.00     0.063 A 
ATOM      6  C   UNL d   1      -1.272   1.626   1.656  0.00  0.00     0.105 A 
ATOM      7  N   UNL d   1      -1.564   2.948   1.638  0.00  0.00    -0.360 N 
ATOM      8  HN  UNL d   1      -1.964   3.410   2.455  1.00  0.00     0.166 HD
BRANCH   5   9
ATOM      9  C   UNL d   1      -0.378  -0.512   0.702  0.00  0.00     0.418 C 
ATOM     10  F   UNL d   1      -0.615  -1.029   1.937  0.00  0.00    -0.166 F 
ATOM     11  F   UNL d   1       0.938  -0.747   0.447  0.00  0.00    -0.166 F 
ATOM     12  F   UNL d   1      -1.074  -1.291  -0.173  0.00  0.00    -0.166 F 
ENDBRANCH   5   9
ENDBRANCH   1   2
BRANCH   1  13
ATOM     13  C   UNL d   1      -2.188   5.613   2.221  0.00  0.00     0.120 C 
BRANCH  13  14
ATOM     14  C   UNL d   1      -2.317   7.077   2.569  0.00  0.00    -0.032 A 
ATOM     15  C   UNL d   1      -3.485   7.838   2.351  0.00  0.00     0.044 A 
ATOM     16  C   UNL d   1      -3.547   9.166   2.809  0.00  0.00     0.019 A 
ATOM     17  C   UNL d   1      -2.455   9.755   3.446  0.00  0.00     0.001 A 
ATOM     18  C   UNL d   1      -1.285   9.026   3.624  0.00  0.00     0.001 A 
ATOM     19  C   UNL d   1      -1.215   7.704   3.187  0.00  0.00     0.009 A 
BRANCH  15  20
ATOM     20  C   UNL d   1      -4.727   7.322   1.713  0.00  0.00     0.176 C 
ATOM     21  O   UNL d   1      -5.841   7.623   2.108  0.00  0.00    -0.646 OA
BRANCH  20  22
ATOM     22  O   UNL d   1      -4.523   6.573   0.612  0.00  0.00    -0.773 OA
ATOM     23  H   UNL d   1      -3.591   6.495   0.324  0.00  0.00     0.167 HD
ENDBRANCH  20  22
ENDBRANCH  15  20
ENDBRANCH  13  14
ENDBRANCH   1  13
TORSDOF 6
