REMARK  7 active torsions:
REMARK  status: ('A' for Active; 'I' for Inactive)
REMARK    1  A    between atoms: N_2  and  S_1 
REMARK    2  A    between atoms: C_8  and  S_1 
REMARK    3  A    between atoms: C_4  and  N_2 
REMARK    4  A    between atoms: C_9  and  N_2 
REMARK    5  A    between atoms: C_3  and  C_4 
REMARK    6  A    between atoms: C_13  and  C_9 
REMARK    7  A    between atoms: O_20  and  C_14 
ROOT
ATOM      1  N   UNL d   1       0.350  -0.423  -1.375  0.00  0.00    -0.297 N 
ENDROOT
BRANCH   1   2
ATOM      2  S   UNL d   1       1.110   0.229   0.013  0.00  0.00     0.261 S 
ATOM      3  O   UNL d   1       0.266   1.202   0.669  0.00  0.00    -0.200 OA
ATOM      4  O   UNL d   1       2.472   0.585  -0.351  0.00  0.00    -0.200 OA
BRANCH   2   5
ATOM      5  C   UNL d   1       1.257  -1.149   1.146  0.00  0.00     0.079 A 
ATOM      6  C   UNL d   1       2.465  -1.852   1.209  0.00  0.00     0.025 A 
ATOM      7  C   UNL d   1       2.697  -2.745   2.257  0.00  0.00     0.002 A 
ATOM      8  C   UNL d   1       1.726  -2.938   3.240  0.00  0.00     0.000 A 
ATOM      9  C   UNL d   1       0.515  -2.247   3.173  0.00  0.00     0.002 A 
ATOM     10  C   UNL d   1       0.280  -1.343   2.133  0.00  0.00     0.025 A 
ENDBRANCH   2   5
ENDBRANCH   1   2
BRANCH   1  11
ATOM     11  C   UNL d   1      -1.123  -0.563  -1.347  0.00  0.00     0.193 C 
BRANCH  11  12
ATOM     12  C   UNL d   1      -1.845   0.753  -1.262  0.00  0.00     0.029 A 
ATOM     13  N   UNL d   1      -2.756   1.086  -0.276  0.00  0.00    -0.363 N 
ATOM     14  C   UNL d   1      -3.135   2.400  -0.409  0.00  0.00     0.090 A 
ATOM     15  C   UNL d   1      -3.258   0.265   0.803  0.00  0.00     0.155 C 
ATOM     16  C   UNL d   1      -2.528   2.914  -1.526  0.00  0.00     0.019 A 
ATOM     17  C   UNL d   1      -1.747   1.877  -2.073  0.00  0.00     0.028 A 
ENDBRANCH  11  12
ENDBRANCH   1  11
BRANCH   1  18
ATOM     18  C   UNL d   1       0.974   0.008  -2.659  0.00  0.00     0.174 C 
BRANCH  18  19
ATOM     19  C   UNL d   1       0.454  -0.634  -3.935  0.00  0.00    -0.040 A 
ATOM     20  C   UNL d   1      -0.266   0.113  -4.881  0.00  0.00     0.011 A 
ATOM     21  C   UNL d   1      -0.757  -0.472  -6.054  0.00  0.00     0.037 A 
ATOM     22  C   UNL d   1      -0.501  -1.813  -6.321  0.00  0.00     0.068 A 
ATOM     23  C   UNL d   1       0.264  -2.552  -5.418  0.00  0.00     0.037 A 
ATOM     24  C   UNL d   1       0.724  -1.977  -4.225  0.00  0.00     0.011 A 
BRANCH  22  25
ATOM     25  O   UNL d   1      -0.903  -2.481  -7.445  0.00  0.00    -0.356 OA
ATOM     26  C   UNL d   1      -2.086  -1.987  -8.067  0.00  0.00     0.210 C 
ENDBRANCH  22  25
ENDBRANCH  18  19
ENDBRANCH   1  18
TORSDOF 7
