REMARK  2 active torsions:
REMARK  status: ('A' for Active; 'I' for Inactive)
REMARK    1  A    between atoms: C_6  and  N_1 
REMARK    2  A    between atoms: C_4  and  C_7 
ROOT
ATOM      1  C   UNL d   1       0.675  -2.424  -0.141  0.00  0.00     0.046 A 
ATOM      2  C   UNL d   1       1.305  -5.200  -0.380  0.00  0.00     0.048 A 
ATOM      3  C   UNL d   1       0.138  -3.217  -1.169  0.00  0.00     0.031 A 
ATOM      4  C   UNL d   1       1.528  -3.067   0.772  0.00  0.00     0.031 A 
ATOM      5  C   UNL d   1       0.448  -4.579  -1.292  0.00  0.00     0.018 A 
ATOM      6  C   UNL d   1       1.839  -4.430   0.657  0.00  0.00     0.018 A 
ENDROOT
BRANCH   1   7
ATOM      7  N   UNL d   1       0.381  -1.017  -0.047  0.00  0.00    -0.242 N 
ATOM      8  C   UNL d   1      -0.745  -0.464  -0.627  0.00  0.00     0.293 A 
ATOM      9  S   UNL d   1      -0.803   1.272  -0.387  0.00  0.00    -0.059 SA
ATOM     10  O   UNL d   1      -1.664  -1.013  -1.210  0.00  0.00    -0.259 OA
ATOM     11  C   UNL d   1       0.743   1.299   0.503  0.00  0.00     0.187 A 
ATOM     12  C   UNL d   1       1.208  -0.125   0.621  0.00  0.00     0.241 A 
ATOM     13  O   UNL d   1       2.253  -0.371   1.221  0.00  0.00    -0.272 OA
ENDBRANCH   1   7
BRANCH   2  14
ATOM     14  C   UNL d   1       1.657  -6.662  -0.503  0.00  0.00     0.417 C 
ATOM     15  F   UNL d   1       1.056  -7.279  -1.558  0.00  0.00    -0.166 F 
ATOM     16  F   UNL d   1       2.993  -6.863  -0.666  0.00  0.00    -0.166 F 
ATOM     17  F   UNL d   1       1.301  -7.377   0.600  0.00  0.00    -0.166 F 
ENDBRANCH   2  14
TORSDOF 2
