REMARK  8 active torsions:
REMARK  status: ('A' for Active; 'I' for Inactive)
REMARK    1  A    between atoms: C_8  and  C_1 
REMARK    2  A    between atoms: C_9  and  C_2 
REMARK    3  A    between atoms: C_3  and  N_7 
REMARK    4  A    between atoms: N_6  and  C_4 
REMARK    5  A    between atoms: C_5  and  N_6 
REMARK    6  A    between atoms: N_7  and  C_5 
REMARK    7  A    between atoms: O_20  and  C_8 
REMARK    8  A    between atoms: O_19  and  C_9 
ROOT
ATOM      1  C   UNL d   1       2.940   2.574  -0.092  0.00  0.00     0.176 C 
ATOM      2  S   UNL d   1       4.334   3.360   0.398  0.00  0.00    -0.041 SA
ENDROOT
BRANCH   1   3
ATOM      3  N   UNL d   1       2.675   1.220  -0.071  0.00  0.00    -0.332 N 
ATOM      4  H   UNL d   1       1.899   0.916  -0.639  0.00  0.00     0.168 HD
BRANCH   3   5
ATOM      5  C   UNL d   1       3.420   0.159   0.444  0.00  0.00     0.058 C 
ATOM      6  C   UNL d   1       4.153   0.072   1.622  0.00  0.00     0.106 C 
ATOM      7  S   UNL d   1       4.958  -1.457   1.732  0.00  0.00    -0.094 SA
ATOM      8  C   UNL d   1       4.186  -2.055   0.341  0.00  0.00     0.053 C 
ATOM      9  C   UNL d   1       3.380  -1.106  -0.237  0.00  0.00     0.038 C 
BRANCH   6  10
ATOM     10  C   UNL d   1       4.201   0.963   2.773  0.00  0.00     0.302 C 
ATOM     11  O   UNL d   1       3.312   1.739   3.108  0.00  0.00    -0.259 OA
BRANCH  10  12
ATOM     12  O   UNL d   1       5.353   0.775   3.488  0.00  0.00    -0.322 OA
ATOM     13  C   UNL d   1       5.444   1.509   4.710  0.00  0.00     0.213 C 
ENDBRANCH  10  12
ENDBRANCH   6  10
ENDBRANCH   3   5
ENDBRANCH   1   3
BRANCH   1  14
ATOM     14  N   UNL d   1       1.904   3.367  -0.545  0.00  0.00    -0.332 N 
ATOM     15  H   UNL d   1       1.903   4.310  -0.167  0.00  0.00     0.168 HD
BRANCH  14  16
ATOM     16  C   UNL d   1       0.846   3.025  -1.386  0.00  0.00     0.058 C 
ATOM     17  C   UNL d   1       0.884   2.173  -2.482  0.00  0.00     0.106 C 
ATOM     18  S   UNL d   1      -0.686   1.903  -3.127  0.00  0.00    -0.094 SA
ATOM     19  C   UNL d   1      -1.378   3.076  -2.100  0.00  0.00     0.053 C 
ATOM     20  C   UNL d   1      -0.447   3.621  -1.244  0.00  0.00     0.038 C 
BRANCH  17  21
ATOM     21  C   UNL d   1       2.001   1.560  -3.173  0.00  0.00     0.302 C 
ATOM     22  O   UNL d   1       2.020   0.427  -3.643  0.00  0.00    -0.259 OA
BRANCH  21  23
ATOM     23  O   UNL d   1       3.027   2.449  -3.256  0.00  0.00    -0.322 OA
ATOM     24  C   UNL d   1       4.154   1.993  -4.004  0.00  0.00     0.213 C 
ENDBRANCH  21  23
ENDBRANCH  17  21
ENDBRANCH  14  16
ENDBRANCH   1  14
TORSDOF 8
