REMARK  1 active torsions:
REMARK  status: ('A' for Active; 'I' for Inactive)
REMARK    1  A    between atoms: C_7  and  C_1 
ROOT
ATOM      1  C   UNL d   1      -1.813  -1.229  -0.055  0.00  0.00     0.086 C 
ATOM      2  C   UNL d   1      -2.068   0.226   0.059  0.00  0.00     0.302 C 
ATOM      3  C   UNL d   1      -0.555  -1.700  -0.075  0.00  0.00     0.035 C 
ATOM      4  O   UNL d   1      -0.968   1.072  -0.045  0.00  0.00    -0.274 OA
ATOM      5  C   UNL d   1       0.581  -0.796  -0.020  0.00  0.00    -0.001 A 
ATOM      6  C   UNL d   1       0.347   0.573  -0.042  0.00  0.00     0.089 A 
ATOM      7  O   UNL d   1      -3.190   0.681   0.237  0.00  0.00    -0.259 OA
ATOM      8  C   UNL d   1       1.898  -1.256   0.034  0.00  0.00     0.014 A 
ATOM      9  C   UNL d   1       1.390   1.496  -0.035  0.00  0.00     0.038 A 
ATOM     10  C   UNL d   1       2.957  -0.342   0.057  0.00  0.00     0.001 A 
ATOM     11  C   UNL d   1       2.703   1.031   0.015  0.00  0.00     0.003 A 
ENDROOT
BRANCH   1  12
ATOM     12  C   UNL d   1      -2.899  -2.251  -0.139  0.00  0.00     0.161 C 
ATOM     13  O   UNL d   1      -2.672  -3.422   0.180  0.00  0.00    -0.293 OA
ATOM     14  C   UNL d   1      -4.263  -1.883  -0.665  0.00  0.00     0.097 C 
ENDBRANCH   1  12
TORSDOF 1
