REMARK  5 active torsions:
REMARK  status: ('A' for Active; 'I' for Inactive)
REMARK    1  A    between atoms: C_2  and  C_1 
REMARK       I    between atoms: N_5  and  C_1 
REMARK    2  A    between atoms: C_3  and  C_4 
REMARK    3  A    between atoms: O_10  and  C_3 
REMARK    4  A    between atoms: C_8  and  N_5 
REMARK    5  A    between atoms: C_12  and  C_8 
ROOT
ATOM      1  C   UNL d   1       1.086   0.993   0.018  0.00  0.00     0.241 C 
ATOM      2  N   UNL d   1       0.365   0.423   1.032  0.00  0.00    -0.353 N 
ATOM      3  O   UNL d   1       0.607   1.629  -0.912  0.00  0.00    -0.269 OA
ATOM      4  H   UNL d   1       0.834  -0.084   1.770  0.00  0.00     0.163 HD
ENDROOT
BRANCH   2   5
ATOM      5  C   UNL d   1      -1.077   0.500   1.092  0.00  0.00     0.161 C 
BRANCH   5   6
ATOM      6  C   UNL d   1      -1.529   1.133   2.382  0.00  0.00    -0.039 A 
ATOM      7  C   UNL d   1      -1.730   0.355   3.533  0.00  0.00     0.032 A 
ATOM      8  C   UNL d   1      -2.143   0.956   4.723  0.00  0.00     0.034 A 
ATOM      9 CL   UNL d   1      -2.396  -0.011   6.123  0.00  0.00    -0.084 Cl
ATOM     10  C   UNL d   1      -2.354   2.331   4.786  0.00  0.00     0.024 A 
ATOM     11  C   UNL d   1      -2.145   3.115   3.651  0.00  0.00     0.002 A 
ATOM     12  C   UNL d   1      -1.728   2.519   2.458  0.00  0.00     0.009 A 
ENDBRANCH   5   6
ENDBRANCH   2   5
BRANCH   1  13
ATOM     13  C   UNL d   1       2.542   0.760   0.143  0.00  0.00     0.080 C 
ATOM     14  C   UNL d   1       3.371   1.267  -0.781  0.00  0.00     0.086 C 
BRANCH  14  15
ATOM     15  C   UNL d   1       4.814   1.018  -0.641  0.00  0.00     0.165 C 
ATOM     16  O   UNL d   1       5.314   0.369   0.261  0.00  0.00    -0.647 OA
BRANCH  15  17
ATOM     17  O   UNL d   1       5.530   1.590  -1.628  0.00  0.00    -0.773 OA
ATOM     18  H   UNL d   1       5.016   2.084  -2.292  0.00  0.00     0.167 HD
ENDBRANCH  15  17
ENDBRANCH  14  15
ENDBRANCH   1  13
TORSDOF 5
