REMARK  4 active torsions:
REMARK  status: ('A' for Active; 'I' for Inactive)
REMARK       I    between atoms: N_2  and  C_1 
REMARK    1  A    between atoms: C_4  and  C_1 
REMARK       I    between atoms: C_3  and  N_2 
REMARK       I    between atoms: N_5  and  C_3 
REMARK    2  A    between atoms: C_9  and  N_5 
REMARK    3  A    between atoms: O_6  and  C_10 
REMARK    4  A    between atoms: C_7  and  O_6 
ROOT
ATOM      1  C   UNL d   1       3.079  -0.950   0.803  0.00  0.00     0.070 C 
ATOM      2  C   UNL d   1       2.706   0.353   1.173  0.00  0.00     0.102 C 
ATOM      3  C   UNL d   1       3.430   1.447   0.695  0.00  0.00     0.039 C 
ATOM      4  C   UNL d   1       4.277  -1.149   0.113  0.00  0.00     0.032 C 
ATOM      5  C   UNL d   1       5.009  -0.053  -0.347  0.00  0.00     0.002 C 
ATOM      6  C   UNL d   1       4.570   1.243  -0.082  0.00  0.00     0.003 C 
ENDROOT
BRANCH   1   7
ATOM      7  N   UNL d   1       2.305  -2.090   1.073  0.00  0.00    -0.306 N 
ATOM      8  C   UNL d   1       0.977  -2.314   0.808  0.00  0.00     0.327 C 
ATOM      9  N   UNL d   1       0.290  -1.323   0.156  0.00  0.00    -0.275 N 
ATOM     10  O   UNL d   1       0.525  -3.414   1.121  0.00  0.00    -0.247 OA
ATOM     11  C   UNL d   1      -0.884  -1.526  -0.538  0.00  0.00     0.261 C 
ATOM     12  H   UNL d   1       0.792  -0.474  -0.035  0.00  0.00     0.173 HD
ATOM     13  O   UNL d   1      -1.599  -2.520  -0.441  0.00  0.00    -0.267 OA
ATOM     14  H   UNL d   1       2.787  -2.974   1.189  0.00  0.00     0.171 HD
BRANCH  11  15
ATOM     15  C   UNL d   1      -1.365  -0.421  -1.419  0.00  0.00     0.054 A 
ATOM     16  C   UNL d   1      -0.550   0.430  -2.182  0.00  0.00     0.049 A 
ATOM     17 CL   UNL d   1       1.173   0.336  -2.204  0.00  0.00    -0.083 Cl
ATOM     18  C   UNL d   1      -1.133   1.390  -3.025  0.00  0.00     0.025 A 
ATOM     19  C   UNL d   1      -2.521   1.504  -3.120  0.00  0.00     0.002 A 
ATOM     20  C   UNL d   1      -3.336   0.663  -2.372  0.00  0.00     0.001 A 
ATOM     21  C   UNL d   1      -2.763  -0.290  -1.531  0.00  0.00     0.019 A 
ENDBRANCH  11  15
ENDBRANCH   1   7
BRANCH   2  22
ATOM     22  O   UNL d   1       1.604   0.649   1.942  0.00  0.00    -0.307 OA
BRANCH  22  23
ATOM     23  C   UNL d   1       1.475   0.091   3.203  0.00  0.00     0.098 A 
ATOM     24  C   UNL d   1       0.190   0.104   3.771  0.00  0.00     0.069 A 
ATOM     25  C   UNL d   1      -0.037  -0.431   5.041  0.00  0.00     0.050 A 
ATOM     26 CL   UNL d   1      -1.154   0.785   2.922  0.00  0.00    -0.081 Cl
ATOM     27  C   UNL d   1       1.024  -0.985   5.753  0.00  0.00     0.035 A 
ATOM     28  C   UNL d   1       2.309  -0.993   5.211  0.00  0.00     0.026 A 
ATOM     29 CL   UNL d   1       0.754  -1.649   7.316  0.00  0.00    -0.084 Cl
ATOM     30  C   UNL d   1       2.538  -0.440   3.945  0.00  0.00     0.041 A 
ENDBRANCH  22  23
ENDBRANCH   2  22
TORSDOF 4
