REMARK  1 active torsions:
REMARK  status: ('A' for Active; 'I' for Inactive)
REMARK    1  A    between atoms: N_10  and  C_4 
ROOT
ATOM      1  C   UNL d   1       2.471  -0.738  -0.098  0.00  0.00     0.083 A 
ATOM      2  N   UNL d   1       1.262   1.338  -0.093  0.00  0.00    -0.345 N 
ATOM      3  HN  UNL d   1       1.262   2.358  -0.105  1.00  0.00     0.167 HD
ATOM      4  C   UNL d   1       2.423   0.653  -0.125  0.00  0.00     0.099 A 
ATOM      5  C   UNL d   1       3.709  -1.448  -0.148  0.00  0.00     0.102 C 
ATOM      6  N   UNL d   1       4.703  -2.047  -0.163  0.00  0.00    -0.191 NA
ATOM      7  C   UNL d   1       1.269  -1.444  -0.026  0.00  0.00     0.039 A 
ATOM      8  C   UNL d   1       0.101   0.657  -0.043  0.00  0.00     0.043 A 
ATOM      9  C   UNL d   1       0.055  -0.751  -0.010  0.00  0.00    -0.008 A 
ATOM     10  C   UNL d   1      -1.103   1.350  -0.041  0.00  0.00     0.030 A 
ATOM     11  C   UNL d   1      -1.179  -1.423   0.021  0.00  0.00     0.014 A 
ATOM     12  C   UNL d   1      -2.334   0.686  -0.023  0.00  0.00     0.002 A 
ATOM     13  C   UNL d   1      -2.372  -0.703   0.006  0.00  0.00     0.001 A 
ENDROOT
BRANCH   4  14
ATOM     14  N   UNL d   1       3.560   1.445  -0.269  0.00  0.00    -0.287 NA
ATOM     15  H   UNL d   1       3.270   2.418  -0.214  0.00  0.00     0.125 HD
ATOM     16  H   UNL d   1       4.300   1.227   0.390  0.00  0.00     0.125 HD
ENDBRANCH   4  14
TORSDOF 1
