REMARK  5 active torsions:
REMARK  status: ('A' for Active; 'I' for Inactive)
REMARK    1  A    between atoms: C_9  and  N_1 
REMARK    2  A    between atoms: C_6  and  C_2 
REMARK    3  A    between atoms: S_18  and  C_5 
REMARK    4  A    between atoms: O_12  and  C_10 
REMARK    5  A    between atoms: C_20  and  O_12 
ROOT
ATOM      1  N   UNL d   1      -0.093  -1.313  -0.883  0.00  0.00    -0.275 N 
ATOM      2  C   UNL d   1       1.036  -0.734  -0.286  0.00  0.00     0.143 A 
ATOM      3  N   UNL d   1       0.732   0.498   0.083  0.00  0.00    -0.282 N 
ATOM      4  HN  UNL d   1       1.366   1.151   0.544  1.00  0.00     0.188 HD
ATOM      5  C   UNL d   1      -1.060  -0.322  -0.805  0.00  0.00     0.165 A 
ATOM      6  N   UNL d   1      -0.566   0.757  -0.250  0.00  0.00    -0.278 N 
ATOM      7  HN  UNL d   1      -1.062   1.635  -0.095  1.00  0.00     0.189 HD
ENDROOT
BRANCH   2   8
ATOM      8  C   UNL d   1       2.386  -1.301  -0.177  0.00  0.00     0.061 A 
ATOM      9  C   UNL d   1       3.136  -1.217   1.002  0.00  0.00     0.162 A 
ATOM     10  N   UNL d   1       4.388  -1.734   1.131  0.00  0.00    -0.346 N 
ATOM     11  C   UNL d   1       4.923  -2.355   0.065  0.00  0.00     0.090 A 
ATOM     12  HN  UNL d   1       4.904  -1.653   2.008  1.00  0.00     0.167 HD
ATOM     13  C   UNL d   1       4.275  -2.478  -1.148  0.00  0.00     0.018 A 
ATOM     14  C   UNL d   1       3.002  -1.927  -1.272  0.00  0.00     0.021 A 
BRANCH   9  15
ATOM     15  O   UNL d   1       2.565  -0.567   2.096  0.00  0.00    -0.293 OA
BRANCH  15  16
ATOM     16  C   UNL d   1       3.197  -0.692   3.312  0.00  0.00     0.077 A 
ATOM     17  C   UNL d   1       3.591   0.471   3.970  0.00  0.00     0.037 A 
ATOM     18  C   UNL d   1       4.209   0.387   5.222  0.00  0.00     0.003 A 
ATOM     19  C   UNL d   1       4.415  -0.859   5.815  0.00  0.00     0.000 A 
ATOM     20  C   UNL d   1       3.993  -2.020   5.168  0.00  0.00     0.003 A 
ATOM     21  C   UNL d   1       3.369  -1.937   3.923  0.00  0.00     0.037 A 
ENDBRANCH  15  16
ENDBRANCH   9  15
ENDBRANCH   2   8
BRANCH   1  22
ATOM     22  C   UNL d   1      -0.208  -2.613  -1.457  0.00  0.00     0.043 A 
ATOM     23  C   UNL d   1      -0.878  -2.790  -2.679  0.00  0.00     0.038 A 
ATOM     24  C   UNL d   1      -0.965  -4.058  -3.284  0.00  0.00    -0.043 A 
ATOM     25  C   UNL d   1      -1.702  -4.199  -4.588  0.00  0.00     0.049 C 
ATOM     26  C   UNL d   1      -0.342  -5.145  -2.654  0.00  0.00     0.017 A 
ATOM     27  C   UNL d   1       0.324  -4.974  -1.437  0.00  0.00     0.022 A 
ATOM     28 BR   UNL d   1      -0.350  -6.886  -3.412  0.00  0.00    -0.051 Br
ATOM     29  C   UNL d   1       0.385  -3.716  -0.833  0.00  0.00     0.031 A 
ENDBRANCH   1  22
BRANCH   5  30
ATOM     30  S   UNL d   1      -2.746  -0.491  -1.184  0.00  0.00    -0.105 SA
ATOM     31  H   UNL d   1      -2.855  -1.825  -1.110  0.00  0.00     0.110 HD
ENDBRANCH   5  30
TORSDOF 5
