REMARK  7 active torsions:
REMARK  status: ('A' for Active; 'I' for Inactive)
REMARK    1  A    between atoms: C_10  and  C_1 
REMARK    2  A    between atoms: C_11  and  C_2 
REMARK    3  A    between atoms: C_7  and  C_3 
REMARK    4  A    between atoms: O_15  and  C_10 
REMARK    5  A    between atoms: O_16  and  C_11 
REMARK    6  A    between atoms: C_23  and  O_15 
REMARK    7  A    between atoms: C_22  and  O_16 
ROOT
ATOM      1  C   UNL d   1       1.302  -0.988   0.032  0.00  0.00     0.054 C 
ATOM      2  C   UNL d   1      -1.249  -1.022   0.101  0.00  0.00     0.054 C 
ATOM      3  C   UNL d   1       0.031  -1.823  -0.132  0.00  0.00     0.117 C 
ATOM      4  C   UNL d   1       1.236   0.365   0.037  0.00  0.00     0.018 C 
ATOM      5  C   UNL d   1      -1.221   0.330   0.067  0.00  0.00     0.018 C 
ATOM      6  N   UNL d   1      -0.005   0.984  -0.070  0.00  0.00    -0.362 N 
ATOM      7  C   UNL d   1      -2.440   1.209   0.188  0.00  0.00     0.069 C 
ATOM      8  C   UNL d   1       2.402   1.311   0.161  0.00  0.00     0.069 C 
ATOM      9  H   UNL d   1      -0.015   2.000   0.004  0.00  0.00     0.165 HD
ENDROOT
BRANCH   3  10
ATOM     10  C   UNL d   1      -0.002  -2.479  -1.518  0.00  0.00     0.023 A 
ATOM     11  N   UNL d   1       0.014  -3.835  -1.574  0.00  0.00    -0.362 N 
ATOM     12  C   UNL d   1       0.010  -4.426  -2.795  0.00  0.00     0.005 A 
ATOM     13  HN  UNL d   1       0.028  -4.394  -0.721  1.00  0.00     0.165 HD
ATOM     14  C   UNL d   1       0.047  -5.925  -2.838  0.00  0.00     0.068 C 
ATOM     15  C   UNL d   1      -0.015  -3.703  -3.982  0.00  0.00     0.024 A 
ATOM     16  C   UNL d   1      -0.035  -2.317  -3.917  0.00  0.00     0.004 A 
ATOM     17  C   UNL d   1      -0.027  -1.695  -2.675  0.00  0.00     0.026 A 
ENDBRANCH   3  10
BRANCH   2  18
ATOM     18  C   UNL d   1      -2.494  -1.772   0.417  0.00  0.00     0.292 C 
ATOM     19  O   UNL d   1      -3.629  -1.345   0.267  0.00  0.00    -0.259 OA
BRANCH  18  20
ATOM     20  O   UNL d   1      -2.168  -2.937   1.029  0.00  0.00    -0.318 OA
BRANCH  20  21
ATOM     21  C   UNL d   1      -3.217  -3.610   1.737  0.00  0.00     0.174 C 
ATOM     22  C   UNL d   1      -3.141  -3.186   3.193  0.00  0.00     0.034 C 
ENDBRANCH  20  21
ENDBRANCH  18  20
ENDBRANCH   2  18
BRANCH   1  23
ATOM     23  C   UNL d   1       2.580  -1.741   0.086  0.00  0.00     0.292 C 
ATOM     24  O   UNL d   1       3.637  -1.348  -0.387  0.00  0.00    -0.259 OA
BRANCH  23  25
ATOM     25  O   UNL d   1       2.389  -2.942   0.687  0.00  0.00    -0.318 OA
BRANCH  25  26
ATOM     26  C   UNL d   1       3.479  -3.870   0.591  0.00  0.00     0.174 C 
ATOM     27  C   UNL d   1       3.468  -4.547  -0.768  0.00  0.00     0.034 C 
ENDBRANCH  25  26
ENDBRANCH  23  25
ENDBRANCH   1  23
TORSDOF 7
