REMARK  5 active torsions:
REMARK  status: ('A' for Active; 'I' for Inactive)
REMARK    1  A    between atoms: N_9  and  C_3 
REMARK    2  A    between atoms: C_19  and  C_4 
REMARK       I    between atoms: C_7  and  N_10 
REMARK       I    between atoms: N_12  and  C_7 
REMARK    3  A    between atoms: C_11  and  S_13 
REMARK    4  A    between atoms: C_20  and  N_12 
REMARK    5  A    between atoms: S_13  and  C_24 
ROOT
ATOM      1  C   UNL d   1      -0.978  -6.591   0.009  0.00  0.00     0.323 C 
ATOM      2  N   UNL d   1       0.238  -2.537   0.053  0.00  0.00    -0.357 N 
ATOM      3  N   UNL d   1      -0.494  -5.313  -0.239  0.00  0.00    -0.331 N 
ATOM      4  N   UNL d   1      -2.161  -6.909  -0.620  0.00  0.00    -0.309 N 
ATOM      5  O   UNL d   1      -0.367  -7.357   0.749  0.00  0.00    -0.247 OA
ATOM      6  C   UNL d   1       0.823  -3.552   0.957  0.00  0.00     0.145 C 
ATOM      7  C   UNL d   1      -1.087  -2.916  -0.475  0.00  0.00     0.145 C 
ATOM      8  C   UNL d   1       0.818  -4.955   0.317  0.00  0.00     0.147 C 
ATOM      9  C   UNL d   1      -1.037  -4.295  -1.148  0.00  0.00     0.147 C 
ATOM     10  H   UNL d   1      -2.528  -6.247  -1.275  0.00  0.00     0.170 HD
ENDROOT
BRANCH   4  11
ATOM     11  C   UNL d   1      -2.836  -8.149  -0.614  0.00  0.00     0.036 A 
ATOM     12  C   UNL d   1      -2.442  -9.254   0.138  0.00  0.00     0.031 A 
ATOM     13  C   UNL d   1      -3.075 -10.489  -0.033  0.00  0.00     0.021 A 
ATOM     14  C   UNL d   1      -4.107 -10.635  -0.960  0.00  0.00     0.009 A 
ATOM     15  C   UNL d   1      -4.577  -9.508  -1.634  0.00  0.00     0.021 A 
ATOM     16  C   UNL d   1      -3.945  -8.273  -1.463  0.00  0.00     0.031 A 
BRANCH  14  17
ATOM     17  S   UNL d   1      -4.824 -12.229  -1.286  0.00  0.00    -0.016 SA
BRANCH  17  18
ATOM     18  C   UNL d   1      -3.423 -13.072  -2.050  0.00  0.00     0.448 C 
ATOM     19  F   UNL d   1      -2.268 -12.368  -2.016  0.00  0.00    -0.160 F 
ATOM     20  F   UNL d   1      -3.184 -14.254  -1.430  0.00  0.00    -0.160 F 
ATOM     21  F   UNL d   1      -3.679 -13.350  -3.352  0.00  0.00    -0.160 F 
ENDBRANCH  17  18
ENDBRANCH  14  17
ENDBRANCH   4  11
BRANCH   2  22
ATOM     22  C   UNL d   1       0.372  -1.212   0.380  0.00  0.00     0.165 A 
ATOM     23  N   UNL d   1      -0.512  -0.279   0.090  0.00  0.00    -0.321 N 
ATOM     24  C   UNL d   1      -0.095   0.957   0.589  0.00  0.00     0.123 A 
ATOM     25  HN  UNL d   1      -1.378  -0.437  -0.426  1.00  0.00     0.169 HD
ATOM     26  N   UNL d   1       1.088   1.019   1.210  0.00  0.00    -0.309 N 
ATOM     27  S   UNL d   1       1.730  -0.510   1.199  0.00  0.00     0.024 SA
ATOM     28  HN  UNL d   1       1.516   1.852   1.615  1.00  0.00     0.176 HD
BRANCH  24  29
ATOM     29  C   UNL d   1      -0.960   2.135   0.458  0.00  0.00     0.009 A 
ATOM     30  C   UNL d   1      -2.118   2.095  -0.332  0.00  0.00     0.015 A 
ATOM     31  C   UNL d   1      -2.956   3.211  -0.425  0.00  0.00     0.001 A 
ATOM     32  C   UNL d   1      -2.646   4.378   0.272  0.00  0.00     0.000 A 
ATOM     33  C   UNL d   1      -1.496   4.435   1.054  0.00  0.00     0.001 A 
ATOM     34  C   UNL d   1      -0.657   3.322   1.144  0.00  0.00     0.015 A 
ENDBRANCH  24  29
ENDBRANCH   2  22
TORSDOF 5
