REMARK  6 active torsions:
REMARK  status: ('A' for Active; 'I' for Inactive)
REMARK    1  A    between atoms: C_9  and  C_1 
REMARK    2  A    between atoms: S_2  and  N_11 
REMARK    3  A    between atoms: C_10  and  S_2 
REMARK    4  A    between atoms: C_13  and  N_7 
REMARK    5  A    between atoms: N_11  and  N_15 
REMARK    6  A    between atoms: C_14  and  C_13 
REMARK       I    between atoms: N_15  and  C_14 
ROOT
ATOM      1  C   UNL d   1       3.290   0.705   0.022  0.00  0.00     0.257 C 
ATOM      2  N   UNL d   1       3.470  -0.570   0.495  0.00  0.00    -0.259 N 
ATOM      3  O   UNL d   1       4.261   1.365  -0.375  0.00  0.00    -0.270 OA
ATOM      4  H   UNL d   1       2.717  -1.132   0.904  0.00  0.00     0.190 HD
ENDROOT
BRANCH   1   5
ATOM      5  C   UNL d   1       1.925   1.334   0.039  0.00  0.00     0.271 C 
BRANCH   5   6
ATOM      6  N   UNL d   1       0.754   0.495   0.195  0.00  0.00    -0.207 N 
ATOM      7  N   UNL d   1       0.751  -0.725   0.780  0.00  0.00    -0.268 N 
ATOM      8  C   UNL d   1      -0.580  -0.912   0.944  0.00  0.00     0.146 A 
ATOM      9  HN  UNL d   1       1.531  -1.333   1.027  1.00  0.00     0.190 HD
ATOM     10  N   UNL d   1      -1.313   0.162   0.507  0.00  0.00    -0.266 N 
ATOM     11  N   UNL d   1      -0.459   1.050   0.031  0.00  0.00    -0.002 NA
ATOM     12  HN  UNL d   1      -2.328   0.257   0.542  1.00  0.00     0.186 HD
BRANCH   8  13
ATOM     13  C   UNL d   1      -1.171  -1.998   1.721  0.00  0.00     0.034 A 
ATOM     14  C   UNL d   1      -2.515  -2.412   1.594  0.00  0.00     0.069 A 
ATOM     15  C   UNL d   1      -3.046  -3.329   2.522  0.00  0.00     0.056 A 
ATOM     16 CL   UNL d   1      -3.519  -1.846   0.291  0.00  0.00    -0.082 Cl
ATOM     17 CL   UNL d   1      -4.700  -3.844   2.489  0.00  0.00    -0.083 Cl
ATOM     18  C   UNL d   1      -2.247  -3.853   3.542  0.00  0.00     0.026 A 
ATOM     19  C   UNL d   1      -0.907  -3.495   3.633  0.00  0.00     0.003 A 
ATOM     20  C   UNL d   1      -0.375  -2.580   2.728  0.00  0.00     0.017 A 
ENDBRANCH   8  13
ENDBRANCH   5   6
ENDBRANCH   1   5
BRANCH   2  21
ATOM     21  N   UNL d   1       4.787  -1.181   0.285  0.00  0.00    -0.220 N 
ATOM     22  H   UNL d   1       5.501  -0.557  -0.109  0.00  0.00     0.200 HD
BRANCH  21  23
ATOM     23  S   UNL d   1       5.438  -2.249   1.413  0.00  0.00     0.278 S 
ATOM     24  O   UNL d   1       6.868  -2.118   1.235  0.00  0.00    -0.199 OA
ATOM     25  O   UNL d   1       4.804  -1.957   2.687  0.00  0.00    -0.199 OA
BRANCH  23  26
ATOM     26  C   UNL d   1       5.027  -3.937   1.035  0.00  0.00     0.108 A 
ATOM     27  C   UNL d   1       4.093  -4.322   0.063  0.00  0.00     0.058 A 
ATOM     28 CL   UNL d   1       3.144  -3.279  -0.928  0.00  0.00    -0.083 Cl
ATOM     29  C   UNL d   1       3.825  -5.686  -0.151  0.00  0.00     0.025 A 
ATOM     30  C   UNL d   1       4.469  -6.673   0.584  0.00  0.00     0.002 A 
ATOM     31  C   UNL d   1       5.381  -6.305   1.560  0.00  0.00     0.008 A 
ATOM     32  C   UNL d   1       5.668  -4.948   1.812  0.00  0.00    -0.037 A 
ATOM     33  C   UNL d   1       6.606  -4.699   2.970  0.00  0.00     0.050 C 
ENDBRANCH  23  26
ENDBRANCH  21  23
ENDBRANCH   2  21
TORSDOF 6
