REMARK  3 active torsions:
REMARK  status: ('A' for Active; 'I' for Inactive)
REMARK    1  A    between atoms: C_2  and  C_1 
REMARK       I    between atoms: N_3  and  C_1 
REMARK    2  A    between atoms: C_10  and  N_4 
REMARK    3  A    between atoms: C_15  and  C_10 
ROOT
ATOM      1  C   UNL d   1       1.121   0.024  -0.003  0.00  0.00     0.257 C 
ATOM      2  N   UNL d   1       0.311   1.137   0.237  0.00  0.00    -0.344 N 
ATOM      3  N   UNL d   1      -0.939   3.507   1.489  0.00  0.00     0.095 N 
ATOM      4  O   UNL d   1       0.924  -1.074   0.497  0.00  0.00    -0.267 OA
ATOM      5  C   UNL d   1       0.504   2.485  -0.305  0.00  0.00     0.156 C 
ATOM      6  C   UNL d   1      -0.936   0.974   0.998  0.00  0.00     0.156 C 
ATOM      7  C   UNL d   1      -1.196   2.134   1.996  0.00  0.00     0.292 C 
ATOM      8  C   UNL d   1       0.384   3.518   0.828  0.00  0.00     0.292 C 
ENDROOT
BRANCH   1   9
ATOM      9  C   UNL d   1       2.254   0.161  -0.946  0.00  0.00     0.075 A 
ATOM     10  C   UNL d   1       3.370   0.953  -0.641  0.00  0.00     0.051 A 
ATOM     11 CL   UNL d   1       3.613   1.672   0.913  0.00  0.00    -0.083 Cl
ATOM     12  C   UNL d   1       4.348   1.195  -1.614  0.00  0.00     0.025 A 
ATOM     13  C   UNL d   1       4.268   0.577  -2.860  0.00  0.00     0.003 A 
ATOM     14  C   UNL d   1       3.218  -0.298  -3.130  0.00  0.00     0.025 A 
ATOM     15  C   UNL d   1       2.206  -0.501  -2.183  0.00  0.00     0.051 A 
ATOM     16 CL   UNL d   1       0.916  -1.561  -2.635  0.00  0.00    -0.083 Cl
ENDBRANCH   1   9
BRANCH   3  17
ATOM     17  C   UNL d   1      -2.027   3.976   0.611  0.00  0.00     0.311 C 
BRANCH  17  18
ATOM     18  C   UNL d   1      -1.766   5.339  -0.004  0.00  0.00    -0.030 A 
ATOM     19  C   UNL d   1      -1.519   5.467  -1.381  0.00  0.00     0.009 A 
ATOM     20  C   UNL d   1      -1.212   6.710  -1.937  0.00  0.00     0.001 A 
ATOM     21  C   UNL d   1      -1.157   7.842  -1.125  0.00  0.00     0.000 A 
ATOM     22  C   UNL d   1      -1.406   7.730   0.242  0.00  0.00     0.001 A 
ATOM     23  C   UNL d   1      -1.705   6.487   0.801  0.00  0.00     0.009 A 
ENDBRANCH  17  18
ENDBRANCH   3  17
TORSDOF 3
