REMARK  7 active torsions:
REMARK  status: ('A' for Active; 'I' for Inactive)
REMARK    1  A    between atoms: S_6  and  C_1 
REMARK    2  A    between atoms: C_5  and  C_10 
REMARK    3  A    between atoms: O_18  and  C_5 
REMARK    4  A    between atoms: C_14  and  S_6 
REMARK    5  A    between atoms: C_8  and  C_14 
REMARK       I    between atoms: N_11  and  C_8 
REMARK    6  A    between atoms: C_17  and  N_11 
REMARK    7  A    between atoms: C_22  and  O_18 
ROOT
ATOM      1  C   UNL d   1       2.332   6.522  -0.655  0.00  0.00     0.231 C 
ATOM      2  N   UNL d   1       1.666   5.589   0.126  0.00  0.00    -0.327 N 
ATOM      3  O   UNL d   1       1.797   7.366  -1.371  0.00  0.00    -0.272 OA
ATOM      4  H   UNL d   1       2.245   4.979   0.691  0.00  0.00     0.169 HD
ENDROOT
BRANCH   2   5
ATOM      5  C   UNL d   1       0.271   5.363   0.168  0.00  0.00     0.034 A 
ATOM      6  C   UNL d   1      -0.637   6.051  -0.637  0.00  0.00     0.030 A 
ATOM      7  C   UNL d   1      -2.001   5.750  -0.604  0.00  0.00     0.020 A 
ATOM      8  C   UNL d   1      -2.481   4.744   0.242  0.00  0.00     0.039 A 
ATOM      9  C   UNL d   1      -1.582   4.072   1.078  0.00  0.00     0.020 A 
ATOM     10  C   UNL d   1      -0.214   4.380   1.040  0.00  0.00     0.030 A 
BRANCH   8  11
ATOM     11  C   UNL d   1      -3.902   4.306   0.199  0.00  0.00     0.293 C 
ATOM     12  O   UNL d   1      -4.349   3.380   0.855  0.00  0.00    -0.259 OA
BRANCH  11  13
ATOM     13  O   UNL d   1      -4.560   5.010  -0.756  0.00  0.00    -0.318 OA
BRANCH  13  14
ATOM     14  C   UNL d   1      -5.786   4.443  -1.236  0.00  0.00     0.174 C 
ATOM     15  C   UNL d   1      -5.458   3.516  -2.393  0.00  0.00     0.034 C 
ENDBRANCH  13  14
ENDBRANCH  11  13
ENDBRANCH   8  11
ENDBRANCH   2   5
BRANCH   1  16
ATOM     16  C   UNL d   1       3.841   6.526  -0.502  0.00  0.00     0.185 C 
BRANCH  16  17
ATOM     17  S   UNL d   1       4.574   4.863  -0.597  0.00  0.00    -0.084 SA
BRANCH  17  18
ATOM     18  C   UNL d   1       6.247   5.319  -0.570  0.00  0.00     0.146 A 
ATOM     19  N   UNL d   1       7.284   4.458  -0.813  0.00  0.00    -0.341 N 
ATOM     20  C   UNL d   1       8.445   5.181  -0.693  0.00  0.00     0.109 A 
ATOM     21  C   UNL d   1       7.228   3.056  -1.141  0.00  0.00     0.158 C 
ATOM     22  C   UNL d   1       8.043   6.462  -0.395  0.00  0.00     0.107 A 
ATOM     23  N   UNL d   1       6.679   6.533  -0.315  0.00  0.00    -0.345 N 
ATOM     24  HN  UNL d   1       6.115   7.356  -0.101  1.00  0.00     0.167 HD
ENDBRANCH  17  18
ENDBRANCH  16  17
ENDBRANCH   1  16
TORSDOF 7
