REMARK  4 active torsions:
REMARK  status: ('A' for Active; 'I' for Inactive)
REMARK    1  A    between atoms: C_7  and  C_1 
REMARK    2  A    between atoms: C_3  and  C_2 
REMARK       I    between atoms: N_10  and  C_3 
REMARK    3  A    between atoms: C_6  and  N_10 
REMARK    4  A    between atoms: C_19  and  C_11 
ROOT
ATOM      1  C   UNL d   1       0.315  -2.760  -0.306  0.00  0.00     0.262 C 
ATOM      2  N   UNL d   1      -0.425  -3.654   0.435  0.00  0.00    -0.303 N 
ATOM      3  O   UNL d   1       1.317  -3.019  -0.967  0.00  0.00    -0.267 OA
ATOM      4  H   UNL d   1      -1.242  -3.348   0.941  0.00  0.00     0.171 HD
ENDROOT
BRANCH   1   5
ATOM      5  C   UNL d   1      -0.091  -1.373  -0.180  0.00  0.00     0.093 A 
ATOM      6  C   UNL d   1      -1.286  -0.649  -0.503  0.00  0.00     0.086 A 
ATOM      7  N   UNL d   1      -1.103   0.662  -0.252  0.00  0.00    -0.259 N 
ATOM      8  O   UNL d   1       0.176   0.814   0.204  0.00  0.00    -0.241 OA
ATOM      9  HN  UNL d   1      -1.792   1.403  -0.379  1.00  0.00     0.195 HD
ATOM     10  C   UNL d   1       0.793  -0.387   0.221  0.00  0.00     0.090 A 
ATOM     11  C   UNL d   1       2.214  -0.360   0.619  0.00  0.00     0.080 C 
BRANCH   6  12
ATOM     12  C   UNL d   1      -2.556  -1.034  -1.129  0.00  0.00     0.037 A 
ATOM     13  C   UNL d   1      -3.782  -0.593  -0.576  0.00  0.00     0.048 A 
ATOM     14 CL   UNL d   1      -3.907   0.083   1.018  0.00  0.00    -0.083 Cl
ATOM     15  C   UNL d   1      -4.982  -0.694  -1.294  0.00  0.00     0.025 A 
ATOM     16  C   UNL d   1      -4.997  -1.271  -2.558  0.00  0.00     0.003 A 
ATOM     17  C   UNL d   1      -3.814  -1.770  -3.094  0.00  0.00     0.025 A 
ATOM     18  C   UNL d   1      -2.602  -1.647  -2.396  0.00  0.00     0.048 A 
ATOM     19 CL   UNL d   1      -1.197  -2.224  -3.221  0.00  0.00    -0.083 Cl
ENDBRANCH   6  12
ENDBRANCH   1   5
BRANCH   2  20
ATOM     20  C   UNL d   1      -0.041  -4.949   0.737  0.00  0.00     0.151 A 
ATOM     21  N   UNL d   1      -0.747  -5.720   1.535  0.00  0.00    -0.335 N 
ATOM     22  C   UNL d   1      -0.088  -6.939   1.742  0.00  0.00     0.051 A 
ATOM     23  HN  UNL d   1      -1.646  -5.466   1.945  1.00  0.00     0.168 HD
ATOM     24  C   UNL d   1       1.111  -7.052   1.066  0.00  0.00     0.083 A 
ATOM     25  S   UNL d   1       1.413  -5.635   0.164  0.00  0.00    -0.063 SA
BRANCH  22  26
ATOM     26  C   UNL d   1      -0.647  -7.991   2.597  0.00  0.00    -0.009 A 
ATOM     27  C   UNL d   1      -1.980  -7.902   3.023  0.00  0.00     0.014 A 
ATOM     28  C   UNL d   1      -2.546  -8.896   3.831  0.00  0.00     0.001 A 
ATOM     29  C   UNL d   1      -1.785  -9.993   4.227  0.00  0.00     0.000 A 
ATOM     30  C   UNL d   1      -0.460 -10.097   3.820  0.00  0.00     0.001 A 
ATOM     31  C   UNL d   1       0.106  -9.103   3.013  0.00  0.00     0.014 A 
ENDBRANCH  22  26
ENDBRANCH   2  20
TORSDOF 4
