REMARK  12 active torsions:
REMARK  status: ('A' for Active; 'I' for Inactive)
REMARK    1  A    between atoms: CB_8  and  CG_1 
REMARK    2  A    between atoms: CA_4  and  C_7 
REMARK    3  A    between atoms: CA_4  and  N_5 
REMARK    4  A    between atoms: CA_4  and  CB_8 
REMARK       I    between atoms: C3_19  and  N_5 
REMARK    5  A    between atoms: OXT_11  and  C_7 
REMARK    6  A    between atoms: O3_22  and  C3_19 
REMARK    7  A    between atoms: C15_28  and  O3_22 
REMARK    8  A    between atoms: O6_30  and  C10_23 
REMARK    9  A    between atoms: O5_29  and  C11_24 
REMARK   10  A    between atoms: C12_25  and  C15_28 
REMARK   11  A    between atoms: C_34  and  N_33 
REMARK   12  A    between atoms: C_35  and  N_33 
ROOT
ATOM      1  N   UNL d   1       1.563   0.212   0.100  0.00  0.00     0.092 N 
ATOM      2  H   UNL d   1       1.184   0.882   0.774  0.00  0.00     0.316 HD
ENDROOT
BRANCH   1   3
ATOM      3  C   UNL d   1       1.107   0.597  -1.264  0.00  0.00     0.221 C 
ATOM      4  C   UNL d   1       1.516   2.051  -1.591  0.00  0.00     0.035 C 
ATOM      5  C   UNL d   1       0.656   3.115  -0.905  0.00  0.00     0.002 C 
ATOM      6  C   UNL d   1      -0.842   2.905  -1.109  0.00  0.00     0.000 C 
ATOM      7  C   UNL d   1      -1.279   1.465  -0.855  0.00  0.00     0.002 C 
ATOM      8  C   UNL d   1      -0.394   0.451  -1.578  0.00  0.00     0.035 C 
ENDBRANCH   1   3
BRANCH   1   9
ATOM      9  C   UNL d   1       1.206  -1.159   0.534  0.00  0.00     0.221 C 
ATOM     10  C   UNL d   1       1.707  -1.435   1.978  0.00  0.00     0.035 C 
ATOM     11  C   UNL d   1       3.182  -1.837   2.073  0.00  0.00     0.002 C 
ATOM     12  C   UNL d   1       3.451  -3.065   1.215  0.00  0.00     0.000 C 
ATOM     13  C   UNL d   1       3.117  -2.753  -0.236  0.00  0.00     0.002 C 
ATOM     14  C   UNL d   1       1.664  -2.301  -0.404  0.00  0.00     0.035 C 
ENDBRANCH   1   9
TORSDOF 12
