REMARK  4 active torsions:
REMARK  status: ('A' for Active; 'I' for Inactive)
REMARK    1  A    between atoms: C_7  and  C_1 
REMARK    2  A    between atoms: O_17  and  C_7 
REMARK    3  A    between atoms: N_8  and  N_10 
REMARK    4  A    between atoms: C_21  and  O_17 
ROOT
ATOM      1  C   UNL d   1      -0.875  -0.447  -0.133  0.00  0.00     0.105 A 
ATOM      2  N   UNL d   1       1.270   0.187   0.515  0.00  0.00    -0.338 N 
ATOM      3  HN  UNL d   1       2.207   0.069   0.900  1.00  0.00     0.168 HD
ATOM      4  C   UNL d   1       0.806   1.318   0.032  0.00  0.00     0.164 A 
ATOM      5  C   UNL d   1       0.331  -0.824   0.435  0.00  0.00     0.030 A 
ATOM      6  S   UNL d   1      -0.812   1.225  -0.542  0.00  0.00    -0.045 SA
ATOM      7  N   UNL d   1       1.510   2.482  -0.043  0.00  0.00    -0.280 N 
ATOM      8  C   UNL d   1       0.727  -2.155   0.972  0.00  0.00     0.070 C 
ATOM      9  H   UNL d   1       1.045   3.257  -0.507  0.00  0.00     0.189 HD
ENDROOT
BRANCH   7  10
ATOM     10  N   UNL d   1       2.869   2.449   0.006  0.00  0.00    -0.306 N 
ATOM     11  C   UNL d   1       3.540   3.553   0.010  0.00  0.00     0.012 A 
ATOM     12  C   UNL d   1       3.030   4.984   0.009  0.00  0.00     0.093 A 
ATOM     13  C   UNL d   1       5.063   3.490   0.024  0.00  0.00     0.093 A 
ATOM     14  C   UNL d   1       4.310   5.775   0.024  0.00  0.00    -0.046 A 
ATOM     15  C   UNL d   1       4.457   7.151   0.033  0.00  0.00     0.008 A 
ATOM     16  C   UNL d   1       5.437   4.937   0.029  0.00  0.00    -0.046 A 
ATOM     17  C   UNL d   1       5.750   7.684   0.043  0.00  0.00     0.001 A 
ATOM     18  C   UNL d   1       6.873   6.842   0.046  0.00  0.00     0.001 A 
ATOM     19  C   UNL d   1       6.722   5.457   0.037  0.00  0.00     0.008 A 
ATOM     20  HN  UNL d   1       3.357   1.554   0.039  1.00  0.00     0.186 HD
ENDBRANCH   7  10
BRANCH   1  21
ATOM     21  C   UNL d   1      -2.093  -1.191  -0.368  0.00  0.00     0.302 C 
ATOM     22  O   UNL d   1      -3.131  -0.749  -0.848  0.00  0.00    -0.259 OA
BRANCH  21  23
ATOM     23  O   UNL d   1      -1.949  -2.469   0.086  0.00  0.00    -0.317 OA
BRANCH  23  24
ATOM     24  C   UNL d   1      -3.149  -3.240   0.218  0.00  0.00     0.174 C 
ATOM     25  C   UNL d   1      -3.736  -2.985   1.594  0.00  0.00     0.034 C 
ENDBRANCH  23  24
ENDBRANCH  21  23
ENDBRANCH   1  21
TORSDOF 4
