REMARK  3 active torsions:
REMARK  status: ('A' for Active; 'I' for Inactive)
REMARK    1  A    between atoms: C_14  and  C_4 
REMARK    2  A    between atoms: C_15  and  C_5 
REMARK    3  A    between atoms: C_6  and  C_7 
ROOT
ATOM      1  N   UNL d   1       4.343   0.911   2.377  0.00  0.00    -0.364 N 
ATOM      2  HN  UNL d   1       5.352   1.039   2.288  1.00  0.00     0.165 HD
ATOM      3  C   UNL d   1       3.750   0.910   3.604  0.00  0.00     0.048 A 
ATOM      4  C   UNL d   1       2.206   0.535   1.321  0.00  0.00    -0.020 A 
ATOM      5  C   UNL d   1       2.357   0.769   3.737  0.00  0.00    -0.034 A 
ATOM      6  C   UNL d   1       1.602   0.546   2.577  0.00  0.00     0.019 A 
ATOM      7  C   UNL d   1       3.575   0.740   1.282  0.00  0.00     0.097 A 
ATOM      8  C   UNL d   1       1.608   0.842   5.036  0.00  0.00     0.050 C 
ENDROOT
BRANCH   4   9
ATOM      9  C   UNL d   1       1.412   0.308   0.054  0.00  0.00     0.115 C 
ATOM     10  N   UNL d   1       0.408   1.343  -0.117  0.00  0.00    -0.401 N 
ATOM     11  C   UNL d   1      -1.012   1.018  -0.088  0.00  0.00     0.139 C 
ATOM     12  H   UNL d   1       0.607   2.179   0.425  0.00  0.00     0.154 HD
ATOM     13  C   UNL d   1      -1.390  -0.444   0.016  0.00  0.00    -0.061 C 
ATOM     14  C   UNL d   1      -2.854  -0.786   0.091  0.00  0.00     0.045 C 
ATOM     15  C   UNL d   1      -0.478  -1.434   0.033  0.00  0.00    -0.020 C 
ATOM     16  C   UNL d   1       0.987  -1.176  -0.065  0.00  0.00     0.057 C 
BRANCH  11  17
ATOM     17  C   UNL d   1      -1.643   1.676  -1.311  0.00  0.00    -0.032 A 
ATOM     18  C   UNL d   1      -1.185   1.354  -2.603  0.00  0.00     0.009 A 
ATOM     19  C   UNL d   1      -1.735   1.962  -3.727  0.00  0.00     0.001 A 
ATOM     20  C   UNL d   1      -2.758   2.895  -3.580  0.00  0.00     0.000 A 
ATOM     21  C   UNL d   1      -3.227   3.222  -2.308  0.00  0.00     0.001 A 
ATOM     22  C   UNL d   1      -2.671   2.620  -1.178  0.00  0.00     0.009 A 
ENDBRANCH  11  17
ENDBRANCH   4   9
BRANCH   3  23
ATOM     23  C   UNL d   1       4.716   1.075   4.721  0.00  0.00    -0.009 A 
ATOM     24  C   UNL d   1       5.875   1.860   4.553  0.00  0.00     0.014 A 
ATOM     25  C   UNL d   1       6.810   2.024   5.582  0.00  0.00     0.001 A 
ATOM     26  C   UNL d   1       6.602   1.414   6.812  0.00  0.00     0.000 A 
ATOM     27  C   UNL d   1       5.480   0.616   7.003  0.00  0.00     0.001 A 
ATOM     28  C   UNL d   1       4.568   0.429   5.960  0.00  0.00     0.014 A 
ENDBRANCH   3  23
TORSDOF 3
