REMARK  4 active torsions:
REMARK  status: ('A' for Active; 'I' for Inactive)
REMARK    1  A    between atoms: N_8  and  C_2 
REMARK    2  A    between atoms: C_14  and  N_8 
REMARK    3  A    between atoms: O_16  and  C_9 
REMARK    4  A    between atoms: O_17  and  C_10 
ROOT
ATOM      1  C   UNL d   1       0.183   0.699   0.168  0.00  0.00     0.038 A 
ATOM      2  C   UNL d   1      -1.075   1.331   0.170  0.00  0.00     0.119 A 
ATOM      3  C   UNL d   1       0.181  -0.683  -0.013  0.00  0.00     0.050 A 
ATOM      4  C   UNL d   1       1.408   1.380   0.321  0.00  0.00     0.057 A 
ATOM      5  N   UNL d   1      -2.220   0.629   0.088  0.00  0.00    -0.338 N 
ATOM      6  HN  UNL d   1      -3.131   1.085   0.127  1.00  0.00     0.168 HD
ATOM      7  C   UNL d   1       1.415  -1.326  -0.134  0.00  0.00     0.070 A 
ATOM      8  C   UNL d   1       2.645   0.731   0.201  0.00  0.00     0.102 A 
ATOM      9  C   UNL d   1       2.644  -0.636  -0.055  0.00  0.00     0.103 A 
ATOM     10  N   UNL d   1      -0.957  -1.385  -0.116  0.00  0.00    -0.351 N 
ATOM     11  HN  UNL d   1      -0.953  -2.397  -0.240  1.00  0.00     0.166 HD
ATOM     12  C   UNL d   1      -2.103  -0.689  -0.047  0.00  0.00     0.182 A 
ENDROOT
BRANCH   2  13
ATOM     13  N   UNL d   1      -1.127   2.757   0.193  0.00  0.00    -0.342 N 
ATOM     14  H   UNL d   1      -0.610   3.113  -0.603  0.00  0.00     0.167 HD
BRANCH  13  15
ATOM     15  C   UNL d   1      -2.285   3.519   0.454  0.00  0.00     0.034 A 
ATOM     16  C   UNL d   1      -3.132   3.192   1.520  0.00  0.00     0.036 A 
ATOM     17  C   UNL d   1      -4.294   3.928   1.780  0.00  0.00    -0.060 A 
ATOM     18  C   UNL d   1      -5.205   3.533   2.902  0.00  0.00     0.048 C 
ATOM     19  C   UNL d   1      -4.601   5.020   0.963  0.00  0.00     0.007 A 
ATOM     20  C   UNL d   1      -3.749   5.378  -0.083  0.00  0.00     0.003 A 
ATOM     21  C   UNL d   1      -2.590   4.639  -0.328  0.00  0.00     0.029 A 
ENDBRANCH  13  15
ENDBRANCH   2  13
BRANCH   8  22
ATOM     22  O   UNL d   1       3.660   1.635   0.317  0.00  0.00    -0.353 OA
ATOM     23  C   UNL d   1       5.008   1.244   0.186  0.00  0.00     0.210 C 
ENDBRANCH   8  22
BRANCH   9  24
ATOM     24  O   UNL d   1       3.746  -1.349  -0.454  0.00  0.00    -0.353 OA
ATOM     25  C   UNL d   1       4.600  -1.777   0.602  0.00  0.00     0.210 C 
ENDBRANCH   9  24
TORSDOF 4
