REMARK  6 active torsions:
REMARK  status: ('A' for Active; 'I' for Inactive)
REMARK    1  A    between atoms: O_3  and  C_1 
REMARK    2  A    between atoms: C_5  and  C_1 
REMARK    3  A    between atoms: S_4  and  C_5 
REMARK    4  A    between atoms: C_7  and  S_4 
REMARK    5  A    between atoms: C_6  and  C_8 
REMARK    6  A    between atoms: C_8  and  C_7 
ROOT
ATOM      1  C   UNL d   1       4.825   0.452  -1.720  0.00  0.00     0.079 C 
ENDROOT
BRANCH   1   2
ATOM      2  S   UNL d   1       3.009   0.326  -1.937  0.00  0.00    -0.158 SA
BRANCH   2   3
ATOM      3  C   UNL d   1       2.528   0.003  -0.203  0.00  0.00     0.183 C 
BRANCH   3   4
ATOM      4  C   UNL d   1       3.008  -1.345   0.289  0.00  0.00     0.149 C 
ATOM      5  O   UNL d   1       3.221  -1.597   1.466  0.00  0.00    -0.649 OA
BRANCH   4   6
ATOM      6  O   UNL d   1       3.128  -2.284  -0.680  0.00  0.00    -0.776 OA
ATOM      7  H   UNL d   1       2.925  -1.903  -1.562  0.00  0.00     0.167 HD
ENDBRANCH   4   6
ENDBRANCH   3   4
ENDBRANCH   2   3
ENDBRANCH   1   2
BRANCH   1   8
ATOM      8  C   UNL d   1       5.485   0.721  -3.075  0.00  0.00     0.049 C 
BRANCH   8   9
ATOM      9  C   UNL d   1       6.994   0.743  -3.010  0.00  0.00    -0.058 A 
ATOM     10  C   UNL d   1       7.715  -0.396  -2.619  0.00  0.00     0.007 A 
ATOM     11  C   UNL d   1       9.111  -0.383  -2.603  0.00  0.00     0.001 A 
ATOM     12  C   UNL d   1       9.803   0.763  -2.988  0.00  0.00     0.000 A 
ATOM     13  C   UNL d   1       9.100   1.899  -3.384  0.00  0.00     0.001 A 
ATOM     14  C   UNL d   1       7.703   1.890  -3.394  0.00  0.00     0.007 A 
ENDBRANCH   8   9
ENDBRANCH   1   8
TORSDOF 6
