REMARK  8 active torsions:
REMARK  status: ('A' for Active; 'I' for Inactive)
REMARK    1  A    between atoms: N_2  and  C_1 
REMARK    2  A    between atoms: C_3  and  C_1 
REMARK    3  A    between atoms: C_4  and  C_1 
REMARK    4  A    between atoms: N_5  and  C_1 
REMARK       I    between atoms: C_6  and  N_2 
REMARK    5  A    between atoms: C_16  and  N_5 
REMARK    6  A    between atoms: O_18  and  C_6 
REMARK    7  A    between atoms: C_17  and  C_16 
REMARK    8  A    between atoms: C_22  and  O_18 
ROOT
ATOM      1  C   UNL d   1       0.886  -0.106   0.059  0.00  0.00     0.427 C 
ENDROOT
BRANCH   1   2
ATOM      2  N   UNL d   1       0.386   0.877   1.060  0.00  0.00    -0.286 N 
ATOM      3  C   UNL d   1       0.050   0.696   2.344  0.00  0.00     0.363 C 
ATOM      4  O   UNL d   1      -0.779   1.434   2.832  0.00  0.00    -0.238 OA
ATOM      5  H   UNL d   1      -0.068   1.700   0.677  0.00  0.00     0.168 HD
BRANCH   3   6
ATOM      6  O   UNL d   1       0.710  -0.268   2.997  0.00  0.00    -0.304 OA
BRANCH   6   7
ATOM      7  C   UNL d   1       0.464  -0.286   4.412  0.00  0.00     0.176 C 
ATOM      8  C   UNL d   1       1.215   0.849   5.099  0.00  0.00     0.034 C 
ENDBRANCH   6   7
ENDBRANCH   3   6
ENDBRANCH   1   2
BRANCH   1   9
ATOM      9  C   UNL d   1       0.213   0.282  -1.312  0.00  0.00     0.452 C 
ATOM     10  F   UNL d   1      -0.145   1.604  -1.280  0.00  0.00    -0.166 F 
ATOM     11  F   UNL d   1       1.078   0.158  -2.346  0.00  0.00    -0.166 F 
ATOM     12  F   UNL d   1      -0.911  -0.389  -1.617  0.00  0.00    -0.166 F 
ENDBRANCH   1   9
BRANCH   1  13
ATOM     13  C   UNL d   1       0.440  -1.602   0.312  0.00  0.00     0.452 C 
ATOM     14  F   UNL d   1      -0.591  -1.705   1.183  0.00  0.00    -0.166 F 
ATOM     15  F   UNL d   1       0.069  -2.253  -0.813  0.00  0.00    -0.166 F 
ATOM     16  F   UNL d   1       1.462  -2.337   0.826  0.00  0.00    -0.166 F 
ENDBRANCH   1  13
BRANCH   1  17
ATOM     17  N   UNL d   1       2.387   0.022   0.094  0.00  0.00     0.136 N 
ATOM     18  H   UNL d   1       2.777  -0.679  -0.541  0.00  0.00     0.320 HD
BRANCH  17  19
ATOM     19  C   UNL d   1       2.948   1.324  -0.255  0.00  0.00     0.313 C 
BRANCH  19  20
ATOM     20  C   UNL d   1       4.457   1.256  -0.299  0.00  0.00    -0.015 A 
ATOM     21  C   UNL d   1       5.165   1.594  -1.449  0.00  0.00     0.096 A 
ATOM     22  N   UNL d   1       6.515   1.566  -1.553  0.00  0.00    -0.375 N 
ATOM     23  C   UNL d   1       7.201   1.185  -0.454  0.00  0.00     0.087 A 
ATOM     24  HN  UNL d   1       6.990   1.820  -2.418  1.00  0.00     0.164 HD
ATOM     25  C   UNL d   1       6.599   0.830   0.741  0.00  0.00     0.018 A 
ATOM     26  C   UNL d   1       5.209   0.868   0.816  0.00  0.00     0.011 A 
ENDBRANCH  19  20
ENDBRANCH  17  19
ENDBRANCH   1  17
TORSDOF 8
