REMARK  8 active torsions:
REMARK  status: ('A' for Active; 'I' for Inactive)
REMARK    1  A    between atoms: N_9  and  S_1 
REMARK    2  A    between atoms: C_12  and  S_1 
REMARK    3  A    between atoms: C_15  and  C_4 
REMARK    4  A    between atoms: N_5  and  C_16 
REMARK    5  A    between atoms: N_18  and  N_9 
REMARK    6  A    between atoms: C_10  and  C_13 
REMARK    7  A    between atoms: C_11  and  C_14 
REMARK    8  A    between atoms: C_16  and  C_17 
REMARK       I    between atoms: C_17  and  N_18 
ROOT
ATOM      1  C   UNL d   1       0.500   2.963   2.466  0.00  0.00     0.257 C 
ATOM      2  N   UNL d   1       1.000   1.726   2.145  0.00  0.00    -0.259 N 
ATOM      3  O   UNL d   1      -0.338   3.517   1.745  0.00  0.00    -0.270 OA
ATOM      4  H   UNL d   1       1.694   1.246   2.733  0.00  0.00     0.190 HD
ENDROOT
BRANCH   2   5
ATOM      5  N   UNL d   1       0.500   1.044   0.984  0.00  0.00    -0.220 N 
ATOM      6  H   UNL d   1      -0.144   1.516   0.341  0.00  0.00     0.200 HD
BRANCH   5   7
ATOM      7  S   UNL d   1       0.891  -0.566   0.701  0.00  0.00     0.276 S 
ATOM      8  O   UNL d   1       2.277  -0.744   1.072  0.00  0.00    -0.199 OA
ATOM      9  O   UNL d   1       0.362  -0.936  -0.590  0.00  0.00    -0.199 OA
BRANCH   7  10
ATOM     10  C   UNL d   1      -0.095  -1.408   1.928  0.00  0.00     0.082 A 
ATOM     11  C   UNL d   1      -1.427  -1.027   2.126  0.00  0.00     0.041 A 
ATOM     12  C   UNL d   1      -2.209  -1.679   3.090  0.00  0.00     0.050 A 
ATOM     13  C   UNL d   1      -1.630  -2.714   3.845  0.00  0.00     0.032 A 
ATOM     14  C   UNL d   1      -0.304  -3.131   3.621  0.00  0.00     0.050 A 
ATOM     15  C   UNL d   1       0.472  -2.449   2.672  0.00  0.00     0.041 A 
BRANCH  12  16
ATOM     16  C   UNL d   1      -3.654  -1.292   3.315  0.00  0.00     0.417 C 
ATOM     17  F   UNL d   1      -4.185  -0.582   2.283  0.00  0.00    -0.166 F 
ATOM     18  F   UNL d   1      -4.463  -2.373   3.484  0.00  0.00    -0.166 F 
ATOM     19  F   UNL d   1      -3.813  -0.523   4.425  0.00  0.00    -0.166 F 
ENDBRANCH  12  16
BRANCH  14  20
ATOM     20  C   UNL d   1       0.231  -4.342   4.353  0.00  0.00     0.417 C 
ATOM     21  F   UNL d   1       1.487  -4.697   3.976  0.00  0.00    -0.166 F 
ATOM     22  F   UNL d   1       0.274  -4.160   5.700  0.00  0.00    -0.166 F 
ATOM     23  F   UNL d   1      -0.547  -5.442   4.148  0.00  0.00    -0.166 F 
ENDBRANCH  14  20
ENDBRANCH   7  10
ENDBRANCH   5   7
ENDBRANCH   2   5
BRANCH   1  24
ATOM     24  C   UNL d   1       0.946   3.615   3.755  0.00  0.00     0.271 C 
BRANCH  24  25
ATOM     25  N   UNL d   1       1.954   2.940   4.550  0.00  0.00    -0.207 N 
ATOM     26  N   UNL d   1       2.375   1.675   4.330  0.00  0.00    -0.268 N 
ATOM     27  C   UNL d   1       3.190   1.498   5.386  0.00  0.00     0.144 A 
ATOM     28  HN  UNL d   1       2.140   1.032   3.574  1.00  0.00     0.190 HD
ATOM     29  N   UNL d   1       3.231   2.601   6.204  0.00  0.00    -0.266 N 
ATOM     30  N   UNL d   1       2.436   3.513   5.665  0.00  0.00    -0.002 NA
ATOM     31  HN  UNL d   1       3.771   2.699   7.063  1.00  0.00     0.186 HD
BRANCH  27  32
ATOM     32  C   UNL d   1       3.925   0.272   5.658  0.00  0.00     0.014 A 
ATOM     33  C   UNL d   1       3.986  -0.751   4.699  0.00  0.00     0.039 A 
ATOM     34  C   UNL d   1       4.674  -1.933   4.974  0.00  0.00     0.036 A 
ATOM     35 CL   UNL d   1       4.726  -3.179   3.789  0.00  0.00    -0.084 Cl
ATOM     36  C   UNL d   1       5.310  -2.116   6.197  0.00  0.00     0.047 A 
ATOM     37  C   UNL d   1       5.257  -1.101   7.149  0.00  0.00     0.036 A 
ATOM     38  C   UNL d   1       4.573   0.088   6.888  0.00  0.00     0.039 A 
ATOM     39 CL   UNL d   1       6.037  -1.318   8.667  0.00  0.00    -0.084 Cl
ENDBRANCH  27  32
ENDBRANCH  24  25
ENDBRANCH   1  24
TORSDOF 8
