REMARK  3 active torsions:
REMARK  status: ('A' for Active; 'I' for Inactive)
REMARK    1  A    between atoms: N_10  and  C_1 
REMARK    2  A    between atoms: N_12  and  C_8 
REMARK    3  A    between atoms: N_11  and  C_9 
ROOT
ATOM      1  C   UNL d   1      -1.893  -0.310  -0.320  0.00  0.00     0.164 A 
ATOM      2  N   UNL d   1      -1.287  -1.026   0.624  0.00  0.00    -0.309 N 
ATOM      3  HN  UNL d   1      -1.785  -1.712   1.191  1.00  0.00     0.171 HD
ATOM      4  N   UNL d   1      -1.252   0.547  -1.109  0.00  0.00    -0.309 N 
ATOM      5  HN  UNL d   1      -1.739   1.101  -1.813  1.00  0.00     0.171 HD
ATOM      6  N   UNL d   1       0.729   0.022   0.024  0.00  0.00    -0.309 N 
ATOM      7  HN  UNL d   1       1.730   0.158   0.166  1.00  0.00     0.171 HD
ATOM      8  C   UNL d   1       0.053   0.639  -0.926  0.00  0.00     0.159 A 
ATOM      9  C   UNL d   1       0.004  -0.788   0.776  0.00  0.00     0.159 A 
ENDROOT
BRANCH   1  10
ATOM     10  N   UNL d   1      -3.267  -0.407  -0.491  0.00  0.00    -0.254 NA
ATOM     11  C   UNL d   1      -3.972  -1.469   0.212  0.00  0.00     0.098 C 
ATOM     12  C   UNL d   1      -5.433  -1.049   0.065  0.00  0.00     0.016 C 
ATOM     13  C   UNL d   1      -5.407   0.475  -0.030  0.00  0.00     0.016 C 
ATOM     14  C   UNL d   1      -3.939   0.858  -0.218  0.00  0.00     0.098 C 
ENDBRANCH   1  10
BRANCH   9  15
ATOM     15  N   UNL d   1       0.654  -1.443   1.805  0.00  0.00    -0.274 NA
ATOM     16  H   UNL d   1       0.172  -2.301   2.033  0.00  0.00     0.127 HD
ATOM     17  H   UNL d   1       1.644  -1.504   1.606  0.00  0.00     0.127 HD
ENDBRANCH   9  15
BRANCH   8  18
ATOM     18  N   UNL d   1       0.750   1.486  -1.763  0.00  0.00    -0.274 NA
ATOM     19  H   UNL d   1       1.572   1.844  -1.298  0.00  0.00     0.127 HD
ATOM     20  H   UNL d   1       0.117   2.158  -2.178  0.00  0.00     0.127 HD
ENDBRANCH   8  18
TORSDOF 3
