REMARK  17 active torsions:
REMARK  status: ('A' for Active; 'I' for Inactive)
REMARK    1  A    between atoms: N_3  and  C_1 
REMARK    2  A    between atoms: S_12  and  C_1 
REMARK    3  A    between atoms: C_2  and  S_11 
REMARK    4  A    between atoms: N_4  and  C_2 
REMARK    5  A    between atoms: C_5  and  N_3 
REMARK    6  A    between atoms: C_6  and  N_4 
REMARK    7  A    between atoms: O_13  and  C_9 
REMARK    8  A    between atoms: O_14  and  C_10 
REMARK    9  A    between atoms: S_11  and  C_22 
REMARK   10  A    between atoms: C_21  and  S_12 
REMARK   11  A    between atoms: C_24  and  O_13 
REMARK   12  A    between atoms: C_23  and  O_14 
REMARK   13  A    between atoms: O_15  and  C_26 
REMARK   14  A    between atoms: O_16  and  C_25 
REMARK   15  A    between atoms: C_22  and  C_21 
REMARK   16  A    between atoms: C_25  and  C_23 
REMARK   17  A    between atoms: C_26  and  C_24 
ROOT
ATOM      1  C   UNL d   1       3.208  -0.662  -1.742  0.00  0.00     0.092 C 
ENDROOT
BRANCH   1   2
ATOM      2  S   UNL d   1       2.434  -2.311  -1.880  0.00  0.00    -0.100 SA
BRANCH   2   3
ATOM      3  C   UNL d   1       0.745  -1.911  -1.681  0.00  0.00     0.139 C 
ATOM      4  S   UNL d   1      -0.094  -2.462  -0.338  0.00  0.00    -0.053 SA
BRANCH   3   5
ATOM      5  N   UNL d   1       0.066  -1.110  -2.573  0.00  0.00    -0.340 N 
ATOM      6  H   UNL d   1      -0.834  -0.797  -2.214  0.00  0.00     0.167 HD
BRANCH   5   7
ATOM      7  C   UNL d   1       0.361  -0.577  -3.845  0.00  0.00     0.067 A 
ATOM      8  C   UNL d   1      -0.447   0.489  -4.312  0.00  0.00     0.095 A 
ATOM      9  C   UNL d   1      -0.101   1.133  -5.510  0.00  0.00     0.039 A 
ATOM     10  C   UNL d   1       0.970   0.688  -6.282  0.00  0.00     0.003 A 
ATOM     11  C   UNL d   1       1.698  -0.421  -5.875  0.00  0.00     0.002 A 
ATOM     12  C   UNL d   1       1.386  -1.053  -4.668  0.00  0.00     0.032 A 
BRANCH   8  13
ATOM     13  O   UNL d   1      -1.542   0.844  -3.534  0.00  0.00    -0.347 OA
BRANCH  13  14
ATOM     14  C   UNL d   1      -2.413   1.796  -4.155  0.00  0.00     0.201 C 
BRANCH  14  15
ATOM     15  C   UNL d   1      -3.727   2.004  -3.406  0.00  0.00     0.193 C 
BRANCH  15  16
ATOM     16  O   UNL d   1      -4.463   2.980  -4.154  0.00  0.00    -0.394 OA
ATOM     17  C   UNL d   1      -5.745   3.253  -3.614  0.00  0.00     0.201 C 
ENDBRANCH  15  16
ENDBRANCH  14  15
ENDBRANCH  13  14
ENDBRANCH   8  13
ENDBRANCH   5   7
ENDBRANCH   3   5
ENDBRANCH   2   3
ENDBRANCH   1   2
BRANCH   1  18
ATOM     18  C   UNL d   1       4.736  -0.709  -1.897  0.00  0.00     0.092 C 
BRANCH  18  19
ATOM     19  S   UNL d   1       5.332  -1.358  -3.497  0.00  0.00    -0.100 SA
BRANCH  19  20
ATOM     20  C   UNL d   1       5.539   0.025  -4.545  0.00  0.00     0.139 C 
ATOM     21  S   UNL d   1       4.922   1.563  -4.275  0.00  0.00    -0.053 SA
BRANCH  20  22
ATOM     22  N   UNL d   1       6.138  -0.155  -5.775  0.00  0.00    -0.340 N 
ATOM     23  H   UNL d   1       6.016   0.670  -6.341  0.00  0.00     0.167 HD
BRANCH  22  24
ATOM     24  C   UNL d   1       6.930  -1.168  -6.368  0.00  0.00     0.067 A 
ATOM     25  C   UNL d   1       7.066  -1.280  -7.773  0.00  0.00     0.095 A 
ATOM     26  C   UNL d   1       7.952  -2.240  -8.305  0.00  0.00     0.039 A 
ATOM     27  C   UNL d   1       8.708  -3.073  -7.486  0.00  0.00     0.003 A 
ATOM     28  C   UNL d   1       8.593  -2.954  -6.112  0.00  0.00     0.002 A 
ATOM     29  C   UNL d   1       7.718  -2.010  -5.564  0.00  0.00     0.032 A 
BRANCH  25  30
ATOM     30  O   UNL d   1       6.461  -0.589  -8.792  0.00  0.00    -0.347 OA
BRANCH  30  31
ATOM     31  C   UNL d   1       5.359   0.271  -8.562  0.00  0.00     0.201 C 
BRANCH  31  32
ATOM     32  C   UNL d   1       4.728   0.675  -9.892  0.00  0.00     0.193 C 
BRANCH  32  33
ATOM     33  O   UNL d   1       3.671   1.597  -9.619  0.00  0.00    -0.394 OA
ATOM     34  C   UNL d   1       3.134   2.159 -10.808  0.00  0.00     0.201 C 
ENDBRANCH  32  33
ENDBRANCH  31  32
ENDBRANCH  30  31
ENDBRANCH  25  30
ENDBRANCH  22  24
ENDBRANCH  20  22
ENDBRANCH  19  20
ENDBRANCH  18  19
ENDBRANCH   1  18
TORSDOF 17
