REMARK  5 active torsions:
REMARK  status: ('A' for Active; 'I' for Inactive)
REMARK    1  A    between atoms: C_3  and  N_1 
REMARK    2  A    between atoms: C_2  and  C_6 
REMARK       I    between atoms: N_14  and  C_2 
REMARK    3  A    between atoms: C_15  and  N_14 
REMARK    4  A    between atoms: C_19  and  C_15 
REMARK    5  A    between atoms: C_16  and  C_19 
ROOT
ATOM      1  C   UNL d   1      -1.600  -4.318  -2.683  0.00  0.00     0.251 C 
ATOM      2  O   UNL d   1      -2.552  -4.047  -3.406  0.00  0.00    -0.268 OA
ATOM      3  N   UNL d   1      -1.069  -5.589  -2.614  0.00  0.00    -0.357 N 
ATOM      4  H   UNL d   1      -0.234  -5.786  -2.085  0.00  0.00     0.162 HD
ENDROOT
BRANCH   1   5
ATOM      5  C   UNL d   1      -0.971  -3.247  -1.850  0.00  0.00     0.032 A 
ATOM      6  C   UNL d   1      -1.486  -1.945  -1.966  0.00  0.00     0.019 A 
ATOM      7  C   UNL d   1      -0.939  -0.886  -1.234  0.00  0.00     0.037 A 
ATOM      8  C   UNL d   1       0.137  -1.132  -0.375  0.00  0.00     0.102 A 
ATOM      9  C   UNL d   1       0.654  -2.426  -0.237  0.00  0.00     0.037 A 
ATOM     10  C   UNL d   1       0.097  -3.482  -0.969  0.00  0.00     0.019 A 
BRANCH   8  11
ATOM     11  N   UNL d   1       0.735  -0.027   0.385  0.00  0.00    -0.116 N 
ATOM     12  O   UNL d   1       1.692  -0.291   1.126  0.00  0.00    -0.532 OA
ATOM     13  O   UNL d   1       0.250   1.104   0.236  0.00  0.00    -0.532 OA
ENDBRANCH   8  11
ENDBRANCH   1   5
BRANCH   3  14
ATOM     14  C   UNL d   1      -1.635  -6.663  -3.408  0.00  0.00     0.127 C 
BRANCH  14  15
ATOM     15  C   UNL d   1      -0.946  -8.009  -3.164  0.00  0.00     0.058 C 
BRANCH  15  16
ATOM     16  C   UNL d   1      -1.000  -8.547  -1.751  0.00  0.00    -0.054 A 
ATOM     17  C   UNL d   1      -2.065  -8.294  -0.882  0.00  0.00     0.024 A 
ATOM     18  C   UNL d   1      -2.047  -8.860   0.385  0.00  0.00     0.088 A 
ATOM     19  N   UNL d   1      -1.059  -9.659   0.838  0.00  0.00    -0.375 N 
ATOM     20  C   UNL d   1      -0.048  -9.911  -0.018  0.00  0.00     0.088 A 
ATOM     21  HN  UNL d   1      -1.075 -10.051   1.779  1.00  0.00     0.164 HD
ATOM     22  C   UNL d   1       0.023  -9.390  -1.302  0.00  0.00     0.024 A 
ENDBRANCH  15  16
ENDBRANCH  14  15
ENDBRANCH   3  14
TORSDOF 5
