REMARK  5 active torsions:
REMARK  status: ('A' for Active; 'I' for Inactive)
REMARK    1  A    between atoms: C_11  and  N_1 
REMARK    2  A    between atoms: O_19  and  C_7 
REMARK    3  A    between atoms: O_20  and  C_8 
REMARK    4  A    between atoms: O_21  and  C_10 
REMARK    5  A    between atoms: C_13  and  C_11 
ROOT
ATOM      1  N   UNL d   1       2.483  -0.636  -0.127  0.00  0.00    -0.285 N 
ATOM      2  C   UNL d   1       0.028  -0.584   0.075  0.00  0.00     0.065 A 
ATOM      3  C   UNL d   1       1.296  -1.354   0.073  0.00  0.00     0.262 C 
ATOM      4  C   UNL d   1       2.490   0.731  -0.336  0.00  0.00     0.181 C 
ATOM      5  C   UNL d   1       0.054   0.808  -0.002  0.00  0.00     0.087 A 
ATOM      6  N   UNL d   1       1.309   1.395  -0.189  0.00  0.00    -0.330 N 
ATOM      7  C   UNL d   1      -1.158   1.545   0.032  0.00  0.00     0.132 A 
ATOM      8  C   UNL d   1      -2.400   0.838   0.074  0.00  0.00     0.137 A 
ATOM      9  C   UNL d   1      -1.185  -1.268   0.119  0.00  0.00     0.059 A 
ATOM     10  C   UNL d   1      -2.400  -0.576   0.099  0.00  0.00     0.105 A 
ATOM     11  S   UNL d   1       3.785   1.705  -0.777  0.00  0.00    -0.040 SA
ATOM     12  O   UNL d   1       1.258  -2.574   0.225  0.00  0.00    -0.267 OA
ATOM     13  H   UNL d   1       1.402   2.383  -0.339  0.00  0.00     0.168 HD
ENDROOT
BRANCH   1  14
ATOM     14  C   UNL d   1       3.724  -1.423  -0.109  0.00  0.00     0.180 C 
BRANCH  14  15
ATOM     15  C   UNL d   1       4.247  -1.511   1.303  0.00  0.00     0.001 A 
ATOM     16  S   UNL d   1       5.361  -0.354   1.907  0.00  0.00    -0.105 SA
ATOM     17  C   UNL d   1       5.381  -1.073   3.454  0.00  0.00     0.050 A 
ATOM     18  C   UNL d   1       4.609  -2.211   3.501  0.00  0.00     0.008 A 
ATOM     19  C   UNL d   1       3.962  -2.469   2.258  0.00  0.00     0.017 A 
ENDBRANCH  14  15
ENDBRANCH   1  14
BRANCH  10  20
ATOM     20  O   UNL d   1      -3.467  -1.440   0.104  0.00  0.00    -0.353 OA
ATOM     21  C   UNL d   1      -4.790  -0.937  -0.001  0.00  0.00     0.210 C 
ENDBRANCH  10  20
BRANCH   7  22
ATOM     22  O   UNL d   1      -1.289   2.904  -0.017  0.00  0.00    -0.351 OA
ATOM     23  C   UNL d   1      -0.244   3.839   0.141  0.00  0.00     0.210 C 
ENDBRANCH   7  22
BRANCH   8  24
ATOM     24  O   UNL d   1      -3.648   1.408   0.090  0.00  0.00    -0.351 OA
ATOM     25  C   UNL d   1      -3.852   2.811   0.053  0.00  0.00     0.210 C 
ENDBRANCH   8  24
TORSDOF 5
