REMARK  6 active torsions:
REMARK  status: ('A' for Active; 'I' for Inactive)
REMARK    1  A    between atoms: C_2  and  N_1 
REMARK       I    between atoms: C_3  and  N_1 
REMARK    2  A    between atoms: C_11  and  C_3 
REMARK    3  A    between atoms: C_4  and  C_12 
REMARK    4  A    between atoms: O_10  and  C_4 
REMARK    5  A    between atoms: S_8  and  C_11 
REMARK    6  A    between atoms: C_12  and  S_8 
ROOT
ATOM      1  N   UNL d   1       1.197   0.327  -0.130  0.00  0.00    -0.325 N 
ATOM      2  C   UNL d   1       2.515  -0.055  -0.026  0.00  0.00     0.231 C 
ATOM      3  O   UNL d   1       3.021  -1.007  -0.628  0.00  0.00    -0.272 OA
ATOM      4  H   UNL d   1       0.981   1.313  -0.016  0.00  0.00     0.169 HD
ENDROOT
BRANCH   1   5
ATOM      5  C   UNL d   1       0.195  -0.451  -0.755  0.00  0.00     0.056 A 
ATOM      6  C   UNL d   1      -0.849   0.186  -1.444  0.00  0.00     0.060 A 
ATOM      7 CL   UNL d   1      -0.878   1.907  -1.616  0.00  0.00    -0.082 Cl
ATOM      8  C   UNL d   1      -1.859  -0.563  -2.050  0.00  0.00     0.026 A 
ATOM      9  C   UNL d   1      -1.857  -1.953  -1.935  0.00  0.00     0.002 A 
ATOM     10  C   UNL d   1      -0.840  -2.594  -1.229  0.00  0.00     0.002 A 
ATOM     11  C   UNL d   1       0.190  -1.847  -0.651  0.00  0.00     0.031 A 
ENDBRANCH   1   5
BRANCH   2  12
ATOM     12  C   UNL d   1       3.353   0.794   0.915  0.00  0.00     0.177 C 
BRANCH  12  13
ATOM     13  S   UNL d   1       3.774  -0.155   2.418  0.00  0.00    -0.149 SA
BRANCH  13  14
ATOM     14  C   UNL d   1       4.617  -1.618   1.714  0.00  0.00     0.184 C 
BRANCH  14  15
ATOM     15  C   UNL d   1       5.829  -1.248   0.891  0.00  0.00     0.149 C 
ATOM     16  O   UNL d   1       6.937  -1.030   1.366  0.00  0.00    -0.649 OA
BRANCH  15  17
ATOM     17  O   UNL d   1       5.595  -1.145  -0.439  0.00  0.00    -0.776 OA
ATOM     18  H   UNL d   1       4.652  -1.308  -0.699  0.00  0.00     0.167 HD
ENDBRANCH  15  17
ENDBRANCH  14  15
ENDBRANCH  13  14
ENDBRANCH  12  13
ENDBRANCH   2  12
TORSDOF 6
