REMARK  7 active torsions:
REMARK  status: ('A' for Active; 'I' for Inactive)
REMARK    1  A    between atoms: C_5  and  C_1 
REMARK    2  A    between atoms: N_8  and  C_2 
REMARK       I    between atoms: C_11  and  N_8 
REMARK    3  A    between atoms: O_26  and  C_9 
REMARK    4  A    between atoms: C_10  and  C_12 
REMARK    5  A    between atoms: O_21  and  C_11 
REMARK    6  A    between atoms: N_23  and  C_12 
REMARK    7  A    between atoms: N_15  and  O_21 
ROOT
ATOM      1  N   UNL d   1       0.856  -2.345   0.522  0.00  0.00    -0.297 N 
ATOM      2  C   UNL d   1       0.526  -1.079   0.105  0.00  0.00     0.387 C 
ATOM      3  O   UNL d   1      -0.415  -0.787  -0.625  0.00  0.00    -0.236 OA
ATOM      4  H   UNL d   1       1.480  -2.380   1.315  0.00  0.00     0.171 HD
ENDROOT
BRANCH   2   5
ATOM      5  O   UNL d   1       1.270  -0.087   0.711  0.00  0.00    -0.179 OA
BRANCH   5   6
ATOM      6  N   UNL d   1       2.633  -0.453   0.821  0.00  0.00    -0.244 N 
ATOM      7  C   UNL d   1       3.368   0.625   0.840  0.00  0.00     0.109 C 
ATOM      8  HN  UNL d   1       2.985  -1.409   0.876  1.00  0.00     0.196 HD
BRANCH   7   9
ATOM      9  C   UNL d   1       4.860   0.489   0.780  0.00  0.00     0.006 A 
ATOM     10  C   UNL d   1       5.636   1.548   0.290  0.00  0.00     0.036 A 
ATOM     11  C   UNL d   1       7.020   1.399   0.150  0.00  0.00     0.046 A 
ATOM     12 BR   UNL d   1       8.002   2.863  -0.557  0.00  0.00    -0.048 Br
ATOM     13  C   UNL d   1       7.646   0.197   0.504  0.00  0.00     0.102 A 
ATOM     14  C   UNL d   1       6.863  -0.863   0.983  0.00  0.00     0.046 A 
ATOM     15  C   UNL d   1       5.478  -0.716   1.127  0.00  0.00     0.036 A 
ATOM     16 BR   UNL d   1       7.605  -2.560   1.399  0.00  0.00    -0.048 Br
BRANCH  13  17
ATOM     17  O   UNL d   1       8.985   0.048   0.248  0.00  0.00    -0.353 OA
ATOM     18  C   UNL d   1       9.782   0.126   1.430  0.00  0.00     0.210 C 
ENDBRANCH  13  17
ENDBRANCH   7   9
BRANCH   7  19
ATOM     19  N   UNL d   1       2.831   1.892   0.875  0.00  0.00    -0.286 NA
ATOM     20  H   UNL d   1       3.330   2.586   1.420  0.00  0.00     0.125 HD
ATOM     21  H   UNL d   1       1.834   1.894   1.074  0.00  0.00     0.125 HD
ENDBRANCH   7  19
ENDBRANCH   5   6
ENDBRANCH   2   5
BRANCH   1  22
ATOM     22  C   UNL d   1       0.229  -3.497   0.068  0.00  0.00     0.098 A 
ATOM     23  C   UNL d   1      -0.361  -3.812  -1.202  0.00  0.00     0.098 A 
ATOM     24  N   UNL d   1      -0.887  -5.048  -1.179  0.00  0.00    -0.258 N 
ATOM     25  O   UNL d   1      -0.582  -5.575   0.054  0.00  0.00    -0.240 OA
ATOM     26  HN  UNL d   1      -1.408  -5.505  -1.928  1.00  0.00     0.195 HD
ATOM     27  C   UNL d   1       0.135  -4.676   0.775  0.00  0.00     0.101 A 
ATOM     28  C   UNL d   1       0.593  -5.148   2.093  0.00  0.00     0.081 C 
BRANCH  23  29
ATOM     29  C   UNL d   1      -0.276  -3.092  -2.471  0.00  0.00     0.038 A 
ATOM     30  C   UNL d   1       0.982  -2.855  -3.066  0.00  0.00     0.048 A 
ATOM     31 CL   UNL d   1       2.481  -3.353  -2.343  0.00  0.00    -0.083 Cl
ATOM     32  C   UNL d   1       1.083  -2.232  -4.315  0.00  0.00     0.025 A 
ATOM     33  C   UNL d   1      -0.065  -1.846  -5.000  0.00  0.00     0.003 A 
ATOM     34  C   UNL d   1      -1.315  -2.071  -4.428  0.00  0.00     0.025 A 
ATOM     35  C   UNL d   1      -1.425  -2.685  -3.171  0.00  0.00     0.048 A 
ATOM     36 CL   UNL d   1      -3.027  -2.898  -2.547  0.00  0.00    -0.083 Cl
ENDBRANCH  23  29
ENDBRANCH   1  22
TORSDOF 7
