REMARK  4 active torsions:
REMARK  status: ('A' for Active; 'I' for Inactive)
REMARK    1  A    between atoms: N_4  and  C_12 
REMARK    2  A    between atoms: N_5  and  C_13 
REMARK    3  A    between atoms: O_20  and  N_8 
REMARK    4  A    between atoms: C_21  and  O_20 
ROOT
ATOM      1  C   UNL d   1       0.036  -1.565   0.006  0.00  0.00     0.077 A 
ATOM      2  C   UNL d   1      -1.192  -0.723   0.017  0.00  0.00     0.007 A 
ATOM      3  C   UNL d   1       1.190  -0.634  -0.012  0.00  0.00     0.007 A 
ATOM      4  C   UNL d   1      -0.756   0.622  -0.013  0.00  0.00    -0.012 A 
ATOM      5  C   UNL d   1       0.687   0.672  -0.006  0.00  0.00    -0.012 A 
ATOM      6  N   UNL d   1       0.244  -2.840   0.011  0.00  0.00    -0.256 N 
ATOM      7  HN  UNL d   1       1.184  -3.235   0.002  1.00  0.00     0.195 HD
ATOM      8  C   UNL d   1      -2.537  -1.046   0.054  0.00  0.00     0.050 A 
ATOM      9  C   UNL d   1       2.545  -0.924  -0.015  0.00  0.00     0.050 A 
ATOM     10  C   UNL d   1      -3.454   0.023   0.039  0.00  0.00     0.103 A 
ATOM     11  C   UNL d   1       3.420   0.169   0.010  0.00  0.00     0.103 A 
ATOM     12  C   UNL d   1       1.557   1.750   0.027  0.00  0.00     0.015 A 
ATOM     13  C   UNL d   1      -1.664   1.670  -0.045  0.00  0.00     0.015 A 
ATOM     14  C   UNL d   1       2.933   1.496   0.039  0.00  0.00     0.037 A 
ATOM     15  C   UNL d   1      -3.026   1.368  -0.021  0.00  0.00     0.037 A 
ENDROOT
BRANCH   6  16
ATOM     16  O   UNL d   1      -0.902  -3.645   0.028  0.00  0.00    -0.200 OA
BRANCH  16  17
ATOM     17  C   UNL d   1      -0.502  -4.966   0.024  0.00  0.00     0.277 C 
ATOM     18  O   UNL d   1       0.652  -5.386   0.001  0.00  0.00    -0.264 OA
ATOM     19  C   UNL d   1      -1.685  -5.887   0.053  0.00  0.00     0.128 C 
ENDBRANCH  16  17
ENDBRANCH   6  16
BRANCH  10  20
ATOM     20  N   UNL d   1      -4.898  -0.253   0.093  0.00  0.00    -0.116 N 
ATOM     21  O   UNL d   1      -5.251  -1.438   0.172  0.00  0.00    -0.532 OA
ATOM     22  O   UNL d   1      -5.671   0.714   0.060  0.00  0.00    -0.532 OA
ENDBRANCH  10  20
BRANCH  11  23
ATOM     23  N   UNL d   1       4.871  -0.063   0.013  0.00  0.00    -0.116 N 
ATOM     24  O   UNL d   1       5.270  -1.232  -0.029  0.00  0.00    -0.532 OA
ATOM     25  O   UNL d   1       5.610   0.933   0.057  0.00  0.00    -0.532 OA
ENDBRANCH  11  23
TORSDOF 4
