REMARK  2 active torsions:
REMARK  status: ('A' for Active; 'I' for Inactive)
REMARK    1  A    between atoms: C_3  and  N_1 
REMARK       I    between atoms: C_4  and  N_1 
REMARK    2  A    between atoms: C_8  and  C_4 
ROOT
ATOM      1  N   UNL d   1       2.326   3.226  -0.465  0.00  0.00    -0.197 NA
ATOM      2  C   UNL d   1       2.778   2.308   0.080  0.00  0.00     0.068 C 
ATOM      3  C   UNL d   1       3.269   1.119   0.776  0.00  0.00     0.226 C 
ENDROOT
BRANCH   3   4
ATOM      4  C   UNL d   1       2.658  -0.167   0.247  0.00  0.00     0.235 C 
ATOM      5  N   UNL d   1       1.302  -0.112  -0.045  0.00  0.00    -0.324 N 
ATOM      6  H   UNL d   1       0.888   0.806  -0.170  0.00  0.00     0.169 HD
ATOM      7  O   UNL d   1       3.371  -1.161   0.134  0.00  0.00    -0.272 OA
BRANCH   5   8
ATOM      8  C   UNL d   1       0.499  -1.192  -0.493  0.00  0.00     0.073 A 
ATOM      9  C   UNL d   1       0.757  -2.549  -0.247  0.00  0.00     0.145 A 
ATOM     10  C   UNL d   1      -0.065  -3.546  -0.771  0.00  0.00     0.086 A 
ATOM     11  F   UNL d   1       1.740  -2.941   0.574  0.00  0.00    -0.204 F 
ATOM     12  C   UNL d   1      -1.169  -3.188  -1.528  0.00  0.00     0.119 A 
ATOM     13  C   UNL d   1      -1.478  -1.851  -1.748  0.00  0.00     0.044 A 
ATOM     14  F   UNL d   1      -1.959  -4.140  -2.039  0.00  0.00    -0.206 F 
ATOM     15  C   UNL d   1      -0.651  -0.854  -1.223  0.00  0.00     0.036 A 
ENDBRANCH   5   8
ENDBRANCH   3   4
TORSDOF 2
