REMARK  4 active torsions:
REMARK  status: ('A' for Active; 'I' for Inactive)
REMARK    1  A    between atoms: N_7  and  C_1 
REMARK    2  A    between atoms: N_3  and  C_2 
REMARK    3  A    between atoms: N_6  and  C_15 
REMARK       I    between atoms: C_11  and  N_7 
REMARK    4  A    between atoms: C_10  and  C_11 
ROOT
ATOM      1  C   UNL d   1      -2.018  -0.752   0.163  0.00  0.00     0.152 A 
ATOM      2  N   UNL d   1      -0.995  -1.548  -0.048  0.00  0.00    -0.335 N 
ATOM      3  HN  UNL d   1      -1.058  -2.549  -0.233  1.00  0.00     0.168 HD
ATOM      4  S   UNL d   1      -1.642   0.883   0.440  0.00  0.00    -0.052 SA
ATOM      5  C   UNL d   1       0.028   0.550   0.232  0.00  0.00     0.037 A 
ATOM      6  C   UNL d   1       0.187  -0.821   0.019  0.00  0.00     0.051 A 
ATOM      7  C   UNL d   1       2.394   0.913   0.051  0.00  0.00     0.104 A 
ATOM      8  C   UNL d   1       1.111   1.444   0.251  0.00  0.00     0.057 A 
ATOM      9  C   UNL d   1       1.494  -1.332  -0.131  0.00  0.00     0.033 A 
ATOM     10  C   UNL d   1       2.594  -0.461  -0.116  0.00  0.00     0.038 A 
ENDROOT
BRANCH   1  11
ATOM     11  N   UNL d   1      -3.316  -1.204   0.101  0.00  0.00    -0.301 N 
ATOM     12  C   UNL d   1      -4.435  -0.526   0.531  0.00  0.00     0.281 C 
ATOM     13  O   UNL d   1      -4.440   0.576   1.072  0.00  0.00    -0.265 OA
ATOM     14  H   UNL d   1      -3.419  -2.159  -0.221  0.00  0.00     0.171 HD
BRANCH  12  15
ATOM     15  C   UNL d   1      -5.678  -1.255   0.343  0.00  0.00     0.146 A 
ATOM     16  O   UNL d   1      -5.696  -2.453  -0.330  0.00  0.00    -0.283 OA
ATOM     17  C   UNL d   1      -6.992  -2.876  -0.315  0.00  0.00     0.215 A 
ATOM     18  C   UNL d   1      -7.811  -1.995   0.351  0.00  0.00     0.066 A 
ATOM     19  C   UNL d   1      -6.962  -0.940   0.762  0.00  0.00     0.047 A 
BRANCH  17  20
ATOM     20  N   UNL d   1      -7.274  -4.122  -0.955  0.00  0.00    -0.090 N 
ATOM     21  O   UNL d   1      -8.436  -4.537  -0.867  0.00  0.00    -0.530 OA
ATOM     22  O   UNL d   1      -6.341  -4.684  -1.543  0.00  0.00    -0.530 OA
ENDBRANCH  17  20
ENDBRANCH  12  15
ENDBRANCH   1  11
BRANCH   7  23
ATOM     23  N   UNL d   1       3.543   1.829  -0.004  0.00  0.00    -0.116 N 
ATOM     24  O   UNL d   1       3.318   3.043   0.100  0.00  0.00    -0.532 OA
ATOM     25  O   UNL d   1       4.668   1.333  -0.161  0.00  0.00    -0.532 OA
ENDBRANCH   7  23
TORSDOF 4
