REMARK  0 active torsions:
REMARK  status: ('A' for Active; 'I' for Inactive)
ROOT
ATOM      1  C   UNL d   1      -0.964  -0.391   0.026  0.00  0.00     0.068 A 
ATOM      2  C   UNL d   1      -1.800   0.752   0.001  0.00  0.00    -0.003 A 
ATOM      3  N   UNL d   1      -1.685  -1.522   0.045  0.00  0.00    -0.298 N 
ATOM      4  HN  UNL d   1      -1.341  -2.482   0.065  1.00  0.00     0.187 HD
ATOM      5  C   UNL d   1       0.490  -0.365   0.017  0.00  0.00     0.011 A 
ATOM      6  N   UNL d   1      -2.960  -1.106   0.030  0.00  0.00    -0.307 N 
ATOM      7  C   UNL d   1      -3.086   0.251   0.009  0.00  0.00     0.120 A 
ATOM      8  S   UNL d   1       0.404   2.478   0.160  0.00  0.00    -0.124 SA
ATOM      9  C   UNL d   1       1.173   0.863   0.047  0.00  0.00     0.013 A 
ATOM     10  C   UNL d   1      -1.376   2.164  -0.055  0.00  0.00     0.121 C 
ATOM     11  C   UNL d   1       1.218  -1.568  -0.017  0.00  0.00     0.039 A 
ATOM     12  C   UNL d   1       2.579   0.859   0.031  0.00  0.00     0.021 A 
ATOM     13  C   UNL d   1       2.610  -1.549  -0.026  0.00  0.00     0.035 A 
ATOM     14  C   UNL d   1       3.295  -0.339  -0.007  0.00  0.00     0.025 A 
ATOM     15 CL   UNL d   1       3.491  -3.026  -0.055  0.00  0.00    -0.084 Cl
ATOM     16  C   UNL d   1      -4.039  -2.062   0.023  0.00  0.00     0.177 C 
ENDROOT
TORSDOF 0
