REMARK  7 active torsions:
REMARK  status: ('A' for Active; 'I' for Inactive)
REMARK    1  A    between atoms: N_7  and  C_1 
REMARK    2  A    between atoms: C_6  and  C_5 
REMARK    3  A    between atoms: C_9  and  C_6 
REMARK    4  A    between atoms: C_15  and  N_7 
REMARK       I    between atoms: N_10  and  C_9 
REMARK    5  A    between atoms: C_20  and  N_10 
REMARK    6  A    between atoms: C_21  and  C_12 
REMARK    7  A    between atoms: C_22  and  C_13 
ROOT
ATOM      1  C   UNL d   1       0.963   0.953   0.558  0.00  0.00     0.148 C 
ATOM      2  N   UNL d   1       1.123  -0.296   1.056  0.00  0.00    -0.306 N 
ATOM      3  C   UNL d   1       0.048  -1.115   1.108  0.00  0.00     0.238 C 
ATOM      4  S   UNL d   1      -0.748   1.333   0.518  0.00  0.00    -0.079 SA
ATOM      5  C   UNL d   1      -1.207  -0.447   0.562  0.00  0.00     0.156 C 
ATOM      6  O   UNL d   1       0.119  -2.267   1.505  0.00  0.00    -0.272 OA
ATOM      7  H   UNL d   1       2.033  -0.661   1.309  0.00  0.00     0.171 HD
ENDROOT
BRANCH   5   8
ATOM      8  C   UNL d   1      -2.384  -0.875   1.418  0.00  0.00     0.128 C 
BRANCH   8   9
ATOM      9  C   UNL d   1      -3.762  -0.530   0.900  0.00  0.00     0.223 C 
ATOM     10  N   UNL d   1      -4.093   0.801   1.042  0.00  0.00    -0.327 N 
ATOM     11  H   UNL d   1      -3.346   1.445   1.277  0.00  0.00     0.169 HD
ATOM     12  O   UNL d   1      -4.495  -1.423   0.484  0.00  0.00    -0.273 OA
BRANCH  10  13
ATOM     13  C   UNL d   1      -5.399   1.342   1.049  0.00  0.00     0.034 A 
ATOM     14  C   UNL d   1      -6.558   0.590   0.871  0.00  0.00     0.030 A 
ATOM     15  C   UNL d   1      -7.818   1.163   1.082  0.00  0.00     0.010 A 
ATOM     16  C   UNL d   1      -7.960   2.497   1.498  0.00  0.00    -0.054 A 
ATOM     17  C   UNL d   1      -6.795   3.271   1.551  0.00  0.00     0.010 A 
ATOM     18  C   UNL d   1      -5.532   2.701   1.336  0.00  0.00     0.030 A 
BRANCH  16  19
ATOM     19  C   UNL d   1      -9.352   3.026   1.846  0.00  0.00     0.018 C 
ATOM     20  C   UNL d   1      -9.432   4.493   2.328  0.00  0.00     0.009 C 
ATOM     21  C   UNL d   1      -8.955   4.701   3.770  0.00  0.00     0.001 C 
ATOM     22  C   UNL d   1      -9.636   3.754   4.751  0.00  0.00     0.000 C 
ATOM     23  C   UNL d   1      -9.539   2.303   4.296  0.00  0.00     0.001 C 
ATOM     24  C   UNL d   1     -10.084   2.133   2.879  0.00  0.00     0.009 C 
ENDBRANCH  16  19
ENDBRANCH  10  13
ENDBRANCH   8   9
ENDBRANCH   5   8
BRANCH   1  25
ATOM     25  N   UNL d   1       1.892   1.757   0.160  0.00  0.00    -0.337 N 
ATOM     26  HN  UNL d   1       1.654   2.702  -0.140  1.00  0.00     0.168 HD
BRANCH  25  27
ATOM     27  C   UNL d   1       3.239   1.325   0.141  0.00  0.00     0.034 C 
ATOM     28  C   UNL d   1       3.628   0.109  -0.431  0.00  0.00     0.030 C 
ATOM     29  C   UNL d   1       4.934  -0.371  -0.293  0.00  0.00     0.010 C 
ATOM     30  C   UNL d   1       5.922   0.386   0.353  0.00  0.00    -0.054 C 
ATOM     31  C   UNL d   1       5.567   1.680   0.759  0.00  0.00     0.010 C 
ATOM     32  C   UNL d   1       4.238   2.132   0.680  0.00  0.00     0.030 C 
BRANCH  30  33
ATOM     33  C   UNL d   1       7.301  -0.240   0.565  0.00  0.00     0.018 C 
ATOM     34  C   UNL d   1       7.228  -1.522   1.428  0.00  0.00     0.009 C 
ATOM     35  C   UNL d   1       6.954  -1.216   2.899  0.00  0.00     0.001 C 
ATOM     36  C   UNL d   1       7.993  -0.270   3.491  0.00  0.00     0.000 C 
ATOM     37  C   UNL d   1       8.244   0.969   2.640  0.00  0.00     0.001 C 
ATOM     38  C   UNL d   1       8.404   0.665   1.147  0.00  0.00     0.009 C 
ENDBRANCH  30  33
ENDBRANCH  25  27
ENDBRANCH   1  25
TORSDOF 7
