REMARK  2 active torsions:
REMARK  status: ('A' for Active; 'I' for Inactive)
REMARK    1  A    between atoms: C_12  and  N_3 
REMARK    2  A    between atoms: C_14  and  C_11 
ROOT
ATOM      1  C   UNL d   1      -0.187  -0.666   0.046  0.00  0.00     0.146 A 
ATOM      2  C   UNL d   1      -0.274   0.706   0.020  0.00  0.00     0.095 A 
ATOM      3  N   UNL d   1      -1.496  -1.144  -0.009  0.00  0.00    -0.239 N 
ATOM      4  N   UNL d   1       0.964  -1.391   0.067  0.00  0.00    -0.330 N 
ATOM      5  HN  UNL d   1       0.974  -2.411   0.088  1.00  0.00     0.168 HD
ATOM      6  N   UNL d   1      -2.386  -0.101  -0.089  0.00  0.00    -0.302 N 
ATOM      7  HN  UNL d   1      -3.402  -0.155  -0.154  1.00  0.00     0.186 HD
ATOM      8  C   UNL d   1       0.929   1.484   0.044  0.00  0.00     0.262 A 
ATOM      9  N   UNL d   1       2.071   0.704   0.059  0.00  0.00    -0.312 N 
ATOM     10  C   UNL d   1      -1.632   1.002  -0.064  0.00  0.00     0.128 A 
ATOM     11  C   UNL d   1       2.050  -0.680   0.059  0.00  0.00     0.085 A 
ATOM     12  O   UNL d   1       0.964   2.707   0.037  0.00  0.00    -0.267 OA
ATOM     13  H   UNL d   1       2.942   1.212   0.053  0.00  0.00     0.170 HD
ENDROOT
BRANCH   3  14
ATOM     14  C   UNL d   1      -1.966  -2.493  -0.012  0.00  0.00     0.058 A 
ATOM     15  C   UNL d   1      -1.095  -3.579   0.154  0.00  0.00     0.031 A 
ATOM     16  C   UNL d   1      -1.579  -4.889   0.130  0.00  0.00     0.002 A 
ATOM     17  C   UNL d   1      -2.937  -5.130  -0.059  0.00  0.00     0.000 A 
ATOM     18  C   UNL d   1      -3.815  -4.060  -0.216  0.00  0.00     0.002 A 
ATOM     19  C   UNL d   1      -3.336  -2.747  -0.190  0.00  0.00     0.031 A 
ENDBRANCH   3  14
BRANCH  11  20
ATOM     20  C   UNL d   1       3.393  -1.374  -0.004  0.00  0.00     0.072 C 
ATOM     21  C   UNL d   1       4.297  -1.050   1.169  0.00  0.00     0.013 C 
ENDBRANCH  11  20
TORSDOF 2
