REMARK  4 active torsions:
REMARK  status: ('A' for Active; 'I' for Inactive)
REMARK    1  A    between atoms: C_4  and  C_9 
REMARK    2  A    between atoms: C_5  and  C_8 
REMARK    3  A    between atoms: C_17  and  C_6 
REMARK    4  A    between atoms: C_18  and  C_7 
ROOT
ATOM      1  C   UNL d   1      -0.541  -2.601  -2.764  0.00  0.00    -0.007 C 
ATOM      2  C   UNL d   1      -1.986  -0.995  -1.510  0.00  0.00    -0.007 C 
ATOM      3  C   UNL d   1      -1.040  -1.201  -2.640  0.00  0.00     0.184 C 
ATOM      4  C   UNL d   1      -0.981  -3.283  -3.837  0.00  0.00     0.022 C 
ATOM      5  C   UNL d   1      -3.289  -1.071  -1.839  0.00  0.00     0.022 C 
ATOM      6  O   UNL d   1      -0.755  -0.319  -3.432  0.00  0.00    -0.287 OA
ATOM      7  C   UNL d   1      -1.426  -0.768  -0.136  0.00  0.00     0.043 C 
ATOM      8  C   UNL d   1       0.383  -3.104  -1.695  0.00  0.00     0.043 C 
ATOM      9  C   UNL d   1      -0.210  -1.611   0.261  0.00  0.00     0.005 C 
ATOM     10  C   UNL d   1      -0.210  -3.039  -0.286  0.00  0.00     0.005 C 
ENDROOT
BRANCH   4  11
ATOM     11  C   UNL d   1      -0.682  -4.695  -4.089  0.00  0.00    -0.036 A 
ATOM     12  C   UNL d   1      -1.536  -5.686  -3.593  0.00  0.00     0.012 A 
ATOM     13  C   UNL d   1      -1.269  -7.037  -3.839  0.00  0.00     0.017 A 
ATOM     14  C   UNL d   1      -0.144  -7.416  -4.588  0.00  0.00     0.048 A 
ATOM     15  C   UNL d   1       0.718  -6.417  -5.064  0.00  0.00     0.017 A 
ATOM     16  C   UNL d   1       0.453  -5.066  -4.813  0.00  0.00     0.012 A 
BRANCH  14  17
ATOM     17  C   UNL d   1       0.117  -8.875  -4.877  0.00  0.00     0.417 C 
ATOM     18  F   UNL d   1       1.234  -9.091  -5.627  0.00  0.00    -0.166 F 
ATOM     19  F   UNL d   1       0.282  -9.612  -3.744  0.00  0.00    -0.166 F 
ATOM     20  F   UNL d   1      -0.907  -9.462  -5.558  0.00  0.00    -0.166 F 
ENDBRANCH  14  17
ENDBRANCH   4  11
BRANCH   5  21
ATOM     21  C   UNL d   1      -4.392  -0.927  -0.886  0.00  0.00    -0.036 A 
ATOM     22  C   UNL d   1      -4.934   0.335  -0.627  0.00  0.00     0.012 A 
ATOM     23  C   UNL d   1      -6.005   0.474   0.260  0.00  0.00     0.017 A 
ATOM     24  C   UNL d   1      -6.553  -0.647   0.901  0.00  0.00     0.048 A 
ATOM     25  C   UNL d   1      -5.988  -1.909   0.655  0.00  0.00     0.017 A 
ATOM     26  C   UNL d   1      -4.914  -2.047  -0.231  0.00  0.00     0.012 A 
BRANCH  24  27
ATOM     27  C   UNL d   1      -7.738  -0.511   1.827  0.00  0.00     0.417 C 
ATOM     28  F   UNL d   1      -8.179   0.772   1.963  0.00  0.00    -0.166 F 
ATOM     29  F   UNL d   1      -8.815  -1.230   1.402  0.00  0.00    -0.166 F 
ATOM     30  F   UNL d   1      -7.471  -0.948   3.089  0.00  0.00    -0.166 F 
ENDBRANCH  24  27
ENDBRANCH   5  21
TORSDOF 4
