REMARK  2 active torsions:
REMARK  status: ('A' for Active; 'I' for Inactive)
REMARK    1  A    between atoms: C_6  and  N_1 
REMARK    2  A    between atoms: N_7  and  C_6 
ROOT
ATOM      1  N   UNL d   1      -0.480  -2.070  -0.091  0.00  0.00    -0.285 N 
ATOM      2  C   UNL d   1       1.044  -0.221  -0.029  0.00  0.00     0.280 A 
ATOM      3  C   UNL d   1       0.891  -1.787  -0.090  0.00  0.00     0.294 A 
ATOM      4  C   UNL d   1      -0.392   0.224   0.005  0.00  0.00     0.040 A 
ATOM      5  C   UNL d   1      -1.236  -0.891  -0.028  0.00  0.00     0.051 A 
ATOM      6  O   UNL d   1       1.717   0.287  -1.184  0.00  0.00    -0.342 OA
ATOM      7  O   UNL d   1       1.738   0.185   1.155  0.00  0.00    -0.342 OA
ATOM      8  O   UNL d   1       1.801  -2.604  -0.118  0.00  0.00    -0.266 OA
ATOM      9  C   UNL d   1      -0.910   1.510   0.062  0.00  0.00     0.015 A 
ATOM     10  C   UNL d   1      -2.612  -0.752  -0.007  0.00  0.00     0.030 A 
ATOM     11  C   UNL d   1       2.871   0.958  -0.677  0.00  0.00     0.198 C 
ATOM     12  C   UNL d   1       3.074   0.380   0.697  0.00  0.00     0.198 C 
ATOM     13  C   UNL d   1      -2.298   1.663   0.080  0.00  0.00     0.001 A 
ATOM     14  C   UNL d   1      -3.143   0.541   0.045  0.00  0.00     0.002 A 
ENDROOT
BRANCH   1  15
ATOM     15  C   UNL d   1      -0.992  -3.414  -0.055  0.00  0.00     0.405 C 
BRANCH  15  16
ATOM     16  N   UNL d   1      -1.816  -3.722  -1.225  0.00  0.00     0.109 N 
ATOM     17  C   UNL d   1      -1.075  -3.579  -2.494  0.00  0.00     0.304 C 
ATOM     18  C   UNL d   1      -1.964  -3.947  -3.707  0.00  0.00     0.302 C 
ATOM     19  N   UNL d   1      -2.550  -5.303  -3.657  0.00  0.00     0.087 N 
ATOM     20  C   UNL d   1      -3.191  -5.505  -2.343  0.00  0.00     0.302 C 
ATOM     21  C   UNL d   1      -1.542  -6.326  -3.931  0.00  0.00     0.310 C 
ATOM     22  C   UNL d   1      -2.321  -5.109  -1.126  0.00  0.00     0.304 C 
ENDBRANCH  15  16
ENDBRANCH   1  15
TORSDOF 2
