REMARK  2 active torsions:
REMARK  status: ('A' for Active; 'I' for Inactive)
REMARK       I    between atoms: N_2  and  C_1 
REMARK       I    between atoms: N_3  and  C_1 
REMARK    1  A    between atoms: C_8  and  N_3 
REMARK    2  A    between atoms: C_5  and  C_6 
ROOT
ATOM      1  C   UNL d   1      -4.093   1.466  -0.431  0.00  0.00    -0.051 A 
ATOM      2  C   UNL d   1      -1.260   1.234  -0.630  0.00  0.00     0.036 A 
ATOM      3  C   UNL d   1      -3.317   1.062   0.666  0.00  0.00     0.010 A 
ATOM      4  C   UNL d   1      -3.404   1.817  -1.603  0.00  0.00     0.010 A 
ATOM      5  C   UNL d   1      -2.014   1.703  -1.702  0.00  0.00     0.030 A 
ATOM      6  C   UNL d   1      -1.922   0.948   0.568  0.00  0.00     0.030 A 
ENDROOT
BRANCH   2   7
ATOM      7  N   UNL d   1       0.130   0.981  -0.690  0.00  0.00    -0.309 N 
ATOM      8  C   UNL d   1       0.950   1.112  -1.785  0.00  0.00     0.323 C 
ATOM      9  N   UNL d   1       2.238   0.616  -1.645  0.00  0.00    -0.330 N 
ATOM     10  O   UNL d   1       0.596   1.607  -2.855  0.00  0.00    -0.247 OA
ATOM     11  C   UNL d   1       3.148   0.730  -2.792  0.00  0.00     0.153 C 
ATOM     12  C   UNL d   1       2.873   0.018  -0.464  0.00  0.00     0.153 C 
ATOM     13  C   UNL d   1       3.830  -0.611  -3.079  0.00  0.00     0.187 C 
ATOM     14  O   UNL d   1       4.503  -1.107  -1.910  0.00  0.00    -0.388 OA
ATOM     15  C   UNL d   1       3.570  -1.297  -0.837  0.00  0.00     0.187 C 
ATOM     16  H   UNL d   1       0.535   0.646   0.164  0.00  0.00     0.170 HD
ENDBRANCH   2   7
BRANCH   1  17
ATOM     17  C   UNL d   1      -5.630   1.493  -0.413  0.00  0.00    -0.024 C 
ATOM     18  C   UNL d   1      -6.241   1.049   0.933  0.00  0.00     0.019 C 
ATOM     19  C   UNL d   1      -6.140   2.918  -0.711  0.00  0.00     0.019 C 
ATOM     20  C   UNL d   1      -6.165   0.529  -1.497  0.00  0.00     0.019 C 
ENDBRANCH   1  17
TORSDOF 2
