REMARK  5 active torsions:
REMARK  status: ('A' for Active; 'I' for Inactive)
REMARK    1  A    between atoms: N_2  and  S_1 
REMARK    2  A    between atoms: C_6  and  S_1 
REMARK    3  A    between atoms: C_3  and  N_2 
REMARK       I    between atoms: C_4  and  N_9 
REMARK    4  A    between atoms: C_5  and  C_4 
REMARK    5  A    between atoms: N_9  and  C_24 
ROOT
ATOM      1  S   UNL d   1       0.845   0.146  -0.528  0.00  0.00     0.259 S 
ATOM      2  O   UNL d   1      -0.296   1.015  -0.739  0.00  0.00    -0.201 OA
ATOM      3  O   UNL d   1       1.313  -0.744  -1.565  0.00  0.00    -0.201 OA
ENDROOT
BRANCH   1   4
ATOM      4  N   UNL d   1       0.484  -0.758   0.841  0.00  0.00    -0.305 N 
ATOM      5  H   UNL d   1      -0.487  -0.658   1.134  0.00  0.00     0.173 HD
BRANCH   4   6
ATOM      6  C   UNL d   1       1.264  -1.898   1.368  0.00  0.00     0.041 C 
ATOM      7  C   UNL d   1       2.746  -1.540   1.577  0.00  0.00     0.036 C 
ATOM      8  C   UNL d   1       3.519  -2.713   2.195  0.00  0.00    -0.012 C 
ATOM      9  C   UNL d   1       2.904  -3.060   3.557  0.00  0.00     0.009 C 
ATOM     10  C   UNL d   1       3.413  -3.920   1.248  0.00  0.00     0.009 C 
ATOM     11  C   UNL d   1       1.432  -3.459   3.377  0.00  0.00    -0.012 C 
ATOM     12  C   UNL d   1       0.662  -2.281   2.750  0.00  0.00     0.036 C 
ATOM     13  C   UNL d   1       1.349  -4.676   2.441  0.00  0.00     0.009 C 
ATOM     14  C   UNL d   1       1.939  -4.321   1.067  0.00  0.00    -0.012 C 
ATOM     15  C   UNL d   1       1.154  -3.140   0.459  0.00  0.00     0.036 C 
ENDBRANCH   4   6
ENDBRANCH   1   4
BRANCH   1  16
ATOM     16  C   UNL d   1       2.194   1.180  -0.019  0.00  0.00     0.079 A 
ATOM     17  C   UNL d   1       3.462   1.020  -0.587  0.00  0.00     0.027 A 
ATOM     18  C   UNL d   1       4.562   1.675  -0.019  0.00  0.00     0.031 A 
ATOM     19  C   UNL d   1       4.397   2.500   1.102  0.00  0.00     0.034 A 
ATOM     20  C   UNL d   1       3.100   2.749   1.567  0.00  0.00     0.031 A 
ATOM     21  C   UNL d   1       1.998   2.088   1.018  0.00  0.00     0.027 A 
BRANCH  19  22
ATOM     22  N   UNL d   1       5.562   2.980   1.748  0.00  0.00    -0.327 N 
ATOM     23  C   UNL d   1       5.606   3.580   2.994  0.00  0.00     0.226 C 
ATOM     24  O   UNL d   1       4.646   3.906   3.678  0.00  0.00    -0.273 OA
ATOM     25  H   UNL d   1       6.446   2.728   1.329  0.00  0.00     0.169 HD
BRANCH  23  26
ATOM     26  C   UNL d   1       6.956   3.805   3.592  0.00  0.00     0.078 A 
ATOM     27  C   UNL d   1       8.305   3.489   3.005  0.00  0.00     0.015 A 
ATOM     28  C   UNL d   1       7.733   2.593   4.065  0.00  0.00     0.015 A 
ENDBRANCH  23  26
ENDBRANCH  19  22
ENDBRANCH   1  16
TORSDOF 5
