REMARK  5 active torsions:
REMARK  status: ('A' for Active; 'I' for Inactive)
REMARK    1  A    between atoms: C_5  and  N_1 
REMARK       I    between atoms: C_2  and  N_4 
REMARK    2  A    between atoms: C_3  and  C_2 
REMARK    3  A    between atoms: N_6  and  C_8 
REMARK    4  A    between atoms: C_11  and  C_7 
REMARK    5  A    between atoms: O_25  and  C_11 
ROOT
ATOM      1  C   UNL d   1      -3.772   8.448  -1.651  0.00  0.00     0.225 C 
ATOM      2  N   UNL d   1      -2.913   7.386  -1.390  0.00  0.00    -0.349 N 
ATOM      3  N   UNL d   1      -1.573   4.921  -0.925  0.00  0.00    -0.364 N 
ATOM      4  O   UNL d   1      -4.302   8.559  -2.765  0.00  0.00    -0.273 OA
ATOM      5  C   UNL d   1      -2.165   7.165  -0.137  0.00  0.00     0.145 C 
ATOM      6  C   UNL d   1      -2.498   6.530  -2.512  0.00  0.00     0.145 C 
ATOM      7  C   UNL d   1      -2.085   5.666   0.239  0.00  0.00     0.144 C 
ATOM      8  C   UNL d   1      -2.443   5.050  -2.108  0.00  0.00     0.144 C 
ENDROOT
BRANCH   1   9
ATOM      9  C   UNL d   1      -4.075   9.459  -0.515  0.00  0.00     0.092 C 
ATOM     10  C   UNL d   1      -5.294   9.109   0.403  0.00  0.00     0.096 C 
ATOM     11  C   UNL d   1      -5.706  10.598   0.334  0.00  0.00     0.017 C 
ATOM     12  C   UNL d   1      -4.841  10.750  -0.921  0.00  0.00     0.016 C 
BRANCH  10  13
ATOM     13  C   UNL d   1      -4.969   8.544   1.810  0.00  0.00     0.144 C 
ATOM     14  O   UNL d   1      -3.986   8.829   2.487  0.00  0.00    -0.650 OA
BRANCH  13  15
ATOM     15  O   UNL d   1      -5.872   7.639   2.268  0.00  0.00    -0.776 OA
ATOM     16  H   UNL d   1      -6.628   7.500   1.668  0.00  0.00     0.167 HD
ENDBRANCH  13  15
ENDBRANCH  10  13
ENDBRANCH   1   9
BRANCH   3  17
ATOM     17  C   UNL d   1      -1.045   3.658  -0.693  0.00  0.00     0.103 A 
ATOM     18  C   UNL d   1      -0.203   3.098  -1.658  0.00  0.00     0.051 A 
ATOM     19  C   UNL d   1       0.425   1.877  -1.428  0.00  0.00     0.041 A 
ATOM     20  C   UNL d   1       0.188   1.233  -0.223  0.00  0.00     0.118 A 
ATOM     21  C   UNL d   1      -0.661   1.829   0.696  0.00  0.00     0.125 A 
ATOM     22  N   UNL d   1      -1.268   3.027   0.480  0.00  0.00    -0.350 N 
ATOM     23  HN  UNL d   1      -1.876   3.439   1.187  1.00  0.00     0.166 HD
BRANCH  20  24
ATOM     24  N   UNL d   1       0.830  -0.032   0.088  0.00  0.00    -0.114 N 
ATOM     25  O   UNL d   1       0.550  -0.578   1.163  0.00  0.00    -0.532 OA
ATOM     26  O   UNL d   1       1.625  -0.493  -0.746  0.00  0.00    -0.532 OA
ENDBRANCH  20  24
ENDBRANCH   3  17
TORSDOF 5
