REMARK  8 active torsions:
REMARK  status: ('A' for Active; 'I' for Inactive)
REMARK    1  A    between atoms: N_2  and  C_1 
REMARK       I    between atoms: C_4  and  N_2 
REMARK    2  A    between atoms: C_15  and  C_4 
REMARK    3  A    between atoms: O_14  and  C_5 
REMARK    4  A    between atoms: C_6  and  C_16 
REMARK    5  A    between atoms: O_12  and  C_6 
REMARK    6  A    between atoms: S_10  and  C_15 
REMARK    7  A    between atoms: C_16  and  S_10 
REMARK    8  A    between atoms: O_17  and  C_11 
ROOT
ATOM      1  N   UNL d   1       2.851  -0.801   0.184  0.00  0.00    -0.324 N 
ATOM      2  C   UNL d   1       3.442  -2.013  -0.104  0.00  0.00     0.231 C 
ATOM      3  O   UNL d   1       2.887  -2.999  -0.592  0.00  0.00    -0.272 OA
ATOM      4  H   UNL d   1       3.436  -0.061   0.555  0.00  0.00     0.169 HD
ENDROOT
BRANCH   1   5
ATOM      5  C   UNL d   1       1.486  -0.461   0.043  0.00  0.00     0.071 A 
ATOM      6  C   UNL d   1       0.491  -1.434  -0.128  0.00  0.00     0.069 A 
ATOM      7  C   UNL d   1      -0.862  -1.087  -0.148  0.00  0.00     0.070 A 
ATOM      8  C   UNL d   1      -1.224   0.255  -0.047  0.00  0.00     0.039 A 
ATOM      9  C   UNL d   1      -0.247   1.240   0.111  0.00  0.00     0.042 A 
ATOM     10  C   UNL d   1       1.103   0.887   0.156  0.00  0.00     0.095 A 
BRANCH   7  11
ATOM     11  O   UNL d   1      -1.905  -1.970  -0.239  0.00  0.00    -0.356 OA
ATOM     12  C   UNL d   1      -1.582  -3.355  -0.146  0.00  0.00     0.210 C 
ENDBRANCH   7  11
BRANCH  10  13
ATOM     13  O   UNL d   1       1.988   1.903   0.417  0.00  0.00    -0.354 OA
ATOM     14  C   UNL d   1       2.946   2.129  -0.618  0.00  0.00     0.210 C 
ENDBRANCH  10  13
ENDBRANCH   1   5
BRANCH   2  15
ATOM     15  C   UNL d   1       4.904  -2.099   0.293  0.00  0.00     0.177 C 
BRANCH  15  16
ATOM     16  S   UNL d   1       5.059  -2.782   1.974  0.00  0.00    -0.149 SA
BRANCH  16  17
ATOM     17  C   UNL d   1       4.123  -4.343   1.816  0.00  0.00     0.184 C 
BRANCH  17  18
ATOM     18  C   UNL d   1       4.719  -5.282   0.785  0.00  0.00     0.149 C 
ATOM     19  O   UNL d   1       5.670  -6.018   1.007  0.00  0.00    -0.649 OA
BRANCH  18  20
ATOM     20  O   UNL d   1       4.120  -5.232  -0.429  0.00  0.00    -0.776 OA
ATOM     21  H   UNL d   1       3.417  -4.544  -0.528  0.00  0.00     0.167 HD
ENDBRANCH  18  20
ENDBRANCH  17  18
ENDBRANCH  16  17
ENDBRANCH  15  16
ENDBRANCH   2  15
TORSDOF 8
