REMARK  3 active torsions:
REMARK  status: ('A' for Active; 'I' for Inactive)
REMARK    1  A    between atoms: C_13  and  C_5 
REMARK    2  A    between atoms: N_7  and  C_9 
REMARK    3  A    between atoms: N_8  and  C_14 
REMARK       I    between atoms: N_23  and  C_13 
ROOT
ATOM      1  C   UNL d   1      -0.683   0.844   0.026  0.00  0.00     0.005 A 
ATOM      2  C   UNL d   1      -1.155  -0.489  -0.028  0.00  0.00     0.029 A 
ATOM      3  C   UNL d   1       1.203  -0.552  -0.031  0.00  0.00     0.028 A 
ATOM      4  C   UNL d   1       0.783   0.795   0.006  0.00  0.00    -0.010 A 
ATOM      5  C   UNL d   1      -1.635   1.867   0.070  0.00  0.00     0.046 A 
ATOM      6  C   UNL d   1       0.004  -1.398  -0.045  0.00  0.00     0.194 A 
ATOM      7  C   UNL d   1      -3.419   0.171  -0.054  0.00  0.00     0.104 A 
ATOM      8  C   UNL d   1      -2.486  -0.863  -0.068  0.00  0.00     0.052 A 
ATOM      9  C   UNL d   1      -3.007   1.521   0.022  0.00  0.00     0.054 A 
ATOM     10  C   UNL d   1       2.523  -0.969  -0.083  0.00  0.00     0.052 A 
ATOM     11  C   UNL d   1       3.491   0.036  -0.102  0.00  0.00     0.103 A 
ATOM     12  C   UNL d   1       1.763   1.775  -0.022  0.00  0.00     0.016 A 
ATOM     13  O   UNL d   1      -0.032  -2.610  -0.077  0.00  0.00    -0.287 OA
ATOM     14  C   UNL d   1       3.119   1.397  -0.066  0.00  0.00     0.037 A 
ENDROOT
BRANCH   5  15
ATOM     15  C   UNL d   1      -1.274   3.296   0.275  0.00  0.00     0.252 C 
ATOM     16  O   UNL d   1      -0.366   3.586   1.042  0.00  0.00    -0.268 OA
ATOM     17  N   UNL d   1      -2.027   4.236  -0.400  0.00  0.00    -0.361 N 
ATOM     18  C   UNL d   1      -1.770   5.653  -0.263  0.00  0.00     0.149 C 
ATOM     19  H   UNL d   1      -2.803   3.965  -0.990  0.00  0.00     0.162 HD
ENDBRANCH   5  15
BRANCH   7  20
ATOM     20  N   UNL d   1      -4.851  -0.151  -0.110  0.00  0.00    -0.116 N 
ATOM     21  O   UNL d   1      -5.173  -1.345  -0.116  0.00  0.00    -0.532 OA
ATOM     22  O   UNL d   1      -5.646   0.799  -0.161  0.00  0.00    -0.532 OA
ENDBRANCH   7  20
BRANCH  11  23
ATOM     23  N   UNL d   1       4.912  -0.326  -0.185  0.00  0.00    -0.116 N 
ATOM     24  O   UNL d   1       5.195  -1.530  -0.257  0.00  0.00    -0.532 OA
ATOM     25  O   UNL d   1       5.741   0.594  -0.189  0.00  0.00    -0.532 OA
ENDBRANCH  11  23
TORSDOF 3
