REMARK  7 active torsions:
REMARK  status: ('A' for Active; 'I' for Inactive)
REMARK    1  A    between atoms: S_6  and  C_1 
REMARK    2  A    between atoms: N_5  and  C_2 
REMARK    3  A    between atoms: N_4  and  C_3 
REMARK    4  A    between atoms: C_12  and  S_6 
REMARK    5  A    between atoms: C_7  and  C_8 
REMARK    6  A    between atoms: C_13  and  C_9 
REMARK    7  A    between atoms: O_22  and  C_13 
ROOT
ATOM      1  C   UNL d   1       1.343  -0.290   0.291  0.00  0.00     0.071 A 
ATOM      2  C   UNL d   1       0.345  -1.274   0.440  0.00  0.00     0.123 A 
ATOM      3  C   UNL d   1       0.869   1.005   0.005  0.00  0.00     0.123 A 
ATOM      4  C   UNL d   1      -1.466   0.302  -0.018  0.00  0.00     0.052 A 
ATOM      5  C   UNL d   1      -0.502   1.309  -0.142  0.00  0.00     0.053 A 
ATOM      6  C   UNL d   1      -1.030  -0.997   0.271  0.00  0.00     0.053 A 
ENDROOT
BRANCH   1   7
ATOM      7  S   UNL d   1       3.088  -0.631   0.564  0.00  0.00    -0.084 SA
BRANCH   7   8
ATOM      8  C   UNL d   1       3.768  -0.871  -1.090  0.00  0.00     0.022 A 
ATOM      9  C   UNL d   1       5.090  -0.518  -1.442  0.00  0.00     0.054 A 
ATOM     10  C   UNL d   1       5.550  -0.754  -2.755  0.00  0.00     0.020 A 
ATOM     11  C   UNL d   1       4.729  -1.349  -3.711  0.00  0.00     0.001 A 
ATOM     12  C   UNL d   1       3.439  -1.714  -3.370  0.00  0.00     0.001 A 
ATOM     13  C   UNL d   1       2.967  -1.477  -2.078  0.00  0.00     0.020 A 
BRANCH   9  14
ATOM     14  C   UNL d   1       6.098   0.127  -0.547  0.00  0.00     0.177 C 
ATOM     15  O   UNL d   1       6.958   0.881  -0.972  0.00  0.00    -0.646 OA
BRANCH  14  16
ATOM     16  O   UNL d   1       6.066  -0.275   0.739  0.00  0.00    -0.773 OA
ATOM     17  H   UNL d   1       5.340  -0.887   0.956  0.00  0.00     0.167 HD
ENDBRANCH  14  16
ENDBRANCH   9  14
ENDBRANCH   7   8
ENDBRANCH   1   7
BRANCH   2  18
ATOM     18  N   UNL d   1       0.670  -2.648   0.805  0.00  0.00    -0.114 N 
ATOM     19  O   UNL d   1       1.380  -3.294   0.028  0.00  0.00    -0.532 OA
ATOM     20  O   UNL d   1       0.148  -3.082   1.838  0.00  0.00    -0.532 OA
ENDBRANCH   2  18
BRANCH   3  21
ATOM     21  N   UNL d   1       1.783   2.123  -0.139  0.00  0.00    -0.114 N 
ATOM     22  O   UNL d   1       2.499   2.132  -1.146  0.00  0.00    -0.532 OA
ATOM     23  O   UNL d   1       1.720   3.004   0.725  0.00  0.00    -0.532 OA
ENDBRANCH   3  21
BRANCH   4  24
ATOM     24  C   UNL d   1      -2.943   0.592  -0.182  0.00  0.00     0.417 C 
ATOM     25  F   UNL d   1      -3.215   1.910  -0.365  0.00  0.00    -0.166 F 
ATOM     26  F   UNL d   1      -3.470  -0.059  -1.253  0.00  0.00    -0.166 F 
ATOM     27  F   UNL d   1      -3.666   0.197   0.898  0.00  0.00    -0.166 F 
ENDBRANCH   4  24
TORSDOF 7
