REMARK  1 active torsions:
REMARK  status: ('A' for Active; 'I' for Inactive)
REMARK    1  A    between atoms: C_5  and  C_2 
ROOT
ATOM      1  C   UNL d   1      -0.711  -0.870  -0.015  0.00  0.00     0.058 C 
ATOM      2  C   UNL d   1      -1.702  -1.770  -0.044  0.00  0.00     0.043 C 
ATOM      3  C   UNL d   1       0.740  -1.310   0.052  0.00  0.00     0.174 C 
ATOM      4  N   UNL d   1      -0.812   0.539  -0.028  0.00  0.00    -0.280 NA
ATOM      5  C   UNL d   1       1.661  -0.089   0.110  0.00  0.00     0.064 C 
ATOM      6  C   UNL d   1      -0.245   1.159   1.208  0.00  0.00     0.096 C 
ATOM      7  C   UNL d   1      -0.119   1.135  -1.210  0.00  0.00     0.096 C 
ATOM      8  O   UNL d   1       1.119  -2.471   0.062  0.00  0.00    -0.291 OA
ATOM      9  C   UNL d   1       1.234   0.731   1.344  0.00  0.00     0.027 C 
ATOM     10  C   UNL d   1       1.377   0.746  -1.155  0.00  0.00     0.027 C 
ENDROOT
BRANCH   2  11
ATOM     11  C   UNL d   1      -3.110  -1.356  -0.070  0.00  0.00     0.026 A 
ATOM     12  C   UNL d   1      -3.743  -1.137  -1.298  0.00  0.00     0.128 A 
ATOM     13  F   UNL d   1      -3.088  -1.361  -2.449  0.00  0.00    -0.205 F 
ATOM     14  C   UNL d   1      -5.061  -0.686  -1.370  0.00  0.00     0.043 A 
ATOM     15  C   UNL d   1      -5.777  -0.446  -0.199  0.00  0.00     0.005 A 
ATOM     16  C   UNL d   1      -5.168  -0.667   1.037  0.00  0.00     0.025 A 
ATOM     17  C   UNL d   1      -3.844  -1.117   1.103  0.00  0.00     0.047 A 
ATOM     18 CL   UNL d   1      -3.163  -1.369   2.675  0.00  0.00    -0.083 Cl
ENDBRANCH   2  11
TORSDOF 1
