REMARK  1 active torsions:
REMARK  status: ('A' for Active; 'I' for Inactive)
REMARK    1  A    between atoms: C_9  and  C_3 
ROOT
ATOM      1  N   UNL d   1       6.095  -6.143   2.864  0.00  0.00    -0.191 NA
ATOM      2  C   UNL d   1       5.413  -5.350   2.367  0.00  0.00     0.099 C 
ATOM      3  C   UNL d   1       2.833  -2.541   0.511  0.00  0.00    -0.021 A 
ATOM      4  C   UNL d   1       2.989  -2.559   1.911  0.00  0.00     0.012 A 
ATOM      5  C   UNL d   1       3.575  -3.444  -0.264  0.00  0.00     0.012 A 
ATOM      6  C   UNL d   1       4.560  -4.384   1.741  0.00  0.00     0.044 A 
ATOM      7  C   UNL d   1       4.433  -4.359   0.348  0.00  0.00     0.023 A 
ATOM      8  C   UNL d   1       3.847  -3.474   2.523  0.00  0.00     0.023 A 
ENDROOT
BRANCH   3   9
ATOM      9  C   UNL d   1       1.860  -1.581  -0.143  0.00  0.00     0.196 C 
ATOM     10  N   UNL d   1       2.209  -0.231   0.171  0.00  0.00    -0.336 N 
ATOM     11  C   UNL d   1       1.331   0.805   0.033  0.00  0.00     0.255 C 
ATOM     12  H   UNL d   1       3.180   0.036   0.117  0.00  0.00     0.164 HD
ATOM     13  C   UNL d   1      -0.100   0.450  -0.025  0.00  0.00     0.053 A 
ATOM     14  O   UNL d   1       1.718   1.966  -0.016  0.00  0.00    -0.268 OA
ATOM     15  C   UNL d   1      -1.075   1.447  -0.129  0.00  0.00     0.019 A 
ATOM     16  C   UNL d   1      -0.446  -0.904   0.083  0.00  0.00     0.026 A 
ATOM     17  C   UNL d   1      -2.422   1.094  -0.116  0.00  0.00     0.001 A 
ATOM     18  C   UNL d   1      -2.785  -0.248  -0.003  0.00  0.00     0.002 A 
ATOM     19  C   UNL d   1      -1.804  -1.239   0.108  0.00  0.00     0.024 A 
ATOM     20  N   UNL d   1       0.526  -1.877   0.340  0.00  0.00    -0.267 NA
ATOM     21  H   UNL d   1       0.228  -2.822   0.127  0.00  0.00     0.130 HD
ENDBRANCH   3   9
TORSDOF 1
