REMARK  6 active torsions:
REMARK  status: ('A' for Active; 'I' for Inactive)
REMARK    1  A    between atoms: C_11  and  N_3 
REMARK    2  A    between atoms: C_13  and  C_4 
REMARK    3  A    between atoms: C_9  and  C_14 
REMARK    4  A    between atoms: C_10  and  C_20 
REMARK    5  A    between atoms: C_12  and  C_11 
REMARK       I    between atoms: N_21  and  C_12 
REMARK    6  A    between atoms: N_16  and  N_21 
ROOT
ATOM      1  N   UNL d   1      -0.623  -0.770   0.114  0.00  0.00    -0.265 N 
ATOM      2  HN  UNL d   1      -0.960  -1.713  -0.082  1.00  0.00     0.190 HD
ATOM      3  N   UNL d   1       0.635  -0.331   0.389  0.00  0.00    -0.209 N 
ATOM      4  C   UNL d   1      -1.300   0.402   0.173  0.00  0.00     0.147 A 
ATOM      5  N   UNL d   1      -0.482   1.466   0.471  0.00  0.00    -0.268 N 
ATOM      6  HN  UNL d   1      -0.769   2.439   0.573  1.00  0.00     0.190 HD
ATOM      7  N   UNL d   1       0.741   0.994   0.600  0.00  0.00    -0.224 N 
ATOM      8  HN  UNL d   1       1.588   1.520   0.815  1.00  0.00     0.210 HD
ENDROOT
BRANCH   3   9
ATOM      9  C   UNL d   1       1.859  -1.079   0.200  0.00  0.00     0.275 C 
BRANCH   9  10
ATOM     10  C   UNL d   1       1.873  -2.575   0.295  0.00  0.00     0.257 C 
ATOM     11  N   UNL d   1       0.682  -3.264   0.389  0.00  0.00    -0.269 N 
ATOM     12  H   UNL d   1      -0.217  -2.783   0.373  0.00  0.00     0.190 HD
ATOM     13  O   UNL d   1       2.976  -3.138   0.259  0.00  0.00    -0.270 OA
BRANCH  11  14
ATOM     14  N   UNL d   1       0.737  -4.625   0.268  0.00  0.00    -0.308 N 
ATOM     15  C   UNL d   1      -0.366  -5.288   0.391  0.00  0.00     0.123 C 
ATOM     16  HN  UNL d   1       1.620  -5.102   0.087  1.00  0.00     0.186 HD
BRANCH  15  17
ATOM     17  C   UNL d   1      -0.405  -6.757   0.200  0.00  0.00     0.041 A 
ATOM     18  C   UNL d   1       0.562  -7.392  -0.589  0.00  0.00     0.129 A 
ATOM     19  F   UNL d   1       1.542  -6.701  -1.189  0.00  0.00    -0.205 F 
ATOM     20  C   UNL d   1       0.518  -8.768  -0.824  0.00  0.00     0.043 A 
ATOM     21  C   UNL d   1      -0.499  -9.535  -0.267  0.00  0.00     0.005 A 
ATOM     22  C   UNL d   1      -1.465  -8.920   0.530  0.00  0.00     0.025 A 
ATOM     23  C   UNL d   1      -1.422  -7.536   0.763  0.00  0.00     0.048 A 
ATOM     24 CL   UNL d   1      -2.650  -6.872   1.782  0.00  0.00    -0.083 Cl
ENDBRANCH  15  17
ENDBRANCH  11  14
ENDBRANCH   9  10
ENDBRANCH   3   9
BRANCH   4  25
ATOM     25  C   UNL d   1      -2.721   0.608  -0.098  0.00  0.00     0.011 A 
ATOM     26  C   UNL d   1      -3.591  -0.461  -0.351  0.00  0.00     0.031 A 
ATOM     27  C   UNL d   1      -4.945  -0.228  -0.675  0.00  0.00     0.048 A 
ATOM     28  C   UNL d   1      -5.426   1.087  -0.719  0.00  0.00     0.016 A 
ATOM     29  C   UNL d   1      -4.575   2.159  -0.452  0.00  0.00     0.002 A 
ATOM     30  C   UNL d   1      -3.236   1.917  -0.143  0.00  0.00     0.015 A 
BRANCH  27  31
ATOM     31  C   UNL d   1      -5.878  -1.370  -0.998  0.00  0.00     0.417 C 
ATOM     32  F   UNL d   1      -5.282  -2.592  -0.947  0.00  0.00    -0.166 F 
ATOM     33  F   UNL d   1      -6.939  -1.433  -0.146  0.00  0.00    -0.166 F 
ATOM     34  F   UNL d   1      -6.410  -1.264  -2.248  0.00  0.00    -0.166 F 
ENDBRANCH  27  31
ENDBRANCH   4  25
TORSDOF 6
