REMARK  6 active torsions:
REMARK  status: ('A' for Active; 'I' for Inactive)
REMARK    1  A    between atoms: C_3  and  C_1 
REMARK    2  A    between atoms: C_6  and  C_1 
REMARK    3  A    between atoms: C_4  and  C_2 
REMARK    4  A    between atoms: C_9  and  C_3 
REMARK    5  A    between atoms: C_5  and  C_4 
REMARK    6  A    between atoms: C_15  and  C_8 
ROOT
ATOM      1  C   UNL d   1       1.018   0.119  -0.147  0.00  0.00     0.029 C 
ATOM      2  C   UNL d   1       0.450  -1.102  -0.167  0.00  0.00     0.072 C 
ENDROOT
BRANCH   1   3
ATOM      3  C   UNL d   1       0.143   1.357  -0.165  0.00  0.00     0.193 C 
ATOM      4  O   UNL d   1       0.579   2.401  -0.664  0.00  0.00    -0.287 OA
BRANCH   3   5
ATOM      5  C   UNL d   1      -1.249   1.393   0.374  0.00  0.00     0.015 A 
ATOM      6  C   UNL d   1      -1.723   0.562   1.397  0.00  0.00     0.015 A 
ATOM      7  C   UNL d   1      -3.053   0.662   1.827  0.00  0.00     0.001 A 
ATOM      8  C   UNL d   1      -3.902   1.620   1.276  0.00  0.00     0.000 A 
ATOM      9  C   UNL d   1      -3.428   2.484   0.294  0.00  0.00     0.001 A 
ATOM     10  C   UNL d   1      -2.112   2.368  -0.155  0.00  0.00     0.015 A 
ENDBRANCH   3   5
ENDBRANCH   1   3
BRANCH   1  11
ATOM     11  C   UNL d   1       2.474   0.361  -0.274  0.00  0.00    -0.022 A 
ATOM     12  C   UNL d   1       3.044   0.508  -1.550  0.00  0.00     0.012 A 
ATOM     13  C   UNL d   1       4.364   0.941  -1.694  0.00  0.00     0.001 A 
ATOM     14  C   UNL d   1       5.130   1.227  -0.566  0.00  0.00     0.000 A 
ATOM     15  C   UNL d   1       4.584   1.058   0.706  0.00  0.00     0.001 A 
ATOM     16  C   UNL d   1       3.261   0.626   0.853  0.00  0.00     0.012 A 
ENDBRANCH   1  11
BRANCH   2  17
ATOM     17  C   UNL d   1       1.115  -2.443  -0.111  0.00  0.00     0.183 C 
ATOM     18  O   UNL d   1       2.287  -2.598   0.195  0.00  0.00    -0.288 OA
BRANCH  17  19
ATOM     19  C   UNL d   1       0.213  -3.624  -0.288  0.00  0.00     0.014 A 
ATOM     20  C   UNL d   1      -0.880  -3.597  -1.159  0.00  0.00     0.016 A 
ATOM     21  C   UNL d   1      -1.810  -4.647  -1.162  0.00  0.00     0.013 A 
ATOM     22  C   UNL d   1      -1.666  -5.760  -0.315  0.00  0.00    -0.026 A 
ATOM     23  C   UNL d   1      -0.500  -5.816   0.473  0.00  0.00     0.013 A 
ATOM     24  C   UNL d   1       0.428  -4.763   0.492  0.00  0.00     0.016 A 
BRANCH  22  25
ATOM     25  C   UNL d   1      -2.729  -6.791  -0.205  0.00  0.00    -0.026 A 
ATOM     26  C   UNL d   1      -3.054  -7.361   1.042  0.00  0.00     0.012 A 
ATOM     27  C   UNL d   1      -4.092  -8.289   1.180  0.00  0.00     0.001 A 
ATOM     28  C   UNL d   1      -4.840  -8.665   0.071  0.00  0.00     0.000 A 
ATOM     29  C   UNL d   1      -4.543  -8.121  -1.175  0.00  0.00     0.001 A 
ATOM     30  C   UNL d   1      -3.497  -7.199  -1.311  0.00  0.00     0.012 A 
ENDBRANCH  22  25
ENDBRANCH  17  19
ENDBRANCH   2  17
TORSDOF 6
