REMARK  6 active torsions:
REMARK  status: ('A' for Active; 'I' for Inactive)
REMARK    1  A    between atoms: N_8  and  C_2 
REMARK    2  A    between atoms: S_14  and  C_3 
REMARK    3  A    between atoms: O_15  and  C_10 
REMARK    4  A    between atoms: C_11  and  C_12 
REMARK    5  A    between atoms: O_16  and  C_13 
REMARK    6  A    between atoms: C_21  and  O_16 
ROOT
ATOM      1  N   UNL d   1       0.456   2.443   0.532  0.00  0.00    -0.344 N 
ATOM      2  HN  UNL d   1      -0.113   2.969   1.197  1.00  0.00     0.167 HD
ATOM      3  C   UNL d   1       1.392   3.005  -0.165  0.00  0.00     0.104 C 
ENDROOT
BRANCH   3   4
ATOM      4  C   UNL d   1       1.648   4.462  -0.056  0.00  0.00     0.015 A 
ATOM      5  C   UNL d   1       0.912   5.291   0.816  0.00  0.00     0.110 A 
ATOM      6  C   UNL d   1       1.183   6.666   0.870  0.00  0.00     0.102 A 
ATOM      7  C   UNL d   1       2.183   7.189   0.036  0.00  0.00     0.040 A 
ATOM      8  C   UNL d   1       2.909   6.369  -0.830  0.00  0.00     0.004 A 
ATOM      9  C   UNL d   1       2.645   5.002  -0.875  0.00  0.00     0.016 A 
BRANCH   5  10
ATOM     10  O   UNL d   1      -0.074   4.758   1.607  0.00  0.00    -0.357 OA
ATOM     11  H   UNL d   1      -0.150   3.802   1.407  0.00  0.00     0.217 HD
ENDBRANCH   5  10
BRANCH   6  12
ATOM     12  O   UNL d   1       0.584   7.621   1.650  0.00  0.00    -0.349 OA
BRANCH  12  13
ATOM     13  C   UNL d   1      -0.435   7.202   2.554  0.00  0.00     0.171 C 
ATOM     14  C   UNL d   1      -0.941   8.414   3.316  0.00  0.00     0.034 C 
ENDBRANCH  12  13
ENDBRANCH   6  12
ENDBRANCH   3   4
BRANCH   1  15
ATOM     15  C   UNL d   1       0.276   1.111   0.324  0.00  0.00     0.165 A 
ATOM     16  S   UNL d   1      -0.934   0.304   1.259  0.00  0.00    -0.026 SA
ATOM     17  C   UNL d   1      -0.557  -1.119   0.395  0.00  0.00     0.129 A 
ATOM     18  N   UNL d   1       0.408  -0.982  -0.488  0.00  0.00    -0.286 N 
ATOM     19  N   UNL d   1       0.891   0.308  -0.526  0.00  0.00    -0.278 N 
ATOM     20  HN  UNL d   1       0.757  -1.740  -1.074  1.00  0.00     0.188 HD
ATOM     21  HN  UNL d   1       1.644   0.611  -1.144  1.00  0.00     0.189 HD
BRANCH  17  22
ATOM     22  S   UNL d   1      -1.392  -2.635   0.656  0.00  0.00    -0.108 SA
ATOM     23  C   UNL d   1      -0.598  -3.667  -0.596  0.00  0.00     0.097 C 
ENDBRANCH  17  22
ENDBRANCH   1  15
TORSDOF 6
