REMARK  6 active torsions:
REMARK  status: ('A' for Active; 'I' for Inactive)
REMARK    1  A    between atoms: C_3  and  C_1 
REMARK    2  A    between atoms: N_4  and  C_1 
REMARK    3  A    between atoms: C_5  and  C_2 
REMARK    4  A    between atoms: O_9  and  C_3 
REMARK    5  A    between atoms: C_8  and  N_4 
REMARK    6  A    between atoms: O_11  and  C_5 
ROOT
ATOM      1  C   UNL d   1       0.999   0.149   0.200  0.00  0.00     0.114 C 
ATOM      2  C   UNL d   1       0.450   1.010   1.078  0.00  0.00     0.117 C 
ENDROOT
BRANCH   1   3
ATOM      3  C   UNL d   1       2.476   0.059  -0.054  0.00  0.00     0.309 C 
ATOM      4  O   UNL d   1       2.923  -0.237  -1.155  0.00  0.00    -0.258 OA
BRANCH   3   5
ATOM      5  O   UNL d   1       3.194   0.184   1.089  0.00  0.00    -0.321 OA
ATOM      6  C   UNL d   1       4.604   0.193   0.893  0.00  0.00     0.213 C 
ENDBRANCH   3   5
ENDBRANCH   1   3
BRANCH   1   7
ATOM      7  N   UNL d   1       0.224  -0.676  -0.625  0.00  0.00    -0.351 N 
ATOM      8  H   UNL d   1       0.767  -1.015  -1.426  0.00  0.00     0.166 HD
BRANCH   7   9
ATOM      9  C   UNL d   1      -0.710  -1.644  -0.185  0.00  0.00     0.032 A 
ATOM     10  C   UNL d   1      -0.961  -1.915   1.167  0.00  0.00     0.031 A 
ATOM     11  C   UNL d   1      -1.942  -2.835   1.549  0.00  0.00     0.026 A 
ATOM     12  C   UNL d   1      -2.692  -3.490   0.578  0.00  0.00     0.034 A 
ATOM     13  C   UNL d   1      -2.462  -3.238  -0.770  0.00  0.00     0.026 A 
ATOM     14 CL   UNL d   1      -3.912  -4.607   1.050  0.00  0.00    -0.084 Cl
ATOM     15  C   UNL d   1      -1.479  -2.316  -1.148  0.00  0.00     0.031 A 
ENDBRANCH   7   9
ENDBRANCH   1   7
BRANCH   2  16
ATOM     16  C   UNL d   1       1.126   1.999   1.936  0.00  0.00     0.284 C 
ATOM     17  O   UNL d   1       2.170   2.576   1.697  0.00  0.00    -0.260 OA
BRANCH  16  18
ATOM     18  O   UNL d   1       0.330   2.177   3.023  0.00  0.00    -0.323 OA
ATOM     19  C   UNL d   1       0.825   3.124   3.971  0.00  0.00     0.213 C 
ENDBRANCH  16  18
ENDBRANCH   2  16
TORSDOF 6
