REMARK  3 active torsions:
REMARK  status: ('A' for Active; 'I' for Inactive)
REMARK    1  A    between atoms: C_17  and  C_5 
REMARK    2  A    between atoms: C_18  and  C_5 
REMARK    3  A    between atoms: C_10  and  N_6 
ROOT
ATOM      1  C   UNL d   1      -0.578  -1.040  -0.122  0.00  0.00     0.125 C 
ATOM      2  S   UNL d   1       1.126  -1.229   0.277  0.00  0.00    -0.063 SA
ATOM      3  N   UNL d   1      -0.943   0.271   0.085  0.00  0.00    -0.259 NA
ATOM      4  C   UNL d   1       1.412   0.487   0.107  0.00  0.00    -0.001 C 
ATOM      5  C   UNL d   1       0.121   1.258  -0.194  0.00  0.00     0.049 C 
ATOM      6  N   UNL d   1      -1.386  -1.920  -0.619  0.00  0.00    -0.341 N 
ATOM      7  HN  UNL d   1      -2.362  -1.657  -0.756  1.00  0.00     0.167 HD
ATOM      8  C   UNL d   1       2.638   0.984   0.311  0.00  0.00     0.029 C 
ATOM      9  H   UNL d   1      -1.858   0.485  -0.292  0.00  0.00     0.130 HD
ENDROOT
BRANCH   6  10
ATOM     10  C   UNL d   1      -0.987  -3.222  -0.979  0.00  0.00     0.035 A 
ATOM     11  C   UNL d   1      -1.819  -4.299  -0.647  0.00  0.00     0.056 A 
ATOM     12  C   UNL d   1      -1.488  -5.600  -1.043  0.00  0.00     0.074 A 
ATOM     13 CL   UNL d   1      -2.550  -6.904  -0.664  0.00  0.00    -0.081 Cl
ATOM     14  C   UNL d   1      -0.317  -5.835  -1.759  0.00  0.00     0.138 A 
ATOM     15  C   UNL d   1       0.504  -4.779  -2.123  0.00  0.00     0.046 A 
ATOM     16  F   UNL d   1       0.030  -7.076  -2.129  0.00  0.00    -0.204 F 
ATOM     17  C   UNL d   1       0.143  -3.478  -1.769  0.00  0.00     0.032 A 
ENDBRANCH   6  10
BRANCH   5  18
ATOM     18  C   UNL d   1      -0.075   2.508   0.698  0.00  0.00     0.026 C 
ATOM     19  C   UNL d   1      -0.011   2.260   2.202  0.00  0.00     0.007 C 
ENDBRANCH   5  18
BRANCH   5  20
ATOM     20  C   UNL d   1      -0.016   1.629  -1.703  0.00  0.00     0.026 C 
ATOM     21  C   UNL d   1       0.980   2.642  -2.250  0.00  0.00     0.007 C 
ENDBRANCH   5  20
TORSDOF 3
