REMARK  2 active torsions:
REMARK  status: ('A' for Active; 'I' for Inactive)
REMARK    1  A    between atoms: C_3  and  C_1 
REMARK    2  A    between atoms: C_7  and  C_3 
ROOT
ATOM      1  C   UNL d   1      -0.952   1.378  -0.109  0.00  0.00     0.036 A 
ATOM      2  C   UNL d   1       0.238   0.654  -0.127  0.00  0.00     0.029 A 
ATOM      3  N   UNL d   1       1.550   1.157  -0.349  0.00  0.00    -0.291 NA
ATOM      4  C   UNL d   1       0.222  -0.743  -0.058  0.00  0.00    -0.035 A 
ATOM      5  C   UNL d   1      -2.156   0.663   0.021  0.00  0.00     0.017 A 
ATOM      6  C   UNL d   1       2.408   0.048   0.087  0.00  0.00     0.097 C 
ATOM      7  C   UNL d   1      -2.159  -0.741   0.072  0.00  0.00     0.002 A 
ATOM      8  C   UNL d   1       1.620  -1.256  -0.134  0.00  0.00     0.055 C 
ATOM      9  C   UNL d   1      -0.961  -1.456   0.032  0.00  0.00     0.009 A 
ATOM     10  H   UNL d   1       1.665   2.050   0.141  0.00  0.00     0.127 HD
ENDROOT
BRANCH   1  11
ATOM     11  C   UNL d   1      -0.931   2.864  -0.133  0.00  0.00     0.194 C 
ATOM     12  O   UNL d   1      -0.009   3.466   0.420  0.00  0.00    -0.287 OA
BRANCH  11  13
ATOM     13  C   UNL d   1      -2.034   3.647  -0.757  0.00  0.00     0.015 A 
ATOM     14  C   UNL d   1      -2.747   3.171  -1.864  0.00  0.00     0.015 A 
ATOM     15  C   UNL d   1      -3.805   3.918  -2.389  0.00  0.00     0.001 A 
ATOM     16  C   UNL d   1      -4.135   5.152  -1.829  0.00  0.00     0.000 A 
ATOM     17  C   UNL d   1      -3.404   5.648  -0.750  0.00  0.00     0.001 A 
ATOM     18  C   UNL d   1      -2.353   4.899  -0.215  0.00  0.00     0.015 A 
ENDBRANCH  11  13
ENDBRANCH   1  11
TORSDOF 2
