REMARK  2 active torsions:
REMARK  status: ('A' for Active; 'I' for Inactive)
REMARK    1  A    between atoms: C_3  and  N_2 
REMARK    2  A    between atoms: C_8  and  N_4 
ROOT
ATOM      1  C   UNL d   1       0.891   0.589   0.119  0.00  0.00     0.154 C 
ATOM      2  N   UNL d   1      -0.388   1.087  -0.046  0.00  0.00    -0.261 N 
ATOM      3  N   UNL d   1       1.947   1.307  -0.083  0.00  0.00    -0.336 N 
ATOM      4  HN  UNL d   1       1.810   2.292  -0.311  1.00  0.00     0.168 HD
ATOM      5  S   UNL d   1       0.825  -1.098   0.558  0.00  0.00    -0.084 SA
ATOM      6  C   UNL d   1      -1.406   0.150  -0.122  0.00  0.00     0.240 C 
ATOM      7  C   UNL d   1      -0.890  -1.254   0.043  0.00  0.00     0.186 C 
ATOM      8  O   UNL d   1      -2.602   0.373  -0.301  0.00  0.00    -0.272 OA
ENDROOT
BRANCH   2   9
ATOM      9  C   UNL d   1      -0.658   2.486  -0.136  0.00  0.00     0.047 A 
ATOM     10  C   UNL d   1      -0.040   3.382   0.748  0.00  0.00     0.054 A 
ATOM     11  C   UNL d   1      -0.358   4.741   0.715  0.00  0.00     0.037 A 
ATOM     12 CL   UNL d   1       0.354   5.810   1.861  0.00  0.00    -0.084 Cl
ATOM     13  C   UNL d   1      -1.261   5.237  -0.219  0.00  0.00     0.048 A 
ATOM     14  C   UNL d   1      -1.861   4.355  -1.112  0.00  0.00     0.037 A 
ATOM     15  C   UNL d   1      -1.583   2.987  -1.063  0.00  0.00     0.054 A 
ATOM     16 CL   UNL d   1      -2.954   4.958  -2.297  0.00  0.00    -0.084 Cl
ENDBRANCH   2   9
BRANCH   3  17
ATOM     17  C   UNL d   1       3.267   0.835  -0.013  0.00  0.00     0.037 A 
ATOM     18  C   UNL d   1       3.721  -0.297  -0.699  0.00  0.00     0.053 A 
ATOM     19  C   UNL d   1       5.062  -0.681  -0.622  0.00  0.00     0.037 A 
ATOM     20 CL   UNL d   1       5.581  -2.118  -1.418  0.00  0.00    -0.084 Cl
ATOM     21  C   UNL d   1       5.982   0.086   0.082  0.00  0.00     0.048 A 
ATOM     22  C   UNL d   1       5.546   1.248   0.711  0.00  0.00     0.037 A 
ATOM     23  C   UNL d   1       4.202   1.620   0.668  0.00  0.00     0.053 A 
ATOM     24 CL   UNL d   1       6.682   2.246   1.534  0.00  0.00    -0.084 Cl
ENDBRANCH   3  17
TORSDOF 2
