REMARK  8 active torsions:
REMARK  status: ('A' for Active; 'I' for Inactive)
REMARK    1  A    between atoms: C_3  and  C_1 
REMARK    2  A    between atoms: C_4  and  C_1 
REMARK    3  A    between atoms: N_7  and  C_2 
REMARK    4  A    between atoms: O_13  and  C_3 
REMARK    5  A    between atoms: O_12  and  C_4 
REMARK    6  A    between atoms: C_11  and  N_7 
REMARK    7  A    between atoms: C_18  and  O_12 
REMARK    8  A    between atoms: C_19  and  O_13 
ROOT
ATOM      1  N   UNL d   1      -4.139  -3.394  -4.297  0.00  0.00    -0.191 NA
ATOM      2  C   UNL d   1      -2.990  -3.390  -4.135  0.00  0.00     0.099 C 
ATOM      3  C   UNL d   1      -1.573  -3.386  -3.930  0.00  0.00     0.046 A 
ATOM      4  C   UNL d   1       0.380  -2.470  -2.798  0.00  0.00     0.033 A 
ATOM      5  C   UNL d   1      -1.000  -2.494  -3.014  0.00  0.00     0.052 A 
ATOM      6  C   UNL d   1       0.614  -4.256  -4.450  0.00  0.00     0.004 A 
ATOM      7  C   UNL d   1      -0.762  -4.269  -4.650  0.00  0.00     0.023 A 
ATOM      8  C   UNL d   1       1.175  -3.363  -3.535  0.00  0.00     0.029 A 
ENDROOT
BRANCH   4   9
ATOM      9  N   UNL d   1       1.022  -1.584  -1.918  0.00  0.00    -0.365 N 
ATOM     10  H   UNL d   1       2.033  -1.730  -1.821  0.00  0.00     0.165 HD
BRANCH   9  11
ATOM     11  C   UNL d   1       0.485  -0.722  -0.988  0.00  0.00     0.112 C 
ATOM     12  C   UNL d   1       1.138   0.029  -0.073  0.00  0.00     0.129 C 
BRANCH  12  13
ATOM     13  C   UNL d   1       0.379   0.777   0.959  0.00  0.00     0.300 C 
ATOM     14  O   UNL d   1       0.839   1.098   2.047  0.00  0.00    -0.259 OA
BRANCH  13  15
ATOM     15  O   UNL d   1      -0.920   0.949   0.593  0.00  0.00    -0.318 OA
BRANCH  15  16
ATOM     16  C   UNL d   1      -1.822   1.269   1.663  0.00  0.00     0.174 C 
ATOM     17  C   UNL d   1      -2.280  -0.027   2.310  0.00  0.00     0.034 C 
ENDBRANCH  15  16
ENDBRANCH  13  15
ENDBRANCH  12  13
BRANCH  12  18
ATOM     18  C   UNL d   1       2.614  -0.070  -0.008  0.00  0.00     0.300 C 
ATOM     19  O   UNL d   1       3.257  -0.995  -0.492  0.00  0.00    -0.259 OA
BRANCH  18  20
ATOM     20  O   UNL d   1       3.142   0.977   0.667  0.00  0.00    -0.318 OA
BRANCH  20  21
ATOM     21  C   UNL d   1       4.470   0.780   1.172  0.00  0.00     0.174 C 
ATOM     22  C   UNL d   1       4.367   0.118   2.535  0.00  0.00     0.034 C 
ENDBRANCH  20  21
ENDBRANCH  18  20
ENDBRANCH  12  18
ENDBRANCH   9  11
ENDBRANCH   4   9
TORSDOF 8
