REMARK  4 active torsions:
REMARK  status: ('A' for Active; 'I' for Inactive)
REMARK       I    between atoms: N_2  and  C_1 
REMARK    1  A    between atoms: C_3  and  C_1 
REMARK    2  A    between atoms: C_6  and  N_2 
REMARK    3  A    between atoms: C_4  and  C_6 
REMARK    4  A    between atoms: C_5  and  C_4 
ROOT
ATOM      1  C   UNL d   1       2.473  -0.084  -0.048  0.00  0.00     0.252 C 
ATOM      2  N   UNL d   1       3.259  -1.220  -0.038  0.00  0.00    -0.350 N 
ATOM      3  O   UNL d   1       1.249  -0.144  -0.142  0.00  0.00    -0.268 OA
ATOM      4  H   UNL d   1       4.265  -1.161   0.059  0.00  0.00     0.163 HD
ENDROOT
BRANCH   2   5
ATOM      5  C   UNL d   1       2.662  -2.548  -0.035  0.00  0.00     0.206 C 
BRANCH   5   6
ATOM      6  C   UNL d   1       3.031  -3.372  -1.264  0.00  0.00     0.177 C 
ATOM      7  O   UNL d   1       4.114  -3.954  -1.357  0.00  0.00    -0.291 OA
BRANCH   6   8
ATOM      8  C   UNL d   1       2.065  -3.448  -2.393  0.00  0.00     0.011 A 
ATOM      9  C   UNL d   1       1.271  -2.349  -2.735  0.00  0.00     0.016 A 
ATOM     10  C   UNL d   1       0.390  -2.420  -3.816  0.00  0.00     0.020 A 
ATOM     11  C   UNL d   1       0.302  -3.593  -4.558  0.00  0.00     0.011 A 
ATOM     12  C   UNL d   1       1.089  -4.698  -4.232  0.00  0.00     0.020 A 
ATOM     13 BR   UNL d   1      -0.886  -3.679  -6.026  0.00  0.00    -0.051 Br
ATOM     14  C   UNL d   1       1.979  -4.623  -3.151  0.00  0.00     0.016 A 
ENDBRANCH   6   8
ENDBRANCH   5   6
ENDBRANCH   2   5
BRANCH   1  15
ATOM     15  C   UNL d   1       3.161   1.242   0.032  0.00  0.00     0.037 A 
ATOM     16  C   UNL d   1       2.570   2.359   0.666  0.00  0.00    -0.046 A 
ATOM     17  C   UNL d   1       1.244   2.353   1.381  0.00  0.00     0.049 C 
ATOM     18  C   UNL d   1       3.251   3.593   0.642  0.00  0.00     0.007 A 
ATOM     19  C   UNL d   1       4.487   3.725   0.014  0.00  0.00     0.001 A 
ATOM     20  C   UNL d   1       5.066   2.625  -0.608  0.00  0.00     0.001 A 
ATOM     21  C   UNL d   1       4.406   1.394  -0.606  0.00  0.00     0.017 A 
ENDBRANCH   1  15
TORSDOF 4
