REMARK  5 active torsions:
REMARK  status: ('A' for Active; 'I' for Inactive)
REMARK    1  A    between atoms: C_6  and  C_1 
REMARK    2  A    between atoms: C_5  and  CA_8 
REMARK    3  A    between atoms: OXT_14  and  C_5 
REMARK    4  A    between atoms: CA_8  and  C_6 
REMARK    5  A    between atoms: N_13  and  CA_8 
ROOT
ATOM      1  C   UNL d   1      -1.774   1.292   0.125  0.00  0.00    -0.028 A 
ATOM      2  C   UNL d   1      -0.545   0.559   0.235  0.00  0.00     0.001 A 
ATOM      3  N   UNL d   1      -2.233  -0.892   0.056  0.00  0.00    -0.365 N 
ATOM      4  C   UNL d   1      -2.788   0.358   0.042  0.00  0.00     0.096 A 
ATOM      5  C   UNL d   1      -0.862  -0.796   0.118  0.00  0.00     0.043 A 
ATOM      6  C   UNL d   1       0.811   0.921   0.362  0.00  0.00     0.056 A 
ATOM      7  C   UNL d   1       0.107  -1.808   0.083  0.00  0.00     0.033 A 
ATOM      8  C   UNL d   1       1.782  -0.083   0.324  0.00  0.00     0.117 A 
ATOM      9  C   UNL d   1       1.446  -1.421   0.174  0.00  0.00     0.044 A 
ATOM     10  F   UNL d   1       3.074   0.259   0.416  0.00  0.00    -0.206 F 
ATOM     11  H   UNL d   1      -2.748  -1.759  -0.002  0.00  0.00     0.165 HD
ENDROOT
BRANCH   1  12
ATOM     12  C   UNL d   1      -1.962   2.780   0.057  0.00  0.00     0.087 C 
BRANCH  12  13
ATOM     13  CA  UNL d   1      -1.282   3.453  -1.147  0.00  0.00     0.318 C 
BRANCH  13  14
ATOM     14  C   UNL d   1      -1.834   2.972  -2.507  0.00  0.00     0.174 C 
ATOM     15  O   UNL d   1      -2.507   3.680  -3.249  0.00  0.00    -0.648 OA
BRANCH  14  16
ATOM     16  OXT UNL d   1      -1.467   1.724  -2.870  0.00  0.00    -0.775 OA
ATOM     17  HXT UNL d   1      -0.945   1.241  -2.202  0.00  0.00     0.167 HD
ENDBRANCH  14  16
ENDBRANCH  13  14
BRANCH  13  18
ATOM     18  N   UNL d   1      -1.476   4.928  -1.043  0.00  0.00     0.093 N 
ATOM     19  H1  UNL d   1      -2.471   5.116  -1.213  0.00  0.00     0.314 HD
ATOM     20  H2  UNL d   1      -1.028   5.360  -1.855  0.00  0.00     0.314 HD
ENDBRANCH  13  18
ENDBRANCH  12  13
ENDBRANCH   1  12
TORSDOF 5
