REMARK  7 active torsions:
REMARK  status: ('A' for Active; 'I' for Inactive)
REMARK    1  A    between atoms: O_5  and  C_1 
REMARK    2  A    between atoms: C_11  and  C_1 
REMARK    3  A    between atoms: C_2  and  C_14 
REMARK    4  A    between atoms: C_3  and  O_5 
REMARK    5  A    between atoms: C_6  and  O_12 
REMARK    6  A    between atoms: C_13  and  C_6 
REMARK    7  A    between atoms: O_12  and  C_14 
ROOT
ATOM      1  C   UNL d   1       3.111  -3.743   0.158  0.00  0.00     0.177 C 
ATOM      2  C   UNL d   1       2.516  -2.366  -0.169  0.00  0.00     0.166 C 
ATOM      3  O   UNL d   1       2.387  -4.666  -0.686  0.00  0.00    -0.361 OA
ATOM      4  N   UNL d   1      -0.245  -4.818  -2.894  0.00  0.00    -0.195 NA
ATOM      5  C   UNL d   1       2.048  -2.493  -1.617  0.00  0.00     0.082 C 
ATOM      6  C   UNL d   1       0.780  -4.473  -2.458  0.00  0.00     0.091 C 
ATOM      7  C   UNL d   1       2.072  -3.984  -1.913  0.00  0.00     0.231 C 
ENDROOT
BRANCH   2   8
ATOM      8  O   UNL d   1       3.327  -1.189   0.086  0.00  0.00    -0.309 OA
BRANCH   8   9
ATOM      9  C   UNL d   1       4.491  -1.061  -0.607  0.00  0.00     0.293 C 
ATOM     10  O   UNL d   1       4.939  -1.921  -1.351  0.00  0.00    -0.259 OA
BRANCH   9  11
ATOM     11  C   UNL d   1       5.158   0.276  -0.458  0.00  0.00     0.039 A 
ATOM     12  C   UNL d   1       6.348   0.463  -1.179  0.00  0.00     0.018 A 
ATOM     13  C   UNL d   1       7.026   1.685  -1.162  0.00  0.00     0.007 A 
ATOM     14  C   UNL d   1       6.529   2.762  -0.428  0.00  0.00    -0.062 A 
ATOM     15  C   UNL d   1       5.349   2.579   0.315  0.00  0.00     0.007 A 
ATOM     16  C   UNL d   1       7.270   4.069  -0.435  0.00  0.00     0.048 C 
ATOM     17  C   UNL d   1       4.662   1.343   0.299  0.00  0.00     0.018 A 
ENDBRANCH   9  11
ENDBRANCH   8   9
ENDBRANCH   2   8
BRANCH   1  18
ATOM     18  C   UNL d   1       2.894  -4.177   1.614  0.00  0.00     0.213 C 
BRANCH  18  19
ATOM     19  O   UNL d   1       3.445  -5.493   1.858  0.00  0.00    -0.315 OA
BRANCH  19  20
ATOM     20  C   UNL d   1       4.772  -5.541   2.125  0.00  0.00     0.293 C 
ATOM     21  O   UNL d   1       5.505  -4.567   2.209  0.00  0.00    -0.259 OA
BRANCH  20  22
ATOM     22  C   UNL d   1       5.244  -6.948   2.278  0.00  0.00     0.039 A 
ATOM     23  C   UNL d   1       6.622  -7.169   2.402  0.00  0.00     0.018 A 
ATOM     24  C   UNL d   1       7.127  -8.469   2.497  0.00  0.00     0.007 A 
ATOM     25  C   UNL d   1       6.262  -9.569   2.484  0.00  0.00    -0.062 A 
ATOM     26  C   UNL d   1       4.883  -9.348   2.383  0.00  0.00     0.007 A 
ATOM     27  C   UNL d   1       6.822 -10.961   2.544  0.00  0.00     0.048 C 
ATOM     28  C   UNL d   1       4.375  -8.046   2.282  0.00  0.00     0.018 A 
ENDBRANCH  20  22
ENDBRANCH  19  20
ENDBRANCH  18  19
ENDBRANCH   1  18
TORSDOF 7
