REMARK  3 active torsions:
REMARK  status: ('A' for Active; 'I' for Inactive)
REMARK    1  A    between atoms: C_4  and  C_2 
REMARK    2  A    between atoms: O_20  and  C_8 
REMARK    3  A    between atoms: O_23  and  C_18 
ROOT
ATOM      1  N   UNL d   1       0.941   0.525  -0.002  0.00  0.00    -0.322 N 
ATOM      2  C   UNL d   1       1.049  -1.925  -0.253  0.00  0.00     0.146 C 
ATOM      3  C   UNL d   1       1.731  -0.603  -0.093  0.00  0.00     0.039 A 
ATOM      4  N   UNL d   1      -0.267  -1.949   0.397  0.00  0.00    -0.277 NA
ATOM      5  C   UNL d   1      -1.056  -0.808   0.139  0.00  0.00     0.039 A 
ATOM      6  C   UNL d   1      -0.473   0.465   0.009  0.00  0.00     0.060 A 
ATOM      7  C   UNL d   1      -2.453  -0.896   0.183  0.00  0.00     0.062 A 
ATOM      8  C   UNL d   1       1.760   1.627   0.072  0.00  0.00     0.097 A 
ATOM      9  C   UNL d   1       3.055  -0.210  -0.042  0.00  0.00     0.029 A 
ATOM     10  C   UNL d   1      -1.262   1.613  -0.094  0.00  0.00     0.035 A 
ATOM     11  C   UNL d   1       3.071   1.199   0.073  0.00  0.00     0.020 A 
ATOM     12  C   UNL d   1      -3.257   0.245   0.057  0.00  0.00     0.070 A 
ATOM     13  C   UNL d   1      -2.654   1.497  -0.076  0.00  0.00     0.039 A 
ATOM     14  H   UNL d   1      -0.768  -2.820   0.237  0.00  0.00     0.129 HD
ENDROOT
BRANCH   2  15
ATOM     15  C   UNL d   1       1.847  -3.107   0.279  0.00  0.00     0.002 A 
ATOM     16  C   UNL d   1       2.166  -3.268   1.640  0.00  0.00     0.095 A 
ATOM     17  C   UNL d   1       2.885  -4.392   2.077  0.00  0.00     0.069 A 
ATOM     18 CL   UNL d   1       3.284  -4.615   3.743  0.00  0.00    -0.081 Cl
ATOM     19  C   UNL d   1       3.281  -5.375   1.171  0.00  0.00     0.050 A 
ATOM     20  C   UNL d   1       2.965  -5.227  -0.174  0.00  0.00     0.036 A 
ATOM     21  C   UNL d   1       2.262  -4.112  -0.621  0.00  0.00     0.036 A 
ATOM     22 CL   UNL d   1       3.439  -6.439  -1.301  0.00  0.00    -0.084 Cl
BRANCH  16  23
ATOM     23  O   UNL d   1       1.778  -2.345   2.576  0.00  0.00    -0.358 OA
ATOM     24  H   UNL d   1       1.147  -1.719   2.170  0.00  0.00     0.217 HD
ENDBRANCH  16  23
ENDBRANCH   2  15
BRANCH  12  25
ATOM     25  O   UNL d   1      -4.604   0.007   0.085  0.00  0.00    -0.356 OA
ATOM     26  C   UNL d   1      -5.462   1.138  -0.026  0.00  0.00     0.210 C 
ENDBRANCH  12  25
TORSDOF 3
