REMARK  5 active torsions:
REMARK  status: ('A' for Active; 'I' for Inactive)
REMARK    1  A    between atoms: C_3  and  C_1 
REMARK       I    between atoms: N_7  and  C_1 
REMARK    2  A    between atoms: C_4  and  C_6 
REMARK    3  A    between atoms: O_14  and  C_4 
REMARK    4  A    between atoms: C_5  and  C_13 
REMARK    5  A    between atoms: C_13  and  N_7 
ROOT
ATOM      1  C   UNL d   1      -1.494  -1.199   0.214  0.00  0.00     0.241 C 
ATOM      2  N   UNL d   1      -2.066   0.020   0.024  0.00  0.00    -0.353 N 
ATOM      3  O   UNL d   1      -0.330  -1.493  -0.023  0.00  0.00    -0.269 OA
ATOM      4  H   UNL d   1      -3.063   0.142   0.149  0.00  0.00     0.163 HD
ENDROOT
BRANCH   1   5
ATOM      5  C   UNL d   1      -2.444  -2.210   0.703  0.00  0.00     0.080 C 
ATOM      6  C   UNL d   1      -2.600  -3.418   0.145  0.00  0.00     0.086 C 
BRANCH   6   7
ATOM      7  C   UNL d   1      -1.975  -4.016  -1.051  0.00  0.00     0.165 C 
ATOM      8  O   UNL d   1      -2.551  -4.907  -1.655  0.00  0.00    -0.647 OA
BRANCH   7   9
ATOM      9  O   UNL d   1      -0.763  -3.572  -1.404  0.00  0.00    -0.773 OA
ATOM     10  H   UNL d   1      -0.357  -2.884  -0.825  0.00  0.00     0.167 HD
ENDBRANCH   7   9
ENDBRANCH   6   7
ENDBRANCH   1   5
BRANCH   2  11
ATOM     11  C   UNL d   1      -1.302   1.146  -0.461  0.00  0.00     0.168 C 
BRANCH  11  12
ATOM     12  C   UNL d   1      -2.252   2.271  -0.707  0.00  0.00     0.000 A 
ATOM     13  S   UNL d   1      -2.639   3.367   0.554  0.00  0.00    -0.105 SA
ATOM     14  C   UNL d   1      -3.730   4.226  -0.443  0.00  0.00     0.050 A 
ATOM     15  C   UNL d   1      -3.797   3.698  -1.712  0.00  0.00     0.008 A 
ATOM     16  C   UNL d   1      -2.940   2.570  -1.867  0.00  0.00     0.017 A 
ENDBRANCH  11  12
ENDBRANCH   2  11
TORSDOF 5
