REMARK  6 active torsions:
REMARK  status: ('A' for Active; 'I' for Inactive)
REMARK       I    between atoms: C_2  and  N_1 
REMARK    1  A    between atoms: C_3  and  N_1 
REMARK    2  A    between atoms: C_4  and  C_2 
REMARK    3  A    between atoms: N_7  and  C_3 
REMARK    4  A    between atoms: C_5  and  C_19 
REMARK    5  A    between atoms: C_19  and  N_7 
REMARK    6  A    between atoms: C_9  and  C_10 
ROOT
ATOM      1  N   UNL d   1       0.857  -0.229  -0.548  0.00  0.00    -0.300 N 
ATOM      2  C   UNL d   1       0.265   1.004  -0.811  0.00  0.00     0.257 C 
ATOM      3  O   UNL d   1      -0.726   1.345  -0.177  0.00  0.00    -0.267 OA
ATOM      4  H   UNL d   1       0.262  -0.723   0.111  0.00  0.00     0.171 HD
ENDROOT
BRANCH   1   5
ATOM      5  C   UNL d   1       2.171  -0.680  -0.457  0.00  0.00     0.174 C 
ATOM      6  S   UNL d   1       3.575   0.218  -0.450  0.00  0.00    -0.041 SA
BRANCH   5   7
ATOM      7  N   UNL d   1       2.292  -2.044  -0.372  0.00  0.00    -0.361 N 
ATOM      8  H   UNL d   1       3.241  -2.388  -0.290  0.00  0.00     0.162 HD
BRANCH   7   9
ATOM      9  C   UNL d   1       1.226  -3.026  -0.476  0.00  0.00     0.187 C 
BRANCH   9  10
ATOM     10  C   UNL d   1       0.565  -3.155   0.843  0.00  0.00     0.070 A 
ATOM     11  O   UNL d   1      -0.471  -2.298   1.087  0.00  0.00    -0.325 OA
ATOM     12  C   UNL d   1      -0.911  -2.558   2.348  0.00  0.00     0.142 A 
ATOM     13  C   UNL d   1      -0.176  -3.567   2.912  0.00  0.00     0.027 A 
ATOM     14  C   UNL d   1       0.783  -3.956   1.946  0.00  0.00     0.036 A 
ENDBRANCH   9  10
ENDBRANCH   7   9
ENDBRANCH   5   7
ENDBRANCH   1   5
BRANCH   2  15
ATOM     15  C   UNL d   1       0.832   1.899  -1.849  0.00  0.00     0.032 C 
ATOM     16  C   UNL d   1       1.605   1.433  -2.911  0.00  0.00     0.017 C 
ATOM     17  C   UNL d   1       2.269   2.338  -3.737  0.00  0.00     0.009 C 
ATOM     18  C   UNL d   1       2.134   3.732  -3.561  0.00  0.00    -0.051 C 
ATOM     19  C   UNL d   1       1.219   4.171  -2.591  0.00  0.00     0.009 C 
ATOM     20  C   UNL d   1       0.580   3.268  -1.740  0.00  0.00     0.017 C 
BRANCH  18  21
ATOM     21  C   UNL d   1       3.022   4.700  -4.357  0.00  0.00    -0.024 C 
ATOM     22  C   UNL d   1       2.725   6.189  -4.065  0.00  0.00     0.019 C 
ATOM     23  C   UNL d   1       4.500   4.453  -3.975  0.00  0.00     0.019 C 
ATOM     24  C   UNL d   1       2.839   4.484  -5.872  0.00  0.00     0.019 C 
ENDBRANCH  18  21
ENDBRANCH   2  15
TORSDOF 6
