REMARK  1 active torsions:
REMARK  status: ('A' for Active; 'I' for Inactive)
REMARK    1  A    between atoms: N_3  and  C_2 
ROOT
ATOM      1  C   UNL d   1       1.175   0.846   1.276  0.00  0.00     0.092 A 
ATOM      2  C   UNL d   1       1.277   1.585   0.069  0.00  0.00     0.052 A 
ATOM      3  C   UNL d   1       1.252   1.494   2.555  0.00  0.00     0.103 C 
ATOM      4  N   UNL d   1       1.303   2.014   3.591  0.00  0.00    -0.191 NA
ATOM      5  C   UNL d   1       1.047  -0.557   1.251  0.00  0.00     0.057 A 
ATOM      6 CL   UNL d   1       0.938  -1.503   2.701  0.00  0.00    -0.083 Cl
ATOM      7  C   UNL d   1       1.247   0.834  -1.128  0.00  0.00     0.031 A 
ATOM      8  C   UNL d   1       1.105  -0.556  -1.149  0.00  0.00     0.004 A 
ATOM      9  C   UNL d   1       1.007  -1.254   0.044  0.00  0.00     0.025 A 
ENDROOT
BRANCH   2  10
ATOM     10  N   UNL d   1       1.373   2.958  -0.014  0.00  0.00    -0.380 N 
ATOM     11  C   UNL d   1       0.783   3.915   0.916  0.00  0.00     0.123 C 
ATOM     12  C   UNL d   1       0.676   5.176   0.070  0.00  0.00     0.021 C 
ATOM     13  C   UNL d   1       1.951   5.140  -0.758  0.00  0.00     0.021 C 
ATOM     14  C   UNL d   1       2.225   3.649  -0.987  0.00  0.00     0.123 C 
ENDBRANCH   2  10
TORSDOF 1
