REMARK  4 active torsions:
REMARK  status: ('A' for Active; 'I' for Inactive)
REMARK    1  A    between atoms: C_4  and  C_1 
REMARK    2  A    between atoms: C_3  and  C_2 
REMARK    3  A    between atoms: C_13  and  C_4 
REMARK    4  A    between atoms: O_21  and  C_18 
ROOT
ATOM      1  C   UNL d   1       0.593   0.932  -0.232  0.00  0.00     0.081 C 
ATOM      2  C   UNL d   1      -0.886   0.966   0.015  0.00  0.00     0.090 C 
ATOM      3  N   UNL d   1       1.078  -0.212  -0.616  0.00  0.00    -0.321 N 
ATOM      4  HN  UNL d   1       2.060  -0.430  -0.787  1.00  0.00     0.180 HD
ATOM      5  N   UNL d   1       0.027  -1.058  -0.747  0.00  0.00    -0.239 NA
ATOM      6  C   UNL d   1      -1.235  -0.501  -0.256  0.00  0.00     0.126 C 
ATOM      7  H   UNL d   1       0.220  -1.997  -0.392  0.00  0.00     0.146 HD
ENDROOT
BRANCH   2   8
ATOM      8  C   UNL d   1      -1.329   1.513   1.376  0.00  0.00    -0.025 A 
ATOM      9  C   UNL d   1      -2.221   2.651   1.411  0.00  0.00    -0.018 A 
ATOM     10  C   UNL d   1      -2.596   3.181   2.667  0.00  0.00    -0.025 A 
ATOM     11  C   UNL d   1      -2.769   3.316   0.276  0.00  0.00     0.013 A 
ATOM     12  C   UNL d   1      -3.442   4.301   2.762  0.00  0.00     0.012 A 
ATOM     13  C   UNL d   1      -2.126   2.597   3.843  0.00  0.00     0.024 A 
ATOM     14  C   UNL d   1      -3.947   4.925   1.627  0.00  0.00     0.001 A 
ATOM     15  C   UNL d   1      -3.613   4.428   0.381  0.00  0.00     0.001 A 
ATOM     16  C   UNL d   1      -1.283   1.486   3.837  0.00  0.00    -0.025 A 
ATOM     17  C   UNL d   1      -0.858   0.921   2.610  0.00  0.00    -0.018 A 
ATOM     18  C   UNL d   1      -0.870   0.945   5.067  0.00  0.00     0.012 A 
ATOM     19  C   UNL d   1       0.008  -0.202   2.726  0.00  0.00     0.013 A 
ATOM     20  C   UNL d   1       0.405  -0.741   3.954  0.00  0.00     0.001 A 
ATOM     21  C   UNL d   1      -0.036  -0.164   5.130  0.00  0.00     0.001 A 
ENDBRANCH   2   8
BRANCH   1  22
ATOM     22  C   UNL d   1       1.408   2.200  -0.154  0.00  0.00     0.206 C 
ATOM     23  O   UNL d   1       0.803   3.267  -0.119  0.00  0.00    -0.285 OA
BRANCH  22  24
ATOM     24  C   UNL d   1       2.889   2.189  -0.240  0.00  0.00     0.016 A 
ATOM     25  C   UNL d   1       3.526   3.322  -0.769  0.00  0.00     0.018 A 
ATOM     26  C   UNL d   1       4.917   3.349  -0.929  0.00  0.00     0.037 A 
ATOM     27  C   UNL d   1       5.681   2.246  -0.553  0.00  0.00     0.068 A 
ATOM     28  C   UNL d   1       5.053   1.139   0.021  0.00  0.00     0.037 A 
ATOM     29  C   UNL d   1       3.663   1.105   0.177  0.00  0.00     0.018 A 
BRANCH  27  30
ATOM     30  O   UNL d   1       7.041   2.153  -0.660  0.00  0.00    -0.356 OA
ATOM     31  C   UNL d   1       7.629   2.913  -1.711  0.00  0.00     0.210 C 
ENDBRANCH  27  30
ENDBRANCH  22  24
ENDBRANCH   1  22
TORSDOF 4
