REMARK  0 active torsions:
REMARK  status: ('A' for Active; 'I' for Inactive)
ROOT
ATOM      1  C   UNL d   1      -0.038  -2.570  -0.027  0.00  0.00     0.325 C 
ATOM      2  N   UNL d   1       1.007  -1.955  -0.606  0.00  0.00    -0.308 N 
ATOM      3  N   UNL d   1      -1.063  -1.931   0.558  0.00  0.00    -0.308 N 
ATOM      4  C   UNL d   1       1.516  -0.672  -0.373  0.00  0.00     0.047 A 
ATOM      5  C   UNL d   1      -1.533  -0.631   0.341  0.00  0.00     0.047 A 
ATOM      6  C   UNL d   1       0.748   0.432   0.014  0.00  0.00     0.003 A 
ATOM      7  C   UNL d   1      -0.729   0.455  -0.024  0.00  0.00     0.003 A 
ATOM      8  O   UNL d   1      -0.057  -3.805  -0.035  0.00  0.00    -0.247 OA
ATOM      9  C   UNL d   1      -1.399   1.643  -0.409  0.00  0.00     0.014 A 
ATOM     10  C   UNL d   1       1.455   1.592   0.415  0.00  0.00     0.014 A 
ATOM     11  C   UNL d   1      -2.928  -0.477   0.461  0.00  0.00     0.030 A 
ATOM     12  C   UNL d   1       2.915  -0.557  -0.500  0.00  0.00     0.030 A 
ATOM     13  C   UNL d   1      -2.789   1.771  -0.354  0.00  0.00     0.001 A 
ATOM     14  C   UNL d   1       2.848   1.680   0.353  0.00  0.00     0.001 A 
ATOM     15  C   UNL d   1       3.578   0.610  -0.135  0.00  0.00     0.002 A 
ATOM     16  C   UNL d   1      -3.555   0.714   0.109  0.00  0.00     0.002 A 
ATOM     17  H   UNL d   1       1.660  -2.647  -0.950  0.00  0.00     0.170 HD
ATOM     18  H   UNL d   1      -1.738  -2.608   0.892  0.00  0.00     0.170 HD
ENDROOT
TORSDOF 0
