REMARK  4 active torsions:
REMARK  status: ('A' for Active; 'I' for Inactive)
REMARK    1  A    between atoms: C_7  and  C_1 
REMARK    2  A    between atoms: C_8  and  N_3 
REMARK    3  A    between atoms: O_15  and  C_7 
REMARK    4  A    between atoms: C_19  and  O_15 
ROOT
ATOM      1  C   UNL d   1      -0.676   2.462  -0.100  0.00  0.00     0.056 A 
ATOM      2  C   UNL d   1       0.552   5.638  -1.646  0.00  0.00    -0.078 C 
ATOM      3  C   UNL d   1       1.169   6.392  -2.344  0.00  0.00     0.018 C 
ATOM      4  C   UNL d   1       0.100   3.366  -0.847  0.00  0.00     0.051 A 
ATOM      5  C   UNL d   1      -0.198   4.730  -0.830  0.00  0.00     0.019 A 
ATOM      6  C   UNL d   1      -1.711   2.943   0.709  0.00  0.00     0.031 A 
ATOM      7  C   UNL d   1      -1.988   4.313   0.741  0.00  0.00     0.004 A 
ATOM      8  C   UNL d   1      -1.242   5.202  -0.035  0.00  0.00     0.021 A 
ENDROOT
BRANCH   1   9
ATOM      9  N   UNL d   1      -0.360   1.081  -0.168  0.00  0.00    -0.242 N 
ATOM     10  C   UNL d   1      -1.149  -0.049  -0.013  0.00  0.00     0.062 A 
ATOM     11  C   UNL d   1      -0.242  -1.101  -0.060  0.00  0.00     0.145 A 
ATOM     12  C   UNL d   1      -2.630  -0.101   0.055  0.00  0.00     0.072 C 
ATOM     13  N   UNL d   1       1.010  -0.606  -0.300  0.00  0.00    -0.276 N 
ATOM     14  N   UNL d   1       0.918   0.705  -0.430  0.00  0.00    -0.014 NA
ATOM     15  HN  UNL d   1       1.868  -1.155  -0.368  1.00  0.00     0.184 HD
BRANCH  11  16
ATOM     16  C   UNL d   1      -0.505  -2.522   0.106  0.00  0.00     0.313 C 
ATOM     17  O   UNL d   1      -1.617  -2.982   0.348  0.00  0.00    -0.258 OA
BRANCH  16  18
ATOM     18  O   UNL d   1       0.637  -3.264   0.033  0.00  0.00    -0.317 OA
BRANCH  18  19
ATOM     19  C   UNL d   1       0.556  -4.601   0.538  0.00  0.00     0.175 C 
ATOM     20  C   UNL d   1       0.880  -4.569   2.021  0.00  0.00     0.034 C 
ENDBRANCH  18  19
ENDBRANCH  16  18
ENDBRANCH  11  16
ENDBRANCH   1   9
TORSDOF 4
