REMARK  7 active torsions:
REMARK  status: ('A' for Active; 'I' for Inactive)
REMARK    1  A    between atoms: O_13  and  C_1 
REMARK    2  A    between atoms: C_3  and  C_2 
REMARK       I    between atoms: N_8  and  C_3 
REMARK    3  A    between atoms: O_15  and  C_4 
REMARK    4  A    between atoms: O_14  and  C_5 
REMARK    5  A    between atoms: C_12  and  N_8 
REMARK    6  A    between atoms: C_9  and  C_12 
REMARK    7  A    between atoms: O_16  and  C_9 
ROOT
ATOM      1  C   UNL d   1       1.402  -0.397  -0.082  0.00  0.00     0.135 A 
ATOM      2  C   UNL d   1      -1.331   0.301  -0.040  0.00  0.00     0.037 A 
ATOM      3  C   UNL d   1       0.415  -1.403  -0.012  0.00  0.00     0.105 A 
ATOM      4  C   UNL d   1       1.011   0.953  -0.052  0.00  0.00     0.105 A 
ATOM      5  C   UNL d   1      -0.349   1.292  -0.014  0.00  0.00     0.057 A 
ATOM      6  C   UNL d   1      -0.937  -1.045  -0.036  0.00  0.00     0.057 A 
ENDROOT
BRANCH   2   7
ATOM      7  C   UNL d   1      -2.798   0.585  -0.063  0.00  0.00     0.252 C 
ATOM      8  N   UNL d   1      -3.213   1.893  -0.117  0.00  0.00    -0.347 N 
ATOM      9  H   UNL d   1      -2.574   2.679  -0.141  0.00  0.00     0.163 HD
ATOM     10  O   UNL d   1      -3.605  -0.341  -0.051  0.00  0.00    -0.268 OA
BRANCH   8  11
ATOM     11  C   UNL d   1      -4.629   2.200  -0.210  0.00  0.00     0.232 C 
BRANCH  11  12
ATOM     12  C   UNL d   1      -4.862   3.700  -0.243  0.00  0.00     0.158 C 
ATOM     13  O   UNL d   1      -3.968   4.537  -0.198  0.00  0.00    -0.649 OA
BRANCH  12  14
ATOM     14  O   UNL d   1      -6.170   4.039  -0.337  0.00  0.00    -0.775 OA
ATOM     15  H   UNL d   1      -6.777   3.274  -0.369  0.00  0.00     0.167 HD
ENDBRANCH  12  14
ENDBRANCH  11  12
ENDBRANCH   8  11
ENDBRANCH   2   7
BRANCH   4  16
ATOM     16  O   UNL d   1       1.835   2.048   0.014  0.00  0.00    -0.353 OA
ATOM     17  C   UNL d   1       3.042   1.982  -0.735  0.00  0.00     0.210 C 
ENDBRANCH   4  16
BRANCH   3  18
ATOM     18  O   UNL d   1       0.844  -2.704   0.086  0.00  0.00    -0.353 OA
ATOM     19  C   UNL d   1      -0.088  -3.649   0.603  0.00  0.00     0.210 C 
ENDBRANCH   3  18
BRANCH   1  20
ATOM     20  O   UNL d   1       2.740  -0.698  -0.026  0.00  0.00    -0.351 OA
ATOM     21  C   UNL d   1       3.195  -1.579  -1.055  0.00  0.00     0.210 C 
ENDBRANCH   1  20
TORSDOF 7
