REMARK  7 active torsions:
REMARK  status: ('A' for Active; 'I' for Inactive)
REMARK    1  A    between atoms: C_7  and  C_1 
REMARK    2  A    between atoms: N_13  and  C_4 
REMARK    3  A    between atoms: O_19  and  C_7 
REMARK    4  A    between atoms: N_8  and  N_13 
REMARK    5  A    between atoms: C_12  and  N_8 
REMARK    6  A    between atoms: O_21  and  C_17 
REMARK    7  A    between atoms: C_24  and  O_19 
ROOT
ATOM      1  N   UNL d   1       1.163  -3.322  -0.009  0.00  0.00    -0.302 N 
ATOM      2  HN  UNL d   1       1.184  -4.059  -0.713  1.00  0.00     0.186 HD
ENDROOT
BRANCH   1   3
ATOM      3  N   UNL d   1       0.115  -2.453   0.041  0.00  0.00    -0.279 N 
ATOM      4  H   UNL d   1      -0.088  -1.976   0.914  0.00  0.00     0.189 HD
BRANCH   3   5
ATOM      5  C   UNL d   1      -1.003  -2.620  -0.711  0.00  0.00     0.164 A 
ATOM      6  N   UNL d   1      -2.173  -2.158  -0.329  0.00  0.00    -0.330 N 
ATOM      7  C   UNL d   1      -3.171  -2.531  -1.229  0.00  0.00     0.117 A 
ATOM      8  HN  UNL d   1      -2.329  -1.601   0.511  1.00  0.00     0.168 HD
ATOM      9  C   UNL d   1      -2.709  -3.233  -2.327  0.00  0.00     0.089 A 
ATOM     10  S   UNL d   1      -1.020  -3.459  -2.219  0.00  0.00    -0.062 SA
BRANCH   7  11
ATOM     11  C   UNL d   1      -4.575  -2.171  -1.041  0.00  0.00     0.310 C 
ATOM     12  O   UNL d   1      -5.455  -2.458  -1.847  0.00  0.00    -0.258 OA
BRANCH  11  13
ATOM     13  O   UNL d   1      -4.774  -1.435   0.092  0.00  0.00    -0.317 OA
BRANCH  13  14
ATOM     14  C   UNL d   1      -6.038  -0.770   0.183  0.00  0.00     0.175 C 
ATOM     15  C   UNL d   1      -5.918   0.579  -0.503  0.00  0.00     0.034 C 
ENDBRANCH  13  14
ENDBRANCH  11  13
ENDBRANCH   7  11
ENDBRANCH   3   5
ENDBRANCH   1   3
BRANCH   1  16
ATOM     16  C   UNL d   1       2.137  -3.208   0.847  0.00  0.00     0.036 C 
ATOM     17  C   UNL d   1       3.260  -4.198   0.773  0.00  0.00    -0.006 A 
ATOM     18  C   UNL d   1       4.399  -4.040   1.573  0.00  0.00    -0.043 A 
ATOM     19  C   UNL d   1       3.168  -5.292  -0.097  0.00  0.00     0.017 A 
ATOM     20  C   UNL d   1       5.437  -4.982   1.478  0.00  0.00     0.044 A 
ATOM     21  C   UNL d   1       4.543  -2.869   2.502  0.00  0.00     0.040 C 
ATOM     22  C   UNL d   1       5.340  -6.082   0.617  0.00  0.00     0.068 A 
ATOM     23  C   UNL d   1       4.202  -6.235  -0.172  0.00  0.00     0.037 A 
ATOM     24  C   UNL d   1       3.182  -2.448   3.031  0.00  0.00     0.011 C 
ATOM     25  C   UNL d   1       2.239  -2.102   1.889  0.00  0.00     0.060 C 
BRANCH  22  26
ATOM     26  O   UNL d   1       6.419  -6.923   0.651  0.00  0.00    -0.356 OA
ATOM     27  C   UNL d   1       6.359  -8.076  -0.179  0.00  0.00     0.210 C 
ENDBRANCH  22  26
ENDBRANCH   1  16
TORSDOF 7
