REMARK  4 active torsions:
REMARK  status: ('A' for Active; 'I' for Inactive)
REMARK    1  A    between atoms: C_9  and  N_6 
REMARK    2  A    between atoms: C_8  and  C_9 
REMARK    3  A    between atoms: C_13  and  C_8 
REMARK    4  A    between atoms: N_14  and  N_11 
ROOT
ATOM      1  C   UNL d   1       3.278   0.799  -0.258  0.00  0.00     0.052 C 
ATOM      2  N   UNL d   1       3.271  -0.186  -1.113  0.00  0.00    -0.321 N 
ATOM      3  HN  UNL d   1       4.112  -0.431  -1.635  1.00  0.00     0.180 HD
ENDROOT
BRANCH   1   4
ATOM      4  C   UNL d   1       2.098   1.272   0.563  0.00  0.00     0.226 C 
BRANCH   4   5
ATOM      5  N   UNL d   1       1.284   2.314  -0.045  0.00  0.00    -0.197 N 
ATOM      6  N   UNL d   1       1.808   3.324  -0.770  0.00  0.00    -0.116 N 
ATOM      7  C   UNL d   1       0.852   4.253  -0.639  0.00  0.00     0.709 A 
ATOM      8  HN  UNL d   1       2.691   3.367  -1.278  1.00  0.00     0.207 HD
ATOM      9  N   UNL d   1      -0.217   3.805   0.095  0.00  0.00    -0.113 N 
ATOM     10  N   UNL d   1       0.892   5.516  -1.105  0.00  0.00    -0.215 N 
ATOM     11  N   UNL d   1       0.062   2.563   0.472  0.00  0.00     0.011 NA
ATOM     12  HN  UNL d   1      -1.066   4.328   0.310  1.00  0.00     0.203 HD
ATOM     13  C   UNL d   1      -0.060   6.537  -0.723  0.00  0.00     0.141 C 
ATOM     14  C   UNL d   1       1.941   6.020  -1.969  0.00  0.00     0.141 C 
ATOM     15  C   UNL d   1       0.189   7.645  -1.743  0.00  0.00     0.022 C 
ATOM     16  C   UNL d   1       1.681   7.528  -2.020  0.00  0.00     0.022 C 
ENDBRANCH   4   5
ENDBRANCH   1   4
BRANCH   1  17
ATOM     17  C   UNL d   1       4.622   1.409   0.018  0.00  0.00    -0.011 A 
ATOM     18  C   UNL d   1       5.727   0.544   0.072  0.00  0.00     0.015 A 
ATOM     19  C   UNL d   1       7.014   1.048   0.274  0.00  0.00     0.024 A 
ATOM     20  C   UNL d   1       7.201   2.419   0.413  0.00  0.00     0.034 A 
ATOM     21  C   UNL d   1       6.110   3.286   0.379  0.00  0.00     0.024 A 
ATOM     22 CL   UNL d   1       8.788   3.050   0.614  0.00  0.00    -0.084 Cl
ATOM     23  C   UNL d   1       4.818   2.780   0.195  0.00  0.00     0.015 A 
ENDBRANCH   1  17
BRANCH   2  24
ATOM     24  N   UNL d   1       2.117  -0.876  -1.292  0.00  0.00    -0.240 NA
ATOM     25  C   UNL d   1       2.362  -2.321  -1.480  0.00  0.00     0.135 C 
ATOM     26  C   UNL d   1       1.301  -0.423  -2.433  0.00  0.00     0.135 C 
ENDBRANCH   2  24
TORSDOF 4
