REMARK  1 active torsions:
REMARK  status: ('A' for Active; 'I' for Inactive)
REMARK       I    between atoms: N_2  and  C_1 
REMARK       I    between atoms: N_4  and  C_1 
REMARK       I    between atoms: C_3  and  N_2 
REMARK       I    between atoms: N_9  and  C_3 
REMARK    1  A    between atoms: C_10  and  N_4 
ROOT
ATOM      1  C   UNL d   1       0.888   0.171   0.054  0.00  0.00     0.678 C 
ATOM      2  N   UNL d   1       2.072   0.302   0.727  0.00  0.00    -0.167 N 
ATOM      3  C   UNL d   1       2.533  -0.160   1.917  0.00  0.00     0.163 C 
ATOM      4  N   UNL d   1       0.118  -0.887   0.465  0.00  0.00    -0.192 N 
ATOM      5  N   UNL d   1       0.566   0.971  -0.909  0.00  0.00    -0.234 N 
ATOM      6  HN  UNL d   1      -0.293   0.897  -1.455  1.00  0.00     0.174 HD
ATOM      7  N   UNL d   1       1.873  -0.799   2.818  0.00  0.00    -0.376 N 
ATOM      8  HN  UNL d   1       2.257  -1.185   3.680  1.00  0.00     0.158 HD
ATOM      9  N   UNL d   1       3.839   0.100   2.151  0.00  0.00    -0.274 NA
ATOM     10  H   UNL d   1       2.740   0.888   0.252  0.00  0.00     0.187 HD
ATOM     11  H   UNL d   1       0.638  -1.739   0.641  0.00  0.00     0.184 HD
ATOM     12  H   UNL d   1       1.280   1.684  -1.054  0.00  0.00     0.174 HD
ATOM     13  H   UNL d   1       0.890  -0.855   2.517  0.00  0.00     0.158 HD
ATOM     14  H   UNL d   1       4.089   1.079   2.086  0.00  0.00     0.127 HD
ATOM     15  H   UNL d   1       4.067  -0.231   3.088  0.00  0.00     0.127 HD
ENDROOT
BRANCH   4  16
ATOM     16  C   UNL d   1      -1.256  -1.071   0.233  0.00  0.00     0.049 A 
ATOM     17  C   UNL d   1      -1.771  -2.371   0.110  0.00  0.00     0.033 A 
ATOM     18  C   UNL d   1      -3.139  -2.583  -0.090  0.00  0.00     0.044 A 
ATOM     19  C   UNL d   1      -3.998  -1.493  -0.156  0.00  0.00     0.116 A 
ATOM     20  C   UNL d   1      -3.515  -0.199  -0.038  0.00  0.00     0.044 A 
ATOM     21  F   UNL d   1      -5.310  -1.697  -0.334  0.00  0.00    -0.206 F 
ATOM     22  C   UNL d   1      -2.146   0.010   0.147  0.00  0.00     0.033 A 
ENDBRANCH   4  16
TORSDOF 1
