REMARK  4 active torsions:
REMARK  status: ('A' for Active; 'I' for Inactive)
REMARK    1  A    between atoms: C_9  and  C_3 
REMARK    2  A    between atoms: O_14  and  C_4 
REMARK    3  A    between atoms: S_13  and  C_5 
REMARK    4  A    between atoms: C_10  and  C_9 
ROOT
ATOM      1  N   UNL d   1      -0.457   1.346  -0.103  0.00  0.00    -0.317 N 
ATOM      2  HN  UNL d   1      -0.886   2.270  -0.161  1.00  0.00     0.170 HD
ATOM      3  C   UNL d   1      -0.671  -1.065  -0.114  0.00  0.00     0.015 A 
ATOM      4  C   UNL d   1      -1.177   0.222  -0.194  0.00  0.00     0.150 A 
ATOM      5  C   UNL d   1       0.857   1.186   0.069  0.00  0.00     0.146 A 
ATOM      6  N   UNL d   1       1.469  -0.002   0.161  0.00  0.00    -0.340 N 
ATOM      7  HN  UNL d   1       2.479  -0.066   0.292  1.00  0.00     0.167 HD
ATOM      8  C   UNL d   1       0.706  -1.114   0.075  0.00  0.00     0.018 A 
ATOM      9  C   UNL d   1       1.460  -2.409   0.172  0.00  0.00     0.069 C 
ENDROOT
BRANCH   3  10
ATOM     10  C   UNL d   1      -1.526  -2.295  -0.234  0.00  0.00     0.049 C 
BRANCH  10  11
ATOM     11  C   UNL d   1      -2.090  -2.860   1.038  0.00  0.00    -0.010 A 
ATOM     12  C   UNL d   1      -3.075  -2.077   1.875  0.00  0.00     0.005 A 
ATOM     13  C   UNL d   1      -1.724  -2.425   2.438  0.00  0.00     0.005 A 
ENDBRANCH  10  11
ENDBRANCH   3  10
BRANCH   4  14
ATOM     14  O   UNL d   1      -2.504   0.460  -0.410  0.00  0.00    -0.346 OA
ATOM     15  H   UNL d   1      -2.766  -0.087  -1.165  0.00  0.00     0.219 HD
ENDBRANCH   4  14
BRANCH   5  16
ATOM     16  S   UNL d   1       1.908   2.619   0.141  0.00  0.00    -0.098 SA
ATOM     17  C   UNL d   1       0.693   3.929  -0.147  0.00  0.00     0.099 C 
ENDBRANCH   5  16
TORSDOF 4
