REMARK  3 active torsions:
REMARK  status: ('A' for Active; 'I' for Inactive)
REMARK    1  A    between atoms: C_16  and  C_10 
REMARK    2  A    between atoms: C_17  and  C_11 
REMARK    3  A    between atoms: C_18  and  C_19 
ROOT
ATOM      1  C   UNL d   1      -0.316   0.087   0.828  0.00  0.00     0.029 A 
ATOM      2  C   UNL d   1      -2.334  -0.775   0.076  0.00  0.00     0.066 A 
ATOM      3  C   UNL d   1      -3.629  -1.411   0.071  0.00  0.00     0.189 A 
ATOM      4  C   UNL d   1      -0.162   0.254  -0.513  0.00  0.00     0.024 A 
ATOM      5  N   UNL d   1      -4.067  -2.121   1.085  0.00  0.00    -0.318 N 
ATOM      6  HN  UNL d   1      -3.578  -2.341   1.953  1.00  0.00     0.169 HD
ATOM      7  C   UNL d   1      -1.567  -0.498   1.197  0.00  0.00    -0.022 A 
ATOM      8  S   UNL d   1      -1.575  -0.285  -1.388  0.00  0.00    -0.084 SA
ATOM      9  S   UNL d   1       1.068   0.634   1.721  0.00  0.00    -0.092 SA
ATOM     10  C   UNL d   1       1.881   1.081   0.265  0.00  0.00    -0.008 A 
ATOM     11  C   UNL d   1      -5.329  -2.500   0.712  0.00  0.00     0.138 A 
ATOM     12  C   UNL d   1       1.108   0.822  -0.858  0.00  0.00     0.035 A 
ATOM     13  N   UNL d   1      -5.679  -2.066  -0.510  0.00  0.00    -0.242 N 
ATOM     14  HN  UNL d   1      -6.556  -2.220  -1.007  1.00  0.00     0.196 HD
ATOM     15  O   UNL d   1      -4.553  -1.350  -0.941  0.00  0.00    -0.216 OA
ATOM     16  C   UNL d   1      -1.856  -0.725   2.639  0.00  0.00     0.051 C 
ENDROOT
BRANCH  11  17
ATOM     17  C   UNL d   1      -6.164  -3.293   1.608  0.00  0.00     0.010 A 
ATOM     18  C   UNL d   1      -5.708  -3.595   2.899  0.00  0.00     0.016 A 
ATOM     19  C   UNL d   1      -6.478  -4.362   3.777  0.00  0.00     0.009 A 
ATOM     20  C   UNL d   1      -7.737  -4.865   3.401  0.00  0.00    -0.051 A 
ATOM     21  C   UNL d   1      -8.187  -4.551   2.105  0.00  0.00     0.009 A 
ATOM     22  C   UNL d   1      -7.415  -3.778   1.224  0.00  0.00     0.016 A 
BRANCH  20  23
ATOM     23  C   UNL d   1      -8.550  -5.727   4.385  0.00  0.00    -0.024 C 
ATOM     24  C   UNL d   1      -9.901  -6.209   3.812  0.00  0.00     0.019 C 
ATOM     25  C   UNL d   1      -7.741  -6.986   4.770  0.00  0.00     0.019 C 
ATOM     26  C   UNL d   1      -8.858  -4.923   5.668  0.00  0.00     0.019 C 
ENDBRANCH  20  23
ENDBRANCH  11  17
BRANCH  10  27
ATOM     27  C   UNL d   1       3.293   1.684   0.372  0.00  0.00    -0.018 C 
ATOM     28  C   UNL d   1       4.261   0.671   1.020  0.00  0.00     0.020 C 
ATOM     29  C   UNL d   1       3.858   2.051  -1.015  0.00  0.00     0.020 C 
ATOM     30  C   UNL d   1       3.264   2.974   1.220  0.00  0.00     0.020 C 
ENDBRANCH  10  27
TORSDOF 3
