REMARK  2 active torsions:
REMARK  status: ('A' for Active; 'I' for Inactive)
REMARK    1  A    between atoms: C_2  and  S_1 
REMARK    2  A    between atoms: C_11  and  S_1 
ROOT
ATOM      1  C   UNL d   1       0.329   0.198  -1.640  0.00  0.00     0.102 A 
ATOM      2  C   UNL d   1      -0.427   0.858  -4.184  0.00  0.00     0.680 A 
ATOM      3  N   UNL d   1      -0.519  -0.420  -3.780  0.00  0.00    -0.194 N 
ATOM      4  HN  UNL d   1      -0.873  -1.135  -4.415  1.00  0.00     0.184 HD
ATOM      5  N   UNL d   1       0.024   1.829  -3.377  0.00  0.00    -0.200 N 
ATOM      6  HN  UNL d   1       0.079   2.797  -3.695  1.00  0.00     0.183 HD
ATOM      7  C   UNL d   1      -0.136  -0.755  -2.519  0.00  0.00     0.046 A 
ATOM      8  N   UNL d   1      -0.832   1.180  -5.440  0.00  0.00    -0.218 N 
ATOM      9  C   UNL d   1       0.402   1.480  -2.130  0.00  0.00     0.132 A 
ATOM     10  C   UNL d   1      -0.712   2.505  -6.001  0.00  0.00     0.141 C 
ATOM     11  C   UNL d   1      -1.243   0.193  -6.417  0.00  0.00     0.141 C 
ATOM     12  C   UNL d   1      -0.252  -2.215  -2.210  0.00  0.00     0.070 C 
ATOM     13  C   UNL d   1      -1.604   1.023  -7.655  0.00  0.00     0.022 C 
ATOM     14  C   UNL d   1      -1.719   2.455  -7.145  0.00  0.00     0.022 C 
ENDROOT
BRANCH   1  15
ATOM     15  S   UNL d   1       0.940  -0.114  -0.026  0.00  0.00     0.210 S 
ATOM     16  O   UNL d   1       1.906   0.926   0.272  0.00  0.00    -0.217 OA
ATOM     17  O   UNL d   1       1.350  -1.505   0.053  0.00  0.00    -0.217 OA
BRANCH  15  18
ATOM     18  C   UNL d   1      -0.401   0.095   1.133  0.00  0.00     0.064 A 
ATOM     19  C   UNL d   1      -1.160  -1.013   1.524  0.00  0.00     0.025 A 
ATOM     20  C   UNL d   1      -2.175  -0.856   2.471  0.00  0.00     0.025 A 
ATOM     21  C   UNL d   1      -2.413   0.398   3.034  0.00  0.00     0.034 A 
ATOM     22  C   UNL d   1      -1.632   1.496   2.673  0.00  0.00     0.025 A 
ATOM     23 CL   UNL d   1      -3.671   0.589   4.192  0.00  0.00    -0.084 Cl
ATOM     24  C   UNL d   1      -0.617   1.347   1.723  0.00  0.00     0.025 A 
ENDBRANCH  15  18
ENDBRANCH   1  15
TORSDOF 2
