REMARK  7 active torsions:
REMARK  status: ('A' for Active; 'I' for Inactive)
REMARK    1  A    between atoms: C_7  and  C_1 
REMARK    2  A    between atoms: C_8  and  C_2 
REMARK    3  A    between atoms: C_10  and  C_5 
REMARK    4  A    between atoms: C_14  and  C_6 
REMARK       I    between atoms: N_12  and  C_7 
REMARK    5  A    between atoms: N_11  and  C_9 
REMARK    6  A    between atoms: O_26  and  C_10 
REMARK    7  A    between atoms: C_16  and  N_12 
ROOT
ATOM      1  C   UNL d   1       2.429   1.511  -0.486  0.00  0.00     0.259 C 
ATOM      2  N   UNL d   1       3.481   0.784   0.026  0.00  0.00    -0.323 N 
ATOM      3  O   UNL d   1       1.508   1.048  -1.148  0.00  0.00    -0.267 OA
ATOM      4  H   UNL d   1       4.128   1.242   0.653  0.00  0.00     0.169 HD
ENDROOT
BRANCH   1   5
ATOM      5  C   UNL d   1       2.452   2.951  -0.244  0.00  0.00     0.073 A 
ATOM      6  C   UNL d   1       3.045   3.706   0.760  0.00  0.00     0.175 A 
ATOM      7  O   UNL d   1       2.823   5.042   0.525  0.00  0.00    -0.304 OA
ATOM      8  C   UNL d   1       2.053   5.150  -0.594  0.00  0.00     0.087 A 
ATOM      9  C   UNL d   1       1.759   3.892  -1.061  0.00  0.00     0.058 A 
BRANCH   6  10
ATOM     10  C   UNL d   1       3.806   3.401   1.995  0.00  0.00     0.440 C 
ATOM     11  F   UNL d   1       3.872   2.063   2.232  0.00  0.00    -0.164 F 
ATOM     12  F   UNL d   1       5.093   3.824   1.916  0.00  0.00    -0.164 F 
ATOM     13  F   UNL d   1       3.262   3.963   3.102  0.00  0.00    -0.164 F 
ENDBRANCH   6  10
BRANCH   8  14
ATOM     14  C   UNL d   1       1.718   6.491  -1.054  0.00  0.00    -0.002 A 
ATOM     15  C   UNL d   1       1.852   7.610  -0.222  0.00  0.00     0.016 A 
ATOM     16  C   UNL d   1       1.496   8.884  -0.677  0.00  0.00     0.024 A 
ATOM     17  C   UNL d   1       1.008   9.047  -1.974  0.00  0.00     0.034 A 
ATOM     18  C   UNL d   1       0.884   7.952  -2.820  0.00  0.00     0.024 A 
ATOM     19 CL   UNL d   1       0.552  10.610  -2.527  0.00  0.00    -0.084 Cl
ATOM     20  C   UNL d   1       1.238   6.681  -2.362  0.00  0.00     0.016 A 
ENDBRANCH   8  14
ENDBRANCH   1   5
BRANCH   2  21
ATOM     21  C   UNL d   1       3.662  -0.612  -0.100  0.00  0.00     0.036 A 
ATOM     22  C   UNL d   1       2.946  -1.407  -0.988  0.00  0.00     0.049 A 
ATOM     23  C   UNL d   1       3.067  -2.813  -0.983  0.00  0.00     0.068 A 
ATOM     24  C   UNL d   1       3.985  -3.454  -0.117  0.00  0.00     0.046 A 
ATOM     25  C   UNL d   1       4.746  -2.614   0.722  0.00  0.00     0.032 A 
ATOM     26  C   UNL d   1       4.591  -1.222   0.735  0.00  0.00     0.032 A 
BRANCH  23  27
ATOM     27  C   UNL d   1       2.194  -3.561  -1.941  0.00  0.00     0.295 C 
ATOM     28  O   UNL d   1       2.457  -4.606  -2.511  0.00  0.00    -0.259 OA
BRANCH  27  29
ATOM     29  O   UNL d   1       0.997  -2.913  -2.007  0.00  0.00    -0.322 OA
ATOM     30  C   UNL d   1      -0.007  -3.566  -2.781  0.00  0.00     0.213 C 
ENDBRANCH  27  29
ENDBRANCH  23  27
BRANCH  24  31
ATOM     31  N   UNL d   1       4.175  -4.833  -0.087  0.00  0.00    -0.376 N 
ATOM     32  C   UNL d   1       5.454  -5.400   0.381  0.00  0.00     0.149 C 
ATOM     33  C   UNL d   1       5.595  -6.835  -0.154  0.00  0.00     0.187 C 
ATOM     34  O   UNL d   1       4.488  -7.659   0.249  0.00  0.00    -0.388 OA
ATOM     35  C   UNL d   1       3.254  -7.103  -0.246  0.00  0.00     0.187 C 
ATOM     36  C   UNL d   1       3.026  -5.683   0.302  0.00  0.00     0.149 C 
ENDBRANCH  24  31
ENDBRANCH   2  21
TORSDOF 7
