REMARK  3 active torsions:
REMARK  status: ('A' for Active; 'I' for Inactive)
REMARK    1  A    between atoms: C_2  and  C_1 
REMARK    2  A    between atoms: N_3  and  C_5 
REMARK    3  A    between atoms: C_14  and  C_7 
ROOT
ATOM      1  C   UNL d   1       2.170   0.306   0.811  0.00  0.00     0.075 A 
ATOM      2  C   UNL d   1       3.146  -0.149  -0.089  0.00  0.00     0.047 A 
ATOM      3  C   UNL d   1       0.807   0.250   0.436  0.00  0.00     0.037 A 
ATOM      4  C   UNL d   1       2.737  -0.621  -1.349  0.00  0.00     0.031 A 
ATOM      5  C   UNL d   1       0.427  -0.245  -0.809  0.00  0.00     0.011 A 
ATOM      6  C   UNL d   1       1.389  -0.684  -1.707  0.00  0.00     0.021 A 
ATOM      7 BR   UNL d   1      -1.400  -0.304  -1.286  0.00  0.00    -0.051 Br
ENDROOT
BRANCH   2   8
ATOM      8  N   UNL d   1       4.514  -0.062   0.214  0.00  0.00    -0.364 N 
ATOM      9  C   UNL d   1       5.244  -1.120   0.040  0.00  0.00     0.099 C 
ATOM     10  HN  UNL d   1       4.922   0.806   0.560  1.00  0.00     0.165 HD
BRANCH   9  11
ATOM     11  C   UNL d   1       6.705  -1.123   0.254  0.00  0.00    -0.021 A 
ATOM     12  C   UNL d   1       7.351  -0.041   0.855  0.00  0.00     0.013 A 
ATOM     13  C   UNL d   1       8.738  -0.068   1.018  0.00  0.00     0.001 A 
ATOM     14  C   UNL d   1       9.474  -1.168   0.576  0.00  0.00     0.000 A 
ATOM     15  C   UNL d   1       8.827  -2.248  -0.027  0.00  0.00     0.001 A 
ATOM     16  C   UNL d   1       7.440  -2.229  -0.185  0.00  0.00     0.013 A 
ENDBRANCH   9  11
ENDBRANCH   2   8
BRANCH   1  17
ATOM     17  C   UNL d   1       2.492   0.886   2.164  0.00  0.00     0.419 C 
ATOM     18  F   UNL d   1       3.791   0.852   2.562  0.00  0.00    -0.166 F 
ATOM     19  F   UNL d   1       2.111   2.195   2.257  0.00  0.00    -0.166 F 
ATOM     20  F   UNL d   1       1.798   0.248   3.156  0.00  0.00    -0.166 F 
ENDBRANCH   1  17
TORSDOF 3
