REMARK  7 active torsions:
REMARK  status: ('A' for Active; 'I' for Inactive)
REMARK    1  A    between atoms: C_2  and  C_1 
REMARK    2  A    between atoms: N_3  and  C_1 
REMARK    3  A    between atoms: N_4  and  C_1 
REMARK    4  A    between atoms: C_5  and  C_1 
REMARK    5  A    between atoms: C_6  and  N_3 
REMARK       I    between atoms: C_7  and  N_4 
REMARK    6  A    between atoms: O_14  and  C_5 
REMARK    7  A    between atoms: C_19  and  O_14 
ROOT
ATOM      1  C   UNL d   1       1.151   0.050   0.013  0.00  0.00     0.280 C 
ENDROOT
BRANCH   1   2
ATOM      2  C   UNL d   1       0.579   1.183  -0.910  0.00  0.00     0.436 C 
ATOM      3  F   UNL d   1      -0.292   0.717  -1.839  0.00  0.00    -0.166 F 
ATOM      4  F   UNL d   1      -0.100   2.116  -0.181  0.00  0.00    -0.166 F 
ATOM      5  F   UNL d   1       1.534   1.879  -1.573  0.00  0.00    -0.166 F 
ENDBRANCH   1   2
BRANCH   1   6
ATOM      6  N   UNL d   1       0.884  -1.359  -0.391  0.00  0.00    -0.248 NA
ATOM      7  H   UNL d   1      -0.100  -1.567  -0.210  0.00  0.00     0.131 HD
BRANCH   6   8
ATOM      8  C   UNL d   1       1.287  -1.958  -1.583  0.00  0.00     0.050 A 
ATOM      9  C   UNL d   1       2.057  -1.370  -2.597  0.00  0.00     0.137 A 
ATOM     10  F   UNL d   1       2.414  -0.083  -2.524  0.00  0.00    -0.204 F 
ATOM     11  C   UNL d   1       2.460  -2.075  -3.731  0.00  0.00     0.044 A 
ATOM     12  C   UNL d   1       2.115  -3.414  -3.877  0.00  0.00     0.003 A 
ATOM     13  C   UNL d   1       1.366  -4.036  -2.884  0.00  0.00     0.002 A 
ATOM     14  C   UNL d   1       0.960  -3.315  -1.754  0.00  0.00     0.027 A 
ENDBRANCH   6   8
ENDBRANCH   1   6
BRANCH   1  15
ATOM     15  N   UNL d   1       0.585   0.087   1.396  0.00  0.00    -0.323 N 
ATOM     16  C   UNL d   1      -0.759  -0.002   1.632  0.00  0.00     0.215 C 
ATOM     17  O   UNL d   1      -1.563  -0.299   0.756  0.00  0.00    -0.274 OA
ATOM     18  C   UNL d   1      -1.168   0.278   3.052  0.00  0.00     0.117 C 
ATOM     19  H   UNL d   1       1.160   0.541   2.091  0.00  0.00     0.165 HD
ENDBRANCH   1  15
BRANCH   1  20
ATOM     20  C   UNL d   1       2.666   0.341   0.237  0.00  0.00     0.312 C 
ATOM     21  O   UNL d   1       3.612  -0.356  -0.113  0.00  0.00    -0.260 OA
BRANCH  20  22
ATOM     22  O   UNL d   1       2.819   1.478   1.000  0.00  0.00    -0.319 OA
BRANCH  22  23
ATOM     23  C   UNL d   1       4.157   1.755   1.450  0.00  0.00     0.174 C 
ATOM     24  C   UNL d   1       4.877   2.682   0.491  0.00  0.00     0.034 C 
ENDBRANCH  22  23
ENDBRANCH  20  22
ENDBRANCH   1  20
TORSDOF 7
