REMARK  5 active torsions:
REMARK  status: ('A' for Active; 'I' for Inactive)
REMARK    1  A    between atoms: C_8  and  N_1 
REMARK    2  A    between atoms: S_7  and  C_2 
REMARK    3  A    between atoms: C_20  and  S_7 
REMARK    4  A    between atoms: N_12  and  C_10 
REMARK    5  A    between atoms: C_19  and  C_20 
ROOT
ATOM      1  N   UNL d   1      -0.126  -1.354   0.002  0.00  0.00    -0.219 N 
ATOM      2  C   UNL d   1       1.094  -0.685   0.075  0.00  0.00     0.177 A 
ATOM      3  N   UNL d   1       0.874   0.616   0.088  0.00  0.00    -0.264 N 
ATOM      4  HN  UNL d   1       1.575   1.354   0.156  1.00  0.00     0.186 HD
ATOM      5  N   UNL d   1      -0.474   0.776  -0.008  0.00  0.00    -0.006 NA
ATOM      6  N   UNL d   1      -1.091  -0.392  -0.084  0.00  0.00     0.001 NA
ENDROOT
BRANCH   2   7
ATOM      7  S   UNL d   1       2.683  -1.381   0.036  0.00  0.00    -0.087 SA
BRANCH   7   8
ATOM      8  C   UNL d   1       3.721   0.090   0.267  0.00  0.00     0.121 C 
BRANCH   8   9
ATOM      9  C   UNL d   1       5.188  -0.269   0.315  0.00  0.00    -0.047 A 
ATOM     10  C   UNL d   1       5.791  -0.656   1.523  0.00  0.00     0.033 A 
ATOM     11  C   UNL d   1       7.155  -0.972   1.574  0.00  0.00     0.056 A 
ATOM     12 CL   UNL d   1       7.819  -1.421   3.105  0.00  0.00    -0.083 Cl
ATOM     13  C   UNL d   1       7.928  -0.909   0.411  0.00  0.00     0.055 A 
ATOM     14  C   UNL d   1       7.330  -0.546  -0.800  0.00  0.00     0.026 A 
ATOM     15 CL   UNL d   1       9.619  -1.265   0.399  0.00  0.00    -0.083 Cl
ATOM     16  C   UNL d   1       5.970  -0.233  -0.848  0.00  0.00     0.010 A 
ENDBRANCH   8   9
ENDBRANCH   7   8
ENDBRANCH   2   7
BRANCH   1  17
ATOM     17  C   UNL d   1      -0.496  -2.731  -0.005  0.00  0.00     0.057 A 
ATOM     18  C   UNL d   1       0.401  -3.756   0.275  0.00  0.00     0.033 A 
ATOM     19  C   UNL d   1      -0.005  -5.096   0.218  0.00  0.00     0.031 A 
ATOM     20  C   UNL d   1      -1.312  -5.480  -0.111  0.00  0.00     0.029 A 
ATOM     21  C   UNL d   1      -2.219  -4.438  -0.340  0.00  0.00     0.031 A 
ATOM     22  C   UNL d   1      -1.823  -3.087  -0.288  0.00  0.00     0.033 A 
BRANCH  20  23
ATOM     23  N   UNL d   1      -1.659  -6.824  -0.139  0.00  0.00    -0.390 N 
ATOM     24  C   UNL d   1      -0.744  -7.777  -0.770  0.00  0.00     0.149 C 
ATOM     25  C   UNL d   1      -3.050  -7.255  -0.075  0.00  0.00     0.149 C 
ENDBRANCH  20  23
ENDBRANCH   1  17
TORSDOF 5
