REMARK  4 active torsions:
REMARK  status: ('A' for Active; 'I' for Inactive)
REMARK    1  A    between atoms: N_10  and  C_3 
REMARK    2  A    between atoms: S_4  and  N_8 
REMARK    3  A    between atoms: C_18  and  S_4 
REMARK    4  A    between atoms: C_17  and  C_5 
ROOT
ATOM      1  N   UNL d   1       1.131  -0.650   0.827  0.00  0.00    -0.321 N 
ATOM      2  HN  UNL d   1       1.730  -1.161   1.474  1.00  0.00     0.169 HD
ATOM      3  C   UNL d   1       0.319  -1.208  -0.051  0.00  0.00     0.165 A 
ATOM      4  C   UNL d   1       1.050   0.747   0.742  0.00  0.00     0.123 A 
ATOM      5  N   UNL d   1       0.202   1.277  -0.144  0.00  0.00    -0.309 N 
ATOM      6  HN  UNL d   1       0.031   2.271  -0.298  1.00  0.00     0.176 HD
ATOM      7  S   UNL d   1      -0.519   0.024  -0.946  0.00  0.00     0.024 SA
ENDROOT
BRANCH   3   8
ATOM      8  N   UNL d   1       0.187  -2.561  -0.256  0.00  0.00    -0.358 N 
ATOM      9  C   UNL d   1      -1.067  -3.061  -0.864  0.00  0.00     0.140 C 
ATOM     10  C   UNL d   1      -0.931  -4.532  -1.302  0.00  0.00     0.127 C 
ATOM     11  N   UNL d   1      -0.498  -5.392  -0.162  0.00  0.00    -0.208 NA
ATOM     12  C   UNL d   1       0.819  -4.907   0.365  0.00  0.00     0.127 C 
ATOM     13  C   UNL d   1       0.750  -3.429   0.807  0.00  0.00     0.140 C 
BRANCH  11  14
ATOM     14  S   UNL d   1      -1.697  -5.741   0.996  0.00  0.00     0.211 S 
ATOM     15  O   UNL d   1      -1.144  -5.501   2.312  0.00  0.00    -0.211 OA
ATOM     16  O   UNL d   1      -2.937  -5.128   0.570  0.00  0.00    -0.211 OA
BRANCH  14  17
ATOM     17  C   UNL d   1      -1.857  -7.507   0.780  0.00  0.00     0.153 C 
ATOM     18  C   UNL d   1      -2.937  -8.065   1.688  0.00  0.00     0.022 C 
ENDBRANCH  14  17
ENDBRANCH  11  14
ENDBRANCH   3   8
BRANCH   4  19
ATOM     19  C   UNL d   1       1.904   1.599   1.580  0.00  0.00     0.009 A 
ATOM     20  C   UNL d   1       2.714   1.046   2.581  0.00  0.00     0.015 A 
ATOM     21  C   UNL d   1       3.555   1.861   3.347  0.00  0.00     0.001 A 
ATOM     22  C   UNL d   1       3.596   3.236   3.120  0.00  0.00     0.000 A 
ATOM     23  C   UNL d   1       2.788   3.802   2.138  0.00  0.00     0.001 A 
ATOM     24  C   UNL d   1       1.945   2.990   1.375  0.00  0.00     0.015 A 
ENDBRANCH   4  19
TORSDOF 4
