REMARK  8 active torsions:
REMARK  status: ('A' for Active; 'I' for Inactive)
REMARK    1  A    between atoms: C_4  and  N_1 
REMARK    2  A    between atoms: N_2  and  C_3 
REMARK    3  A    between atoms: C_9  and  C_11 
REMARK    4  A    between atoms: C_25  and  C_9 
REMARK    5  A    between atoms: C_10  and  C_24 
REMARK    6  A    between atoms: C_12  and  C_10 
REMARK    7  A    between atoms: S_23  and  C_25 
REMARK    8  A    between atoms: C_24  and  S_23 
ROOT
ATOM      1  S   UNL d   1      -3.019  -7.101   1.489  0.00  0.00    -0.153 SA
ENDROOT
BRANCH   1   2
ATOM      2  C   UNL d   1      -1.591  -6.012   1.228  0.00  0.00     0.158 C 
BRANCH   2   3
ATOM      3  C   UNL d   1      -2.057  -4.632   0.798  0.00  0.00     0.168 C 
ATOM      4  O   UNL d   1      -2.132  -4.334  -0.395  0.00  0.00    -0.292 OA
BRANCH   3   5
ATOM      5  C   UNL d   1      -2.406  -3.597   1.827  0.00  0.00     0.011 A 
ATOM      6  C   UNL d   1      -2.802  -2.325   1.376  0.00  0.00     0.017 A 
ATOM      7  C   UNL d   1      -3.116  -1.306   2.282  0.00  0.00     0.037 A 
ATOM      8  C   UNL d   1      -3.032  -1.557   3.655  0.00  0.00     0.102 A 
ATOM      9  C   UNL d   1      -2.646  -2.821   4.120  0.00  0.00     0.037 A 
ATOM     10  C   UNL d   1      -2.339  -3.838   3.206  0.00  0.00     0.017 A 
BRANCH   8  11
ATOM     11  N   UNL d   1      -3.347  -0.492   4.617  0.00  0.00    -0.116 N 
ATOM     12  O   UNL d   1      -3.242  -0.757   5.823  0.00  0.00    -0.532 OA
ATOM     13  O   UNL d   1      -3.693   0.609   4.165  0.00  0.00    -0.532 OA
ENDBRANCH   8  11
ENDBRANCH   3   5
ENDBRANCH   2   3
ENDBRANCH   1   2
BRANCH   1  14
ATOM     14  C   UNL d   1      -2.139  -8.631   1.946  0.00  0.00     0.158 C 
BRANCH  14  15
ATOM     15  C   UNL d   1      -3.085  -9.803   2.191  0.00  0.00     0.168 C 
ATOM     16  O   UNL d   1      -4.305  -9.746   2.046  0.00  0.00    -0.292 OA
BRANCH  15  17
ATOM     17  C   UNL d   1      -2.495 -11.102   2.653  0.00  0.00     0.011 A 
ATOM     18  C   UNL d   1      -1.114 -11.287   2.815  0.00  0.00     0.017 A 
ATOM     19  C   UNL d   1      -0.614 -12.506   3.294  0.00  0.00     0.037 A 
ATOM     20  C   UNL d   1      -1.497 -13.547   3.611  0.00  0.00     0.102 A 
ATOM     21  C   UNL d   1      -2.874 -13.385   3.432  0.00  0.00     0.037 A 
ATOM     22  C   UNL d   1      -3.366 -12.165   2.953  0.00  0.00     0.017 A 
BRANCH  20  23
ATOM     23  N   UNL d   1      -0.970 -14.810   4.146  0.00  0.00    -0.116 N 
ATOM     24  O   UNL d   1       0.257 -14.902   4.296  0.00  0.00    -0.532 OA
ATOM     25  O   UNL d   1      -1.782 -15.703   4.423  0.00  0.00    -0.532 OA
ENDBRANCH  20  23
ENDBRANCH  15  17
ENDBRANCH  14  15
ENDBRANCH   1  14
TORSDOF 8
