REMARK  2 active torsions:
REMARK  status: ('A' for Active; 'I' for Inactive)
REMARK    1  A    between atoms: C_7  and  N_1 
REMARK    2  A    between atoms: C_6  and  C_9 
ROOT
ATOM      1  N   UNL d   1       1.952  -0.257  -0.075  0.00  0.00    -0.278 N 
ATOM      2  C   UNL d   1       1.266   0.956   0.093  0.00  0.00     0.264 A 
ATOM      3  C   UNL d   1       1.062  -1.326  -0.117  0.00  0.00     0.044 A 
ATOM      4  C   UNL d   1      -0.166   0.613   0.081  0.00  0.00     0.045 A 
ATOM      5  C   UNL d   1      -0.288  -0.771  -0.037  0.00  0.00     0.006 A 
ATOM      6  O   UNL d   1       1.681   2.096   0.193  0.00  0.00    -0.267 OA
ATOM      7  C   UNL d   1       1.360  -2.630  -0.119  0.00  0.00     0.044 C 
ATOM      8  C   UNL d   1      -1.262   1.457   0.147  0.00  0.00     0.018 A 
ATOM      9  C   UNL d   1      -1.543  -1.358  -0.062  0.00  0.00     0.014 A 
ATOM     10  C   UNL d   1      -2.667  -0.527   0.014  0.00  0.00     0.001 A 
ATOM     11  C   UNL d   1      -2.528   0.870   0.110  0.00  0.00     0.001 A 
ENDROOT
BRANCH   1  12
ATOM     12  C   UNL d   1       3.361  -0.303  -0.217  0.00  0.00     0.043 A 
ATOM     13  C   UNL d   1       4.192   0.397   0.663  0.00  0.00     0.031 A 
ATOM     14  C   UNL d   1       5.583   0.279   0.567  0.00  0.00     0.018 A 
ATOM     15  C   UNL d   1       6.167  -0.503  -0.440  0.00  0.00     0.048 A 
ATOM     16  C   UNL d   1       5.331  -1.152  -1.360  0.00  0.00     0.018 A 
ATOM     17  C   UNL d   1       3.943  -1.063  -1.239  0.00  0.00     0.031 A 
BRANCH  15  18
ATOM     18  C   UNL d   1       7.664  -0.655  -0.553  0.00  0.00     0.417 C 
ATOM     19  F   UNL d   1       8.352  -0.077   0.470  0.00  0.00    -0.166 F 
ATOM     20  F   UNL d   1       8.050  -1.962  -0.568  0.00  0.00    -0.166 F 
ATOM     21  F   UNL d   1       8.161  -0.108  -1.696  0.00  0.00    -0.166 F 
ENDBRANCH  15  18
ENDBRANCH   1  12
TORSDOF 2
