REMARK  3 active torsions:
REMARK  status: ('A' for Active; 'I' for Inactive)
REMARK    1  A    between atoms: C_7  and  N_1 
REMARK    2  A    between atoms: C_2  and  C_9 
REMARK    3  A    between atoms: C_6  and  C_3 
ROOT
ATOM      1  C   UNL d   1      -1.570  -4.153  -3.018  0.00  0.00     0.057 C 
ATOM      2  C   UNL d   1      -2.659  -3.812  -3.743  0.00  0.00     0.060 C 
ATOM      3  C   UNL d   1      -0.844  -3.182  -2.253  0.00  0.00     0.100 C 
ATOM      4  N   UNL d   1      -0.246  -2.451  -1.574  0.00  0.00    -0.191 NA
ENDROOT
BRANCH   1   5
ATOM      5  C   UNL d   1      -1.133  -5.579  -2.924  0.00  0.00    -0.015 A 
ATOM      6  C   UNL d   1      -1.248  -6.470  -4.007  0.00  0.00     0.015 A 
ATOM      7  C   UNL d   1      -0.808  -7.798  -3.904  0.00  0.00     0.037 A 
ATOM      8  C   UNL d   1      -0.229  -8.247  -2.713  0.00  0.00     0.102 A 
ATOM      9  C   UNL d   1      -0.087  -7.378  -1.629  0.00  0.00     0.037 A 
ATOM     10  C   UNL d   1      -0.539  -6.059  -1.738  0.00  0.00     0.015 A 
BRANCH   8  11
ATOM     11  N   UNL d   1       0.235  -9.636  -2.599  0.00  0.00    -0.116 N 
ATOM     12  O   UNL d   1       0.746  -9.987  -1.526  0.00  0.00    -0.532 OA
ATOM     13  O   UNL d   1       0.082 -10.376  -3.582  0.00  0.00    -0.532 OA
ENDBRANCH   8  11
ENDBRANCH   1   5
BRANCH   2  14
ATOM     14  C   UNL d   1      -3.135  -2.474  -3.878  0.00  0.00     0.076 A 
ATOM     15  O   UNL d   1      -2.334  -1.357  -3.796  0.00  0.00    -0.323 OA
ATOM     16  C   UNL d   1      -3.103  -0.256  -3.956  0.00  0.00     0.142 A 
ATOM     17  C   UNL d   1      -4.408  -0.615  -4.167  0.00  0.00     0.027 A 
ATOM     18  C   UNL d   1      -4.428  -2.031  -4.134  0.00  0.00     0.039 A 
ENDBRANCH   2  14
TORSDOF 3
