REMARK  3 active torsions:
REMARK  status: ('A' for Active; 'I' for Inactive)
REMARK    1  A    between atoms: C_3  and  C_1 
REMARK    2  A    between atoms: C_6  and  C_2 
REMARK       I    between atoms: N_8  and  C_3 
REMARK    3  A    between atoms: C_10  and  N_8 
ROOT
ATOM      1  C   UNL d   1       0.269  -2.414   0.558  0.00  0.00     0.261 C 
ATOM      2  N   UNL d   1      -0.382  -3.561   0.128  0.00  0.00    -0.321 N 
ATOM      3  O   UNL d   1       1.344  -2.387   1.146  0.00  0.00    -0.267 OA
ATOM      4  H   UNL d   1      -0.983  -3.459  -0.688  0.00  0.00     0.169 HD
ENDROOT
BRANCH   1   5
ATOM      5  C   UNL d   1      -0.433  -1.192   0.207  0.00  0.00     0.093 A 
ATOM      6  C   UNL d   1       0.049   0.067  -0.286  0.00  0.00     0.085 A 
ATOM      7  N   UNL d   1      -0.975   0.938  -0.378  0.00  0.00    -0.259 N 
ATOM      8  O   UNL d   1      -2.104   0.278   0.025  0.00  0.00    -0.241 OA
ATOM      9  HN  UNL d   1      -0.919   1.907  -0.690  1.00  0.00     0.195 HD
ATOM     10  C   UNL d   1      -1.791  -0.991   0.367  0.00  0.00     0.090 A 
ATOM     11  C   UNL d   1      -2.915  -1.818   0.851  0.00  0.00     0.080 C 
BRANCH   6  12
ATOM     12  C   UNL d   1       1.383   0.539  -0.692  0.00  0.00     0.015 A 
ATOM     13  C   UNL d   1       2.264  -0.173  -1.519  0.00  0.00     0.046 A 
ATOM     14 CL   UNL d   1       1.899  -1.733  -2.177  0.00  0.00    -0.083 Cl
ATOM     15  C   UNL d   1       3.476   0.400  -1.932  0.00  0.00     0.025 A 
ATOM     16  C   UNL d   1       3.812   1.710  -1.569  0.00  0.00     0.002 A 
ATOM     17  C   UNL d   1       2.941   2.438  -0.772  0.00  0.00     0.001 A 
ATOM     18  C   UNL d   1       1.748   1.856  -0.331  0.00  0.00     0.015 A 
ENDBRANCH   6  12
ENDBRANCH   1   5
BRANCH   2  19
ATOM     19  C   UNL d   1       0.140  -4.871   0.263  0.00  0.00     0.062 A 
ATOM     20  C   UNL d   1      -0.026  -5.728  -0.833  0.00  0.00     0.069 A 
ATOM     21  N   UNL d   1      -0.744  -5.323  -1.909  0.00  0.00    -0.363 N 
ATOM     22  C   UNL d   1       0.630  -6.977  -0.800  0.00  0.00    -0.007 A 
ATOM     23  C   UNL d   1      -0.779  -6.132  -2.990  0.00  0.00     0.088 A 
ATOM     24  HN  UNL d   1      -1.242  -4.433  -1.902  1.00  0.00     0.165 HD
ATOM     25  C   UNL d   1      -0.118  -7.343  -3.068  0.00  0.00     0.018 A 
ATOM     26  C   UNL d   1       0.588  -7.774  -1.952  0.00  0.00     0.015 A 
ATOM     27  C   UNL d   1       1.328  -7.382   0.351  0.00  0.00     0.014 A 
ATOM     28  C   UNL d   1       1.393  -6.549   1.466  0.00  0.00     0.003 A 
ATOM     29  C   UNL d   1       0.815  -5.284   1.416  0.00  0.00     0.032 A 
ENDBRANCH   2  19
TORSDOF 3
