REMARK  3 active torsions:
REMARK  status: ('A' for Active; 'I' for Inactive)
REMARK    1  A    between atoms: S_8  and  C_1 
REMARK    2  A    between atoms: N_7  and  C_2 
REMARK    3  A    between atoms: C_11  and  S_8 
ROOT
ATOM      1  C   UNL d   1       0.642  -1.329   0.119  0.00  0.00     0.127 A 
ATOM      2  C   UNL d   1      -0.738  -1.290   0.173  0.00  0.00     0.161 A 
ATOM      3  N   UNL d   1       1.039  -0.017   0.045  0.00  0.00    -0.287 N 
ATOM      4  N   UNL d   1       0.004   0.853   0.041  0.00  0.00    -0.300 N 
ATOM      5  HN  UNL d   1       0.045   1.872   0.007  1.00  0.00     0.187 HD
ATOM      6  C   UNL d   1      -1.089   0.078   0.093  0.00  0.00     0.058 A 
ATOM      7  C   UNL d   1       2.365   0.547  -0.057  0.00  0.00     0.178 C 
ATOM      8  C   UNL d   1      -2.429   0.714   0.054  0.00  0.00     0.072 C 
ENDROOT
BRANCH   1   9
ATOM      9  S   UNL d   1       1.754  -2.656  -0.054  0.00  0.00    -0.069 SA
BRANCH   9  10
ATOM     10  C   UNL d   1       2.168  -2.967   1.652  0.00  0.00     0.007 A 
ATOM     11  C   UNL d   1       1.503  -3.972   2.359  0.00  0.00     0.019 A 
ATOM     12  C   UNL d   1       1.901  -4.314   3.654  0.00  0.00     0.008 A 
ATOM     13  C   UNL d   1       2.982  -3.665   4.260  0.00  0.00    -0.062 A 
ATOM     14  C   UNL d   1       3.644  -2.653   3.557  0.00  0.00     0.008 A 
ATOM     15  C   UNL d   1       3.429  -4.079   5.631  0.00  0.00     0.048 C 
ATOM     16  C   UNL d   1       3.244  -2.312   2.261  0.00  0.00     0.019 A 
ENDBRANCH   9  10
ENDBRANCH   1   9
BRANCH   2  17
ATOM     17  N   UNL d   1      -1.627  -2.400   0.222  0.00  0.00    -0.111 N 
ATOM     18  O   UNL d   1      -1.480  -3.205   1.147  0.00  0.00    -0.532 OA
ATOM     19  O   UNL d   1      -2.503  -2.448  -0.651  0.00  0.00    -0.532 OA
ENDBRANCH   2  17
TORSDOF 3
