REMARK  6 active torsions:
REMARK  status: ('A' for Active; 'I' for Inactive)
REMARK    1  A    between atoms: C_7  and  C_3 
REMARK    2  A    between atoms: C_12  and  C_4 
REMARK    3  A    between atoms: S_9  and  C_12 
REMARK    4  A    between atoms: C_11  and  S_9 
REMARK    5  A    between atoms: O_16  and  C_10 
REMARK    6  A    between atoms: N_14  and  C_13 
ROOT
ATOM      1  N   UNL d   1       1.324   0.211   0.086  0.00  0.00    -0.322 N 
ATOM      2  HN  UNL d   1       2.326   0.355   0.216  1.00  0.00     0.169 HD
ATOM      3  C   UNL d   1       0.665  -0.919  -0.003  0.00  0.00     0.184 A 
ATOM      4  C   UNL d   1       0.331   1.157  -0.042  0.00  0.00     0.113 A 
ATOM      5  N   UNL d   1      -0.906   0.650  -0.121  0.00  0.00    -0.246 N 
ATOM      6  HN  UNL d   1      -1.792   1.152  -0.185  1.00  0.00     0.196 HD
ATOM      7  O   UNL d   1      -0.692  -0.731  -0.096  0.00  0.00    -0.217 OA
ENDROOT
BRANCH   4   8
ATOM      8  C   UNL d   1       0.617   2.619  -0.099  0.00  0.00     0.158 C 
BRANCH   8   9
ATOM      9  S   UNL d   1       1.736   2.993  -1.510  0.00  0.00    -0.121 SA
BRANCH   9  10
ATOM     10  C   UNL d   1       2.147   4.702  -1.153  0.00  0.00     0.021 A 
ATOM     11  C   UNL d   1       1.203   5.742  -1.278  0.00  0.00     0.022 A 
ATOM     12  C   UNL d   1       1.589   7.048  -0.953  0.00  0.00     0.024 A 
ATOM     13  C   UNL d   1       2.916   7.344  -0.635  0.00  0.00     0.002 A 
ATOM     14  C   UNL d   1       3.863   6.326  -0.586  0.00  0.00     0.001 A 
ATOM     15  C   UNL d   1       3.478   5.007  -0.834  0.00  0.00     0.020 A 
BRANCH  11  16
ATOM     16  N   UNL d   1      -0.159   5.477  -1.532  0.00  0.00    -0.302 NA
ATOM     17  H   UNL d   1      -0.267   4.642  -2.106  0.00  0.00     0.124 HD
ATOM     18  H   UNL d   1      -0.653   6.270  -1.927  0.00  0.00     0.124 HD
ENDBRANCH  11  16
ENDBRANCH   9  10
ENDBRANCH   8   9
ENDBRANCH   4   8
BRANCH   3  19
ATOM     19  C   UNL d   1       1.124  -2.302   0.051  0.00  0.00     0.051 A 
ATOM     20  C   UNL d   1       2.230  -2.826  -0.645  0.00  0.00     0.082 A 
ATOM     21  C   UNL d   1       2.598  -4.168  -0.423  0.00  0.00     0.038 A 
ATOM     22  C   UNL d   1       1.895  -4.994   0.454  0.00  0.00     0.003 A 
ATOM     23  C   UNL d   1       0.789  -4.495   1.117  0.00  0.00     0.001 A 
ATOM     24  C   UNL d   1       0.409  -3.165   0.916  0.00  0.00     0.018 A 
BRANCH  20  25
ATOM     25  O   UNL d   1       3.067  -2.269  -1.573  0.00  0.00    -0.355 OA
ATOM     26  C   UNL d   1       2.906  -0.941  -2.032  0.00  0.00     0.210 C 
ENDBRANCH  20  25
ENDBRANCH   3  19
TORSDOF 6
