REMARK  7 active torsions:
REMARK  status: ('A' for Active; 'I' for Inactive)
REMARK    1  A    between atoms: N_4  and  C_1 
REMARK       I    between atoms: C_5  and  N_4 
REMARK       I    between atoms: N_16  and  C_5 
REMARK    2  A    between atoms: C_19  and  C_6 
REMARK    3  A    between atoms: C_7  and  C_21 
REMARK    4  A    between atoms: C_24  and  N_16 
REMARK    5  A    between atoms: S_20  and  C_26 
REMARK    6  A    between atoms: C_21  and  S_20 
REMARK    7  A    between atoms: C_26  and  C_24 
ROOT
ATOM      1  N   UNL d   1      -0.151  -1.770  -0.286  0.00  0.00    -0.306 N 
ATOM      2  C   UNL d   1      -1.282  -2.543  -0.149  0.00  0.00     0.320 C 
ATOM      3  O   UNL d   1      -2.430  -2.114  -0.104  0.00  0.00    -0.247 OA
ATOM      4  N   UNL d   1      -1.002  -3.882  -0.072  0.00  0.00    -0.342 N 
ATOM      5  H   UNL d   1       0.609  -2.069   0.311  0.00  0.00     0.170 HD
ATOM      6  H   UNL d   1      -0.075  -4.184   0.196  0.00  0.00     0.164 HD
ENDROOT
BRANCH   1   7
ATOM      7  C   UNL d   1      -0.239  -0.362  -0.492  0.00  0.00     0.071 A 
ATOM      8  C   UNL d   1       0.492   0.492   0.351  0.00  0.00     0.039 A 
ATOM      9  C   UNL d   1       0.420   1.885   0.213  0.00  0.00     0.029 A 
ATOM     10 BR   UNL d   1       1.551  -0.195   1.778  0.00  0.00    -0.049 Br
ATOM     11  C   UNL d   1      -0.385   2.467  -0.776  0.00  0.00    -0.052 A 
ATOM     12  C   UNL d   1      -1.082   1.618  -1.645  0.00  0.00     0.029 A 
ATOM     13  C   UNL d   1      -1.002   0.221  -1.520  0.00  0.00     0.039 A 
ATOM     14 BR   UNL d   1      -1.841  -0.783  -2.908  0.00  0.00    -0.049 Br
BRANCH  11  15
ATOM     15  C   UNL d   1      -0.524   3.974  -0.921  0.00  0.00     0.010 C 
ATOM     16  C   UNL d   1      -1.082   4.610   0.356  0.00  0.00     0.015 C 
ATOM     17  C   UNL d   1       0.793   4.638  -1.328  0.00  0.00     0.015 C 
ENDBRANCH  11  15
ENDBRANCH   1   7
BRANCH   4  18
ATOM     18  C   UNL d   1      -2.099  -4.828   0.053  0.00  0.00     0.134 C 
BRANCH  18  19
ATOM     19  C   UNL d   1      -1.656  -6.278   0.237  0.00  0.00     0.094 C 
BRANCH  19  20
ATOM     20  S   UNL d   1      -0.521  -6.532   1.650  0.00  0.00    -0.163 SA
BRANCH  20  21
ATOM     21  C   UNL d   1      -1.615  -6.043   3.030  0.00  0.00     0.113 C 
BRANCH  21  22
ATOM     22  C   UNL d   1      -0.858  -5.953   4.343  0.00  0.00    -0.037 A 
ATOM     23  C   UNL d   1      -0.142  -4.774   4.682  0.00  0.00    -0.054 A 
ATOM     24  C   UNL d   1       0.511  -4.688   5.925  0.00  0.00     0.014 A 
ATOM     25  C   UNL d   1      -0.044  -3.556   3.798  0.00  0.00     0.049 C 
ATOM     26  C   UNL d   1       0.482  -5.741   6.839  0.00  0.00    -0.061 A 
ATOM     27  C   UNL d   1      -0.196  -6.908   6.493  0.00  0.00     0.014 A 
ATOM     28  C   UNL d   1       1.172  -5.607   8.163  0.00  0.00     0.048 C 
ATOM     29  C   UNL d   1      -0.850  -7.040   5.253  0.00  0.00    -0.054 A 
ATOM     30  C   UNL d   1      -1.571  -8.340   5.006  0.00  0.00     0.049 C 
ENDBRANCH  21  22
ENDBRANCH  20  21
ENDBRANCH  19  20
ENDBRANCH  18  19
ENDBRANCH   4  18
TORSDOF 7
