REMARK  3 active torsions:
REMARK  status: ('A' for Active; 'I' for Inactive)
REMARK    1  A    between atoms: C_7  and  C_1 
REMARK    2  A    between atoms: O_14  and  C_7 
REMARK    3  A    between atoms: C_17  and  O_14 
ROOT
ATOM      1  C   UNL d   1       0.875   1.260  -0.314  0.00  0.00     0.074 C 
ATOM      2  C   UNL d   1       1.409  -0.129  -0.033  0.00  0.00     0.015 C 
ATOM      3  C   UNL d   1      -0.476   1.434  -0.241  0.00  0.00     0.022 C 
ATOM      4  N   UNL d   1      -1.310   0.337   0.006  0.00  0.00    -0.363 N 
ATOM      5  C   UNL d   1       2.679  -0.408   0.387  0.00  0.00     0.136 C 
ATOM      6  C   UNL d   1       0.439  -1.246  -0.183  0.00  0.00     0.039 C 
ATOM      7  C   UNL d   1      -0.878  -0.971  -0.132  0.00  0.00     0.006 C 
ATOM      8  C   UNL d   1       3.112  -1.748   0.657  0.00  0.00     0.111 C 
ATOM      9  C   UNL d   1       3.624   0.616   0.697  0.00  0.00     0.111 C 
ATOM     10  N   UNL d   1       4.373   1.458   0.979  0.00  0.00    -0.191 NA
ATOM     11  N   UNL d   1       3.442  -2.843   0.876  0.00  0.00    -0.191 NA
ATOM     12  C   UNL d   1      -1.242   2.715  -0.487  0.00  0.00     0.069 C 
ATOM     13  C   UNL d   1      -1.911  -2.055  -0.252  0.00  0.00     0.068 C 
ATOM     14  H   UNL d   1      -2.308   0.497  -0.104  0.00  0.00     0.165 HD
ENDROOT
BRANCH   1  15
ATOM     15  C   UNL d   1       1.766   2.344  -0.839  0.00  0.00     0.296 C 
ATOM     16  O   UNL d   1       2.631   2.130  -1.675  0.00  0.00    -0.259 OA
BRANCH  15  17
ATOM     17  O   UNL d   1       1.503   3.530  -0.244  0.00  0.00    -0.318 OA
BRANCH  17  18
ATOM     18  C   UNL d   1       2.280   4.688  -0.607  0.00  0.00     0.174 C 
ATOM     19  C   UNL d   1       2.198   5.077  -2.077  0.00  0.00     0.034 C 
ENDBRANCH  17  18
ENDBRANCH  15  17
ENDBRANCH   1  15
TORSDOF 3
