REMARK  4 active torsions:
REMARK  status: ('A' for Active; 'I' for Inactive)
REMARK    1  A    between atoms: C_9  and  C_3 
REMARK    2  A    between atoms: C_11  and  C_4 
REMARK    3  A    between atoms: O_16  and  C_5 
REMARK    4  A    between atoms: C_10  and  C_9 
ROOT
ATOM      1  N   UNL d   1      -0.660   1.274  -0.089  0.00  0.00    -0.321 N 
ATOM      2  HN  UNL d   1      -1.095   2.185  -0.231  1.00  0.00     0.169 HD
ATOM      3  C   UNL d   1       1.341  -0.076   0.085  0.00  0.00     0.015 A 
ATOM      4  C   UNL d   1      -1.392   0.171   0.138  0.00  0.00     0.134 A 
ATOM      5  C   UNL d   1       0.671   1.119  -0.119  0.00  0.00     0.149 A 
ATOM      6  N   UNL d   1      -0.849  -1.043   0.352  0.00  0.00    -0.344 N 
ATOM      7  HN  UNL d   1      -1.439  -1.855   0.530  1.00  0.00     0.167 HD
ATOM      8  C   UNL d   1       0.496  -1.157   0.324  0.00  0.00     0.017 A 
ATOM      9  C   UNL d   1       0.986  -2.568   0.486  0.00  0.00     0.069 C 
ENDROOT
BRANCH   4  10
ATOM     10  C   UNL d   1      -2.874   0.291   0.166  0.00  0.00     0.076 A 
ATOM     11  N   UNL d   1      -3.598  -0.866   0.250  0.00  0.00    -0.363 N 
ATOM     12  C   UNL d   1      -4.942  -0.780   0.323  0.00  0.00     0.088 A 
ATOM     13  HN  UNL d   1      -3.131  -1.773   0.256  1.00  0.00     0.165 HD
ATOM     14  C   UNL d   1      -5.638   0.414   0.321  0.00  0.00     0.017 A 
ATOM     15  C   UNL d   1      -4.909   1.592   0.219  0.00  0.00     0.004 A 
ATOM     16  C   UNL d   1      -3.518   1.532   0.133  0.00  0.00     0.033 A 
ENDBRANCH   4  10
BRANCH   5  17
ATOM     17  O   UNL d   1       1.323   2.281  -0.421  0.00  0.00    -0.346 OA
ATOM     18  H   UNL d   1       2.274   2.146  -0.319  0.00  0.00     0.219 HD
ENDBRANCH   5  17
BRANCH   3  19
ATOM     19  C   UNL d   1       2.827  -0.243  -0.101  0.00  0.00     0.049 C 
BRANCH  19  20
ATOM     20  C   UNL d   1       3.761   0.393   0.892  0.00  0.00    -0.010 A 
ATOM     21  C   UNL d   1       3.670   0.096   2.369  0.00  0.00     0.005 A 
ATOM     22  C   UNL d   1       3.447   1.498   1.875  0.00  0.00     0.005 A 
ENDBRANCH  19  20
ENDBRANCH   3  19
TORSDOF 4
