REMARK  4 active torsions:
REMARK  status: ('A' for Active; 'I' for Inactive)
REMARK    1  A    between atoms: C_8  and  N_1 
REMARK    2  A    between atoms: C_9  and  C_4 
REMARK    3  A    between atoms: C_10  and  C_5 
REMARK    4  A    between atoms: O_14  and  C_9 
ROOT
ATOM      1  N   UNL d   1      -0.365  -1.172   0.012  0.00  0.00    -0.233 N 
ATOM      2  N   UNL d   1       0.891  -0.668   0.123  0.00  0.00    -0.234 N 
ATOM      3  HN  UNL d   1       1.739  -1.217   0.259  1.00  0.00     0.209 HD
ATOM      4  C   UNL d   1      -0.483   1.010  -0.016  0.00  0.00     0.152 A 
ATOM      5  C   UNL d   1      -1.300  -0.124  -0.041  0.00  0.00     0.103 A 
ATOM      6  N   UNL d   1       0.836   0.641   0.029  0.00  0.00    -0.278 N 
ATOM      7  HN  UNL d   1       1.636   1.273  -0.005  1.00  0.00     0.189 HD
ENDROOT
BRANCH   1   8
ATOM      8  C   UNL d   1      -0.514  -2.573  -0.070  0.00  0.00     0.135 A 
ATOM      9  C   UNL d   1       0.297  -3.396   0.718  0.00  0.00     0.148 A 
ATOM     10  F   UNL d   1       1.178  -2.885   1.589  0.00  0.00    -0.203 F 
ATOM     11  C   UNL d   1       0.155  -4.785   0.685  0.00  0.00     0.045 A 
ATOM     12  C   UNL d   1      -0.795  -5.365  -0.152  0.00  0.00     0.006 A 
ATOM     13  C   UNL d   1      -1.579  -4.554  -0.971  0.00  0.00     0.045 A 
ATOM     14  C   UNL d   1      -1.425  -3.164  -0.934  0.00  0.00     0.148 A 
ATOM     15  F   UNL d   1      -2.133  -2.436  -1.809  0.00  0.00    -0.203 F 
ENDBRANCH   1   8
BRANCH   5  16
ATOM     16  C   UNL d   1      -2.772  -0.245  -0.069  0.00  0.00    -0.005 A 
ATOM     17  C   UNL d   1      -3.549   0.675  -0.791  0.00  0.00     0.014 A 
ATOM     18  C   UNL d   1      -4.942   0.572  -0.848  0.00  0.00     0.001 A 
ATOM     19  C   UNL d   1      -5.589  -0.484  -0.219  0.00  0.00     0.000 A 
ATOM     20  C   UNL d   1      -4.844  -1.407   0.508  0.00  0.00     0.001 A 
ATOM     21  C   UNL d   1      -3.454  -1.266   0.612  0.00  0.00     0.014 A 
ENDBRANCH   5  16
BRANCH   4  22
ATOM     22  C   UNL d   1      -0.804   2.429  -0.018  0.00  0.00     0.197 C 
ATOM     23  O   UNL d   1      -1.880   2.917   0.300  0.00  0.00    -0.645 OA
BRANCH  22  24
ATOM     24  O   UNL d   1       0.238   3.206  -0.426  0.00  0.00    -0.772 OA
ATOM     25  H   UNL d   1       1.020   2.644  -0.614  0.00  0.00     0.167 HD
ENDBRANCH  22  24
ENDBRANCH   4  22
TORSDOF 4
