REMARK  4 active torsions:
REMARK  status: ('A' for Active; 'I' for Inactive)
REMARK    1  A    between atoms: O_10  and  C_1 
REMARK    2  A    between atoms: N_3  and  N_9 
REMARK    3  A    between atoms: N_9  and  C_11 
REMARK    4  A    between atoms: C_12  and  O_10 
ROOT
ATOM      1  C   UNL d   1       5.445  -0.167   1.024  0.00  0.00     0.209 C 
ATOM      2  N   UNL d   1       4.449  -0.641   1.713  0.00  0.00    -0.281 N 
ATOM      3  HN  UNL d   1       4.590  -1.461   2.303  1.00  0.00     0.188 HD
ATOM      4  N   UNL d   1       7.655  -1.528   1.192  0.00  0.00    -0.189 NA
ATOM      5  N   UNL d   1       5.239   2.014  -0.371  0.00  0.00    -0.189 NA
ATOM      6  C   UNL d   1       5.328   1.024   0.242  0.00  0.00     0.130 C 
ATOM      7  C   UNL d   1       6.659  -0.930   1.126  0.00  0.00     0.130 C 
ENDROOT
BRANCH   2   8
ATOM      8  N   UNL d   1       3.214  -0.053   1.657  0.00  0.00    -0.297 N 
ATOM      9  H   UNL d   1       3.104   0.953   1.490  0.00  0.00     0.187 HD
BRANCH   8  10
ATOM     10  C   UNL d   1       2.246  -0.484   2.609  0.00  0.00     0.081 A 
ATOM     11  C   UNL d   1       0.877  -0.198   2.414  0.00  0.00     0.106 A 
ATOM     12  C   UNL d   1      -0.053  -0.527   3.408  0.00  0.00     0.039 A 
ATOM     13  C   UNL d   1       0.345  -1.250   4.532  0.00  0.00     0.003 A 
ATOM     14  C   UNL d   1       1.677  -1.617   4.687  0.00  0.00     0.002 A 
ATOM     15  C   UNL d   1       2.621  -1.229   3.738  0.00  0.00     0.034 A 
BRANCH  11  16
ATOM     16  O   UNL d   1       0.533   0.400   1.230  0.00  0.00    -0.253 OA
BRANCH  16  17
ATOM     17  C   UNL d   1      -0.735   0.051   0.677  0.00  0.00     0.530 C 
ATOM     18  F   UNL d   1      -1.240  -1.111   1.148  0.00  0.00    -0.144 F 
ATOM     19  F   UNL d   1      -0.608  -0.075  -0.663  0.00  0.00    -0.144 F 
ATOM     20  F   UNL d   1      -1.620   1.042   0.925  0.00  0.00    -0.144 F 
ENDBRANCH  16  17
ENDBRANCH  11  16
ENDBRANCH   8  10
ENDBRANCH   2   8
TORSDOF 4
