REMARK  4 active torsions:
REMARK  status: ('A' for Active; 'I' for Inactive)
REMARK    1  A    between atoms: O_4  and  C_1 
REMARK    2  A    between atoms: C_3  and  C_2 
REMARK    3  A    between atoms: O_8  and  C_3 
REMARK    4  A    between atoms: C_9  and  O_4 
ROOT
ATOM      1  C   UNL d   1      -0.557   1.155   0.162  0.00  0.00     0.165 A 
ATOM      2  C   UNL d   1       0.825   1.188   0.306  0.00  0.00     0.089 A 
ATOM      3  N   UNL d   1      -1.269   0.000   0.048  0.00  0.00    -0.346 N 
ATOM      4  HN  UNL d   1      -2.289   0.012   0.022  1.00  0.00     0.167 HD
ATOM      5  C   UNL d   1       1.498  -0.042   0.225  0.00  0.00     0.024 A 
ATOM      6  C   UNL d   1      -0.587  -1.157  -0.028  0.00  0.00     0.090 A 
ATOM      7  C   UNL d   1       0.789  -1.227   0.035  0.00  0.00     0.018 A 
ENDROOT
BRANCH   1   8
ATOM      8  O   UNL d   1      -1.270   2.351   0.097  0.00  0.00    -0.293 OA
BRANCH   8   9
ATOM      9  C   UNL d   1      -2.434   2.337  -0.648  0.00  0.00     0.077 A 
ATOM     10  C   UNL d   1      -3.544   3.001  -0.126  0.00  0.00     0.037 A 
ATOM     11  C   UNL d   1      -4.761   2.962  -0.813  0.00  0.00     0.003 A 
ATOM     12  C   UNL d   1      -4.865   2.269  -2.020  0.00  0.00     0.000 A 
ATOM     13  C   UNL d   1      -3.743   1.651  -2.567  0.00  0.00     0.003 A 
ATOM     14  C   UNL d   1      -2.523   1.709  -1.897  0.00  0.00     0.037 A 
ENDBRANCH   8   9
ENDBRANCH   1   8
BRANCH   2  15
ATOM     15  C   UNL d   1       1.653   2.405   0.523  0.00  0.00     0.180 C 
ATOM     16  O   UNL d   1       2.867   2.339   0.619  0.00  0.00    -0.646 OA
BRANCH  15  17
ATOM     17  O   UNL d   1       0.997   3.579   0.629  0.00  0.00    -0.773 OA
ATOM     18  H   UNL d   1       0.029   3.549   0.528  0.00  0.00     0.167 HD
ENDBRANCH  15  17
ENDBRANCH   2  15
TORSDOF 4
