REMARK  6 active torsions:
REMARK  status: ('A' for Active; 'I' for Inactive)
REMARK    1  A    between atoms: C_9  and  C_1 
REMARK    2  A    between atoms: C_10  and  C_1 
REMARK    3  A    between atoms: N_12  and  C_6 
REMARK    4  A    between atoms: C_11  and  C_8 
REMARK    5  A    between atoms: O_18  and  C_10 
REMARK    6  A    between atoms: C_25  and  O_18 
ROOT
ATOM      1  C   UNL d   1       1.450  -0.299   0.102  0.00  0.00     0.298 C 
ATOM      2  N   UNL d   1       0.875   1.031  -0.104  0.00  0.00    -0.314 N 
ATOM      3  HN  UNL d   1       1.488   1.845  -0.161  1.00  0.00     0.166 HD
ATOM      4  N   UNL d   1       0.491  -1.387  -0.092  0.00  0.00    -0.328 N 
ATOM      5  HN  UNL d   1       0.797  -2.360  -0.106  1.00  0.00     0.165 HD
ATOM      6  C   UNL d   1      -0.388   1.180  -0.212  0.00  0.00     0.225 C 
ATOM      7  O   UNL d   1      -1.262   0.157  -0.266  0.00  0.00    -0.262 OA
ATOM      8  C   UNL d   1      -0.742  -1.083  -0.242  0.00  0.00     0.160 C 
ENDROOT
BRANCH   1   9
ATOM      9  C   UNL d   1       2.707  -0.516  -0.776  0.00  0.00     0.442 C 
ATOM     10  F   UNL d   1       3.330   0.647  -1.097  0.00  0.00    -0.166 F 
ATOM     11  F   UNL d   1       3.636  -1.310  -0.189  0.00  0.00    -0.166 F 
ATOM     12  F   UNL d   1       2.388  -1.109  -1.960  0.00  0.00    -0.166 F 
ENDBRANCH   1   9
BRANCH   1  13
ATOM     13  C   UNL d   1       1.931  -0.344   1.566  0.00  0.00     0.318 C 
ATOM     14  O   UNL d   1       1.525  -1.132   2.418  0.00  0.00    -0.260 OA
BRANCH  13  15
ATOM     15  O   UNL d   1       2.780   0.694   1.841  0.00  0.00    -0.318 OA
BRANCH  15  16
ATOM     16  C   UNL d   1       2.994   0.969   3.232  0.00  0.00     0.174 C 
ATOM     17  C   UNL d   1       1.904   1.909   3.718  0.00  0.00     0.034 C 
ENDBRANCH  15  16
ENDBRANCH  13  15
ENDBRANCH   1  13
BRANCH   6  18
ATOM     18  N   UNL d   1      -0.971   2.427  -0.275  0.00  0.00    -0.356 N 
ATOM     19  C   UNL d   1      -2.382   2.660  -0.532  0.00  0.00     0.152 C 
ATOM     20  C   UNL d   1      -0.159   3.639  -0.192  0.00  0.00     0.152 C 
ENDBRANCH   6  18
BRANCH   8  21
ATOM     21  C   UNL d   1      -1.782  -2.120  -0.393  0.00  0.00     0.016 A 
ATOM     22  C   UNL d   1      -2.946  -1.904  -1.141  0.00  0.00     0.022 A 
ATOM     23  C   UNL d   1      -3.869  -2.946  -1.327  0.00  0.00    -0.061 A 
ATOM     24  C   UNL d   1      -5.099  -2.755  -2.164  0.00  0.00     0.048 C 
ATOM     25  C   UNL d   1      -3.617  -4.198  -0.749  0.00  0.00     0.007 A 
ATOM     26  C   UNL d   1      -2.465  -4.413   0.006  0.00  0.00     0.002 A 
ATOM     27  C   UNL d   1      -1.547  -3.379   0.180  0.00  0.00     0.016 A 
ENDBRANCH   8  21
TORSDOF 6
