REMARK  11 active torsions:
REMARK  status: ('A' for Active; 'I' for Inactive)
REMARK    1  A    between atoms: C_1  and  S_2 
REMARK    2  A    between atoms: C_13  and  S_2 
REMARK    3  A    between atoms: C_3  and  O_8 
REMARK    4  A    between atoms: C_4  and  O_9 
REMARK    5  A    between atoms: C_6  and  O_10 
REMARK    6  A    between atoms: C_7  and  C_18 
REMARK    7  A    between atoms: C_14  and  O_8 
REMARK    8  A    between atoms: C_15  and  O_9 
REMARK    9  A    between atoms: C_16  and  O_10 
REMARK   10  A    between atoms: C_17  and  O_19 
REMARK   11  A    between atoms: O_19  and  C_18 
ROOT
ATOM      1  C   UNL d   1      -0.654  -1.112   0.257  0.00  0.00     0.280 C 
ATOM      2  C   UNL d   1       0.826  -1.276  -0.108  0.00  0.00     0.208 C 
ATOM      3  C   UNL d   1       1.664   0.003   0.154  0.00  0.00     0.197 C 
ATOM      4  O   UNL d   1      -1.161   0.122  -0.280  0.00  0.00    -0.357 OA
ATOM      5  C   UNL d   1       0.948   1.296  -0.300  0.00  0.00     0.195 C 
ATOM      6  C   UNL d   1      -0.491   1.275   0.245  0.00  0.00     0.180 C 
ENDROOT
BRANCH   1   7
ATOM      7  S   UNL d   1      -1.583  -2.560  -0.350  0.00  0.00     0.205 S 
ATOM      8  O   UNL d   1      -1.536  -2.594  -1.799  0.00  0.00    -0.220 OA
ATOM      9  O   UNL d   1      -1.212  -3.735   0.425  0.00  0.00    -0.220 OA
BRANCH   7  10
ATOM     10  C   UNL d   1      -3.241  -2.127   0.131  0.00  0.00     0.061 A 
ATOM     11  C   UNL d   1      -4.044  -1.389  -0.742  0.00  0.00     0.023 A 
ATOM     12  C   UNL d   1      -5.312  -0.986  -0.325  0.00  0.00     0.002 A 
ATOM     13  C   UNL d   1      -5.773  -1.332   0.947  0.00  0.00     0.000 A 
ATOM     14  C   UNL d   1      -4.975  -2.093   1.803  0.00  0.00     0.002 A 
ATOM     15  C   UNL d   1      -3.706  -2.498   1.397  0.00  0.00     0.023 A 
ENDBRANCH   7  10
ENDBRANCH   1   7
BRANCH   2  16
ATOM     16  O   UNL d   1       1.445  -2.433   0.515  0.00  0.00    -0.310 OA
BRANCH  16  17
ATOM     17  C   UNL d   1       1.478  -2.478   1.877  0.00  0.00     0.255 C 
ATOM     18  O   UNL d   1       0.989  -1.627   2.607  0.00  0.00    -0.266 OA
ATOM     19  C   UNL d   1       2.118  -3.739   2.359  0.00  0.00     0.126 C 
ENDBRANCH  16  17
ENDBRANCH   2  16
BRANCH   3  20
ATOM     20  O   UNL d   1       2.900  -0.147  -0.602  0.00  0.00    -0.311 OA
BRANCH  20  21
ATOM     21  C   UNL d   1       3.905  -0.828   0.021  0.00  0.00     0.255 C 
ATOM     22  O   UNL d   1       3.979  -1.053   1.218  0.00  0.00    -0.266 OA
ATOM     23  C   UNL d   1       4.837  -1.409  -0.997  0.00  0.00     0.126 C 
ENDBRANCH  20  21
ENDBRANCH   3  20
BRANCH   6  24
ATOM     24  C   UNL d   1      -1.342   2.484  -0.170  0.00  0.00     0.213 C 
BRANCH  24  25
ATOM     25  O   UNL d   1      -2.658   2.400   0.419  0.00  0.00    -0.319 OA
BRANCH  25  26
ATOM     26  C   UNL d   1      -2.739   2.820   1.709  0.00  0.00     0.254 C 
ATOM     27  O   UNL d   1      -1.799   3.236   2.373  0.00  0.00    -0.266 OA
ATOM     28  C   UNL d   1      -4.143   2.717   2.218  0.00  0.00     0.126 C 
ENDBRANCH  25  26
ENDBRANCH  24  25
ENDBRANCH   6  24
BRANCH   5  29
ATOM     29  O   UNL d   1       1.694   2.414   0.240  0.00  0.00    -0.311 OA
BRANCH  29  30
ATOM     30  C   UNL d   1       1.664   3.575  -0.468  0.00  0.00     0.255 C 
ATOM     31  O   UNL d   1       1.027   3.749  -1.497  0.00  0.00    -0.266 OA
ATOM     32  C   UNL d   1       2.453   4.649   0.219  0.00  0.00     0.126 C 
ENDBRANCH  29  30
ENDBRANCH   5  29
TORSDOF 11
