REMARK  5 active torsions:
REMARK  status: ('A' for Active; 'I' for Inactive)
REMARK       I    between atoms: C_2  and  N_10 
REMARK    1  A    between atoms: C_6  and  C_2 
REMARK    2  A    between atoms: N_11  and  C_3 
REMARK    3  A    between atoms: N_10  and  N_11 
REMARK    4  A    between atoms: O_22  and  C_12 
REMARK    5  A    between atoms: O_23  and  C_13 
ROOT
ATOM      1  C   UNL d   1       0.196   0.787   0.105  0.00  0.00     0.033 A 
ATOM      2  C   UNL d   1      -1.038   1.463   0.131  0.00  0.00     0.112 A 
ATOM      3  C   UNL d   1       0.150  -0.598   0.017  0.00  0.00     0.049 A 
ATOM      4  C   UNL d   1       1.443   1.440   0.160  0.00  0.00     0.056 A 
ATOM      5  C   UNL d   1       1.373  -1.280  -0.094  0.00  0.00     0.070 A 
ATOM      6  N   UNL d   1      -2.218   0.815   0.160  0.00  0.00    -0.341 N 
ATOM      7  HN  UNL d   1      -3.109   1.307   0.229  1.00  0.00     0.167 HD
ATOM      8  C   UNL d   1       2.660   0.762   0.051  0.00  0.00     0.102 A 
ATOM      9  C   UNL d   1       2.622  -0.622  -0.098  0.00  0.00     0.103 A 
ATOM     10  N   UNL d   1      -1.020  -1.262   0.008  0.00  0.00    -0.351 N 
ATOM     11  HN  UNL d   1      -1.056  -2.279  -0.059  1.00  0.00     0.166 HD
ATOM     12  C   UNL d   1      -2.142  -0.522   0.092  0.00  0.00     0.182 A 
ENDROOT
BRANCH   2  13
ATOM     13  N   UNL d   1      -1.018   2.885   0.152  0.00  0.00    -0.187 NA
ATOM     14  H   UNL d   1      -0.498   3.248  -0.654  0.00  0.00     0.154 HD
BRANCH  13  15
ATOM     15  N   UNL d   1      -2.268   3.508   0.266  0.00  0.00    -0.281 N 
ATOM     16  C   UNL d   1      -2.251   4.888   0.420  0.00  0.00     0.273 C 
ATOM     17  O   UNL d   1      -1.258   5.558   0.103  0.00  0.00    -0.266 OA
ATOM     18  H   UNL d   1      -3.010   2.935   0.667  0.00  0.00     0.184 HD
BRANCH  16  19
ATOM     19  C   UNL d   1      -3.450   5.491   0.989  0.00  0.00     0.073 A 
ATOM     20  S   UNL d   1      -4.885   4.597   1.273  0.00  0.00    -0.097 SA
ATOM     21  C   UNL d   1      -5.699   5.967   1.893  0.00  0.00     0.050 A 
ATOM     22  C   UNL d   1      -4.899   7.088   1.893  0.00  0.00     0.009 A 
ATOM     23  C   UNL d   1      -3.603   6.812   1.371  0.00  0.00     0.025 A 
ENDBRANCH  16  19
ENDBRANCH  13  15
ENDBRANCH   2  13
BRANCH   8  24
ATOM     24  O   UNL d   1       3.684   1.660   0.066  0.00  0.00    -0.353 OA
ATOM     25  C   UNL d   1       5.029   1.266  -0.082  0.00  0.00     0.210 C 
ENDBRANCH   8  24
BRANCH   9  26
ATOM     26  O   UNL d   1       3.692  -1.393  -0.460  0.00  0.00    -0.353 OA
ATOM     27  C   UNL d   1       4.606  -1.698   0.592  0.00  0.00     0.210 C 
ENDBRANCH   9  26
TORSDOF 5
