REMARK  11 active torsions:
REMARK  status: ('A' for Active; 'I' for Inactive)
REMARK    1  A    between atoms: C_1  and  O_5 
REMARK    2  A    between atoms: C_2  and  O_7 
REMARK    3  A    between atoms: C_3  and  O_19 
REMARK    4  A    between atoms: C_8  and  O_5 
REMARK    5  A    between atoms: C_6  and  C_12 
REMARK    6  A    between atoms: C_9  and  O_7 
REMARK    7  A    between atoms: C_16  and  C_8 
REMARK    8  A    between atoms: C_15  and  C_9 
REMARK    9  A    between atoms: C_10  and  O_11 
REMARK   10  A    between atoms: C_18  and  C_10 
REMARK   11  A    between atoms: O_11  and  C_12 
ROOT
ATOM      1  C   UNL d   1      -1.145  -0.642  -0.270  0.00  0.00     0.219 C 
ATOM      2  C   UNL d   1      -1.142   0.704   0.449  0.00  0.00     0.197 C 
ATOM      3  C   UNL d   1       0.262  -1.163   0.108  0.00  0.00     0.291 C 
ATOM      4  O   UNL d   1       1.123  -0.009   0.196  0.00  0.00    -0.348 OA
ATOM      5  C   UNL d   1       0.285   1.157   0.126  0.00  0.00     0.181 C 
ENDROOT
BRANCH   5   6
ATOM      6  C   UNL d   1       0.817   2.289   0.997  0.00  0.00     0.213 C 
BRANCH   6   7
ATOM      7  O   UNL d   1      -0.003   3.466   0.858  0.00  0.00    -0.315 OA
BRANCH   7   8
ATOM      8  C   UNL d   1       0.185   4.164  -0.291  0.00  0.00     0.293 C 
ATOM      9  O   UNL d   1       1.006   3.908  -1.153  0.00  0.00    -0.259 OA
BRANCH   8  10
ATOM     10  C   UNL d   1      -0.789   5.285  -0.402  0.00  0.00     0.039 A 
ATOM     11  C   UNL d   1      -0.712   6.113  -1.531  0.00  0.00     0.017 A 
ATOM     12  C   UNL d   1      -1.603   7.176  -1.687  0.00  0.00     0.001 A 
ATOM     13  C   UNL d   1      -2.578   7.413  -0.720  0.00  0.00     0.000 A 
ATOM     14  C   UNL d   1      -2.668   6.587   0.400  0.00  0.00     0.001 A 
ATOM     15  C   UNL d   1      -1.777   5.524   0.562  0.00  0.00     0.017 A 
ENDBRANCH   8  10
ENDBRANCH   7   8
ENDBRANCH   6   7
ENDBRANCH   5   6
BRANCH   2  16
ATOM     16  O   UNL d   1      -1.327   0.547   1.875  0.00  0.00    -0.306 OA
BRANCH  16  17
ATOM     17  C   UNL d   1      -2.622   0.424   2.260  0.00  0.00     0.293 C 
ATOM     18  O   UNL d   1      -3.595   0.438   1.526  0.00  0.00    -0.259 OA
BRANCH  17  19
ATOM     19  C   UNL d   1      -2.747   0.381   3.736  0.00  0.00     0.039 A 
ATOM     20  C   UNL d   1      -1.810  -0.261   4.550  0.00  0.00     0.017 A 
ATOM     21  C   UNL d   1      -1.992  -0.269   5.936  0.00  0.00     0.001 A 
ATOM     22  C   UNL d   1      -3.104   0.364   6.502  0.00  0.00     0.000 A 
ATOM     23  C   UNL d   1      -4.046   0.987   5.690  0.00  0.00     0.001 A 
ATOM     24  C   UNL d   1      -3.874   0.989   4.306  0.00  0.00     0.017 A 
ENDBRANCH  17  19
ENDBRANCH  16  17
ENDBRANCH   2  16
BRANCH   1  25
ATOM     25  O   UNL d   1      -1.197  -0.471  -1.718  0.00  0.00    -0.304 OA
BRANCH  25  26
ATOM     26  C   UNL d   1      -2.383  -0.067  -2.242  0.00  0.00     0.293 C 
ATOM     27  O   UNL d   1      -3.383   0.204  -1.601  0.00  0.00    -0.259 OA
BRANCH  26  28
ATOM     28  C   UNL d   1      -2.349  -0.060  -3.732  0.00  0.00     0.039 A 
ATOM     29  C   UNL d   1      -3.567   0.051  -4.422  0.00  0.00     0.017 A 
ATOM     30  C   UNL d   1      -3.611  -0.100  -5.810  0.00  0.00     0.001 A 
ATOM     31  C   UNL d   1      -2.435  -0.333  -6.521  0.00  0.00     0.000 A 
ATOM     32  C   UNL d   1      -1.212  -0.366  -5.851  0.00  0.00     0.001 A 
ATOM     33  C   UNL d   1      -1.165  -0.226  -4.460  0.00  0.00     0.017 A 
ENDBRANCH  26  28
ENDBRANCH  25  26
ENDBRANCH   1  25
BRANCH   3  34
ATOM     34  O   UNL d   1       0.232  -1.825   1.375  0.00  0.00    -0.363 OA
ATOM     35  C   UNL d   1       1.508  -2.341   1.738  0.00  0.00     0.204 C 
ENDBRANCH   3  34
TORSDOF 11
