REMARK  8 active torsions:
REMARK  status: ('A' for Active; 'I' for Inactive)
REMARK       I    between atoms: N_5  and  C_1 
REMARK    1  A    between atoms: O_6  and  C_1 
REMARK    2  A    between atoms: C_12  and  C_2 
REMARK    3  A    between atoms: N_13  and  C_2 
REMARK    4  A    between atoms: N_3  and  O_6 
REMARK    5  A    between atoms: C_18  and  N_5 
REMARK    6  A    between atoms: C_7  and  C_8 
REMARK    7  A    between atoms: O_14  and  C_12 
REMARK    8  A    between atoms: C_15  and  O_14 
ROOT
ATOM      1  C   UNL d   1      -1.631   1.307   1.868  0.00  0.00     0.120 C 
ATOM      2  N   UNL d   1      -1.856   0.026   1.989  0.00  0.00    -0.242 N 
ATOM      3  HN  UNL d   1      -1.556  -0.555   2.772  1.00  0.00     0.196 HD
ENDROOT
BRANCH   1   4
ATOM      4  C   UNL d   1      -0.864   2.021   2.986  0.00  0.00     0.253 C 
BRANCH   4   5
ATOM      5  O   UNL d   1       0.530   1.975   2.696  0.00  0.00    -0.344 OA
BRANCH   5   6
ATOM      6  C   UNL d   1       1.339   2.518   3.659  0.00  0.00     0.069 A 
ATOM      7  C   UNL d   1       2.624   1.990   3.752  0.00  0.00     0.037 A 
ATOM      8  C   UNL d   1       3.535   2.490   4.693  0.00  0.00     0.011 A 
ATOM      9  C   UNL d   1       3.194   3.548   5.556  0.00  0.00    -0.050 A 
ATOM     10  C   UNL d   1       1.896   4.072   5.435  0.00  0.00     0.011 A 
ATOM     11  C   UNL d   1       0.982   3.568   4.500  0.00  0.00     0.037 A 
BRANCH   9  12
ATOM     12  C   UNL d   1       4.210   4.086   6.580  0.00  0.00    -0.024 C 
ATOM     13  C   UNL d   1       3.668   5.275   7.406  0.00  0.00     0.019 C 
ATOM     14  C   UNL d   1       4.595   2.966   7.570  0.00  0.00     0.019 C 
ATOM     15  C   UNL d   1       5.489   4.577   5.867  0.00  0.00     0.019 C 
ENDBRANCH   9  12
ENDBRANCH   5   6
ENDBRANCH   4   5
ENDBRANCH   1   4
BRANCH   1  16
ATOM     16  N   UNL d   1      -2.033   2.072   0.794  0.00  0.00    -0.386 N 
ATOM     17  H   UNL d   1      -2.281   1.530  -0.029  0.00  0.00     0.157 HD
ATOM     18  H   UNL d   1      -1.486   2.901   0.587  0.00  0.00     0.157 HD
ENDBRANCH   1  16
BRANCH   2  19
ATOM     19  O   UNL d   1      -2.584  -0.427   0.861  0.00  0.00    -0.180 OA
BRANCH  19  20
ATOM     20  C   UNL d   1      -2.862  -1.778   0.883  0.00  0.00     0.383 C 
ATOM     21  N   UNL d   1      -2.380  -2.469   1.966  0.00  0.00    -0.331 N 
ATOM     22  H   UNL d   1      -1.948  -1.884   2.674  0.00  0.00     0.165 HD
ATOM     23  O   UNL d   1      -3.499  -2.303  -0.029  0.00  0.00    -0.236 OA
BRANCH  21  24
ATOM     24  C   UNL d   1      -2.624  -3.889   2.154  0.00  0.00     0.078 C 
ATOM     25  C   UNL d   1      -1.500  -4.542   2.950  0.00  0.00     0.032 C 
ATOM     26  C   UNL d   1      -3.974  -4.147   2.823  0.00  0.00     0.032 C 
ENDBRANCH  21  24
ENDBRANCH  19  20
ENDBRANCH   2  19
TORSDOF 8
