REMARK  1 active torsions:
REMARK  status: ('A' for Active; 'I' for Inactive)
REMARK    1  A    between atoms: C_10  and  C_4 
ROOT
ATOM      1  C   UNL d   1      -2.077   0.343   0.054  0.00  0.00    -0.005 C 
ATOM      2  C   UNL d   1      -1.098  -0.787   0.017  0.00  0.00     0.189 C 
ATOM      3  C   UNL d   1       0.346  -0.410   0.012  0.00  0.00     0.021 A 
ATOM      4  C   UNL d   1      -3.282   0.134  -0.501  0.00  0.00     0.040 C 
ATOM      5  C   UNL d   1       0.737   0.941  -0.029  0.00  0.00    -0.044 A 
ATOM      6  C   UNL d   1      -1.567   1.616   0.660  0.00  0.00     0.047 C 
ATOM      7  O   UNL d   1      -1.454  -1.960  -0.011  0.00  0.00    -0.287 OA
ATOM      8  C   UNL d   1      -0.288   2.045  -0.051  0.00  0.00     0.044 C 
ATOM      9  C   UNL d   1       1.313  -1.422   0.019  0.00  0.00     0.016 A 
ATOM     10  C   UNL d   1       2.102   1.256  -0.098  0.00  0.00     0.008 A 
ATOM     11  C   UNL d   1       2.668  -1.093  -0.028  0.00  0.00     0.001 A 
ATOM     12  C   UNL d   1       3.061   0.243  -0.092  0.00  0.00     0.001 A 
ENDROOT
BRANCH   4  13
ATOM     13  C   UNL d   1      -4.305   1.164  -0.650  0.00  0.00     0.032 A 
ATOM     14  N   UNL d   1      -4.236   1.889  -1.790  0.00  0.00    -0.366 N 
ATOM     15  C   UNL d   1      -5.183   2.834  -1.973  0.00  0.00     0.088 A 
ATOM     16  HN  UNL d   1      -3.501   1.729  -2.479  1.00  0.00     0.165 HD
ATOM     17  C   UNL d   1      -6.195   3.097  -1.066  0.00  0.00     0.017 A 
ATOM     18  C   UNL d   1      -6.237   2.349   0.106  0.00  0.00     0.004 A 
ATOM     19  C   UNL d   1      -5.275   1.365   0.323  0.00  0.00     0.029 A 
ENDBRANCH   4  13
TORSDOF 1
