REMARK  7 active torsions:
REMARK  status: ('A' for Active; 'I' for Inactive)
REMARK    1  A    between atoms: C_9  and  C_3 
REMARK    2  A    between atoms: O_12  and  C_4 
REMARK    3  A    between atoms: C_16  and  C_7 
REMARK    4  A    between atoms: C_18  and  C_8 
REMARK    5  A    between atoms: C_21  and  C_16 
REMARK    6  A    between atoms: O_19  and  C_18 
REMARK    7  A    between atoms: C_22  and  C_21 
ROOT
ATOM      1  N   UNL d   1      -0.264  -1.205  -0.084  0.00  0.00    -0.322 N 
ATOM      2  HN  UNL d   1      -0.785  -2.080  -0.127  1.00  0.00     0.169 HD
ATOM      3  C   UNL d   1       1.075  -1.170  -0.025  0.00  0.00     0.117 A 
ATOM      4  C   UNL d   1      -0.868  -0.013  -0.082  0.00  0.00     0.149 A 
ATOM      5  N   UNL d   1       1.794  -0.034   0.025  0.00  0.00    -0.343 N 
ATOM      6  HN  UNL d   1       2.813  -0.062   0.063  1.00  0.00     0.167 HD
ATOM      7  C   UNL d   1      -0.256   1.225  -0.031  0.00  0.00     0.018 A 
ATOM      8  C   UNL d   1       1.130   1.152   0.026  0.00  0.00     0.045 A 
ENDROOT
BRANCH   3   9
ATOM      9  C   UNL d   1       1.807  -2.453   0.017  0.00  0.00     0.008 A 
ATOM     10  C   UNL d   1       1.132  -3.688  -0.049  0.00  0.00     0.017 A 
ATOM     11  C   UNL d   1       1.823  -4.905  -0.001  0.00  0.00     0.025 A 
ATOM     12  C   UNL d   1       3.208  -4.910   0.116  0.00  0.00     0.034 A 
ATOM     13  C   UNL d   1       3.907  -3.709   0.183  0.00  0.00     0.025 A 
ATOM     14 CL   UNL d   1       4.060  -6.402   0.177  0.00  0.00    -0.084 Cl
ATOM     15  C   UNL d   1       3.211  -2.495   0.134  0.00  0.00     0.017 A 
ENDBRANCH   3   9
BRANCH   4  16
ATOM     16  O   UNL d   1      -2.222  -0.126  -0.119  0.00  0.00    -0.346 OA
ATOM     17  H   UNL d   1      -2.318  -1.095  -0.127  0.00  0.00     0.219 HD
ENDBRANCH   4  16
BRANCH   8  18
ATOM     18  C   UNL d   1       2.032   2.363   0.115  0.00  0.00     0.224 C 
BRANCH  18  19
ATOM     19  O   UNL d   1       1.704   3.253   1.184  0.00  0.00    -0.390 OA
ATOM     20  C   UNL d   1       2.032   2.711   2.458  0.00  0.00     0.201 C 
ENDBRANCH  18  19
ENDBRANCH   8  18
BRANCH   7  21
ATOM     21  C   UNL d   1      -1.068   2.492   0.037  0.00  0.00     0.045 C 
BRANCH  21  22
ATOM     22  C   UNL d   1      -0.878   3.506  -1.097  0.00  0.00     0.004 C 
BRANCH  22  23
ATOM     23  C   UNL d   1      -1.171   2.941  -2.486  0.00  0.00    -0.004 C 
ATOM     24  C   UNL d   1      -0.939   3.992  -3.561  0.00  0.00     0.005 C 
ENDBRANCH  22  23
ENDBRANCH  21  22
ENDBRANCH   7  21
TORSDOF 7
