REMARK  5 active torsions:
REMARK  status: ('A' for Active; 'I' for Inactive)
REMARK    1  A    between atoms: N_11  and  C_2 
REMARK    2  A    between atoms: O_21  and  C_9 
REMARK    3  A    between atoms: O_22  and  C_10 
REMARK    4  A    between atoms: C_20  and  N_11 
REMARK    5  A    between atoms: C_14  and  C_20 
ROOT
ATOM      1  C   UNL d   1       0.205   0.774  -0.060  0.00  0.00     0.032 A 
ATOM      2  C   UNL d   1      -1.018   1.482  -0.062  0.00  0.00     0.094 A 
ATOM      3  C   UNL d   1       0.105  -0.612  -0.017  0.00  0.00     0.049 A 
ATOM      4  C   UNL d   1       1.509   1.326  -0.099  0.00  0.00     0.056 A 
ATOM      5  C   UNL d   1       1.286  -1.350   0.014  0.00  0.00     0.070 A 
ATOM      6  N   UNL d   1      -2.204   0.851  -0.059  0.00  0.00    -0.342 N 
ATOM      7  HN  UNL d   1      -3.085   1.364  -0.076  1.00  0.00     0.167 HD
ATOM      8  C   UNL d   1       2.710   0.587  -0.011  0.00  0.00     0.102 A 
ATOM      9  C   UNL d   1       2.597  -0.796   0.029  0.00  0.00     0.103 A 
ATOM     10  N   UNL d   1      -1.072  -1.250  -0.003  0.00  0.00    -0.351 N 
ATOM     11  HN  UNL d   1      -1.129  -2.268   0.030  1.00  0.00     0.166 HD
ATOM     12  C   UNL d   1      -2.170  -0.486  -0.034  0.00  0.00     0.182 A 
ENDROOT
BRANCH   2  13
ATOM     13  N   UNL d   1      -1.145   2.871  -0.105  0.00  0.00    -0.274 NA
ATOM     14  H   UNL d   1      -2.140   3.067  -0.056  0.00  0.00     0.129 HD
BRANCH  13  15
ATOM     15  C   UNL d   1      -0.324   3.680   0.787  0.00  0.00     0.135 C 
BRANCH  15  16
ATOM     16  C   UNL d   1      -1.016   4.906   1.318  0.00  0.00    -0.009 A 
ATOM     17  C   UNL d   1      -0.324   6.108   1.418  0.00  0.00     0.112 A 
ATOM     18  O   UNL d   1       0.959   6.329   1.011  0.00  0.00    -0.322 OA
ATOM     19  C   UNL d   1      -0.877   7.231   1.990  0.00  0.00     0.105 A 
ATOM     20  C   UNL d   1       1.129   7.718   1.356  0.00  0.00     0.352 A 
ATOM     21  O   UNL d   1      -0.024   8.290   2.002  0.00  0.00    -0.323 OA
ATOM     22  C   UNL d   1      -2.157   7.228   2.503  0.00  0.00     0.040 A 
ATOM     23  C   UNL d   1      -2.879   6.035   2.435  0.00  0.00     0.003 A 
ATOM     24  C   UNL d   1      -2.312   4.881   1.859  0.00  0.00     0.011 A 
ENDBRANCH  15  16
ENDBRANCH  13  15
ENDBRANCH   2  13
BRANCH   8  25
ATOM     25  O   UNL d   1       3.707   1.500   0.072  0.00  0.00    -0.353 OA
ATOM     26  C   UNL d   1       5.088   1.289  -0.034  0.00  0.00     0.210 C 
ENDBRANCH   8  25
BRANCH   9  27
ATOM     27  O   UNL d   1       3.480  -1.825   0.113  0.00  0.00    -0.353 OA
ATOM     28  C   UNL d   1       4.873  -1.678   0.028  0.00  0.00     0.210 C 
ENDBRANCH   9  27
TORSDOF 5
