REMARK  4 active torsions:
REMARK  status: ('A' for Active; 'I' for Inactive)
REMARK    1  A    between atoms: C_7  and  C_2 
REMARK    2  A    between atoms: C_10  and  C_6 
REMARK    3  A    between atoms: O_24  and  C_15 
REMARK    4  A    between atoms: O_23  and  C_16 
ROOT
ATOM      1  C   UNL d   1      -0.475  -0.389   0.093  0.00  0.00     0.123 A 
ATOM      2  C   UNL d   1       0.279  -1.512   0.056  0.00  0.00     0.003 A 
ATOM      3  C   UNL d   1       0.208   0.941   0.103  0.00  0.00     0.267 A 
ATOM      4  N   UNL d   1       1.582   0.927   0.097  0.00  0.00    -0.322 N 
ATOM      5  C   UNL d   1       1.737  -1.406   0.061  0.00  0.00     0.044 A 
ATOM      6  C   UNL d   1       2.342  -0.210   0.080  0.00  0.00     0.046 A 
ATOM      7  C   UNL d   1      -1.901  -0.390   0.099  0.00  0.00     0.106 C 
ATOM      8  N   UNL d   1      -3.062  -0.419   0.104  0.00  0.00    -0.191 NA
ATOM      9  O   UNL d   1      -0.405   2.004   0.100  0.00  0.00    -0.266 OA
ATOM     10  H   UNL d   1       2.035   1.835   0.102  0.00  0.00     0.169 HD
ENDROOT
BRANCH   2  11
ATOM     11  C   UNL d   1      -0.352  -2.848  -0.049  0.00  0.00    -0.019 A 
ATOM     12  C   UNL d   1      -0.619  -3.374  -1.320  0.00  0.00     0.049 A 
ATOM     13  C   UNL d   1      -1.166  -4.650  -1.453  0.00  0.00     0.071 A 
ATOM     14  C   UNL d   1      -1.436  -5.407  -0.310  0.00  0.00     0.073 A 
ATOM     15  C   UNL d   1      -1.146  -4.909   0.961  0.00  0.00     0.071 A 
ATOM     16  C   UNL d   1      -0.616  -3.620   1.088  0.00  0.00     0.049 A 
BRANCH  13  17
ATOM     17  O   UNL d   1      -1.461  -5.276  -2.634  0.00  0.00    -0.356 OA
ATOM     18  C   UNL d   1      -1.179  -4.557  -3.828  0.00  0.00     0.210 C 
ENDBRANCH  13  17
BRANCH  15  19
ATOM     19  O   UNL d   1      -1.308  -5.587   2.139  0.00  0.00    -0.356 OA
ATOM     20  C   UNL d   1      -1.811  -6.917   2.051  0.00  0.00     0.210 C 
ENDBRANCH  15  19
ENDBRANCH   2  11
BRANCH   6  21
ATOM     21  C   UNL d   1       3.799  -0.061   0.087  0.00  0.00    -0.009 A 
ATOM     22  C   UNL d   1       4.508   0.040  -1.117  0.00  0.00     0.015 A 
ATOM     23  C   UNL d   1       5.893   0.230  -1.104  0.00  0.00     0.024 A 
ATOM     24  C   UNL d   1       6.569   0.320   0.111  0.00  0.00     0.034 A 
ATOM     25  C   UNL d   1       5.875   0.213   1.315  0.00  0.00     0.024 A 
ATOM     26 CL   UNL d   1       8.271   0.574   0.127  0.00  0.00    -0.084 Cl
ATOM     27  C   UNL d   1       4.490   0.020   1.303  0.00  0.00     0.015 A 
ENDBRANCH   6  21
TORSDOF 4
