REMARK  6 active torsions:
REMARK  status: ('A' for Active; 'I' for Inactive)
REMARK    1  A    between atoms: C_4  and  S_1 
REMARK    2  A    between atoms: N_5  and  S_1 
REMARK    3  A    between atoms: N_2  and  C_10 
REMARK    4  A    between atoms: O_6  and  C_3 
REMARK    5  A    between atoms: C_9  and  N_5 
REMARK    6  A    between atoms: C_14  and  O_6 
ROOT
ATOM      1  C   UNL d   1      -0.233   3.780  -2.258  0.00  0.00     0.119 C 
ATOM      2  C   UNL d   1       0.464   1.411  -0.942  0.00  0.00     0.083 C 
ATOM      3  C   UNL d   1       0.340   3.819  -0.973  0.00  0.00     0.071 C 
ATOM      4  C   UNL d   1      -0.550   2.531  -2.819  0.00  0.00     0.071 C 
ATOM      5  C   UNL d   1      -0.226   1.346  -2.154  0.00  0.00     0.052 C 
ATOM      6  C   UNL d   1       0.736   2.639  -0.343  0.00  0.00     0.052 C 
ATOM      7 CL   UNL d   1      -1.332   2.404  -4.355  0.00  0.00    -0.081 Cl
ATOM      8 CL   UNL d   1       0.557   5.278  -0.067  0.00  0.00    -0.081 Cl
ENDROOT
BRANCH   2   9
ATOM      9  S   UNL d   1       0.935  -0.081  -0.111  0.00  0.00     0.263 S 
ATOM     10  O   UNL d   1       0.075  -1.147  -0.571  0.00  0.00    -0.200 OA
ATOM     11  O   UNL d   1       1.058   0.228   1.299  0.00  0.00    -0.200 OA
BRANCH   9  12
ATOM     12  N   UNL d   1       2.495  -0.337  -0.670  0.00  0.00    -0.278 N 
ATOM     13  H   UNL d   1       3.174  -0.561   0.057  0.00  0.00     0.179 HD
BRANCH  12  14
ATOM     14  C   UNL d   1       2.694  -0.831  -1.986  0.00  0.00     0.081 A 
ATOM     15  C   UNL d   1       3.048   0.046  -3.017  0.00  0.00     0.146 A 
ATOM     16  C   UNL d   1       3.264  -0.417  -4.308  0.00  0.00     0.086 A 
ATOM     17  F   UNL d   1       3.183   1.358  -2.766  0.00  0.00    -0.204 F 
ATOM     18  C   UNL d   1       3.120  -1.773  -4.564  0.00  0.00     0.119 A 
ATOM     19  C   UNL d   1       2.764  -2.665  -3.553  0.00  0.00     0.045 A 
ATOM     20  F   UNL d   1       3.327  -2.235  -5.804  0.00  0.00    -0.206 F 
ATOM     21  C   UNL d   1       2.553  -2.194  -2.254  0.00  0.00     0.036 A 
ENDBRANCH  12  14
ENDBRANCH   9  12
ENDBRANCH   2   9
BRANCH   1  22
ATOM     22  O   UNL d   1      -0.552   4.903  -2.998  0.00  0.00    -0.306 OA
BRANCH  22  23
ATOM     23  C   UNL d   1       0.386   5.912  -3.110  0.00  0.00     0.098 A 
ATOM     24  C   UNL d   1      -0.078   7.236  -3.168  0.00  0.00     0.070 A 
ATOM     25  C   UNL d   1       0.823   8.304  -3.171  0.00  0.00     0.062 A 
ATOM     26 CL   UNL d   1      -1.768   7.593  -3.192  0.00  0.00    -0.081 Cl
ATOM     27  C   UNL d   1       2.197   8.038  -3.114  0.00  0.00     0.104 A 
ATOM     28  C   UNL d   1       2.672   6.721  -3.095  0.00  0.00     0.039 A 
ATOM     29  C   UNL d   1       1.766   5.660  -3.134  0.00  0.00     0.041 A 
BRANCH  27  30
ATOM     30  N   UNL d   1       3.158   9.151  -3.078  0.00  0.00    -0.116 N 
ATOM     31  O   UNL d   1       2.706  10.298  -3.191  0.00  0.00    -0.532 OA
ATOM     32  O   UNL d   1       4.352   8.871  -2.936  0.00  0.00    -0.532 OA
ENDBRANCH  27  30
ENDBRANCH  22  23
ENDBRANCH   1  22
TORSDOF 6
