REMARK  2 active torsions:
REMARK  status: ('A' for Active; 'I' for Inactive)
REMARK    1  A    between atoms: C_4  and  N_1 
REMARK    2  A    between atoms: C_17  and  C_9 
ROOT
ATOM      1  N   UNL d   1       0.717   1.177  -0.408  0.00  0.00    -0.252 N 
ATOM      2  C   UNL d   1       1.425   0.038  -0.037  0.00  0.00     0.232 C 
ATOM      3  C   UNL d   1      -0.576   1.280   0.090  0.00  0.00     0.232 C 
ATOM      4  C   UNL d   1       0.669  -1.264  -0.220  0.00  0.00     0.113 C 
ATOM      5  C   UNL d   1      -1.434   0.062  -0.164  0.00  0.00     0.113 C 
ATOM      6  C   UNL d   1      -0.771  -1.230   0.314  0.00  0.00    -0.028 C 
ATOM      7  O   UNL d   1      -1.046   2.246   0.689  0.00  0.00    -0.273 OA
ATOM      8  O   UNL d   1       2.580   0.013   0.386  0.00  0.00    -0.273 OA
ATOM      9  C   UNL d   1      -0.755  -1.283   1.854  0.00  0.00     0.016 C 
ENDROOT
BRANCH   1  10
ATOM     10  C   UNL d   1       1.402   2.341  -0.928  0.00  0.00     0.048 A 
ATOM     11  C   UNL d   1       0.723   3.554  -1.155  0.00  0.00     0.054 A 
ATOM     12  C   UNL d   1       1.358   4.644  -1.758  0.00  0.00     0.037 A 
ATOM     13 CL   UNL d   1       0.477   6.101  -2.018  0.00  0.00    -0.084 Cl
ATOM     14  C   UNL d   1       2.675   4.557  -2.179  0.00  0.00     0.048 A 
ATOM     15  C   UNL d   1       3.358   3.364  -1.988  0.00  0.00     0.037 A 
ATOM     16  C   UNL d   1       2.734   2.270  -1.377  0.00  0.00     0.054 A 
ATOM     17 CL   UNL d   1       4.979   3.217  -2.547  0.00  0.00    -0.084 Cl
ENDBRANCH   1  10
BRANCH   6  18
ATOM     18  C   UNL d   1      -1.519  -2.463  -0.267  0.00  0.00     0.005 C 
ATOM     19  C   UNL d   1      -2.984  -2.596   0.129  0.00  0.00     0.006 C 
ENDBRANCH   6  18
TORSDOF 2
