REMARK  5 active torsions:
REMARK  status: ('A' for Active; 'I' for Inactive)
REMARK    1  A    between atoms: C_14  and  N_1 
REMARK    2  A    between atoms: C_9  and  C_2 
REMARK    3  A    between atoms: S_3  and  C_8 
REMARK    4  A    between atoms: N_13  and  S_3 
REMARK    5  A    between atoms: C_19  and  C_14 
ROOT
ATOM      1  C   UNL d   1       4.365   3.188  -0.115  0.00  0.00     0.074 A 
ATOM      2  C   UNL d   1       2.131   1.524   0.071  0.00  0.00     0.010 A 
ATOM      3  C   UNL d   1       4.088   2.290  -1.148  0.00  0.00     0.026 A 
ATOM      4  C   UNL d   1       3.579   3.213   1.038  0.00  0.00     0.026 A 
ATOM      5  C   UNL d   1       2.475   2.365   1.134  0.00  0.00     0.017 A 
ATOM      6  C   UNL d   1       2.966   1.459  -1.054  0.00  0.00     0.017 A 
ENDROOT
BRANCH   2   7
ATOM      7  C   UNL d   1       0.927   0.670   0.108  0.00  0.00     0.135 A 
ATOM      8  N   UNL d   1      -0.302   1.104   0.537  0.00  0.00    -0.304 N 
ATOM      9  C   UNL d   1      -1.137   0.027   0.347  0.00  0.00     0.194 A 
ATOM     10  N   UNL d   1      -0.344  -0.991  -0.155  0.00  0.00    -0.274 N 
ATOM     11  S   UNL d   1      -2.768  -0.133   0.601  0.00  0.00    -0.039 SA
ATOM     12  N   UNL d   1       0.939  -0.563  -0.319  0.00  0.00    -0.282 N 
ATOM     13  H   UNL d   1      -0.648  -1.914  -0.441  0.00  0.00     0.189 HD
ATOM     14  HN  UNL d   1       1.731  -1.088  -0.691  1.00  0.00     0.188 HD
BRANCH   8  15
ATOM     15  C   UNL d   1      -0.726   2.459   0.879  0.00  0.00     0.160 C 
BRANCH  15  16
ATOM     16  C   UNL d   1      -0.628   2.754   2.353  0.00  0.00    -0.017 C 
ATOM     17  C   UNL d   1      -0.608   1.884   3.373  0.00  0.00     0.008 C 
ENDBRANCH  15  16
ENDBRANCH   8  15
ENDBRANCH   2   7
BRANCH   1  18
ATOM     18  S   UNL d   1       5.752   4.280  -0.238  0.00  0.00     0.239 S 
ATOM     19  O   UNL d   1       6.097   4.764   1.076  0.00  0.00    -0.206 OA
ATOM     20  O   UNL d   1       6.725   3.710  -1.137  0.00  0.00    -0.206 OA
BRANCH  18  21
ATOM     21  N   UNL d   1       5.079   5.587  -1.048  0.00  0.00    -0.225 NA
ATOM     22  H   UNL d   1       5.109   6.417  -0.454  0.00  0.00     0.136 HD
ATOM     23  H   UNL d   1       5.541   5.713  -1.949  0.00  0.00     0.136 HD
ENDBRANCH  18  21
ENDBRANCH   1  18
TORSDOF 5
