REMARK  5 active torsions:
REMARK  status: ('A' for Active; 'I' for Inactive)
REMARK    1  A    between atoms: N_4  and  S_1 
REMARK    2  A    between atoms: C_10  and  S_1 
REMARK    3  A    between atoms: N_3  and  C_2 
REMARK    4  A    between atoms: C_5  and  N_7 
REMARK    5  A    between atoms: C_6  and  C_9 
ROOT
ATOM      1  N   UNL d   1       0.433  -1.173   0.513  0.00  0.00    -0.203 NA
ATOM      2  N   UNL d   1       0.984  -3.743  -0.727  0.00  0.00    -0.377 N 
ATOM      3  C   UNL d   1       1.379  -2.148   1.163  0.00  0.00     0.127 C 
ATOM      4  C   UNL d   1      -0.572  -1.900  -0.326  0.00  0.00     0.127 C 
ATOM      5  C   UNL d   1       2.015  -3.149   0.154  0.00  0.00     0.138 C 
ATOM      6  C   UNL d   1       0.133  -2.739  -1.403  0.00  0.00     0.138 C 
ENDROOT
BRANCH   2   7
ATOM      7  C   UNL d   1       0.918  -5.074  -1.096  0.00  0.00     0.063 A 
ATOM      8  C   UNL d   1       1.987  -5.982  -1.225  0.00  0.00     0.130 A 
ATOM      9  C   UNL d   1       1.814  -7.340  -1.575  0.00  0.00     0.054 A 
ATOM     10  C   UNL d   1       0.536  -7.846  -1.828  0.00  0.00     0.050 A 
ATOM     11  C   UNL d   1      -0.549  -6.977  -1.702  0.00  0.00     0.018 A 
ATOM     12  C   UNL d   1      -0.355  -5.636  -1.339  0.00  0.00     0.032 A 
BRANCH   8  13
ATOM     13  N   UNL d   1       3.366  -5.559  -1.081  0.00  0.00    -0.113 N 
ATOM     14  O   UNL d   1       3.839  -4.836  -1.965  0.00  0.00    -0.532 OA
ATOM     15  O   UNL d   1       3.982  -5.998  -0.097  0.00  0.00    -0.532 OA
ENDBRANCH   8  13
BRANCH  10  16
ATOM     16  C   UNL d   1       0.310  -9.280  -2.235  0.00  0.00     0.417 C 
ATOM     17  F   UNL d   1       1.458 -10.004  -2.329  0.00  0.00    -0.166 F 
ATOM     18  F   UNL d   1      -0.487  -9.949  -1.358  0.00  0.00    -0.166 F 
ATOM     19  F   UNL d   1      -0.298  -9.382  -3.448  0.00  0.00    -0.166 F 
ENDBRANCH  10  16
ENDBRANCH   2   7
BRANCH   1  20
ATOM     20  S   UNL d   1       1.150   0.174  -0.245  0.00  0.00     0.243 S 
ATOM     21  O   UNL d   1       0.208   0.715  -1.202  0.00  0.00    -0.206 OA
ATOM     22  O   UNL d   1       2.495  -0.183  -0.631  0.00  0.00    -0.206 OA
BRANCH  20  23
ATOM     23  C   UNL d   1       1.245   1.355   1.078  0.00  0.00     0.074 A 
ATOM     24  C   UNL d   1       2.483   1.867   1.474  0.00  0.00     0.026 A 
ATOM     25  C   UNL d   1       2.526   2.901   2.413  0.00  0.00     0.025 A 
ATOM     26  C   UNL d   1       1.339   3.411   2.943  0.00  0.00     0.034 A 
ATOM     27  C   UNL d   1       0.105   2.885   2.559  0.00  0.00     0.025 A 
ATOM     28 CL   UNL d   1       1.397   4.717   4.061  0.00  0.00    -0.084 Cl
ATOM     29  C   UNL d   1       0.055   1.853   1.621  0.00  0.00     0.026 A 
ENDBRANCH  20  23
ENDBRANCH   1  20
TORSDOF 5
