REMARK  2 active torsions:
REMARK  status: ('A' for Active; 'I' for Inactive)
REMARK    1  A    between atoms: C_7  and  N_1 
REMARK    2  A    between atoms: S_10  and  C_2 
ROOT
ATOM      1  N   UNL d   1       2.429  -0.539  -0.115  0.00  0.00    -0.255 N 
ATOM      2  C   UNL d   1       2.296   0.843  -0.187  0.00  0.00     0.152 A 
ATOM      3  C   UNL d   1       1.306  -1.362   0.005  0.00  0.00     0.267 A 
ATOM      4  N   UNL d   1       1.161   1.461  -0.157  0.00  0.00    -0.336 N 
ATOM      5  HN  UNL d   1       1.122   2.480  -0.193  1.00  0.00     0.168 HD
ATOM      6  C   UNL d   1      -0.003  -0.684   0.003  0.00  0.00     0.059 A 
ATOM      7  C   UNL d   1      -0.012   0.707  -0.073  0.00  0.00     0.049 A 
ATOM      8  O   UNL d   1       1.348  -2.587   0.112  0.00  0.00    -0.267 OA
ATOM      9  C   UNL d   1      -1.198  -1.411   0.057  0.00  0.00     0.019 A 
ATOM     10  C   UNL d   1      -1.240   1.373  -0.088  0.00  0.00     0.030 A 
ATOM     11  C   UNL d   1      -2.418  -0.735   0.033  0.00  0.00     0.001 A 
ATOM     12  C   UNL d   1      -2.439   0.658  -0.037  0.00  0.00     0.002 A 
ENDROOT
BRANCH   1  13
ATOM     13  C   UNL d   1       3.687  -1.203  -0.180  0.00  0.00     0.088 A 
ATOM     14  C   UNL d   1       4.163  -1.699  -1.406  0.00  0.00     0.063 A 
ATOM     15 CL   UNL d   1       3.259  -1.526  -2.869  0.00  0.00    -0.082 Cl
ATOM     16  C   UNL d   1       5.415  -2.315  -1.481  0.00  0.00     0.026 A 
ATOM     17  C   UNL d   1       6.199  -2.450  -0.335  0.00  0.00     0.003 A 
ATOM     18  C   UNL d   1       5.727  -1.980   0.891  0.00  0.00     0.026 A 
ATOM     19  C   UNL d   1       4.474  -1.366   0.973  0.00  0.00     0.063 A 
ATOM     20 CL   UNL d   1       3.947  -0.802   2.519  0.00  0.00    -0.082 Cl
ENDBRANCH   1  13
BRANCH   2  21
ATOM     21  S   UNL d   1       3.703   1.885  -0.352  0.00  0.00    -0.106 SA
ATOM     22  H   UNL d   1       4.678   0.976  -0.353  0.00  0.00     0.110 HD
ENDBRANCH   2  21
TORSDOF 2
