REMARK  7 active torsions:
REMARK  status: ('A' for Active; 'I' for Inactive)
REMARK    1  A    between atoms: C_12  and  C_1 
REMARK    2  A    between atoms: C_2  and  N_13 
REMARK    3  A    between atoms: C_18  and  N_3 
REMARK    4  A    between atoms: C_16  and  N_6 
REMARK    5  A    between atoms: C_15  and  C_10 
REMARK       I    between atoms: N_13  and  C_12 
REMARK    6  A    between atoms: C_19  and  C_14 
REMARK    7  A    between atoms: C_27  and  C_18 
ROOT
ATOM      1  C   UNL d   1      -1.152  -2.920   0.821  0.00  0.00     0.275 C 
ATOM      2  N   UNL d   1      -2.267  -3.197   1.615  0.00  0.00    -0.306 N 
ATOM      3  O   UNL d   1      -0.422  -3.809   0.400  0.00  0.00    -0.266 OA
ATOM      4  H   UNL d   1      -2.934  -2.434   1.619  0.00  0.00     0.170 HD
ENDROOT
BRANCH   2   5
ATOM      5  C   UNL d   1      -2.886  -4.462   1.572  0.00  0.00     0.132 C 
ATOM      6  N   UNL d   1      -3.050  -5.330   2.663  0.00  0.00    -0.239 N 
ATOM      7  N   UNL d   1      -4.284  -5.889   2.623  0.00  0.00    -0.291 N 
ATOM      8  C   UNL d   1      -4.671  -5.781   1.355  0.00  0.00     0.069 C 
ATOM      9  HN  UNL d   1      -4.803  -6.303   3.397  1.00  0.00     0.187 HD
ATOM     10  C   UNL d   1      -3.809  -4.917   0.637  0.00  0.00     0.082 C 
BRANCH   6  11
ATOM     11  C   UNL d   1      -2.165  -5.790   3.683  0.00  0.00     0.058 A 
ATOM     12  C   UNL d   1      -2.684  -6.652   4.678  0.00  0.00     0.033 A 
ATOM     13  C   UNL d   1      -1.847  -7.283   5.598  0.00  0.00     0.020 A 
ATOM     14  C   UNL d   1      -0.480  -7.057   5.536  0.00  0.00     0.006 A 
ATOM     15  C   UNL d   1       0.046  -6.190   4.570  0.00  0.00     0.020 A 
ATOM     16  I   UNL d   1       0.781  -8.056   6.852  0.00  0.00    -0.045 I 
ATOM     17  C   UNL d   1      -0.792  -5.552   3.642  0.00  0.00     0.033 A 
ENDBRANCH   6  11
BRANCH   8  18
ATOM     18  C   UNL d   1      -5.942  -6.451   0.915  0.00  0.00     0.033 A 
ATOM     19  S   UNL d   1      -6.564  -6.455  -0.671  0.00  0.00    -0.100 SA
ATOM     20  C   UNL d   1      -7.947  -7.353  -0.195  0.00  0.00     0.050 A 
ATOM     21  C   UNL d   1      -7.933  -7.651   1.148  0.00  0.00     0.008 A 
ATOM     22  C   UNL d   1      -6.764  -7.143   1.786  0.00  0.00     0.021 A 
ENDBRANCH   8  18
ENDBRANCH   2   5
BRANCH   1  23
ATOM     23  C   UNL d   1      -0.887  -1.490   0.581  0.00  0.00     0.121 A 
ATOM     24  N   UNL d   1       0.358  -0.973   0.244  0.00  0.00    -0.282 N 
ATOM     25  N   UNL d   1       0.374   0.367   0.116  0.00  0.00    -0.301 N 
ATOM     26  C   UNL d   1      -0.890   0.763   0.269  0.00  0.00     0.036 A 
ATOM     27  HN  UNL d   1       1.186   0.958  -0.062  1.00  0.00     0.187 HD
ATOM     28  C   UNL d   1      -1.711  -0.362   0.572  0.00  0.00     0.064 A 
BRANCH  24  29
ATOM     29  C   UNL d   1       1.647  -1.651   0.128  0.00  0.00     0.188 C 
BRANCH  29  30
ATOM     30  C   UNL d   1       2.110  -1.834  -1.302  0.00  0.00    -0.038 A 
ATOM     31  C   UNL d   1       3.468  -1.653  -1.617  0.00  0.00     0.009 A 
ATOM     32  C   UNL d   1       3.943  -1.907  -2.905  0.00  0.00     0.001 A 
ATOM     33  C   UNL d   1       3.069  -2.341  -3.898  0.00  0.00     0.000 A 
ATOM     34  C   UNL d   1       1.718  -2.509  -3.607  0.00  0.00     0.001 A 
ATOM     35  C   UNL d   1       1.242  -2.263  -2.317  0.00  0.00     0.009 A 
ENDBRANCH  29  30
ENDBRANCH  24  29
BRANCH  26  36
ATOM     36  C   UNL d   1      -1.186   2.261   0.132  0.00  0.00    -0.007 C 
ATOM     37  C   UNL d   1      -2.688   2.589   0.218  0.00  0.00     0.021 C 
ATOM     38  C   UNL d   1      -0.463   3.046   1.252  0.00  0.00     0.021 C 
ATOM     39  C   UNL d   1      -0.669   2.805  -1.224  0.00  0.00     0.021 C 
ENDBRANCH  26  36
ENDBRANCH   1  23
TORSDOF 7
