REMARK  6 active torsions:
REMARK  status: ('A' for Active; 'I' for Inactive)
REMARK    1  A    between atoms: C_5  and  C_1 
REMARK    2  A    between atoms: C_2  and  C_4 
REMARK    3  A    between atoms: C_3  and  N_8 
REMARK    4  A    between atoms: N_9  and  C_3 
REMARK    5  A    between atoms: N_8  and  C_7 
REMARK    6  A    between atoms: C_19  and  N_9 
ROOT
ATOM      1  C   UNL d   1      -1.910   3.916  -5.886  0.00  0.00     0.050 A 
ATOM      2  C   UNL d   1      -2.135   4.864  -3.647  0.00  0.00     0.050 A 
ATOM      3  C   UNL d   1      -2.020   5.029  -5.037  0.00  0.00     0.032 A 
ATOM      4  C   UNL d   1      -2.055   2.445  -3.943  0.00  0.00     0.035 A 
ATOM      5  C   UNL d   1      -1.941   2.626  -5.325  0.00  0.00     0.045 A 
ATOM      6  C   UNL d   1      -2.152   3.563  -3.113  0.00  0.00     0.045 A 
ENDROOT
BRANCH   4   7
ATOM      7  N   UNL d   1      -1.942   1.175  -3.336  0.00  0.00    -0.333 N 
ATOM      8  H   UNL d   1      -1.751   1.163  -2.342  0.00  0.00     0.168 HD
BRANCH   7   9
ATOM      9  C   UNL d   1      -2.242  -0.059  -3.851  0.00  0.00     0.172 C 
ATOM     10  S   UNL d   1      -3.469  -0.430  -4.923  0.00  0.00    -0.041 SA
BRANCH   9  11
ATOM     11  N   UNL d   1      -1.467  -1.091  -3.390  0.00  0.00    -0.362 N 
ATOM     12  H   UNL d   1      -1.733  -1.973  -3.818  0.00  0.00     0.162 HD
BRANCH  11  13
ATOM     13  C   UNL d   1      -0.068  -0.991  -2.952  0.00  0.00     0.083 C 
ATOM     14  C   UNL d   1       0.838  -0.488  -4.087  0.00  0.00     0.025 C 
ATOM     15  C   UNL d   1       0.966  -1.515  -5.211  0.00  0.00     0.002 C 
ATOM     16  C   UNL d   1       1.518  -2.833  -4.681  0.00  0.00     0.000 C 
ATOM     17  C   UNL d   1       0.676  -3.377  -3.531  0.00  0.00     0.002 C 
ATOM     18  C   UNL d   1       0.441  -2.343  -2.425  0.00  0.00     0.025 C 
ENDBRANCH  11  13
ENDBRANCH   9  11
ENDBRANCH   7   9
ENDBRANCH   4   7
BRANCH   2  19
ATOM     19  C   UNL d   1      -2.231   6.061  -2.729  0.00  0.00     0.417 C 
ATOM     20  F   UNL d   1      -1.766   7.210  -3.298  0.00  0.00    -0.166 F 
ATOM     21  F   UNL d   1      -1.516   5.898  -1.584  0.00  0.00    -0.166 F 
ATOM     22  F   UNL d   1      -3.509   6.320  -2.345  0.00  0.00    -0.166 F 
ENDBRANCH   2  19
BRANCH   1  23
ATOM     23  C   UNL d   1      -1.713   4.082  -7.373  0.00  0.00     0.417 C 
ATOM     24  F   UNL d   1      -1.593   5.383  -7.758  0.00  0.00    -0.166 F 
ATOM     25  F   UNL d   1      -0.588   3.459  -7.819  0.00  0.00    -0.166 F 
ATOM     26  F   UNL d   1      -2.742   3.571  -8.101  0.00  0.00    -0.166 F 
ENDBRANCH   1  23
TORSDOF 6
