REMARK  0 active torsions:
REMARK  status: ('A' for Active; 'I' for Inactive)
ROOT
ATOM      1  C   UNL d   1       0.011  -0.715   0.057  0.00  0.00     0.101 A 
ATOM      2  C   UNL d   1      -0.003   0.630   0.063  0.00  0.00     0.077 A 
ATOM      3  N   UNL d   1       1.216  -1.384  -0.060  0.00  0.00    -0.293 N 
ATOM      4  N   UNL d   1       2.419   0.649  -0.002  0.00  0.00    -0.270 N 
ATOM      5  C   UNL d   1       2.452  -0.734  -0.082  0.00  0.00     0.332 A 
ATOM      6  C   UNL d   1       1.259   1.389   0.053  0.00  0.00     0.262 A 
ATOM      7  N   UNL d   1      -1.204  -1.384   0.184  0.00  0.00    -0.252 NA
ATOM      8  C   UNL d   1      -1.277   1.436   0.077  0.00  0.00     0.321 C 
ATOM      9  N   UNL d   1      -2.459   0.661  -0.349  0.00  0.00     0.101 N 
ATOM     10  C   UNL d   1      -2.429  -0.618   0.343  0.00  0.00     0.368 C 
ATOM     11  O   UNL d   1       3.512  -1.362  -0.157  0.00  0.00    -0.246 OA
ATOM     12  O   UNL d   1       1.237   2.621   0.112  0.00  0.00    -0.267 OA
ATOM     13  C   UNL d   1       1.278  -2.838  -0.111  0.00  0.00     0.162 C 
ATOM     14  C   UNL d   1       3.669   1.383   0.038  0.00  0.00     0.164 C 
ATOM     15  C   UNL d   1      -3.695   1.389  -0.094  0.00  0.00     0.311 C 
ATOM     16  H   UNL d   1      -1.300  -2.129  -0.497  0.00  0.00     0.130 HD
ENDROOT
TORSDOF 0
