REMARK  3 active torsions:
REMARK  status: ('A' for Active; 'I' for Inactive)
REMARK       I    between atoms: N_5  and  C_1 
REMARK    1  A    between atoms: C_6  and  C_1 
REMARK    2  A    between atoms: N_3  and  C_6 
REMARK    3  A    between atoms: C_8  and  N_5 
ROOT
ATOM      1  N   UNL d   1       3.223  -5.160   2.950  0.00  0.00    -0.191 NA
ATOM      2  C   UNL d   1       3.178  -4.620   1.922  0.00  0.00     0.099 C 
ATOM      3  C   UNL d   1       2.285  -2.143  -0.725  0.00  0.00     0.036 A 
ATOM      4  C   UNL d   1       3.123  -3.962   0.651  0.00  0.00     0.046 A 
ATOM      5  C   UNL d   1       2.344  -2.810   0.502  0.00  0.00     0.052 A 
ATOM      6  C   UNL d   1       3.763  -3.821  -1.673  0.00  0.00     0.004 A 
ATOM      7  C   UNL d   1       2.974  -2.675  -1.821  0.00  0.00     0.029 A 
ATOM      8  C   UNL d   1       3.845  -4.459  -0.436  0.00  0.00     0.023 A 
ENDROOT
BRANCH   3   9
ATOM      9  N   UNL d   1       1.564  -0.945  -0.908  0.00  0.00    -0.326 N 
ATOM     10  C   UNL d   1       1.175  -0.082   0.103  0.00  0.00     0.250 C 
ATOM     11  O   UNL d   1       1.435  -0.221   1.301  0.00  0.00    -0.271 OA
ATOM     12  H   UNL d   1       1.436  -0.626  -1.861  0.00  0.00     0.169 HD
BRANCH  10  13
ATOM     13  C   UNL d   1       0.401   1.149  -0.372  0.00  0.00     0.375 C 
BRANCH  13  14
ATOM     14  N   UNL d   1      -1.065   0.959  -0.289  0.00  0.00     0.101 N 
ATOM     15  C   UNL d   1      -1.762   2.225  -0.632  0.00  0.00     0.299 C 
ATOM     16  C   UNL d   1      -1.644   3.324   0.445  0.00  0.00     0.198 C 
ATOM     17  O   UNL d   1      -2.079   2.861   1.728  0.00  0.00    -0.388 OA
ATOM     18  C   UNL d   1      -1.369   1.679   2.122  0.00  0.00     0.198 C 
ATOM     19  C   UNL d   1      -1.530   0.571   1.069  0.00  0.00     0.299 C 
ENDBRANCH  13  14
ENDBRANCH  10  13
ENDBRANCH   3   9
TORSDOF 3
