REMARK  6 active torsions:
REMARK  status: ('A' for Active; 'I' for Inactive)
REMARK    1  A    between atoms: N_2  and  C_1 
REMARK    2  A    between atoms: C_3  and  C_1 
REMARK    3  A    between atoms: C_4  and  C_1 
REMARK    4  A    between atoms: N_5  and  C_1 
REMARK       I    between atoms: C_6  and  N_2 
REMARK    5  A    between atoms: O_14  and  C_6 
REMARK    6  A    between atoms: C_17  and  O_14 
ROOT
ATOM      1  C   UNL d   1       0.898   0.094  -0.102  0.00  0.00     0.429 C 
ENDROOT
BRANCH   1   2
ATOM      2  N   UNL d   1       0.448   0.289  -1.502  0.00  0.00    -0.286 N 
ATOM      3  C   UNL d   1      -0.851   0.223  -1.855  0.00  0.00     0.363 C 
ATOM      4  O   UNL d   1      -1.776   0.113  -1.061  0.00  0.00    -0.238 OA
ATOM      5  H   UNL d   1       1.112   0.263  -2.259  0.00  0.00     0.168 HD
BRANCH   3   6
ATOM      6  O   UNL d   1      -0.945   0.215  -3.201  0.00  0.00    -0.304 OA
BRANCH   6   7
ATOM      7  C   UNL d   1      -2.240  -0.091  -3.735  0.00  0.00     0.176 C 
ATOM      8  C   UNL d   1      -2.366  -1.595  -3.902  0.00  0.00     0.034 C 
ENDBRANCH   6   7
ENDBRANCH   3   6
ENDBRANCH   1   2
BRANCH   1   9
ATOM      9  C   UNL d   1       0.295  -1.234   0.536  0.00  0.00     0.452 C 
ATOM     10  F   UNL d   1       0.091  -2.169  -0.441  0.00  0.00    -0.166 F 
ATOM     11  F   UNL d   1       1.165  -1.804   1.411  0.00  0.00    -0.166 F 
ATOM     12  F   UNL d   1      -0.879  -1.117   1.181  0.00  0.00    -0.166 F 
ENDBRANCH   1   9
BRANCH   1  13
ATOM     13  C   UNL d   1       0.399   1.260   0.862  0.00  0.00     0.452 C 
ATOM     14  F   UNL d   1      -0.204   2.249   0.144  0.00  0.00    -0.166 F 
ATOM     15  F   UNL d   1      -0.461   0.913   1.836  0.00  0.00    -0.166 F 
ATOM     16  F   UNL d   1       1.433   1.870   1.504  0.00  0.00    -0.166 F 
ENDBRANCH   1  13
BRANCH   1  17
ATOM     17  N   UNL d   1       2.426   0.024  -0.243  0.00  0.00     0.136 N 
ATOM     18  C   UNL d   1       2.934  -1.169  -0.942  0.00  0.00     0.276 C 
ATOM     19  C   UNL d   1       4.458  -1.292  -0.834  0.00  0.00     0.030 C 
ATOM     20  C   UNL d   1       5.158  -0.021  -1.296  0.00  0.00     0.003 C 
ATOM     21  C   UNL d   1       4.594   1.179  -0.549  0.00  0.00     0.030 C 
ATOM     22  C   UNL d   1       3.074   1.259  -0.713  0.00  0.00     0.276 C 
ENDBRANCH   1  17
TORSDOF 6
