REMARK  2 active torsions:
REMARK  status: ('A' for Active; 'I' for Inactive)
REMARK    1  A    between atoms: C_6  and  N_1 
REMARK    2  A    between atoms: C_7  and  C_6 
ROOT
ATOM      1  C   UNL d   1      -1.843  -3.739   1.160  0.00  0.00     0.069 C 
ATOM      2  N   UNL d   1      -3.927  -2.437   2.140  0.00  0.00    -0.196 NA
ATOM      3  C   UNL d   1      -3.005  -2.999   1.718  0.00  0.00     0.071 C 
ATOM      4  C   UNL d   1      -2.518  -6.149   1.780  0.00  0.00    -0.029 C 
ATOM      5  C   UNL d   1      -1.978  -6.005   2.996  0.00  0.00    -0.031 C 
ATOM      6  C   UNL d   1      -2.346  -5.137   0.690  0.00  0.00     0.053 C 
ATOM      7  C   UNL d   1      -0.760  -3.887   2.250  0.00  0.00     0.030 C 
ATOM      8  C   UNL d   1      -1.141  -4.832   3.400  0.00  0.00     0.028 C 
ENDROOT
BRANCH   1   9
ATOM      9  C   UNL d   1      -1.302  -3.013  -0.106  0.00  0.00     0.157 C 
BRANCH   9  10
ATOM     10  N   UNL d   1      -0.524  -1.799   0.075  0.00  0.00    -0.311 N 
ATOM     11  C   UNL d   1       0.885  -1.765   0.023  0.00  0.00     0.292 A 
ATOM     12  C   UNL d   1       1.321  -0.244   0.042  0.00  0.00     0.280 A 
ATOM     13  O   UNL d   1       1.625  -2.739  -0.045  0.00  0.00    -0.266 OA
ATOM     14  O   UNL d   1       2.028   0.134  -1.145  0.00  0.00    -0.342 OA
ATOM     15  O   UNL d   1       2.085   0.101   1.200  0.00  0.00    -0.342 OA
ATOM     16  C   UNL d   1      -0.017   0.445   0.081  0.00  0.00     0.040 A 
ATOM     17  C   UNL d   1       3.149   0.885  -0.680  0.00  0.00     0.198 C 
ATOM     18  C   UNL d   1       3.398   0.337   0.697  0.00  0.00     0.198 C 
ATOM     19  C   UNL d   1      -1.049  -0.498   0.090  0.00  0.00     0.049 A 
ATOM     20  C   UNL d   1      -0.293   1.806   0.077  0.00  0.00     0.015 A 
ATOM     21  C   UNL d   1      -2.374  -0.103   0.087  0.00  0.00     0.030 A 
ATOM     22  C   UNL d   1      -2.659   1.264   0.107  0.00  0.00     0.002 A 
ATOM     23  C   UNL d   1      -1.627   2.213   0.098  0.00  0.00     0.001 A 
ENDBRANCH   9  10
ENDBRANCH   1   9
TORSDOF 2
