REMARK  6 active torsions:
REMARK  status: ('A' for Active; 'I' for Inactive)
REMARK    1  A    between atoms: N_2  and  C_1 
REMARK    2  A    between atoms: N_3  and  C_6 
REMARK    3  A    between atoms: C_5  and  C_8 
REMARK    4  A    between atoms: S_11  and  C_7 
REMARK    5  A    between atoms: C_20  and  S_11 
REMARK    6  A    between atoms: C_21  and  C_20 
ROOT
ATOM      1  C   UNL d   1       1.169   0.045   1.198  0.00  0.00     0.122 A 
ATOM      2  C   UNL d   1       0.414  -1.140   1.207  0.00  0.00     0.073 A 
ATOM      3  C   UNL d   1      -0.470  -1.382   0.153  0.00  0.00     0.105 A 
ATOM      4  C   UNL d   1       1.091   0.987   0.159  0.00  0.00     0.034 A 
ATOM      5  C   UNL d   1      -0.600  -0.451  -0.885  0.00  0.00     0.037 A 
ATOM      6  C   UNL d   1       0.176   0.720  -0.876  0.00  0.00     0.023 A 
ENDROOT
BRANCH   4   7
ATOM      7  S   UNL d   1       1.958   2.557   0.087  0.00  0.00    -0.123 SA
BRANCH   7   8
ATOM      8  C   UNL d   1       3.631   2.011  -0.404  0.00  0.00     0.118 C 
BRANCH   8   9
ATOM      9  C   UNL d   1       4.526   3.151  -0.835  0.00  0.00    -0.048 A 
ATOM     10  C   UNL d   1       4.693   3.458  -2.195  0.00  0.00     0.024 A 
ATOM     11  C   UNL d   1       5.603   4.448  -2.610  0.00  0.00     0.048 A 
ATOM     12  C   UNL d   1       6.331   5.151  -1.641  0.00  0.00     0.016 A 
ATOM     13  C   UNL d   1       6.152   4.876  -0.285  0.00  0.00     0.001 A 
ATOM     14  C   UNL d   1       5.255   3.882   0.114  0.00  0.00     0.008 A 
BRANCH  11  15
ATOM     15  C   UNL d   1       5.830   4.741  -4.073  0.00  0.00     0.417 C 
ATOM     16  F   UNL d   1       5.052   3.993  -4.906  0.00  0.00    -0.166 F 
ATOM     17  F   UNL d   1       5.579   6.040  -4.395  0.00  0.00    -0.166 F 
ATOM     18  F   UNL d   1       7.116   4.503  -4.457  0.00  0.00    -0.166 F 
ENDBRANCH  11  15
ENDBRANCH   8   9
ENDBRANCH   7   8
ENDBRANCH   4   7
BRANCH   1  19
ATOM     19  N   UNL d   1       2.000   0.277   2.359  0.00  0.00    -0.114 N 
ATOM     20  O   UNL d   1       1.416   0.514   3.423  0.00  0.00    -0.532 OA
ATOM     21  O   UNL d   1       3.220   0.140   2.215  0.00  0.00    -0.532 OA
ENDBRANCH   1  19
BRANCH   3  22
ATOM     22  N   UNL d   1      -1.278  -2.610   0.149  0.00  0.00    -0.116 N 
ATOM     23  O   UNL d   1      -1.090  -3.420   1.064  0.00  0.00    -0.532 OA
ATOM     24  O   UNL d   1      -2.092  -2.759  -0.773  0.00  0.00    -0.532 OA
ENDBRANCH   3  22
TORSDOF 6
