REMARK  5 active torsions:
REMARK  status: ('A' for Active; 'I' for Inactive)
REMARK    1  A    between atoms: C_7  and  C_1 
REMARK    2  A    between atoms: C_8  and  N_2 
REMARK    3  A    between atoms: O_12  and  C_7 
REMARK    4  A    between atoms: C_18  and  O_12 
REMARK    5  A    between atoms: N_15  and  C_13 
ROOT
ATOM      1  C   UNL d   1      -0.272   1.246   0.021  0.00  0.00     0.080 C 
ATOM      2  N   UNL d   1       1.046  -0.537  -0.159  0.00  0.00    -0.260 N 
ATOM      3  C   UNL d   1       1.058   0.847  -0.034  0.00  0.00     0.048 C 
ATOM      4  N   UNL d   1      -0.210  -0.992  -0.416  0.00  0.00    -0.304 N 
ATOM      5  HN  UNL d   1      -0.488  -1.934  -0.689  1.00  0.00     0.186 HD
ATOM      6  C   UNL d   1      -0.995   0.068  -0.232  0.00  0.00     0.127 C 
ATOM      7  C   UNL d   1       2.279   1.701  -0.041  0.00  0.00     0.071 C 
ENDROOT
BRANCH   2   8
ATOM      8  C   UNL d   1       2.124  -1.461  -0.074  0.00  0.00     0.056 A 
ATOM      9  C   UNL d   1       3.270  -1.179   0.677  0.00  0.00     0.033 A 
ATOM     10  C   UNL d   1       4.351  -2.066   0.667  0.00  0.00     0.025 A 
ATOM     11  C   UNL d   1       4.289  -3.265  -0.046  0.00  0.00     0.005 A 
ATOM     12  C   UNL d   1       3.138  -3.544  -0.787  0.00  0.00     0.025 A 
ATOM     13  C   UNL d   1       2.045  -2.671  -0.773  0.00  0.00     0.033 A 
BRANCH  11  14
ATOM     14  N   UNL d   1       5.438  -4.046  -0.205  0.00  0.00    -0.303 NA
ATOM     15  H   UNL d   1       5.251  -5.008  -0.469  0.00  0.00     0.124 HD
ATOM     16  H   UNL d   1       6.098  -3.974   0.563  0.00  0.00     0.124 HD
ENDBRANCH  11  14
ENDBRANCH   2   8
BRANCH   1  17
ATOM     17  C   UNL d   1      -0.767   2.586   0.261  0.00  0.00     0.296 C 
ATOM     18  O   UNL d   1      -0.042   3.545   0.488  0.00  0.00    -0.259 OA
BRANCH  17  19
ATOM     19  O   UNL d   1      -2.132   2.638   0.279  0.00  0.00    -0.318 OA
BRANCH  19  20
ATOM     20  C   UNL d   1      -2.686   3.876   0.748  0.00  0.00     0.174 C 
ATOM     21  C   UNL d   1      -2.774   3.835   2.263  0.00  0.00     0.034 C 
ENDBRANCH  19  20
ENDBRANCH  17  19
ENDBRANCH   1  17
TORSDOF 5
