REMARK  5 active torsions:
REMARK  status: ('A' for Active; 'I' for Inactive)
REMARK    1  A    between atoms: C_7  and  N_1 
REMARK    2  A    between atoms: C_15  and  N_5 
REMARK    3  A    between atoms: C_14  and  C_7 
REMARK    4  A    between atoms: C_9  and  C_10 
REMARK    5  A    between atoms: C_18  and  C_14 
ROOT
ATOM      1  N   UNL d   1      -0.412   1.003   0.007  0.00  0.00    -0.297 N 
ATOM      2  C   UNL d   1       0.874   0.543   0.130  0.00  0.00     0.150 C 
ATOM      3  C   UNL d   1      -1.409   0.049  -0.014  0.00  0.00     0.235 C 
ATOM      4  S   UNL d   1       0.870  -1.171   0.466  0.00  0.00    -0.084 SA
ATOM      5  N   UNL d   1       1.891   1.327  -0.013  0.00  0.00    -0.337 N 
ATOM      6  HN  UNL d   1       1.713   2.324  -0.135  1.00  0.00     0.168 HD
ATOM      7  C   UNL d   1      -0.856  -1.349   0.015  0.00  0.00     0.185 C 
ATOM      8  O   UNL d   1      -2.615   0.275  -0.102  0.00  0.00    -0.272 OA
ENDROOT
BRANCH   1   9
ATOM      9  C   UNL d   1      -0.736   2.435  -0.027  0.00  0.00     0.140 C 
BRANCH   9  10
ATOM     10  C   UNL d   1      -0.217   3.160  -1.274  0.00  0.00     0.077 C 
BRANCH  10  11
ATOM     11  C   UNL d   1      -0.569   4.630  -1.331  0.00  0.00     0.010 A 
ATOM     12  N   UNL d   1      -1.305   5.167  -0.329  0.00  0.00    -0.369 N 
ATOM     13  C   UNL d   1      -1.600   6.485  -0.411  0.00  0.00     0.088 A 
ATOM     14  HN  UNL d   1      -1.624   4.601   0.456  1.00  0.00     0.165 HD
ATOM     15  C   UNL d   1      -1.196   7.305  -1.450  0.00  0.00     0.017 A 
ATOM     16  C   UNL d   1      -0.438   6.743  -2.468  0.00  0.00     0.003 A 
ATOM     17  C   UNL d   1      -0.116   5.390  -2.409  0.00  0.00     0.025 A 
ENDBRANCH  10  11
ENDBRANCH   9  10
ENDBRANCH   1   9
BRANCH   5  18
ATOM     18  C   UNL d   1       3.224   0.892  -0.010  0.00  0.00     0.034 A 
ATOM     19  C   UNL d   1       3.662  -0.221  -0.726  0.00  0.00     0.030 A 
ATOM     20  C   UNL d   1       4.995  -0.624  -0.692  0.00  0.00     0.010 A 
ATOM     21  C   UNL d   1       5.969   0.133  -0.025  0.00  0.00    -0.051 A 
ATOM     22  C   UNL d   1       5.538   1.302   0.623  0.00  0.00     0.010 A 
ATOM     23  C   UNL d   1       4.184   1.670   0.635  0.00  0.00     0.030 A 
BRANCH  21  24
ATOM     24  C   UNL d   1       7.431  -0.333  -0.053  0.00  0.00    -0.024 C 
ATOM     25  C   UNL d   1       8.399   0.656   0.627  0.00  0.00     0.019 C 
ATOM     26  C   UNL d   1       7.552  -1.691   0.674  0.00  0.00     0.019 C 
ATOM     27  C   UNL d   1       7.900  -0.506  -1.515  0.00  0.00     0.019 C 
ENDBRANCH  21  24
ENDBRANCH   5  18
TORSDOF 5
