REMARK  8 active torsions:
REMARK  status: ('A' for Active; 'I' for Inactive)
REMARK    1  A    between atoms: C_8  and  N_1 
REMARK    2  A    between atoms: C_11  and  C_2 
REMARK    3  A    between atoms: N_3  and  O_10 
REMARK    4  A    between atoms: C_5  and  C_16 
REMARK    5  A    between atoms: O_10  and  C_5 
REMARK    6  A    between atoms: C_7  and  C_12 
REMARK    7  A    between atoms: N_9  and  C_11 
REMARK    8  A    between atoms: O_25  and  C_15 
ROOT
ATOM      1  N   UNL d   1      -3.922   3.659  -2.333  0.00  0.00    -0.261 N 
ATOM      2  HN  UNL d   1      -4.187   3.160  -3.182  1.00  0.00     0.194 HD
ATOM      3  C   UNL d   1      -3.957   4.957  -2.241  0.00  0.00     0.039 C 
ATOM      4  C   UNL d   1      -3.462   5.711  -1.030  0.00  0.00     0.071 C 
ENDROOT
BRANCH   3   5
ATOM      5  C   UNL d   1      -4.611   5.705  -3.370  0.00  0.00    -0.011 A 
ATOM      6  C   UNL d   1      -4.663   5.114  -4.645  0.00  0.00     0.025 A 
ATOM      7  C   UNL d   1      -5.544   5.560  -5.675  0.00  0.00     0.004 A 
ATOM      8  C   UNL d   1      -6.336   6.689  -5.396  0.00  0.00     0.076 A 
ATOM      9  C   UNL d   1      -6.194   7.332  -4.146  0.00  0.00     0.038 A 
ATOM     10  C   UNL d   1      -5.365   6.844  -3.134  0.00  0.00     0.016 A 
BRANCH   7  11
ATOM     11  C   UNL d   1      -5.676   4.588  -6.842  0.00  0.00     0.314 C 
BRANCH  11  12
ATOM     12  N   UNL d   1      -5.607   5.126  -8.203  0.00  0.00     0.096 N 
ATOM     13  C   UNL d   1      -4.287   5.639  -8.607  0.00  0.00     0.299 C 
ATOM     14  C   UNL d   1      -3.276   4.571  -9.063  0.00  0.00     0.198 C 
ATOM     15  O   UNL d   1      -3.828   3.681 -10.041  0.00  0.00    -0.388 OA
ATOM     16  C   UNL d   1      -5.024   3.067  -9.551  0.00  0.00     0.198 C 
ATOM     17  C   UNL d   1      -6.070   4.134  -9.199  0.00  0.00     0.299 C 
ENDBRANCH  11  12
ENDBRANCH   7  11
BRANCH   8  18
ATOM     18  O   UNL d   1      -7.339   7.297  -6.092  0.00  0.00    -0.355 OA
ATOM     19  C   UNL d   1      -7.738   6.877  -7.379  0.00  0.00     0.210 C 
ENDBRANCH   8  18
ENDBRANCH   3   5
BRANCH   1  20
ATOM     20  O   UNL d   1      -3.487   2.998  -1.161  0.00  0.00    -0.195 OA
BRANCH  20  21
ATOM     21  C   UNL d   1      -4.061   1.748  -1.150  0.00  0.00     0.315 C 
ATOM     22  O   UNL d   1      -4.879   1.317  -1.954  0.00  0.00    -0.257 OA
BRANCH  21  23
ATOM     23  C   UNL d   1      -3.586   0.889  -0.024  0.00  0.00     0.041 A 
ATOM     24  C   UNL d   1      -2.640   1.292   0.927  0.00  0.00     0.020 A 
ATOM     25  C   UNL d   1      -2.208   0.392   1.919  0.00  0.00     0.037 A 
ATOM     26  C   UNL d   1      -2.736  -0.913   1.960  0.00  0.00     0.102 A 
ATOM     27  C   UNL d   1      -3.698  -1.317   1.032  0.00  0.00     0.037 A 
ATOM     28  C   UNL d   1      -4.118  -0.414   0.048  0.00  0.00     0.020 A 
BRANCH  26  29
ATOM     29  N   UNL d   1      -2.267  -1.869   2.975  0.00  0.00    -0.116 N 
ATOM     30  O   UNL d   1      -2.788  -2.992   2.994  0.00  0.00    -0.532 OA
ATOM     31  O   UNL d   1      -1.372  -1.491   3.746  0.00  0.00    -0.532 OA
ENDBRANCH  26  29
ENDBRANCH  21  23
ENDBRANCH  20  21
ENDBRANCH   1  20
TORSDOF 8
