REMARK  4 active torsions:
REMARK  status: ('A' for Active; 'I' for Inactive)
REMARK    1  A    between atoms: C_4  and  C_1 
REMARK       I    between atoms: C_2  and  N_3 
REMARK    2  A    between atoms: C_6  and  C_2 
REMARK    3  A    between atoms: N_3  and  C_8 
REMARK    4  A    between atoms: C_5  and  C_7 
ROOT
ATOM      1  C   UNL d   1       2.917  -4.723   0.678  0.00  0.00     0.256 C 
ATOM      2  N   UNL d   1       1.604  -4.810   0.247  0.00  0.00    -0.323 N 
ATOM      3  O   UNL d   1       3.777  -5.591   0.592  0.00  0.00    -0.267 OA
ATOM      4  H   UNL d   1       1.018  -3.997   0.380  0.00  0.00     0.169 HD
ENDROOT
BRANCH   1   5
ATOM      5  C   UNL d   1       3.312  -3.402   1.239  0.00  0.00     0.032 A 
ATOM      6  C   UNL d   1       2.442  -2.614   1.994  0.00  0.00     0.018 A 
ATOM      7  C   UNL d   1       2.854  -1.349   2.435  0.00  0.00     0.013 A 
ATOM      8  C   UNL d   1       4.129  -0.834   2.132  0.00  0.00    -0.023 A 
ATOM      9  C   UNL d   1       4.999  -1.664   1.404  0.00  0.00     0.013 A 
ATOM     10  C   UNL d   1       4.603  -2.935   0.971  0.00  0.00     0.018 A 
BRANCH   8  11
ATOM     11  C   UNL d   1       4.536   0.525   2.564  0.00  0.00     0.013 A 
ATOM     12  C   UNL d   1       3.632   1.604   2.589  0.00  0.00     0.127 A 
ATOM     13  F   UNL d   1       2.360   1.437   2.192  0.00  0.00    -0.205 F 
ATOM     14  C   UNL d   1       4.008   2.880   3.008  0.00  0.00     0.043 A 
ATOM     15  C   UNL d   1       5.318   3.122   3.403  0.00  0.00     0.003 A 
ATOM     16  C   UNL d   1       6.245   2.084   3.377  0.00  0.00     0.001 A 
ATOM     17  C   UNL d   1       5.857   0.802   2.968  0.00  0.00     0.015 A 
ENDBRANCH   8  11
ENDBRANCH   1   5
BRANCH   2  18
ATOM     18  C   UNL d   1       1.027  -5.853  -0.512  0.00  0.00     0.035 A 
ATOM     19  C   UNL d   1       1.733  -6.975  -0.950  0.00  0.00     0.045 A 
ATOM     20  C   UNL d   1       1.131  -7.925  -1.794  0.00  0.00     0.050 A 
ATOM     21  C   UNL d   1      -0.211  -7.756  -2.162  0.00  0.00     0.016 A 
ATOM     22  C   UNL d   1      -0.932  -6.657  -1.704  0.00  0.00     0.003 A 
ATOM     23  C   UNL d   1      -0.313  -5.706  -0.890  0.00  0.00     0.029 A 
BRANCH  20  24
ATOM     24  C   UNL d   1       1.925  -9.086  -2.337  0.00  0.00     0.417 C 
ATOM     25  F   UNL d   1       3.211  -9.138  -1.896  0.00  0.00    -0.166 F 
ATOM     26  F   UNL d   1       2.001  -9.062  -3.699  0.00  0.00    -0.166 F 
ATOM     27  F   UNL d   1       1.371 -10.290  -2.020  0.00  0.00    -0.166 F 
ENDBRANCH  20  24
ENDBRANCH   2  18
TORSDOF 4
