REMARK  9 active torsions:
REMARK  status: ('A' for Active; 'I' for Inactive)
REMARK    1  A    between atoms: C_2  and  C_1 
REMARK    2  A    between atoms: C_11  and  C_3 
REMARK    3  A    between atoms: C_12  and  C_4 
REMARK    4  A    between atoms: N_13  and  N_5 
REMARK    5  A    between atoms: N_14  and  N_7 
REMARK       I    between atoms: C_9  and  N_13 
REMARK    6  A    between atoms: O_18  and  C_9 
REMARK       I    between atoms: C_10  and  N_14 
REMARK    7  A    between atoms: O_17  and  C_10 
REMARK    8  A    between atoms: C_26  and  O_17 
REMARK    9  A    between atoms: C_25  and  O_18 
ROOT
ATOM      1  C   UNL d   1       3.408  -1.998  -0.090  0.00  0.00    -0.013 A 
ATOM      2  C   UNL d   1       3.967  -2.428  -1.331  0.00  0.00    -0.001 A 
ATOM      3  C   UNL d   1       3.740  -0.684   0.324  0.00  0.00     0.013 A 
ATOM      4  C   UNL d   1       4.762  -1.540  -2.092  0.00  0.00     0.014 A 
ATOM      5  C   UNL d   1       4.521   0.181  -0.445  0.00  0.00     0.001 A 
ATOM      6  C   UNL d   1       5.040  -0.249  -1.652  0.00  0.00     0.001 A 
ENDROOT
BRANCH   1   7
ATOM      7  C   UNL d   1       2.610  -2.844   0.856  0.00  0.00    -0.013 A 
ATOM      8  C   UNL d   1       1.448  -2.429   1.575  0.00  0.00    -0.001 A 
ATOM      9  C   UNL d   1       0.833  -3.312   2.491  0.00  0.00     0.014 A 
ATOM     10  C   UNL d   1       1.343  -4.584   2.733  0.00  0.00     0.001 A 
ATOM     11  C   UNL d   1       2.476  -5.000   2.058  0.00  0.00     0.001 A 
ATOM     12  C   UNL d   1       3.103  -4.138   1.156  0.00  0.00     0.013 A 
BRANCH   8  13
ATOM     13  C   UNL d   1       0.802  -1.062   1.466  0.00  0.00     0.033 C 
ATOM     14  N   UNL d   1       0.777  -0.440   0.325  0.00  0.00    -0.300 N 
ATOM     15  HN  UNL d   1       1.184  -0.864  -0.508  1.00  0.00     0.186 HD
ATOM     16  C   UNL d   1       0.222  -0.466   2.747  0.00  0.00     0.070 C 
BRANCH  14  17
ATOM     17  N   UNL d   1       0.193   0.796   0.265  0.00  0.00    -0.245 N 
ATOM     18  C   UNL d   1       0.527   1.694  -0.721  0.00  0.00     0.379 C 
ATOM     19  O   UNL d   1       1.259   1.496  -1.680  0.00  0.00    -0.237 OA
ATOM     20  H   UNL d   1      -0.346   1.163   1.032  0.00  0.00     0.192 HD
BRANCH  18  21
ATOM     21  O   UNL d   1      -0.035   2.895  -0.420  0.00  0.00    -0.303 OA
BRANCH  21  22
ATOM     22  C   UNL d   1       0.418   4.005  -1.216  0.00  0.00     0.176 C 
ATOM     23  C   UNL d   1       1.630   4.632  -0.550  0.00  0.00     0.034 C 
ENDBRANCH  21  22
ENDBRANCH  18  21
ENDBRANCH  14  17
ENDBRANCH   8  13
ENDBRANCH   1   7
BRANCH   2  24
ATOM     24  C   UNL d   1       3.808  -3.813  -1.922  0.00  0.00     0.033 C 
ATOM     25  N   UNL d   1       2.694  -4.468  -1.768  0.00  0.00    -0.300 N 
ATOM     26  HN  UNL d   1       1.915  -4.056  -1.254  1.00  0.00     0.186 HD
ATOM     27  C   UNL d   1       5.009  -4.394  -2.665  0.00  0.00     0.070 C 
BRANCH  25  28
ATOM     28  N   UNL d   1       2.588  -5.721  -2.311  0.00  0.00    -0.245 N 
ATOM     29  C   UNL d   1       1.700  -6.638  -1.814  0.00  0.00     0.379 C 
ATOM     30  O   UNL d   1       0.868  -6.464  -0.933  0.00  0.00    -0.237 OA
ATOM     31  H   UNL d   1       3.273  -6.070  -2.965  0.00  0.00     0.192 HD
BRANCH  29  32
ATOM     32  O   UNL d   1       1.947  -7.844  -2.404  0.00  0.00    -0.303 OA
BRANCH  32  33
ATOM     33  C   UNL d   1       1.257  -8.966  -1.829  0.00  0.00     0.176 C 
ATOM     34  C   UNL d   1       2.101  -9.549  -0.712  0.00  0.00     0.034 C 
ENDBRANCH  32  33
ENDBRANCH  29  32
ENDBRANCH  25  28
ENDBRANCH   2  24
TORSDOF 9
