REMARK  5 active torsions:
REMARK  status: ('A' for Active; 'I' for Inactive)
REMARK    1  A    between atoms: C_2  and  C_1 
REMARK       I    between atoms: N_5  and  C_1 
REMARK    2  A    between atoms: C_3  and  C_7 
REMARK    3  A    between atoms: C_4  and  C_6 
REMARK    4  A    between atoms: C_14  and  C_8 
REMARK    5  A    between atoms: O_26  and  C_8 
ROOT
ATOM      1  C   UNL d   1       1.009   0.041  -0.081  0.00  0.00     0.253 C 
ATOM      2  N   UNL d   1       0.417   0.781   0.945  0.00  0.00    -0.348 N 
ATOM      3  C   UNL d   1      -1.645   2.699   1.589  0.00  0.00     0.088 C 
ATOM      4  C   UNL d   1      -0.364   3.090   0.808  0.00  0.00     0.063 C 
ATOM      5  C   UNL d   1      -1.917   1.181   1.529  0.00  0.00     0.063 C 
ATOM      6  C   UNL d   1      -0.658   0.375   1.851  0.00  0.00     0.129 C 
ATOM      7  C   UNL d   1       0.815   2.172   1.135  0.00  0.00     0.129 C 
ATOM      8  O   UNL d   1       1.941   0.469  -0.758  0.00  0.00    -0.267 OA
ENDROOT
BRANCH   1   9
ATOM      9  C   UNL d   1       0.535  -1.332  -0.402  0.00  0.00     0.033 A 
ATOM     10  C   UNL d   1      -0.825  -1.641  -0.487  0.00  0.00     0.033 A 
ATOM     11  C   UNL d   1      -1.260  -2.958  -0.680  0.00  0.00     0.049 A 
ATOM     12  C   UNL d   1      -0.306  -3.952  -0.935  0.00  0.00     0.032 A 
ATOM     13  C   UNL d   1       1.066  -3.643  -0.982  0.00  0.00     0.049 A 
ATOM     14  C   UNL d   1       1.477  -2.330  -0.689  0.00  0.00     0.033 A 
BRANCH  11  15
ATOM     15  C   UNL d   1      -2.730  -3.295  -0.580  0.00  0.00     0.417 C 
ATOM     16  F   UNL d   1      -3.505  -2.220  -0.262  0.00  0.00    -0.166 F 
ATOM     17  F   UNL d   1      -3.236  -3.797  -1.737  0.00  0.00    -0.166 F 
ATOM     18  F   UNL d   1      -2.977  -4.226   0.382  0.00  0.00    -0.166 F 
ENDBRANCH  11  15
BRANCH  13  19
ATOM     19  C   UNL d   1       2.064  -4.718  -1.341  0.00  0.00     0.417 C 
ATOM     20  F   UNL d   1       3.348  -4.275  -1.419  0.00  0.00    -0.166 F 
ATOM     21  F   UNL d   1       2.071  -5.735  -0.436  0.00  0.00    -0.166 F 
ATOM     22  F   UNL d   1       1.791  -5.291  -2.544  0.00  0.00    -0.166 F 
ENDBRANCH  13  19
ENDBRANCH   1   9
BRANCH   3  23
ATOM     23  C   UNL d   1      -2.872   3.466   1.072  0.00  0.00    -0.024 A 
ATOM     24  C   UNL d   1      -3.228   3.407  -0.291  0.00  0.00     0.012 A 
ATOM     25  C   UNL d   1      -4.352   4.080  -0.780  0.00  0.00     0.024 A 
ATOM     26  C   UNL d   1      -5.142   4.825   0.086  0.00  0.00     0.034 A 
ATOM     27  C   UNL d   1      -4.821   4.893   1.439  0.00  0.00     0.024 A 
ATOM     28 CL   UNL d   1      -6.527   5.650  -0.511  0.00  0.00    -0.084 Cl
ATOM     29  C   UNL d   1      -3.701   4.212   1.929  0.00  0.00     0.012 A 
ENDBRANCH   3  23
BRANCH   3  30
ATOM     30  O   UNL d   1      -1.408   3.015   2.970  0.00  0.00    -0.385 OA
ATOM     31  H   UNL d   1      -1.265   3.976   3.026  0.00  0.00     0.211 HD
ENDBRANCH   3  30
TORSDOF 5
