REMARK  4 active torsions:
REMARK  status: ('A' for Active; 'I' for Inactive)
REMARK    1  A    between atoms: C_4  and  C_1 
REMARK    2  A    between atoms: C_2  and  C_3 
REMARK    3  A    between atoms: C_15  and  C_7 
REMARK    4  A    between atoms: C_8  and  C_15 
ROOT
ATOM      1  C   UNL d   1      -1.417   3.029   2.983  0.00  0.00     0.077 C 
ENDROOT
BRANCH   1   2
ATOM      2  C   UNL d   1      -1.805   1.684   3.559  0.00  0.00    -0.053 A 
ATOM      3  C   UNL d   1      -0.947   1.025   4.453  0.00  0.00     0.023 A 
ATOM      4  C   UNL d   1      -1.228  -0.279   4.894  0.00  0.00     0.048 A 
ATOM      5  C   UNL d   1      -2.393  -0.912   4.440  0.00  0.00     0.016 A 
ATOM      6  C   UNL d   1      -3.260  -0.258   3.564  0.00  0.00     0.001 A 
ATOM      7  C   UNL d   1      -2.968   1.034   3.126  0.00  0.00     0.007 A 
BRANCH   4   8
ATOM      8  C   UNL d   1      -0.280  -1.008   5.812  0.00  0.00     0.417 C 
ATOM      9  F   UNL d   1       0.783  -0.253   6.212  0.00  0.00    -0.166 F 
ATOM     10  F   UNL d   1      -0.883  -1.435   6.956  0.00  0.00    -0.166 F 
ATOM     11  F   UNL d   1       0.253  -2.120   5.233  0.00  0.00    -0.166 F 
ENDBRANCH   4   8
ENDBRANCH   1   2
BRANCH   1  12
ATOM     12  C   UNL d   1      -0.573   2.869   1.736  0.00  0.00    -0.053 A 
ATOM     13  C   UNL d   1      -1.184   2.730   0.481  0.00  0.00     0.023 A 
ATOM     14  C   UNL d   1      -0.422   2.459  -0.667  0.00  0.00     0.048 A 
ATOM     15  C   UNL d   1       0.970   2.338  -0.544  0.00  0.00     0.016 A 
ATOM     16  C   UNL d   1       1.587   2.486   0.698  0.00  0.00     0.001 A 
ATOM     17  C   UNL d   1       0.820   2.750   1.832  0.00  0.00     0.007 A 
BRANCH  14  18
ATOM     18  C   UNL d   1      -1.079   2.265  -2.010  0.00  0.00     0.417 C 
ATOM     19  F   UNL d   1      -2.432   2.436  -1.985  0.00  0.00    -0.166 F 
ATOM     20  F   UNL d   1      -0.873   1.018  -2.517  0.00  0.00    -0.166 F 
ATOM     21  F   UNL d   1      -0.614   3.133  -2.950  0.00  0.00    -0.166 F 
ENDBRANCH  14  18
ENDBRANCH   1  12
TORSDOF 4
