REMARK  6 active torsions:
REMARK  status: ('A' for Active; 'I' for Inactive)
REMARK    1  A    between atoms: N_3  and  S_1 
REMARK    2  A    between atoms: C_10  and  S_1 
REMARK    3  A    between atoms: S_2  and  N_8 
REMARK    4  A    between atoms: C_11  and  S_2 
REMARK    5  A    between atoms: C_4  and  N_3 
REMARK    6  A    between atoms: N_8  and  C_21 
ROOT
ATOM      1  C   UNL d   1       0.557   1.363   0.868  0.00  0.00     0.075 A 
ATOM      2  C   UNL d   1       0.215   1.256   2.222  0.00  0.00     0.027 A 
ATOM      3  C   UNL d   1       0.616   2.612   0.248  0.00  0.00     0.027 A 
ATOM      4  C   UNL d   1      -0.100   3.650   2.313  0.00  0.00     0.042 A 
ATOM      5  C   UNL d   1       0.291   3.758   0.977  0.00  0.00     0.031 A 
ATOM      6  C   UNL d   1      -0.118   2.408   2.944  0.00  0.00     0.031 A 
ENDROOT
BRANCH   1   7
ATOM      7  S   UNL d   1       1.056  -0.094  -0.024  0.00  0.00     0.247 S 
ATOM      8  O   UNL d   1       1.857   0.344  -1.150  0.00  0.00    -0.205 OA
ATOM      9  O   UNL d   1       1.573  -1.041   0.935  0.00  0.00    -0.205 OA
BRANCH   7  10
ATOM     10  N   UNL d   1      -0.402  -0.647  -0.686  0.00  0.00    -0.165 NA
ATOM     11  H   UNL d   1      -0.174  -0.942  -1.637  0.00  0.00     0.147 HD
BRANCH  10  12
ATOM     12  C   UNL d   1      -1.092  -1.626   0.017  0.00  0.00     0.117 A 
ATOM     13  N   UNL d   1      -0.950  -2.922  -0.251  0.00  0.00    -0.249 N 
ATOM     14  O   UNL d   1      -1.800  -3.577   0.626  0.00  0.00    -0.241 OA
ATOM     15  HN  UNL d   1      -0.344  -3.345  -0.954  1.00  0.00     0.196 HD
ATOM     16  C   UNL d   1      -2.498  -2.656   1.347  0.00  0.00     0.075 A 
ATOM     17  C   UNL d   1      -2.091  -1.397   0.981  0.00  0.00     0.079 A 
ATOM     18  C   UNL d   1      -3.495  -3.181   2.295  0.00  0.00     0.079 C 
ENDBRANCH  10  12
ENDBRANCH   7  10
ENDBRANCH   1   7
BRANCH   4  19
ATOM     19  N   UNL d   1      -0.406   4.831   3.026  0.00  0.00    -0.281 N 
ATOM     20  H   UNL d   1       0.320   5.362   3.496  0.00  0.00     0.179 HD
BRANCH  19  21
ATOM     21  S   UNL d   1      -1.985   5.343   3.226  0.00  0.00     0.263 S 
ATOM     22  O   UNL d   1      -2.783   4.232   3.717  0.00  0.00    -0.200 OA
ATOM     23  O   UNL d   1      -1.910   6.587   3.962  0.00  0.00    -0.200 OA
BRANCH  21  24
ATOM     24  C   UNL d   1      -2.531   5.724   1.575  0.00  0.00     0.079 A 
ATOM     25  C   UNL d   1      -3.145   4.727   0.811  0.00  0.00     0.026 A 
ATOM     26  C   UNL d   1      -3.611   5.022  -0.471  0.00  0.00     0.008 A 
ATOM     27  C   UNL d   1      -3.489   6.319  -0.991  0.00  0.00    -0.062 A 
ATOM     28  C   UNL d   1      -2.895   7.317  -0.207  0.00  0.00     0.008 A 
ATOM     29  C   UNL d   1      -3.981   6.612  -2.379  0.00  0.00     0.048 C 
ATOM     30  C   UNL d   1      -2.419   7.025   1.077  0.00  0.00     0.026 A 
ENDBRANCH  21  24
ENDBRANCH  19  21
ENDBRANCH   4  19
TORSDOF 6
