REMARK  1 active torsions:
REMARK  status: ('A' for Active; 'I' for Inactive)
REMARK    1  A    between atoms: C_5  and  C_1 
ROOT
ATOM      1  C   UNL d   1       1.729   1.284  -0.072  0.00  0.00     0.118 A 
ATOM      2  N   UNL d   1       0.500   1.717  -0.008  0.00  0.00    -0.349 N 
ATOM      3  HN  UNL d   1       0.304   2.717   0.022  1.00  0.00     0.166 HD
ATOM      4  C   UNL d   1       2.065  -0.223  -0.074  0.00  0.00     0.274 A 
ATOM      5  N   UNL d   1       0.987  -1.076  -0.060  0.00  0.00    -0.320 N 
ATOM      6  C   UNL d   1      -0.547   0.782   0.019  0.00  0.00     0.059 A 
ATOM      7  C   UNL d   1      -0.324  -0.602  -0.017  0.00  0.00     0.061 A 
ATOM      8  O   UNL d   1       3.213  -0.647  -0.076  0.00  0.00    -0.266 OA
ATOM      9  C   UNL d   1      -1.862   1.247   0.059  0.00  0.00     0.032 A 
ATOM     10  C   UNL d   1      -1.387  -1.505  -0.010  0.00  0.00     0.032 A 
ATOM     11  C   UNL d   1      -2.934   0.350   0.061  0.00  0.00     0.002 A 
ATOM     12  C   UNL d   1      -2.696  -1.024   0.025  0.00  0.00     0.002 A 
ATOM     13  H   UNL d   1       1.186  -2.066  -0.062  0.00  0.00     0.169 HD
ENDROOT
BRANCH   1  14
ATOM     14  C   UNL d   1       2.837   2.221  -0.160  0.00  0.00     0.038 A 
ATOM     15  S   UNL d   1       2.679   3.796   0.522  0.00  0.00    -0.080 SA
ATOM     16  C   UNL d   1       4.241   4.231   0.042  0.00  0.00     0.052 A 
ATOM     17 BR   UNL d   1       4.994   5.909   0.399  0.00  0.00    -0.043 Br
ATOM     18  C   UNL d   1       4.896   3.238  -0.638  0.00  0.00     0.028 A 
ATOM     19  C   UNL d   1       4.081   2.071  -0.753  0.00  0.00     0.023 A 
ENDBRANCH   1  14
TORSDOF 1
