REMARK  4 active torsions:
REMARK  status: ('A' for Active; 'I' for Inactive)
REMARK    1  A    between atoms: S_3  and  C_1 
REMARK    2  A    between atoms: N_4  and  C_2 
REMARK    3  A    between atoms: C_10  and  S_3 
REMARK       I    between atoms: C_6  and  N_4 
REMARK    4  A    between atoms: C_9  and  C_6 
ROOT
ATOM      1  C   UNL d   1      -2.488   1.272   0.118  0.00  0.00     0.099 C 
ATOM      2  C   UNL d   1      -1.082   1.382   0.377  0.00  0.00     0.082 C 
ATOM      3  C   UNL d   1      -0.590   0.154   0.783  0.00  0.00     0.079 C 
ATOM      4  C   UNL d   1      -2.949  -0.026   0.133  0.00  0.00     0.077 C 
ATOM      5  S   UNL d   1      -1.730  -1.107   0.639  0.00  0.00    -0.090 SA
ATOM      6 BR   UNL d   1       1.176  -0.239   1.299  0.00  0.00    -0.041 Br
ENDROOT
BRANCH   2   7
ATOM      7  N   UNL d   1      -0.363   2.567   0.195  0.00  0.00    -0.320 N 
ATOM      8  C   UNL d   1       0.461   3.119   1.154  0.00  0.00     0.258 C 
ATOM      9  O   UNL d   1       0.513   2.711   2.311  0.00  0.00    -0.267 OA
ATOM     10  H   UNL d   1      -0.684   3.182  -0.553  0.00  0.00     0.169 HD
BRANCH   8  11
ATOM     11  C   UNL d   1       1.222   4.353   0.791  0.00  0.00     0.054 A 
ATOM     12  C   UNL d   1       1.678   4.685  -0.493  0.00  0.00     0.049 A 
ATOM     13 CL   UNL d   1       1.348   3.750  -1.908  0.00  0.00    -0.083 Cl
ATOM     14  C   UNL d   1       2.478   5.825  -0.681  0.00  0.00     0.025 A 
ATOM     15  C   UNL d   1       2.822   6.641   0.397  0.00  0.00     0.002 A 
ATOM     16  C   UNL d   1       2.353   6.335   1.669  0.00  0.00     0.001 A 
ATOM     17  C   UNL d   1       1.561   5.201   1.864  0.00  0.00     0.019 A 
ENDBRANCH   8  11
ENDBRANCH   2   7
BRANCH   1  18
ATOM     18  S   UNL d   1      -3.525   2.650  -0.034  0.00  0.00     0.209 S 
ATOM     19  O   UNL d   1      -2.859   3.467  -1.024  0.00  0.00    -0.217 OA
ATOM     20  O   UNL d   1      -4.864   2.125  -0.204  0.00  0.00    -0.217 OA
BRANCH  18  21
ATOM     21  C   UNL d   1      -3.441   3.470   1.542  0.00  0.00     0.064 A 
ATOM     22  C   UNL d   1      -3.079   4.822   1.596  0.00  0.00     0.025 A 
ATOM     23  C   UNL d   1      -2.989   5.463   2.835  0.00  0.00     0.025 A 
ATOM     24  C   UNL d   1      -3.259   4.756   4.007  0.00  0.00     0.034 A 
ATOM     25  C   UNL d   1      -3.616   3.407   3.953  0.00  0.00     0.025 A 
ATOM     26 CL   UNL d   1      -3.160   5.556   5.527  0.00  0.00    -0.084 Cl
ATOM     27  C   UNL d   1      -3.710   2.758   2.717  0.00  0.00     0.025 A 
ENDBRANCH  18  21
ENDBRANCH   1  18
TORSDOF 4
