REMARK  3 active torsions:
REMARK  status: ('A' for Active; 'I' for Inactive)
REMARK    1  A    between atoms: C_6  and  C_1 
REMARK    2  A    between atoms: C_3  and  C_2 
REMARK       I    between atoms: N_8  and  C_3 
REMARK    3  A    between atoms: C_10  and  N_8 
ROOT
ATOM      1  C   UNL d   1      -1.678  -0.585   0.154  0.00  0.00     0.086 A 
ATOM      2  C   UNL d   1      -0.335  -1.093   0.136  0.00  0.00     0.093 A 
ATOM      3  N   UNL d   1      -1.685   0.757   0.169  0.00  0.00    -0.259 N 
ATOM      4  HN  UNL d   1      -2.503   1.363   0.219  1.00  0.00     0.195 HD
ATOM      5  O   UNL d   1      -0.376   1.148   0.105  0.00  0.00    -0.241 OA
ATOM      6  C   UNL d   1       0.436   0.061   0.078  0.00  0.00     0.090 A 
ATOM      7  C   UNL d   1       1.875   0.390   0.012  0.00  0.00     0.080 C 
ENDROOT
BRANCH   2   8
ATOM      8  C   UNL d   1       0.087  -2.490   0.216  0.00  0.00     0.262 C 
ATOM      9  N   UNL d   1       1.444  -2.694   0.223  0.00  0.00    -0.309 N 
ATOM     10  H   UNL d   1       2.069  -2.002  -0.150  0.00  0.00     0.170 HD
ATOM     11  O   UNL d   1      -0.732  -3.401   0.294  0.00  0.00    -0.267 OA
BRANCH   9  12
ATOM     12  C   UNL d   1       2.150  -3.752   0.790  0.00  0.00     0.107 A 
ATOM     13  N   UNL d   1       3.487  -3.636   0.630  0.00  0.00    -0.351 N 
ATOM     14  C   UNL d   1       4.270  -4.550   1.254  0.00  0.00     0.108 A 
ATOM     15  HN  UNL d   1       3.890  -2.890   0.063  1.00  0.00     0.166 HD
ATOM     16  C   UNL d   1       3.775  -5.569   2.048  0.00  0.00     0.026 A 
ATOM     17  C   UNL d   1       2.400  -5.675   2.198  0.00  0.00     0.024 A 
ATOM     18 BR   UNL d   1       4.938  -6.763   2.925  0.00  0.00    -0.050 Br
ATOM     19  C   UNL d   1       1.569  -4.755   1.553  0.00  0.00     0.050 A 
ENDBRANCH   9  12
ENDBRANCH   2   8
BRANCH   1  20
ATOM     20  C   UNL d   1      -2.958  -1.294   0.156  0.00  0.00     0.037 A 
ATOM     21  C   UNL d   1      -3.392  -2.036   1.269  0.00  0.00     0.048 A 
ATOM     22 CL   UNL d   1      -2.466  -2.159   2.730  0.00  0.00    -0.083 Cl
ATOM     23  C   UNL d   1      -4.635  -2.684   1.254  0.00  0.00     0.025 A 
ATOM     24  C   UNL d   1      -5.477  -2.574   0.149  0.00  0.00     0.003 A 
ATOM     25  C   UNL d   1      -5.072  -1.825  -0.951  0.00  0.00     0.025 A 
ATOM     26  C   UNL d   1      -3.819  -1.200  -0.956  0.00  0.00     0.048 A 
ATOM     27 CL   UNL d   1      -3.397  -0.328  -2.396  0.00  0.00    -0.083 Cl
ENDBRANCH   1  20
TORSDOF 3
