REMARK  1 active torsions:
REMARK  status: ('A' for Active; 'I' for Inactive)
REMARK    1  A    between atoms: N_20  and  C_6 
ROOT
ATOM      1  C   UNL d   1      -0.534   0.530  -1.200  0.00  0.00     0.164 C 
ATOM      2  C   UNL d   1      -1.765   0.253  -2.013  0.00  0.00     0.096 C 
ATOM      3  C   UNL d   1      -0.727  -0.015   0.197  0.00  0.00     0.047 C 
ATOM      4  C   UNL d   1       0.180   1.902  -1.214  0.00  0.00     0.187 C 
ATOM      5  C   UNL d   1       0.609  -0.345  -1.803  0.00  0.00     0.187 C 
ATOM      6  C   UNL d   1      -2.411  -0.916  -1.771  0.00  0.00     0.139 C 
ATOM      7  C   UNL d   1      -1.198  -1.270   0.286  0.00  0.00     0.067 C 
ATOM      8  O   UNL d   1      -1.921  -1.807  -0.783  0.00  0.00    -0.301 OA
ATOM      9  C   UNL d   1      -0.395   0.678   1.473  0.00  0.00     0.160 C 
ATOM     10  C   UNL d   1       1.874   0.333  -1.587  0.00  0.00     0.026 A 
ATOM     11  C   UNL d   1       1.638   1.644  -1.209  0.00  0.00     0.026 A 
ATOM     12  C   UNL d   1      -2.204   1.172  -3.010  0.00  0.00     0.101 C 
ATOM     13  N   UNL d   1      -2.570   1.900  -3.831  0.00  0.00    -0.191 NA
ATOM     14  C   UNL d   1      -0.887  -2.190   1.436  0.00  0.00     0.075 C 
ATOM     15  C   UNL d   1       0.031  -1.532   2.509  0.00  0.00    -0.035 C 
ATOM     16  C   UNL d   1      -0.513  -0.117   2.759  0.00  0.00     0.092 C 
ATOM     17  O   UNL d   1       0.565  -1.461  -2.294  0.00  0.00    -0.290 OA
ATOM     18  O   UNL d   1      -0.324   3.006  -1.208  0.00  0.00    -0.290 OA
ATOM     19  O   UNL d   1      -0.079   1.863   1.486  0.00  0.00    -0.293 OA
ATOM     20  C   UNL d   1       3.129  -0.249  -1.592  0.00  0.00     0.016 A 
ATOM     21  C   UNL d   1       2.683   2.443  -0.787  0.00  0.00     0.016 A 
ATOM     22  C   UNL d   1      -0.001  -2.367   3.797  0.00  0.00     0.015 C 
ATOM     23  C   UNL d   1       1.518  -1.429   2.078  0.00  0.00     0.015 C 
ATOM     24  C   UNL d   1       3.967   1.874  -0.756  0.00  0.00     0.001 A 
ATOM     25  C   UNL d   1       4.190   0.542  -1.160  0.00  0.00     0.001 A 
ENDROOT
BRANCH   6  26
ATOM     26  N   UNL d   1      -3.531  -1.373  -2.416  0.00  0.00    -0.282 NA
ATOM     27  H   UNL d   1      -4.128  -0.665  -2.833  0.00  0.00     0.126 HD
ATOM     28  H   UNL d   1      -4.039  -2.071  -1.877  0.00  0.00     0.126 HD
ENDBRANCH   6  26
TORSDOF 1
