REMARK  6 active torsions:
REMARK  status: ('A' for Active; 'I' for Inactive)
REMARK    1  A    between atoms: C_2  and  C_1 
REMARK       I    between atoms: N_4  and  C_2 
REMARK    2  A    between atoms: C_3  and  N_5 
REMARK    3  A    between atoms: N_6  and  C_3 
REMARK    4  A    between atoms: N_5  and  N_4 
REMARK    5  A    between atoms: C_14  and  N_6 
REMARK    6  A    between atoms: C_9  and  C_10 
ROOT
ATOM      1  C   UNL d   1       2.623   6.156   0.833  0.00  0.00     0.191 C 
ATOM      2  S   UNL d   1       4.042   5.466   0.267  0.00  0.00    -0.039 SA
ENDROOT
BRANCH   1   3
ATOM      3  N   UNL d   1       2.381   6.496   2.145  0.00  0.00    -0.273 N 
ATOM      4  H   UNL d   1       1.681   7.223   2.304  0.00  0.00     0.189 HD
BRANCH   3   5
ATOM      5  N   UNL d   1       3.454   6.548   3.061  0.00  0.00    -0.264 N 
ATOM      6  C   UNL d   1       3.543   7.636   3.908  0.00  0.00     0.271 C 
ATOM      7  O   UNL d   1       2.656   8.488   3.950  0.00  0.00    -0.266 OA
ATOM      8  H   UNL d   1       4.227   5.903   2.904  0.00  0.00     0.190 HD
BRANCH   6   9
ATOM      9  C   UNL d   1       4.774   7.790   4.748  0.00  0.00     0.055 A 
ATOM     10  C   UNL d   1       5.680   6.770   5.075  0.00  0.00     0.049 A 
ATOM     11 CL   UNL d   1       5.510   5.121   4.585  0.00  0.00    -0.083 Cl
ATOM     12  C   UNL d   1       6.798   7.054   5.877  0.00  0.00     0.025 A 
ATOM     13  C   UNL d   1       7.023   8.341   6.364  0.00  0.00     0.002 A 
ATOM     14  C   UNL d   1       6.124   9.360   6.054  0.00  0.00     0.001 A 
ATOM     15  C   UNL d   1       5.015   9.085   5.255  0.00  0.00     0.019 A 
ENDBRANCH   6   9
ENDBRANCH   3   5
ENDBRANCH   1   3
BRANCH   1  16
ATOM     16  N   UNL d   1       1.649   6.482  -0.071  0.00  0.00    -0.332 N 
ATOM     17  H   UNL d   1       1.976   6.534  -1.030  0.00  0.00     0.168 HD
BRANCH  16  18
ATOM     18  C   UNL d   1       0.252   6.557   0.094  0.00  0.00     0.034 A 
ATOM     19  C   UNL d   1      -0.480   7.254  -0.866  0.00  0.00     0.030 A 
ATOM     20  C   UNL d   1      -1.880   7.266  -0.824  0.00  0.00     0.010 A 
ATOM     21  C   UNL d   1      -2.593   6.540   0.147  0.00  0.00    -0.051 A 
ATOM     22  C   UNL d   1      -1.835   5.856   1.113  0.00  0.00     0.010 A 
ATOM     23  C   UNL d   1      -0.431   5.873   1.096  0.00  0.00     0.030 A 
BRANCH  21  24
ATOM     24  C   UNL d   1      -4.132   6.494   0.106  0.00  0.00    -0.024 C 
ATOM     25  C   UNL d   1      -4.753   5.550   1.160  0.00  0.00     0.019 C 
ATOM     26  C   UNL d   1      -4.704   7.905   0.354  0.00  0.00     0.019 C 
ATOM     27  C   UNL d   1      -4.609   5.995  -1.278  0.00  0.00     0.019 C 
ENDBRANCH  21  24
ENDBRANCH  16  18
ENDBRANCH   1  16
TORSDOF 6
