REMARK  2 active torsions:
REMARK  status: ('A' for Active; 'I' for Inactive)
REMARK    1  A    between atoms: N_3  and  C_1 
REMARK    2  A    between atoms: C_6  and  C_2 
ROOT
ATOM      1  C   UNL d   1       2.283  -0.851   0.034  0.00  0.00     0.115 C 
ATOM      2  C   UNL d   1       2.296   0.575  -0.434  0.00  0.00     0.223 C 
ATOM      3  C   UNL d   1       1.179  -1.518   0.390  0.00  0.00     0.049 C 
ATOM      4  O   UNL d   1       1.138   1.323   0.038  0.00  0.00    -0.334 OA
ATOM      5  C   UNL d   1      -0.036   0.617   0.109  0.00  0.00     0.080 A 
ATOM      6  C   UNL d   1      -0.072  -0.777   0.247  0.00  0.00    -0.001 A 
ATOM      7  C   UNL d   1      -1.214   1.356   0.038  0.00  0.00     0.037 A 
ATOM      8  C   UNL d   1      -1.305  -1.433   0.230  0.00  0.00     0.014 A 
ATOM      9  C   UNL d   1      -2.442   0.696   0.026  0.00  0.00     0.003 A 
ATOM     10  C   UNL d   1      -2.486  -0.697   0.103  0.00  0.00     0.001 A 
ENDROOT
BRANCH   2  11
ATOM     11  C   UNL d   1       2.398   0.792  -1.941  0.00  0.00     0.037 A 
ATOM     12  C   UNL d   1       1.851  -0.123  -2.857  0.00  0.00     0.127 A 
ATOM     13  F   UNL d   1       1.255  -1.245  -2.435  0.00  0.00    -0.205 F 
ATOM     14  C   UNL d   1       1.899   0.075  -4.235  0.00  0.00     0.043 A 
ATOM     15  C   UNL d   1       2.502   1.216  -4.747  0.00  0.00     0.005 A 
ATOM     16  C   UNL d   1       3.043   2.151  -3.869  0.00  0.00     0.024 A 
ATOM     17  C   UNL d   1       2.986   1.948  -2.482  0.00  0.00     0.046 A 
ATOM     18 CL   UNL d   1       3.661   3.192  -1.487  0.00  0.00    -0.084 Cl
ENDBRANCH   2  11
BRANCH   1  19
ATOM     19  N   UNL d   1       3.567  -1.524   0.080  0.00  0.00    -0.117 N 
ATOM     20  O   UNL d   1       4.557  -0.888  -0.299  0.00  0.00    -0.532 OA
ATOM     21  O   UNL d   1       3.602  -2.691   0.493  0.00  0.00    -0.532 OA
ENDBRANCH   1  19
TORSDOF 2
