REMARK  4 active torsions:
REMARK  status: ('A' for Active; 'I' for Inactive)
REMARK    1  A    between atoms: C_7  and  C_1 
REMARK    2  A    between atoms: N_13  and  C_6 
REMARK    3  A    between atoms: C_8  and  O_12 
REMARK    4  A    between atoms: O_12  and  C_9 
ROOT
ATOM      1  C   UNL d   1       1.299  -1.371  -0.226  0.00  0.00     0.164 A 
ATOM      2  N   UNL d   1       0.597  -0.753   0.704  0.00  0.00    -0.324 N 
ATOM      3  HN  UNL d   1       0.634  -0.883   1.715  1.00  0.00     0.169 HD
ATOM      4  C   UNL d   1      -0.197   0.110  -0.016  0.00  0.00     0.167 A 
ATOM      5  O   UNL d   1       1.016  -0.971  -1.508  0.00  0.00    -0.273 OA
ATOM      6  C   UNL d   1       0.067  -0.004  -1.362  0.00  0.00     0.181 A 
ATOM      7  C   UNL d   1      -1.115   0.997   0.612  0.00  0.00     0.122 C 
ATOM      8  N   UNL d   1      -1.869   1.740   1.097  0.00  0.00    -0.190 NA
ENDROOT
BRANCH   6   9
ATOM      9  N   UNL d   1      -0.354   0.588  -2.488  0.00  0.00    -0.377 N 
ATOM     10  H   UNL d   1       0.194   0.453  -3.336  0.00  0.00     0.158 HD
ATOM     11  H   UNL d   1      -0.839   1.481  -2.460  0.00  0.00     0.158 HD
ENDBRANCH   6   9
BRANCH   1  12
ATOM     12  C   UNL d   1       2.395  -2.322  -0.087  0.00  0.00     0.049 A 
ATOM     13  C   UNL d   1       3.259  -2.321   1.026  0.00  0.00     0.092 A 
ATOM     14  C   UNL d   1       4.278  -3.277   1.126  0.00  0.00     0.038 A 
ATOM     15  C   UNL d   1       4.459  -4.228   0.120  0.00  0.00     0.003 A 
ATOM     16  C   UNL d   1       3.615  -4.237  -0.986  0.00  0.00     0.001 A 
ATOM     17  C   UNL d   1       2.596  -3.289  -1.090  0.00  0.00     0.018 A 
BRANCH  13  18
ATOM     18  O   UNL d   1       3.084  -1.524   2.124  0.00  0.00    -0.254 OA
BRANCH  18  19
ATOM     19  C   UNL d   1       3.353  -0.137   1.933  0.00  0.00     0.530 C 
ATOM     20  F   UNL d   1       3.398   0.238   0.637  0.00  0.00    -0.144 F 
ATOM     21  F   UNL d   1       2.403   0.589   2.562  0.00  0.00    -0.144 F 
ATOM     22  F   UNL d   1       4.545   0.163   2.498  0.00  0.00    -0.144 F 
ENDBRANCH  18  19
ENDBRANCH  13  18
ENDBRANCH   1  12
TORSDOF 4
