REMARK  5 active torsions:
REMARK  status: ('A' for Active; 'I' for Inactive)
REMARK    1  A    between atoms: C_2  and  S_1 
REMARK    2  A    between atoms: C_6  and  S_1 
REMARK    3  A    between atoms: N_4  and  C_3 
REMARK    4  A    between atoms: C_5  and  N_4 
REMARK    5  A    between atoms: N_13  and  C_5 
ROOT
ATOM      1  C   UNL d   1       0.524   1.623   0.016  0.00  0.00     0.098 A 
ATOM      2  C   UNL d   1      -0.898   1.796   0.113  0.00  0.00     0.063 A 
ATOM      3  S   UNL d   1       0.158   4.152   0.254  0.00  0.00    -0.110 SA
ATOM      4  C   UNL d   1       1.211   2.817   0.100  0.00  0.00     0.075 A 
ATOM      5  C   UNL d   1      -1.217   3.135   0.223  0.00  0.00     0.080 A 
ENDROOT
BRANCH   1   6
ATOM      6  S   UNL d   1       1.310   0.102  -0.240  0.00  0.00     0.209 S 
ATOM      7  O   UNL d   1       0.606  -0.800   0.653  0.00  0.00    -0.217 OA
ATOM      8  O   UNL d   1       2.724   0.375  -0.129  0.00  0.00    -0.217 OA
BRANCH   6   9
ATOM      9  C   UNL d   1       0.984  -0.452  -1.895  0.00  0.00     0.064 A 
ATOM     10  C   UNL d   1       0.126   0.232  -2.761  0.00  0.00     0.025 A 
ATOM     11  C   UNL d   1      -0.177  -0.318  -4.010  0.00  0.00     0.025 A 
ATOM     12  C   UNL d   1       0.395  -1.530  -4.397  0.00  0.00     0.034 A 
ATOM     13  C   UNL d   1       1.281  -2.194  -3.550  0.00  0.00     0.025 A 
ATOM     14 CL   UNL d   1      -0.005  -2.213  -5.924  0.00  0.00    -0.084 Cl
ATOM     15  C   UNL d   1       1.576  -1.657  -2.295  0.00  0.00     0.025 A 
ENDBRANCH   6   9
ENDBRANCH   1   6
BRANCH   2  16
ATOM     16  N   UNL d   1      -1.834   0.761   0.150  0.00  0.00    -0.332 N 
ATOM     17  H   UNL d   1      -1.472  -0.162   0.383  0.00  0.00     0.168 HD
BRANCH  16  18
ATOM     18  C   UNL d   1      -3.119   0.784  -0.331  0.00  0.00     0.171 C 
ATOM     19  S   UNL d   1      -3.714   1.724  -1.579  0.00  0.00    -0.041 SA
BRANCH  18  20
ATOM     20  N   UNL d   1      -3.979  -0.109   0.248  0.00  0.00    -0.371 N 
ATOM     21  C   UNL d   1      -3.856  -0.645   1.588  0.00  0.00     0.148 C 
ATOM     22  H   UNL d   1      -4.924  -0.033  -0.115  0.00  0.00     0.161 HD
ENDBRANCH  18  20
ENDBRANCH  16  18
ENDBRANCH   2  16
TORSDOF 5
