REMARK  8 active torsions:
REMARK  status: ('A' for Active; 'I' for Inactive)
REMARK    1  A    between atoms: C_11  and  C_1 
REMARK    2  A    between atoms: C_4  and  N_2 
REMARK    3  A    between atoms: C_16  and  C_3 
REMARK    4  A    between atoms: C_13  and  C_9 
REMARK    5  A    between atoms: C_17  and  C_10 
REMARK    6  A    between atoms: O_27  and  C_16 
REMARK    7  A    between atoms: O_28  and  C_17 
REMARK    8  A    between atoms: C_29  and  O_27 
ROOT
ATOM      1  C   UNL d   1       2.050   1.551  -0.092  0.00  0.00     0.704 A 
ATOM      2  N   UNL d   1       3.092   1.229  -0.878  0.00  0.00    -0.184 N 
ATOM      3  HN  UNL d   1       3.113   0.336  -1.370  1.00  0.00     0.184 HD
ATOM      4  C   UNL d   1       4.126   2.123  -1.009  0.00  0.00     0.150 A 
ATOM      5  C   UNL d   1       4.120   3.333  -0.331  0.00  0.00     0.087 A 
ATOM      6  N   UNL d   1       1.948   2.725   0.551  0.00  0.00    -0.199 N 
ATOM      7  HN  UNL d   1       1.122   2.965   1.099  1.00  0.00     0.183 HD
ATOM      8  C   UNL d   1       2.992   3.574   0.436  0.00  0.00     0.126 A 
ENDROOT
BRANCH   1   9
ATOM      9  N   UNL d   1       0.985   0.596   0.048  0.00  0.00    -0.081 N 
ATOM     10  C   UNL d   1       1.037  -0.784  -0.033  0.00  0.00     0.175 C 
ATOM     11  C   UNL d   1      -0.283  -1.227  -0.022  0.00  0.00     0.090 C 
ATOM     12  C   UNL d   1      -1.045  -0.056   0.133  0.00  0.00     0.128 C 
ATOM     13  N   UNL d   1      -0.291   1.032   0.257  0.00  0.00    -0.289 N 
ATOM     14  HN  UNL d   1      -0.598   1.983   0.463  1.00  0.00     0.187 HD
BRANCH  10  15
ATOM     15  C   UNL d   1       2.296  -1.555  -0.007  0.00  0.00     0.436 C 
ATOM     16  F   UNL d   1       3.404  -0.849   0.316  0.00  0.00    -0.165 F 
ATOM     17  F   UNL d   1       2.241  -2.534   0.936  0.00  0.00    -0.165 F 
ATOM     18  F   UNL d   1       2.533  -2.162  -1.194  0.00  0.00    -0.165 F 
ENDBRANCH  10  15
BRANCH  11  19
ATOM     19  C   UNL d   1      -0.809  -2.580  -0.037  0.00  0.00     0.297 C 
ATOM     20  O   UNL d   1      -2.000  -2.821   0.080  0.00  0.00    -0.259 OA
BRANCH  19  21
ATOM     21  O   UNL d   1       0.171  -3.520  -0.087  0.00  0.00    -0.318 OA
BRANCH  21  22
ATOM     22  C   UNL d   1      -0.188  -4.812   0.421  0.00  0.00     0.174 C 
ATOM     23  C   UNL d   1      -0.008  -4.807   1.931  0.00  0.00     0.034 C 
ENDBRANCH  21  22
ENDBRANCH  19  21
ENDBRANCH  11  19
ENDBRANCH   1   9
BRANCH   4  24
ATOM     24  C   UNL d   1       5.238   1.704  -1.953  0.00  0.00     0.434 C 
ATOM     25  F   UNL d   1       5.018   0.474  -2.512  0.00  0.00    -0.165 F 
ATOM     26  F   UNL d   1       5.380   2.547  -3.015  0.00  0.00    -0.165 F 
ATOM     27  F   UNL d   1       6.457   1.600  -1.355  0.00  0.00    -0.165 F 
ENDBRANCH   4  24
BRANCH   5  28
ATOM     28  C   UNL d   1       5.145   4.397  -0.328  0.00  0.00     0.296 C 
ATOM     29  O   UNL d   1       5.019   5.425   0.318  0.00  0.00    -0.259 OA
BRANCH  28  30
ATOM     30  O   UNL d   1       6.198   4.092  -1.107  0.00  0.00    -0.322 OA
ATOM     31  C   UNL d   1       7.214   5.099  -1.148  0.00  0.00     0.213 C 
ENDBRANCH  28  30
ENDBRANCH   5  28
TORSDOF 8
