REMARK  5 active torsions:
REMARK  status: ('A' for Active; 'I' for Inactive)
REMARK    1  A    between atoms: C_4  and  C_1 
REMARK       I    between atoms: N_9  and  C_4 
REMARK    2  A    between atoms: C_6  and  N_9 
REMARK    3  A    between atoms: N_11  and  C_7 
REMARK    4  A    between atoms: C_8  and  C_12 
REMARK    5  A    between atoms: N_13  and  N_11 
REMARK       I    between atoms: C_16  and  N_13 
ROOT
ATOM      1  C   UNL d   1       3.829  -2.453  -0.435  0.00  0.00     0.064 C 
ATOM      2  C   UNL d   1       4.538  -3.350   0.401  0.00  0.00     0.077 C 
ATOM      3  C   UNL d   1       2.220  -4.169  -1.113  0.00  0.00     0.050 C 
ATOM      4  C   UNL d   1       2.651  -2.841  -1.112  0.00  0.00     0.048 C 
ATOM      5  C   UNL d   1       4.006  -4.665   0.460  0.00  0.00     0.034 C 
ATOM      6  C   UNL d   1       2.887  -5.070  -0.292  0.00  0.00     0.018 C 
ENDROOT
BRANCH   1   7
ATOM      7  N   UNL d   1       4.231  -1.140  -0.733  0.00  0.00    -0.320 N 
ATOM      8  C   UNL d   1       5.238  -0.750  -1.604  0.00  0.00     0.264 C 
ATOM      9  O   UNL d   1       5.223   0.441  -1.931  0.00  0.00    -0.267 OA
ATOM     10  H   UNL d   1       3.490  -0.451  -0.802  0.00  0.00     0.169 HD
BRANCH   8  11
ATOM     11  C   UNL d   1       6.244  -1.670  -2.093  0.00  0.00     0.096 C 
ATOM     12  S   UNL d   1       7.879  -1.164  -1.965  0.00  0.00    -0.082 SA
ATOM     13  C   UNL d   1       8.474  -2.579  -2.732  0.00  0.00     0.017 A 
ATOM     14  C   UNL d   1       9.817  -2.879  -3.034  0.00  0.00     0.020 A 
ATOM     15  C   UNL d   1       7.439  -3.457  -3.052  0.00  0.00     0.004 A 
ATOM     16  C   UNL d   1      10.123  -4.119  -3.598  0.00  0.00     0.001 A 
ATOM     17  C   UNL d   1       9.121  -5.042  -3.857  0.00  0.00     0.001 A 
ATOM     18  C   UNL d   1       7.786  -4.715  -3.610  0.00  0.00     0.014 A 
ATOM     19  C   UNL d   1       6.157  -2.850  -2.804  0.00  0.00     0.068 C 
ATOM     20 CL   UNL d   1       4.733  -3.553  -3.460  0.00  0.00    -0.082 Cl
ENDBRANCH   8  11
ENDBRANCH   1   7
BRANCH   2  21
ATOM     21  N   UNL d   1       5.710  -3.033   1.117  0.00  0.00    -0.292 N 
ATOM     22  C   UNL d   1       6.000  -1.714   1.682  0.00  0.00     0.178 C 
BRANCH  21  23
ATOM     23  N   UNL d   1       6.416  -4.117   1.694  0.00  0.00    -0.268 N 
ATOM     24  C   UNL d   1       6.577  -4.251   3.068  0.00  0.00     0.232 C 
ATOM     25  O   UNL d   1       6.047  -3.563   3.935  0.00  0.00    -0.272 OA
ATOM     26  C   UNL d   1       7.508  -5.384   3.422  0.00  0.00     0.119 C 
ATOM     27  H   UNL d   1       6.967  -4.660   1.039  0.00  0.00     0.190 HD
ENDBRANCH  21  23
ENDBRANCH   2  21
BRANCH   3  28
ATOM     28  C   UNL d   1       1.132  -4.630  -2.053  0.00  0.00     0.417 C 
ATOM     29  F   UNL d   1       0.732  -3.667  -2.933  0.00  0.00    -0.166 F 
ATOM     30  F   UNL d   1       1.528  -5.684  -2.823  0.00  0.00    -0.166 F 
ATOM     31  F   UNL d   1       0.010  -5.039  -1.406  0.00  0.00    -0.166 F 
ENDBRANCH   3  28
TORSDOF 5
