REMARK  3 active torsions:
REMARK  status: ('A' for Active; 'I' for Inactive)
REMARK    1  A    between atoms: C_3  and  C_1 
REMARK    2  A    between atoms: C_5  and  C_2 
REMARK    3  A    between atoms: O_10  and  C_3 
ROOT
ATOM      1  C   UNL d   1       0.703   0.550  -0.054  0.00  0.00     0.120 C 
ATOM      2  C   UNL d   1       0.244   0.005  -1.203  0.00  0.00     0.041 C 
ATOM      3  C   UNL d   1      -0.031   0.305   1.145  0.00  0.00     0.105 C 
ATOM      4  N   UNL d   1      -0.672   0.083   2.086  0.00  0.00    -0.191 NA
ENDROOT
BRANCH   1   5
ATOM      5  C   UNL d   1       1.933   1.376   0.114  0.00  0.00     0.303 C 
ATOM      6  O   UNL d   1       2.441   1.603   1.205  0.00  0.00    -0.258 OA
BRANCH   5   7
ATOM      7  O   UNL d   1       2.391   1.863  -1.062  0.00  0.00    -0.322 OA
ATOM      8  C   UNL d   1       3.591   2.636  -1.011  0.00  0.00     0.213 C 
ENDBRANCH   5   7
ENDBRANCH   1   5
BRANCH   2   9
ATOM      9  C   UNL d   1       0.862   0.107  -2.535  0.00  0.00    -0.024 A 
ATOM     10  C   UNL d   1       0.479   1.110  -3.469  0.00  0.00    -0.016 A 
ATOM     11  C   UNL d   1       1.209   1.217  -4.679  0.00  0.00    -0.025 A 
ATOM     12  C   UNL d   1      -0.586   2.017  -3.259  0.00  0.00     0.013 A 
ATOM     13  C   UNL d   1       0.873   2.209  -5.615  0.00  0.00     0.012 A 
ATOM     14  C   UNL d   1       2.267   0.331  -4.939  0.00  0.00     0.012 A 
ATOM     15  C   UNL d   1      -0.186   3.084  -5.384  0.00  0.00     0.001 A 
ATOM     16  C   UNL d   1      -0.919   2.986  -4.208  0.00  0.00     0.001 A 
ATOM     17  C   UNL d   1       2.596  -0.677  -4.035  0.00  0.00     0.002 A 
ATOM     18  C   UNL d   1       1.895  -0.792  -2.839  0.00  0.00     0.012 A 
ENDBRANCH   2   9
TORSDOF 3
