REMARK  6 active torsions:
REMARK  status: ('A' for Active; 'I' for Inactive)
REMARK    1  A    between atoms: C_4  and  C_1 
REMARK    2  A    between atoms: N_7  and  C_1 
REMARK    3  A    between atoms: O_10  and  N_2 
REMARK    4  A    between atoms: O_8  and  C_9 
REMARK    5  A    between atoms: C_11  and  O_8 
REMARK    6  A    between atoms: C_14  and  C_11 
ROOT
ATOM      1  C   UNL d   1       0.364  -0.978  -0.905  0.00  0.00     0.004 A 
ATOM      2  C   UNL d   1       0.815  -2.283  -1.118  0.00  0.00     0.017 A 
ATOM      3  C   UNL d   1      -0.754  -0.507  -1.601  0.00  0.00     0.017 A 
ATOM      4  C   UNL d   1      -0.921  -2.616  -2.778  0.00  0.00     0.069 A 
ATOM      5  C   UNL d   1      -1.400  -1.328  -2.526  0.00  0.00     0.037 A 
ATOM      6  C   UNL d   1       0.163  -3.103  -2.046  0.00  0.00     0.037 A 
ENDROOT
BRANCH   1   7
ATOM      7  C   UNL d   1       1.080  -0.066   0.034  0.00  0.00     0.108 C 
ATOM      8  N   UNL d   1       2.350  -0.259   0.252  0.00  0.00    -0.258 N 
ATOM      9  HN  UNL d   1       2.903  -1.004  -0.171  1.00  0.00     0.195 HD
BRANCH   8  10
ATOM     10  O   UNL d   1       2.853   0.700   1.148  0.00  0.00    -0.289 OA
ATOM     11  H   UNL d   1       3.813   0.543   1.090  0.00  0.00     0.244 HD
ENDBRANCH   8  10
BRANCH   7  12
ATOM     12  N   UNL d   1       0.379   0.956   0.633  0.00  0.00    -0.287 NA
ATOM     13  H   UNL d   1       0.948   1.359   1.375  0.00  0.00     0.125 HD
ATOM     14  H   UNL d   1      -0.548   0.703   0.956  0.00  0.00     0.125 HD
ENDBRANCH   7  12
ENDBRANCH   1   7
BRANCH   4  15
ATOM     15  O   UNL d   1      -1.434  -3.466  -3.724  0.00  0.00    -0.347 OA
BRANCH  15  16
ATOM     16  C   UNL d   1      -2.130  -2.819  -4.792  0.00  0.00     0.214 C 
BRANCH  16  17
ATOM     17  C   UNL d   1      -2.208  -3.729  -5.994  0.00  0.00    -0.034 A 
ATOM     18  C   UNL d   1      -2.957  -4.915  -5.950  0.00  0.00     0.009 A 
ATOM     19  C   UNL d   1      -3.064  -5.721  -7.083  0.00  0.00     0.001 A 
ATOM     20  C   UNL d   1      -2.425  -5.354  -8.267  0.00  0.00     0.000 A 
ATOM     21  C   UNL d   1      -1.670  -4.185  -8.317  0.00  0.00     0.001 A 
ATOM     22  C   UNL d   1      -1.560  -3.376  -7.186  0.00  0.00     0.009 A 
ENDBRANCH  16  17
ENDBRANCH  15  16
ENDBRANCH   4  15
TORSDOF 6
