REMARK  8 active torsions:
REMARK  status: ('A' for Active; 'I' for Inactive)
REMARK    1  A    between atoms: N_2  and  C_1 
REMARK    2  A    between atoms: C_3  and  C_1 
REMARK    3  A    between atoms: C_4  and  C_1 
REMARK    4  A    between atoms: N_7  and  C_1 
REMARK       I    between atoms: C_5  and  N_2 
REMARK    5  A    between atoms: C_6  and  C_5 
REMARK    6  A    between atoms: C_10  and  N_7 
REMARK    7  A    between atoms: O_25  and  C_12 
REMARK    8  A    between atoms: C_27  and  O_25 
ROOT
ATOM      1  C   UNL d   1       1.211  -0.214  -0.598  0.00  0.00     0.306 C 
ENDROOT
BRANCH   1   2
ATOM      2  N   UNL d   1       0.088  -0.788   0.161  0.00  0.00    -0.315 N 
ATOM      3  C   UNL d   1       0.227  -1.265   1.434  0.00  0.00     0.256 C 
ATOM      4  O   UNL d   1       1.320  -1.626   1.858  0.00  0.00    -0.267 OA
ATOM      5  H   UNL d   1      -0.821  -0.416  -0.092  0.00  0.00     0.165 HD
BRANCH   3   6
ATOM      6  C   UNL d   1      -0.968  -1.288   2.330  0.00  0.00     0.065 A 
ATOM      7  C   UNL d   1      -2.250  -0.830   1.974  0.00  0.00     0.084 A 
ATOM      8  C   UNL d   1      -3.249  -0.741   2.954  0.00  0.00     0.038 A 
ATOM      9  C   UNL d   1      -3.009  -1.180   4.258  0.00  0.00     0.003 A 
ATOM     10  C   UNL d   1      -1.768  -1.705   4.596  0.00  0.00     0.001 A 
ATOM     11  C   UNL d   1      -0.753  -1.750   3.642  0.00  0.00     0.020 A 
BRANCH   7  12
ATOM     12  O   UNL d   1      -2.482  -0.430   0.681  0.00  0.00    -0.350 OA
BRANCH  12  13
ATOM     13  C   UNL d   1      -3.759  -0.829   0.161  0.00  0.00     0.171 C 
ATOM     14  C   UNL d   1      -3.575  -1.207  -1.298  0.00  0.00     0.034 C 
ENDBRANCH  12  13
ENDBRANCH   7  12
ENDBRANCH   3   6
ENDBRANCH   1   2
BRANCH   1  15
ATOM     15  C   UNL d   1       2.576  -0.995  -0.622  0.00  0.00     0.441 C 
ATOM     16  F   UNL d   1       3.276  -1.033   0.523  0.00  0.00    -0.166 F 
ATOM     17  F   UNL d   1       2.373  -2.280  -1.026  0.00  0.00    -0.166 F 
ATOM     18  F   UNL d   1       3.409  -0.451  -1.556  0.00  0.00    -0.166 F 
ENDBRANCH   1  15
BRANCH   1  19
ATOM     19  C   UNL d   1       1.648   1.198  -0.101  0.00  0.00     0.441 C 
ATOM     20  F   UNL d   1       0.589   1.877   0.421  0.00  0.00    -0.166 F 
ATOM     21  F   UNL d   1       2.581   1.183   0.875  0.00  0.00    -0.166 F 
ATOM     22  F   UNL d   1       2.140   1.969  -1.101  0.00  0.00    -0.166 F 
ENDBRANCH   1  19
BRANCH   1  23
ATOM     23  N   UNL d   1       0.631  -0.294  -1.987  0.00  0.00    -0.349 N 
ATOM     24  H   UNL d   1       0.824  -1.202  -2.410  0.00  0.00     0.162 HD
BRANCH  23  25
ATOM     25  C   UNL d   1      -0.103   0.568  -2.759  0.00  0.00     0.032 A 
ATOM     26  C   UNL d   1      -0.154   0.313  -4.144  0.00  0.00     0.056 A 
ATOM     27  C   UNL d   1      -0.836   1.158  -5.022  0.00  0.00     0.074 A 
ATOM     28 CL   UNL d   1      -0.858   0.793  -6.705  0.00  0.00    -0.081 Cl
ATOM     29  C   UNL d   1      -1.479   2.281  -4.528  0.00  0.00     0.138 A 
ATOM     30  C   UNL d   1      -1.445   2.561  -3.170  0.00  0.00     0.046 A 
ATOM     31  F   UNL d   1      -2.143   3.114  -5.345  0.00  0.00    -0.204 F 
ATOM     32  C   UNL d   1      -0.758   1.707  -2.294  0.00  0.00     0.032 A 
ENDBRANCH  23  25
ENDBRANCH   1  23
TORSDOF 8
