REMARK  4 active torsions:
REMARK  status: ('A' for Active; 'I' for Inactive)
REMARK    1  A    between atoms: C_6  and  N_1 
REMARK    2  A    between atoms: C_17  and  C_4 
REMARK    3  A    between atoms: C_9  and  C_10 
REMARK    4  A    between atoms: C_15  and  C_17 
ROOT
ATOM      1  N   UNL d   1       0.052   0.819  -0.058  0.00  0.00    -0.252 N 
ATOM      2  C   UNL d   1      -0.914   0.077   0.580  0.00  0.00     0.232 A 
ATOM      3  C   UNL d   1       1.008   0.016  -0.640  0.00  0.00     0.236 A 
ATOM      4  C   UNL d   1       0.633  -1.428  -0.457  0.00  0.00     0.091 A 
ATOM      5  C   UNL d   1      -0.626  -1.383   0.389  0.00  0.00     0.118 A 
ATOM      6  O   UNL d   1      -1.899   0.457   1.201  0.00  0.00    -0.273 OA
ATOM      7  O   UNL d   1       2.046   0.338  -1.204  0.00  0.00    -0.272 OA
ENDROOT
BRANCH   1   8
ATOM      8  C   UNL d   1       0.080   2.243  -0.105  0.00  0.00     0.045 A 
ATOM      9  C   UNL d   1      -0.580   3.030   0.844  0.00  0.00     0.031 A 
ATOM     10  C   UNL d   1      -0.528   4.432   0.790  0.00  0.00     0.010 A 
ATOM     11  C   UNL d   1       0.164   5.106  -0.230  0.00  0.00    -0.051 A 
ATOM     12  C   UNL d   1       0.813   4.313  -1.182  0.00  0.00     0.010 A 
ATOM     13  C   UNL d   1       0.773   2.915  -1.119  0.00  0.00     0.031 A 
BRANCH  11  14
ATOM     14  C   UNL d   1       0.174   6.641  -0.290  0.00  0.00    -0.024 C 
ATOM     15  C   UNL d   1       0.941   7.204  -1.509  0.00  0.00     0.019 C 
ATOM     16  C   UNL d   1      -1.276   7.160  -0.383  0.00  0.00     0.019 C 
ATOM     17  C   UNL d   1       0.842   7.216   0.977  0.00  0.00     0.019 C 
ENDBRANCH  11  14
ENDBRANCH   1   8
BRANCH   4  18
ATOM     18  C   UNL d   1       0.458  -2.076  -1.832  0.00  0.00     0.041 C 
BRANCH  18  19
ATOM     19  C   UNL d   1       0.116  -3.533  -1.737  0.00  0.00    -0.036 C 
ATOM     20  C   UNL d   1      -1.014  -4.065  -2.224  0.00  0.00     0.007 C 
ENDBRANCH  18  19
ENDBRANCH   4  18
TORSDOF 4
