REMARK  1 active torsions:
REMARK  status: ('A' for Active; 'I' for Inactive)
REMARK    1  A    between atoms: C_4  and  N_1 
ROOT
ATOM      1  N   UNL d   1       0.557   1.155  -0.659  0.00  0.00    -0.251 N 
ATOM      2  C   UNL d   1       1.358   0.031  -0.452  0.00  0.00     0.232 C 
ATOM      3  C   UNL d   1      -0.776   1.206  -0.244  0.00  0.00     0.232 C 
ATOM      4  C   UNL d   1       0.640  -1.301  -0.338  0.00  0.00     0.113 C 
ATOM      5  C   UNL d   1      -1.528  -0.101  -0.293  0.00  0.00     0.113 C 
ATOM      6  C   UNL d   1      -0.736  -1.249   0.324  0.00  0.00    -0.031 C 
ATOM      7  O   UNL d   1      -1.343   2.227   0.151  0.00  0.00    -0.273 OA
ATOM      8  O   UNL d   1       2.591   0.030  -0.456  0.00  0.00    -0.273 OA
ATOM      9  C   UNL d   1      -1.478  -2.569   0.040  0.00  0.00     0.016 C 
ATOM     10  C   UNL d   1      -0.608  -1.079   1.847  0.00  0.00     0.016 C 
ENDROOT
BRANCH   1  11
ATOM     11  C   UNL d   1       1.159   2.407  -1.042  0.00  0.00     0.068 A 
ATOM     12  C   UNL d   1       2.355   2.853  -0.453  0.00  0.00     0.055 A 
ATOM     13  C   UNL d   1       2.929   4.066  -0.841  0.00  0.00     0.036 A 
ATOM     14 CL   UNL d   1       4.395   4.592  -0.106  0.00  0.00    -0.084 Cl
ATOM     15  C   UNL d   1       2.334   4.857  -1.819  0.00  0.00     0.026 A 
ATOM     16  C   UNL d   1       1.155   4.427  -2.426  0.00  0.00     0.028 A 
ATOM     17  C   UNL d   1       0.574   3.211  -2.050  0.00  0.00     0.061 A 
ATOM     18 CL   UNL d   1      -0.788   2.687  -2.990  0.00  0.00    -0.082 Cl
ENDBRANCH   1  11
TORSDOF 1
