REMARK  2 active torsions:
REMARK  status: ('A' for Active; 'I' for Inactive)
REMARK    1  A    between atoms: N_3  and  C_1 
REMARK       I    between atoms: C_7  and  N_3 
REMARK       I    between atoms: N_9  and  C_7 
REMARK    2  A    between atoms: C_10  and  N_9 
ROOT
ATOM      1  N   UNL d   1       3.343  -3.543  -0.099  0.00  0.00    -0.292 N 
ATOM      2  C   UNL d   1       2.147  -2.847  -0.389  0.00  0.00     0.326 C 
ATOM      3  N   UNL d   1       0.967  -3.379   0.025  0.00  0.00    -0.309 N 
ATOM      4  O   UNL d   1       2.364  -1.747  -0.872  0.00  0.00    -0.247 OA
ATOM      5  H   UNL d   1       4.103  -2.879  -0.177  0.00  0.00     0.172 HD
ATOM      6  H   UNL d   1       1.000  -4.181   0.639  0.00  0.00     0.170 HD
ENDROOT
BRANCH   1   7
ATOM      7  C   UNL d   1       3.692  -4.881  -0.010  0.00  0.00     0.144 A 
ATOM      8  C   UNL d   1       2.985  -6.060  -0.123  0.00  0.00     0.073 A 
ATOM      9  C   UNL d   1       3.946  -7.090  -0.116  0.00  0.00     0.130 A 
ATOM     10 BR   UNL d   1       1.169  -6.461  -0.318  0.00  0.00    -0.045 Br
ATOM     11  N   UNL d   1       5.181  -6.624   0.049  0.00  0.00    -0.307 N 
ATOM     12  N   UNL d   1       5.009  -5.295   0.156  0.00  0.00    -0.280 N 
ATOM     13  HN  UNL d   1       6.054  -7.151   0.086  1.00  0.00     0.186 HD
ATOM     14  C   UNL d   1       6.176  -4.488   0.430  0.00  0.00     0.179 C 
ENDBRANCH   1   7
BRANCH   3  15
ATOM     15  C   UNL d   1      -0.274  -2.706  -0.105  0.00  0.00     0.037 A 
ATOM     16  C   UNL d   1      -0.484  -1.701  -1.059  0.00  0.00     0.036 A 
ATOM     17  C   UNL d   1      -1.678  -0.972  -1.096  0.00  0.00    -0.059 A 
ATOM     18  C   UNL d   1      -1.875   0.127  -2.100  0.00  0.00     0.048 C 
ATOM     19  C   UNL d   1      -2.681  -1.268  -0.172  0.00  0.00     0.013 A 
ATOM     20  C   UNL d   1      -2.509  -2.295   0.766  0.00  0.00    -0.059 A 
ATOM     21  C   UNL d   1      -1.310  -3.029   0.778  0.00  0.00     0.036 A 
ATOM     22  C   UNL d   1      -3.595  -2.552   1.771  0.00  0.00     0.048 C 
ENDBRANCH   3  15
TORSDOF 2
