REMARK  3 active torsions:
REMARK  status: ('A' for Active; 'I' for Inactive)
REMARK    1  A    between atoms: C_3  and  C_1 
REMARK    2  A    between atoms: C_8  and  C_3 
REMARK    3  A    between atoms: O_13  and  C_10 
ROOT
ATOM      1  N   UNL d   1      -0.950  -5.286  -1.673  0.00  0.00    -0.197 NA
ATOM      2  C   UNL d   1      -0.201  -4.524  -1.216  0.00  0.00     0.067 C 
ATOM      3  C   UNL d   1       0.817  -3.610  -0.698  0.00  0.00     0.207 C 
ENDROOT
BRANCH   3   4
ATOM      4  C   UNL d   1       0.210  -2.422   0.015  0.00  0.00     0.173 C 
ATOM      5  O   UNL d   1      -0.820  -2.510   0.675  0.00  0.00    -0.291 OA
BRANCH   4   6
ATOM      6  C   UNL d   1       0.971  -1.135  -0.008  0.00  0.00     0.031 A 
ATOM      7  C   UNL d   1       0.339   0.117  -0.041  0.00  0.00     0.025 A 
ATOM      8  C   UNL d   1       1.111   1.284  -0.024  0.00  0.00     0.023 A 
ATOM      9 BR   UNL d   1      -1.541   0.358  -0.176  0.00  0.00    -0.050 Br
ATOM     10  C   UNL d   1       2.504   1.208   0.014  0.00  0.00     0.038 A 
ATOM     11  C   UNL d   1       3.145  -0.029   0.041  0.00  0.00     0.069 A 
ATOM     12  C   UNL d   1       2.378  -1.195   0.042  0.00  0.00     0.053 A 
BRANCH  11  13
ATOM     13  O   UNL d   1       4.509   0.034   0.072  0.00  0.00    -0.356 OA
ATOM     14  C   UNL d   1       5.221  -1.198   0.053  0.00  0.00     0.210 C 
ENDBRANCH  11  13
ENDBRANCH   4   6
ENDBRANCH   3   4
TORSDOF 3
