REMARK  4 active torsions:
REMARK  status: ('A' for Active; 'I' for Inactive)
REMARK    1  A    between atoms: C_4  and  N_1 
REMARK    2  A    between atoms: S_7  and  C_5 
REMARK    3  A    between atoms: C_8  and  S_7 
REMARK    4  A    between atoms: N_14  and  C_13 
ROOT
ATOM      1  N   UNL d   1       0.032   0.858  -0.073  0.00  0.00    -0.246 N 
ATOM      2  C   UNL d   1      -1.110   0.140   0.155  0.00  0.00     0.233 C 
ATOM      3  C   UNL d   1       1.155   0.074  -0.123  0.00  0.00     0.246 C 
ATOM      4  C   UNL d   1       0.721  -1.376  -0.155  0.00  0.00     0.154 C 
ATOM      5  C   UNL d   1      -0.761  -1.319   0.193  0.00  0.00     0.129 C 
ATOM      6  O   UNL d   1      -2.246   0.566   0.301  0.00  0.00    -0.273 OA
ATOM      7  O   UNL d   1       2.319   0.451  -0.102  0.00  0.00    -0.271 OA
ENDROOT
BRANCH   4   8
ATOM      8  S   UNL d   1       1.079  -2.014  -1.837  0.00  0.00    -0.113 SA
BRANCH   8   9
ATOM      9  C   UNL d   1       0.550  -3.723  -1.691  0.00  0.00     0.022 A 
ATOM     10  C   UNL d   1      -0.429  -4.226  -2.574  0.00  0.00     0.022 A 
ATOM     11  C   UNL d   1      -0.850  -5.553  -2.437  0.00  0.00     0.024 A 
ATOM     12  C   UNL d   1      -0.235  -6.404  -1.518  0.00  0.00     0.002 A 
ATOM     13  C   UNL d   1       0.781  -5.922  -0.696  0.00  0.00     0.001 A 
ATOM     14  C   UNL d   1       1.170  -4.584  -0.776  0.00  0.00     0.020 A 
BRANCH  10  15
ATOM     15  N   UNL d   1      -1.144  -3.369  -3.438  0.00  0.00    -0.302 NA
ATOM     16  H   UNL d   1      -0.586  -2.550  -3.681  0.00  0.00     0.124 HD
ATOM     17  H   UNL d   1      -1.506  -3.839  -4.261  0.00  0.00     0.124 HD
ENDBRANCH  10  15
ENDBRANCH   8   9
ENDBRANCH   4   8
BRANCH   1  18
ATOM     18  C   UNL d   1       0.062   2.267  -0.148  0.00  0.00     0.105 A 
ATOM     19  C   UNL d   1      -0.408   3.034   0.924  0.00  0.00     0.145 A 
ATOM     20  F   UNL d   1      -0.804   2.435   2.058  0.00  0.00    -0.204 F 
ATOM     21  C   UNL d   1      -0.417   4.427   0.873  0.00  0.00     0.045 A 
ATOM     22  C   UNL d   1       0.033   5.080  -0.272  0.00  0.00     0.005 A 
ATOM     23  C   UNL d   1       0.501   4.334  -1.355  0.00  0.00     0.026 A 
ATOM     24  C   UNL d   1       0.525   2.934  -1.293  0.00  0.00     0.064 A 
ATOM     25 CL   UNL d   1       1.013   2.085  -2.720  0.00  0.00    -0.082 Cl
ENDBRANCH   1  18
TORSDOF 4
