REMARK  6 active torsions:
REMARK  status: ('A' for Active; 'I' for Inactive)
REMARK    1  A    between atoms: C_12  and  N_1 
REMARK    2  A    between atoms: N_2  and  C_11 
REMARK    3  A    between atoms: C_11  and  N_13 
REMARK    4  A    between atoms: N_13  and  C_12 
REMARK    5  A    between atoms: C_24  and  N_13 
REMARK    6  A    between atoms: C_25  and  C_24 
ROOT
ATOM      1  N   UNL d   1       3.859   1.351   0.038  0.00  0.00     0.128 N 
ENDROOT
BRANCH   1   2
ATOM      2  C   UNL d   1       3.587   1.824   1.402  0.00  0.00     0.410 C 
BRANCH   2   3
ATOM      3  N   UNL d   1       4.088   3.158   1.640  0.00  0.00    -0.252 N 
ATOM      4  C   UNL d   1       3.530   4.292   1.107  0.00  0.00     0.263 C 
ATOM      5  C   UNL d   1       4.161   5.426   1.798  0.00  0.00     0.048 A 
ATOM      6  O   UNL d   1       2.634   4.425   0.299  0.00  0.00    -0.267 OA
ATOM      7  C   UNL d   1       4.008   6.789   1.634  0.00  0.00     0.018 A 
ATOM      8  C   UNL d   1       4.962   4.904   2.794  0.00  0.00     0.048 A 
ATOM      9  C   UNL d   1       4.717   7.626   2.501  0.00  0.00     0.001 A 
ATOM     10  C   UNL d   1       5.543   7.088   3.510  0.00  0.00     0.001 A 
ATOM     11  C   UNL d   1       5.673   5.708   3.668  0.00  0.00     0.018 A 
ATOM     12  C   UNL d   1       4.839   3.457   2.745  0.00  0.00     0.263 C 
ATOM     13  O   UNL d   1       5.277   2.728   3.616  0.00  0.00    -0.267 OA
ENDBRANCH   2   3
ENDBRANCH   1   2
BRANCH   1  14
ATOM     14  C   UNL d   1       3.217   0.053  -0.234  0.00  0.00     0.410 C 
BRANCH  14  15
ATOM     15  N   UNL d   1       1.790   0.088  -0.042  0.00  0.00    -0.252 N 
ATOM     16  C   UNL d   1       1.198  -0.286   1.133  0.00  0.00     0.263 C 
ATOM     17  C   UNL d   1      -0.236  -0.142   0.943  0.00  0.00     0.048 A 
ATOM     18  O   UNL d   1       1.713  -0.672   2.166  0.00  0.00    -0.267 OA
ATOM     19  C   UNL d   1      -1.266  -0.279   1.851  0.00  0.00     0.018 A 
ATOM     20  C   UNL d   1      -0.446   0.211  -0.378  0.00  0.00     0.048 A 
ATOM     21  C   UNL d   1      -2.557  -0.033   1.382  0.00  0.00     0.001 A 
ATOM     22  C   UNL d   1      -2.780   0.319   0.033  0.00  0.00     0.001 A 
ATOM     23  C   UNL d   1      -1.715   0.437  -0.869  0.00  0.00     0.018 A 
ATOM     24  C   UNL d   1       0.865   0.290  -1.028  0.00  0.00     0.263 C 
ATOM     25  O   UNL d   1       1.023   0.437  -2.224  0.00  0.00    -0.267 OA
ENDBRANCH  14  15
ENDBRANCH   1  14
BRANCH   1  26
ATOM     26  C   UNL d   1       5.301   1.302  -0.302  0.00  0.00     0.315 C 
BRANCH  26  27
ATOM     27  C   UNL d   1       6.196   0.474   0.607  0.00  0.00    -0.027 A 
ATOM     28  C   UNL d   1       7.060   1.113   1.513  0.00  0.00     0.048 A 
ATOM     29  C   UNL d   1       7.748   0.339   2.425  0.00  0.00     0.105 A 
ATOM     30  O   UNL d   1       8.587   0.803   3.389  0.00  0.00    -0.323 OA
ATOM     31  C   UNL d   1       7.623  -1.028   2.455  0.00  0.00     0.105 A 
ATOM     32  C   UNL d   1       8.894  -0.420   4.088  0.00  0.00     0.352 A 
ATOM     33  O   UNL d   1       8.342  -1.595   3.459  0.00  0.00    -0.323 OA
ATOM     34  C   UNL d   1       6.846  -1.701   1.542  0.00  0.00     0.040 A 
ATOM     35  C   UNL d   1       6.154  -0.941   0.593  0.00  0.00     0.012 A 
ENDBRANCH  26  27
ENDBRANCH   1  26
TORSDOF 6
