REMARK  4 active torsions:
REMARK  status: ('A' for Active; 'I' for Inactive)
REMARK    1  A    between atoms: N_8  and  C_2 
REMARK    2  A    between atoms: C_14  and  N_3 
REMARK    3  A    between atoms: C_7  and  C_6 
REMARK    4  A    between atoms: C_16  and  C_10 
ROOT
ATOM      1  C   UNL d   1      -2.912  -2.712   0.133  0.00  0.00     0.120 C 
ATOM      2  C   UNL d   1      -3.902  -3.676   0.009  0.00  0.00     0.157 C 
ATOM      3  N   UNL d   1      -5.099  -2.983  -0.046  0.00  0.00    -0.237 N 
ATOM      4  N   UNL d   1      -4.883  -1.636  -0.219  0.00  0.00    -0.289 N 
ATOM      5  HN  UNL d   1      -5.576  -0.929  -0.466  1.00  0.00     0.188 HD
ATOM      6  C   UNL d   1      -3.558  -1.441   0.007  0.00  0.00     0.094 C 
ATOM      7  C   UNL d   1      -1.506  -2.964   0.184  0.00  0.00     0.106 C 
ATOM      8  N   UNL d   1      -0.367  -3.181   0.201  0.00  0.00    -0.191 NA
ENDROOT
BRANCH   2   9
ATOM      9  N   UNL d   1      -3.775  -5.074  -0.125  0.00  0.00    -0.316 N 
ATOM     10  C   UNL d   1      -4.619  -5.928  -0.821  0.00  0.00     0.098 A 
ATOM     11  C   UNL d   1      -4.203  -7.233  -0.672  0.00  0.00     0.019 A 
ATOM     12  C   UNL d   1      -3.021  -7.197   0.087  0.00  0.00     0.019 A 
ATOM     13  C   UNL d   1      -2.770  -5.874   0.389  0.00  0.00     0.098 A 
ENDBRANCH   2   9
BRANCH   6  14
ATOM     14  C   UNL d   1      -2.883  -0.109   0.025  0.00  0.00     0.075 C 
ATOM     15  C   UNL d   1      -3.409   0.940  -0.672  0.00  0.00     0.036 C 
ATOM     16  C   UNL d   1      -1.635   0.062   0.807  0.00  0.00     0.102 C 
ATOM     17  N   UNL d   1      -0.658   0.191   1.419  0.00  0.00    -0.191 NA
BRANCH  15  18
ATOM     18  C   UNL d   1      -2.794   2.276  -0.746  0.00  0.00    -0.033 A 
ATOM     19  C   UNL d   1      -3.142   3.268   0.177  0.00  0.00     0.037 A 
ATOM     20  C   UNL d   1      -2.561   4.541   0.101  0.00  0.00     0.056 A 
ATOM     21 CL   UNL d   1      -3.062   5.721   1.260  0.00  0.00    -0.083 Cl
ATOM     22  C   UNL d   1      -1.621   4.824  -0.895  0.00  0.00     0.055 A 
ATOM     23  C   UNL d   1      -1.259   3.828  -1.807  0.00  0.00     0.026 A 
ATOM     24 CL   UNL d   1      -0.881   6.376  -1.062  0.00  0.00    -0.083 Cl
ATOM     25  C   UNL d   1      -1.843   2.559  -1.734  0.00  0.00     0.013 A 
ENDBRANCH  15  18
ENDBRANCH   6  14
BRANCH   3  26
ATOM     26  C   UNL d   1      -6.423  -3.509   0.100  0.00  0.00     0.058 A 
ATOM     27  C   UNL d   1      -6.670  -4.596   0.962  0.00  0.00     0.031 A 
ATOM     28  C   UNL d   1      -7.909  -5.243   0.956  0.00  0.00     0.002 A 
ATOM     29  C   UNL d   1      -8.919  -4.795   0.111  0.00  0.00     0.000 A 
ATOM     30  C   UNL d   1      -8.702  -3.678  -0.701  0.00  0.00     0.002 A 
ATOM     31  C   UNL d   1      -7.464  -3.019  -0.696  0.00  0.00     0.031 A 
ENDBRANCH   3  26
TORSDOF 4
