REMARK  10 active torsions:
REMARK  status: ('A' for Active; 'I' for Inactive)
REMARK    1  A    between atoms: S_2  and  C_1 
REMARK    2  A    between atoms: N_8  and  S_2 
REMARK    3  A    between atoms: C_7  and  C_3 
REMARK    4  A    between atoms: C_12  and  N_4 
REMARK    5  A    between atoms: C_13  and  C_5 
REMARK    6  A    between atoms: O_22  and  C_7 
REMARK    7  A    between atoms: C_16  and  N_8 
REMARK    8  A    between atoms: C_9  and  O_14 
REMARK    9  A    between atoms: O_14  and  C_21 
REMARK   10  A    between atoms: C_31  and  O_22 
ROOT
ATOM      1  C   UNL d   1      -0.238  -1.226  -0.078  0.00  0.00     0.126 A 
ATOM      2  C   UNL d   1       1.095  -0.714  -0.104  0.00  0.00     0.087 A 
ATOM      3  N   UNL d   1      -0.354   1.033  -0.025  0.00  0.00    -0.312 N 
ATOM      4  C   UNL d   1      -1.141  -0.144  -0.012  0.00  0.00     0.074 A 
ATOM      5  C   UNL d   1       0.991   0.672  -0.038  0.00  0.00     0.031 A 
ATOM      6  C   UNL d   1       2.123   1.648   0.094  0.00  0.00     0.070 C 
ENDROOT
BRANCH   1   7
ATOM      7  S   UNL d   1      -0.626  -2.926  -0.166  0.00  0.00     0.266 S 
ATOM      8  O   UNL d   1       0.567  -3.588  -0.651  0.00  0.00    -0.200 OA
ATOM      9  O   UNL d   1      -1.162  -3.215   1.143  0.00  0.00    -0.200 OA
BRANCH   7  10
ATOM     10  N   UNL d   1      -1.852  -3.180  -1.302  0.00  0.00    -0.281 N 
ATOM     11  H   UNL d   1      -2.678  -2.617  -1.100  0.00  0.00     0.179 HD
BRANCH  10  12
ATOM     12  C   UNL d   1      -1.459  -3.236  -2.671  0.00  0.00     0.042 A 
ATOM     13  C   UNL d   1      -0.731  -4.331  -3.150  0.00  0.00     0.033 A 
ATOM     14  C   UNL d   1      -0.348  -4.398  -4.492  0.00  0.00     0.039 A 
ATOM     15  C   UNL d   1      -0.734  -3.389  -5.370  0.00  0.00     0.078 A 
ATOM     16  C   UNL d   1      -1.409  -2.267  -4.874  0.00  0.00     0.039 A 
ATOM     17  C   UNL d   1      -1.774  -2.188  -3.528  0.00  0.00     0.033 A 
BRANCH  15  18
ATOM     18  O   UNL d   1      -0.470  -3.361  -6.705  0.00  0.00    -0.255 OA
BRANCH  18  19
ATOM     19  C   UNL d   1      -0.474  -4.588  -7.425  0.00  0.00     0.530 C 
ATOM     20  F   UNL d   1      -0.951  -5.640  -6.727  0.00  0.00    -0.144 F 
ATOM     21  F   UNL d   1      -1.255  -4.436  -8.520  0.00  0.00    -0.144 F 
ATOM     22  F   UNL d   1       0.779  -4.869  -7.839  0.00  0.00    -0.144 F 
ENDBRANCH  18  19
ENDBRANCH  15  18
ENDBRANCH  10  12
ENDBRANCH   7  10
ENDBRANCH   1   7
BRANCH   2  23
ATOM     23  C   UNL d   1       2.370  -1.419  -0.236  0.00  0.00     0.296 C 
ATOM     24  O   UNL d   1       3.233  -1.041  -1.026  0.00  0.00    -0.259 OA
BRANCH  23  25
ATOM     25  O   UNL d   1       2.509  -2.483   0.601  0.00  0.00    -0.318 OA
BRANCH  25  26
ATOM     26  C   UNL d   1       3.512  -3.438   0.212  0.00  0.00     0.174 C 
ATOM     27  C   UNL d   1       4.478  -3.672   1.353  0.00  0.00     0.034 C 
ENDBRANCH  25  26
ENDBRANCH  23  25
ENDBRANCH   2  23
BRANCH   4  28
ATOM     28  C   UNL d   1      -2.628  -0.155  -0.034  0.00  0.00    -0.007 A 
ATOM     29  C   UNL d   1      -3.357   0.675  -0.905  0.00  0.00     0.014 A 
ATOM     30  C   UNL d   1      -4.754   0.739  -0.849  0.00  0.00     0.001 A 
ATOM     31  C   UNL d   1      -5.457  -0.092   0.015  0.00  0.00     0.000 A 
ATOM     32  C   UNL d   1      -4.760  -0.968   0.839  0.00  0.00     0.001 A 
ATOM     33  C   UNL d   1      -3.360  -0.973   0.838  0.00  0.00     0.014 A 
ENDBRANCH   4  28
BRANCH   3  34
ATOM     34  C   UNL d   1      -0.825   2.392  -0.044  0.00  0.00     0.040 A 
ATOM     35  C   UNL d   1      -1.892   2.802   0.764  0.00  0.00     0.030 A 
ATOM     36  C   UNL d   1      -2.391   4.105   0.663  0.00  0.00     0.002 A 
ATOM     37  C   UNL d   1      -1.807   5.017  -0.215  0.00  0.00     0.000 A 
ATOM     38  C   UNL d   1      -0.726   4.627  -1.001  0.00  0.00     0.002 A 
ATOM     39  C   UNL d   1      -0.244   3.318  -0.926  0.00  0.00     0.030 A 
ENDBRANCH   3  34
TORSDOF 10
