REMARK  4 active torsions:
REMARK  status: ('A' for Active; 'I' for Inactive)
REMARK    1  A    between atoms: C_12  and  C_5 
REMARK    2  A    between atoms: C_13  and  C_8 
REMARK    3  A    between atoms: O_17  and  C_12 
REMARK    4  A    between atoms: C_23  and  O_17 
ROOT
ATOM      1  N   UNL d   1      -0.232  -0.653  -0.038  0.00  0.00    -0.243 N 
ATOM      2  C   UNL d   1      -0.166   0.740  -0.036  0.00  0.00     0.129 A 
ATOM      3  N   UNL d   1      -1.518  -1.082  -0.021  0.00  0.00    -0.292 N 
ATOM      4  HN  UNL d   1      -1.841  -2.049  -0.009  1.00  0.00     0.187 HD
ATOM      5  C   UNL d   1       2.137  -0.821  -0.062  0.00  0.00     0.079 A 
ATOM      6  C   UNL d   1       0.933  -1.444  -0.043  0.00  0.00     0.050 A 
ATOM      7  C   UNL d   1      -1.466   1.183  -0.023  0.00  0.00     0.082 A 
ATOM      8  C   UNL d   1      -2.278   0.023  -0.022  0.00  0.00     0.062 A 
ATOM      9  N   UNL d   1       1.015   1.419  -0.046  0.00  0.00    -0.350 N 
ATOM     10  HN  UNL d   1       1.059   2.438  -0.046  1.00  0.00     0.166 HD
ATOM     11  C   UNL d   1       2.081   0.676  -0.057  0.00  0.00     0.109 A 
ATOM     12  C   UNL d   1       0.699  -2.930   0.008  0.00  0.00     0.071 C 
ENDROOT
BRANCH   8  13
ATOM     13  C   UNL d   1      -3.744  -0.063  -0.028  0.00  0.00    -0.008 A 
ATOM     14  C   UNL d   1      -4.383  -1.314   0.018  0.00  0.00     0.015 A 
ATOM     15  C   UNL d   1      -5.778  -1.412  -0.003  0.00  0.00     0.024 A 
ATOM     16  C   UNL d   1      -6.549  -0.255  -0.067  0.00  0.00     0.034 A 
ATOM     17  C   UNL d   1      -5.938   0.995  -0.111  0.00  0.00     0.024 A 
ATOM     18 CL   UNL d   1      -8.265  -0.369  -0.098  0.00  0.00    -0.084 Cl
ATOM     19  C   UNL d   1      -4.541   1.091  -0.089  0.00  0.00     0.015 A 
ENDBRANCH   8  13
BRANCH   5  20
ATOM     20  C   UNL d   1       3.436  -1.528  -0.024  0.00  0.00     0.296 C 
ATOM     21  O   UNL d   1       3.641  -2.651  -0.446  0.00  0.00    -0.259 OA
BRANCH  20  22
ATOM     22  O   UNL d   1       4.335  -0.750   0.632  0.00  0.00    -0.318 OA
BRANCH  22  23
ATOM     23  C   UNL d   1       5.530  -1.410   1.073  0.00  0.00     0.174 C 
ATOM     24  C   UNL d   1       5.319  -1.828   2.516  0.00  0.00     0.034 C 
ENDBRANCH  22  23
ENDBRANCH  20  22
ENDBRANCH   5  20
TORSDOF 4
