REMARK  7 active torsions:
REMARK  status: ('A' for Active; 'I' for Inactive)
REMARK    1  A    between atoms: C_2  and  C_1 
REMARK    2  A    between atoms: C_10  and  C_2 
REMARK    3  A    between atoms: N_11  and  N_5 
REMARK    4  A    between atoms: N_13  and  C_7 
REMARK    5  A    between atoms: O_14  and  C_10 
REMARK    6  A    between atoms: C_15  and  N_11 
REMARK    7  A    between atoms: C_16  and  O_14 
ROOT
ATOM      1  C   UNL d   1      -1.988  -2.474   0.011  0.00  0.00     0.151 C 
ATOM      2  N   UNL d   1      -3.293  -2.373  -0.048  0.00  0.00    -0.293 N 
ATOM      3  HN  UNL d   1      -3.887  -3.198   0.039  1.00  0.00     0.187 HD
ENDROOT
BRANCH   1   4
ATOM      4  C   UNL d   1      -1.443  -3.831   0.104  0.00  0.00     0.075 A 
ATOM      5  N   UNL d   1      -0.072  -4.074   0.179  0.00  0.00    -0.335 N 
ATOM      6  C   UNL d   1       0.174  -5.359   0.146  0.00  0.00     0.142 A 
ATOM      7  HN  UNL d   1       0.642  -3.350   0.249  1.00  0.00     0.168 HD
ATOM      8  S   UNL d   1      -1.208  -6.371   0.085  0.00  0.00    -0.064 SA
ATOM      9  C   UNL d   1      -2.210  -4.984   0.073  0.00  0.00     0.085 A 
BRANCH   6  10
ATOM     10  N   UNL d   1       1.416  -5.867   0.132  0.00  0.00    -0.380 N 
ATOM     11  H   UNL d   1       2.151  -5.218  -0.127  0.00  0.00     0.158 HD
ATOM     12  H   UNL d   1       1.540  -6.801  -0.238  0.00  0.00     0.158 HD
ENDBRANCH   6  10
ENDBRANCH   1   4
BRANCH   1  13
ATOM     13  C   UNL d   1      -1.070  -1.252  -0.087  0.00  0.00     0.313 C 
ATOM     14  O   UNL d   1      -1.390  -0.159   0.359  0.00  0.00    -0.257 OA
BRANCH  13  15
ATOM     15  O   UNL d   1      -0.004  -1.530  -0.860  0.00  0.00    -0.317 OA
BRANCH  15  16
ATOM     16  C   UNL d   1       0.708  -0.411  -1.393  0.00  0.00     0.175 C 
ATOM     17  C   UNL d   1       0.118  -0.121  -2.759  0.00  0.00     0.034 C 
ENDBRANCH  15  16
ENDBRANCH  13  15
ENDBRANCH   1  13
BRANCH   2  18
ATOM     18  N   UNL d   1      -3.836  -1.137  -0.227  0.00  0.00    -0.300 N 
ATOM     19  H   UNL d   1      -3.316  -0.294   0.043  0.00  0.00     0.187 HD
BRANCH  18  20
ATOM     20  C   UNL d   1      -5.236  -0.983  -0.197  0.00  0.00     0.048 A 
ATOM     21  C   UNL d   1      -6.113  -2.059  -0.019  0.00  0.00     0.031 A 
ATOM     22  C   UNL d   1      -7.498  -1.877  -0.063  0.00  0.00     0.002 A 
ATOM     23  C   UNL d   1      -8.028  -0.615  -0.323  0.00  0.00     0.000 A 
ATOM     24  C   UNL d   1      -7.172   0.461  -0.540  0.00  0.00     0.002 A 
ATOM     25  C   UNL d   1      -5.787   0.276  -0.480  0.00  0.00     0.031 A 
ENDBRANCH  18  20
ENDBRANCH   2  18
TORSDOF 7
