REMARK  5 active torsions:
REMARK  status: ('A' for Active; 'I' for Inactive)
REMARK    1  A    between atoms: N_2  and  C_1 
REMARK    2  A    between atoms: N_4  and  C_1 
REMARK    3  A    between atoms: C_3  and  N_2 
REMARK    4  A    between atoms: C_12  and  N_4 
REMARK    5  A    between atoms: C_8  and  C_9 
ROOT
ATOM      1  N   UNL d   1       0.225  -0.932   0.433  0.00  0.00    -0.333 N 
ATOM      2  H   UNL d   1       0.548  -0.678   1.367  0.00  0.00     0.168 HD
ENDROOT
BRANCH   1   3
ATOM      3  C   UNL d   1       1.179  -0.829  -0.538  0.00  0.00     0.177 C 
ATOM      4  S   UNL d   1       1.215  -1.674  -1.988  0.00  0.00    -0.040 SA
BRANCH   3   5
ATOM      5  N   UNL d   1       2.222   0.023  -0.300  0.00  0.00    -0.319 N 
ATOM      6  H   UNL d   1       2.882   0.075  -1.063  0.00  0.00     0.169 HD
BRANCH   5   7
ATOM      7  C   UNL d   1       2.372   0.950   0.742  0.00  0.00     0.106 A 
ATOM      8  N   UNL d   1       1.536   0.924   1.802  0.00  0.00    -0.352 N 
ATOM      9  C   UNL d   1       1.676   1.902   2.726  0.00  0.00     0.089 A 
ATOM     10  HN  UNL d   1       0.827   0.197   1.901  1.00  0.00     0.166 HD
ATOM     11  C   UNL d   1       2.628   2.904   2.651  0.00  0.00     0.017 A 
ATOM     12  C   UNL d   1       3.499   2.896   1.571  0.00  0.00     0.005 A 
ATOM     13  C   UNL d   1       3.377   1.900   0.605  0.00  0.00     0.048 A 
ENDBRANCH   5   7
ENDBRANCH   3   5
ENDBRANCH   1   3
BRANCH   1  14
ATOM     14  C   UNL d   1      -1.162  -1.122   0.303  0.00  0.00     0.034 A 
ATOM     15  C   UNL d   1      -1.871  -1.610   1.398  0.00  0.00     0.030 A 
ATOM     16  C   UNL d   1      -3.266  -1.722   1.345  0.00  0.00     0.010 A 
ATOM     17  C   UNL d   1      -3.998  -1.294   0.220  0.00  0.00    -0.051 A 
ATOM     18  C   UNL d   1      -3.263  -0.798  -0.867  0.00  0.00     0.010 A 
ATOM     19  C   UNL d   1      -1.866  -0.722  -0.830  0.00  0.00     0.030 A 
BRANCH  17  20
ATOM     20  C   UNL d   1      -5.533  -1.371   0.210  0.00  0.00    -0.024 C 
ATOM     21  C   UNL d   1      -6.181  -0.716  -1.031  0.00  0.00     0.019 C 
ATOM     22  C   UNL d   1      -5.970  -2.850   0.235  0.00  0.00     0.019 C 
ATOM     23  C   UNL d   1      -6.108  -0.648   1.449  0.00  0.00     0.019 C 
ENDBRANCH  17  20
ENDBRANCH   1  14
TORSDOF 5
