REMARK  4 active torsions:
REMARK  status: ('A' for Active; 'I' for Inactive)
REMARK    1  A    between atoms: C_3  and  C_1 
REMARK    2  A    between atoms: C_2  and  N_4 
REMARK    3  A    between atoms: N_11  and  C_2 
REMARK    4  A    between atoms: N_4  and  C_12 
ROOT
ATOM      1  C   UNL d   1       0.589   1.472   0.142  0.00  0.00     0.048 A 
ATOM      2  C   UNL d   1      -0.690   1.610   0.692  0.00  0.00     0.018 A 
ATOM      3  C   UNL d   1       1.291   2.630  -0.218  0.00  0.00     0.018 A 
ATOM      4  C   UNL d   1      -0.585   4.027   0.464  0.00  0.00     0.034 A 
ATOM      5  C   UNL d   1       0.714   3.893  -0.045  0.00  0.00     0.030 A 
ATOM      6  C   UNL d   1      -1.267   2.876   0.855  0.00  0.00     0.030 A 
ENDROOT
BRANCH   4   7
ATOM      7  N   UNL d   1      -1.094   5.341   0.569  0.00  0.00    -0.334 N 
ATOM      8  H   UNL d   1      -0.408   6.067   0.424  0.00  0.00     0.168 HD
BRANCH   7   9
ATOM      9  C   UNL d   1      -2.385   5.808   0.646  0.00  0.00     0.169 C 
ATOM     10  S   UNL d   1      -3.841   5.016   0.523  0.00  0.00    -0.041 SA
BRANCH   9  11
ATOM     11  N   UNL d   1      -2.429   7.164   0.816  0.00  0.00    -0.376 N 
ATOM     12  H   UNL d   1      -1.619   7.763   0.814  0.00  0.00     0.158 HD
ATOM     13  H   UNL d   1      -3.341   7.606   0.839  0.00  0.00     0.158 HD
ENDBRANCH   9  11
ENDBRANCH   7   9
ENDBRANCH   4   7
BRANCH   1  14
ATOM     14  C   UNL d   1       1.213   0.113  -0.064  0.00  0.00     0.417 C 
ATOM     15  F   UNL d   1       0.427  -0.919   0.347  0.00  0.00    -0.166 F 
ATOM     16  F   UNL d   1       2.391  -0.024   0.609  0.00  0.00    -0.166 F 
ATOM     17  F   UNL d   1       1.502  -0.134  -1.371  0.00  0.00    -0.166 F 
ENDBRANCH   1  14
TORSDOF 4
