REMARK  7 active torsions:
REMARK  status: ('A' for Active; 'I' for Inactive)
REMARK    1  A    between atoms: C_2  and  C_1 
REMARK    2  A    between atoms: C_3  and  N_5 
REMARK    3  A    between atoms: N_7  and  C_3 
REMARK    4  A    between atoms: N_5  and  C_4 
REMARK       I    between atoms: C_6  and  N_8 
REMARK    5  A    between atoms: O_14  and  C_6 
REMARK    6  A    between atoms: N_8  and  N_7 
REMARK    7  A    between atoms: C_17  and  O_14 
ROOT
ATOM      1  N   UNL d   1      -1.161   0.440  -0.696  0.00  0.00    -0.331 N 
ATOM      2  H   UNL d   1      -2.044   0.581  -1.188  0.00  0.00     0.168 HD
ENDROOT
BRANCH   1   3
ATOM      3  C   UNL d   1      -0.681  -0.787  -1.035  0.00  0.00     0.191 C 
ATOM      4  S   UNL d   1      -1.661  -1.689  -2.067  0.00  0.00    -0.039 SA
BRANCH   3   5
ATOM      5  N   UNL d   1       0.561  -1.179  -0.638  0.00  0.00    -0.272 N 
ATOM      6  H   UNL d   1       0.847  -1.017   0.321  0.00  0.00     0.189 HD
BRANCH   5   7
ATOM      7  N   UNL d   1       1.135  -2.340  -1.187  0.00  0.00    -0.243 N 
ATOM      8  C   UNL d   1       2.231  -2.911  -0.604  0.00  0.00     0.379 C 
ATOM      9  O   UNL d   1       2.673  -2.606   0.495  0.00  0.00    -0.237 OA
ATOM     10  H   UNL d   1       0.867  -2.607  -2.127  0.00  0.00     0.192 HD
BRANCH   8  11
ATOM     11  O   UNL d   1       2.750  -3.838  -1.442  0.00  0.00    -0.303 OA
BRANCH  11  12
ATOM     12  C   UNL d   1       3.921  -4.532  -0.992  0.00  0.00     0.176 C 
ATOM     13  C   UNL d   1       5.154  -3.650  -1.079  0.00  0.00     0.034 C 
ENDBRANCH  11  12
ENDBRANCH   8  11
ENDBRANCH   5   7
ENDBRANCH   3   5
ENDBRANCH   1   3
BRANCH   1  14
ATOM     14  C   UNL d   1      -0.691   1.567   0.022  0.00  0.00     0.049 A 
ATOM     15  C   UNL d   1      -1.394   2.791  -0.111  0.00  0.00     0.074 A 
ATOM     16  C   UNL d   1      -0.990   3.921   0.635  0.00  0.00     0.018 A 
ATOM     17  C   UNL d   1       0.099   3.862   1.494  0.00  0.00     0.001 A 
ATOM     18  C   UNL d   1       0.804   2.674   1.608  0.00  0.00     0.002 A 
ATOM     19  C   UNL d   1       0.415   1.541   0.879  0.00  0.00     0.030 A 
BRANCH  15  20
ATOM     20  C   UNL d   1      -2.558   3.003  -1.051  0.00  0.00     0.419 C 
ATOM     21  F   UNL d   1      -2.893   1.909  -1.794  0.00  0.00    -0.166 F 
ATOM     22  F   UNL d   1      -2.325   3.999  -1.951  0.00  0.00    -0.166 F 
ATOM     23  F   UNL d   1      -3.698   3.358  -0.393  0.00  0.00    -0.166 F 
ENDBRANCH  15  20
ENDBRANCH   1  14
TORSDOF 7
