REMARK  7 active torsions:
REMARK  status: ('A' for Active; 'I' for Inactive)
REMARK    1  A    between atoms: N_2  and  C_1 
REMARK    2  A    between atoms: C_3  and  C_1 
REMARK    3  A    between atoms: C_5  and  C_1 
REMARK    4  A    between atoms: O_7  and  C_1 
REMARK       I    between atoms: C_4  and  N_2 
REMARK    5  A    between atoms: C_8  and  C_4 
REMARK    6  A    between atoms: O_13  and  C_5 
REMARK    7  A    between atoms: C_16  and  O_13 
ROOT
ATOM      1  C   UNL d   1       1.122   0.000   0.048  0.00  0.00     0.325 C 
ENDROOT
BRANCH   1   2
ATOM      2  N   UNL d   1       0.702   0.985   1.058  0.00  0.00    -0.309 N 
ATOM      3  C   UNL d   1       0.965   2.318   0.868  0.00  0.00     0.254 C 
ATOM      4  O   UNL d   1       1.602   2.704  -0.107  0.00  0.00    -0.268 OA
ATOM      5  H   UNL d   1      -0.006   0.689   1.721  0.00  0.00     0.166 HD
BRANCH   3   6
ATOM      6  C   UNL d   1       0.477   3.270   1.897  0.00  0.00     0.032 A 
ATOM      7  C   UNL d   1       0.305   2.897   3.237  0.00  0.00     0.017 A 
ATOM      8  C   UNL d   1      -0.083   3.848   4.181  0.00  0.00     0.001 A 
ATOM      9  C   UNL d   1      -0.298   5.170   3.793  0.00  0.00     0.000 A 
ATOM     10  C   UNL d   1      -0.134   5.545   2.460  0.00  0.00     0.001 A 
ATOM     11  C   UNL d   1       0.257   4.598   1.513  0.00  0.00     0.017 A 
ENDBRANCH   3   6
ENDBRANCH   1   2
BRANCH   1  12
ATOM     12  C   UNL d   1       0.470   0.132  -1.360  0.00  0.00     0.448 C 
ATOM     13  F   UNL d   1      -0.512   1.069  -1.382  0.00  0.00    -0.166 F 
ATOM     14  F   UNL d   1       1.384   0.497  -2.296  0.00  0.00    -0.166 F 
ATOM     15  F   UNL d   1      -0.093  -1.019  -1.801  0.00  0.00    -0.166 F 
ENDBRANCH   1  12
BRANCH   1  16
ATOM     16  C   UNL d   1       0.693  -1.371   0.591  0.00  0.00     0.325 C 
ATOM     17  O   UNL d   1      -0.267  -1.534   1.341  0.00  0.00    -0.259 OA
BRANCH  16  18
ATOM     18  O   UNL d   1       1.566  -2.349   0.218  0.00  0.00    -0.318 OA
BRANCH  18  19
ATOM     19  C   UNL d   1       1.528  -3.553   0.995  0.00  0.00     0.174 C 
ATOM     20  C   UNL d   1       2.316  -3.338   2.276  0.00  0.00     0.034 C 
ENDBRANCH  18  19
ENDBRANCH  16  18
ENDBRANCH   1  16
BRANCH   1  21
ATOM     21  O   UNL d   1       2.552   0.097   0.026  0.00  0.00    -0.356 OA
ATOM     22  H   UNL d   1       2.726   1.010  -0.284  0.00  0.00     0.213 HD
ENDBRANCH   1  21
TORSDOF 7
