REMARK  2 active torsions:
REMARK  status: ('A' for Active; 'I' for Inactive)
REMARK    1  A    between atoms: C_3  and  C_8 
REMARK    2  A    between atoms: C_13  and  C_5 
ROOT
ATOM      1  C   UNL d   1       1.865   0.494   0.082  0.00  0.00    -0.002 A 
ATOM      2  C   UNL d   1       0.813   1.549   0.233  0.00  0.00     0.189 A 
ATOM      3  C   UNL d   1      -0.444   0.850   0.528  0.00  0.00     0.021 A 
ATOM      4  C   UNL d   1       3.157   0.795  -0.094  0.00  0.00     0.023 C 
ATOM      5  C   UNL d   1      -0.215  -0.527   0.537  0.00  0.00    -0.040 A 
ATOM      6  C   UNL d   1       1.210  -0.858   0.215  0.00  0.00     0.082 A 
ATOM      7  O   UNL d   1       0.962   2.749   0.143  0.00  0.00    -0.287 OA
ATOM      8  C   UNL d   1      -1.687   1.397   0.791  0.00  0.00     0.016 A 
ATOM      9  C   UNL d   1      -1.249  -1.405   0.820  0.00  0.00     0.008 A 
ATOM     10  C   UNL d   1      -2.732   0.516   1.078  0.00  0.00     0.001 A 
ATOM     11  C   UNL d   1      -2.512  -0.874   1.094  0.00  0.00     0.001 A 
ENDROOT
BRANCH   4  12
ATOM     12  C   UNL d   1       4.193  -0.230  -0.208  0.00  0.00    -0.036 A 
ATOM     13  C   UNL d   1       4.518  -0.763  -1.458  0.00  0.00     0.012 A 
ATOM     14  C   UNL d   1       5.518  -1.733  -1.573  0.00  0.00     0.017 A 
ATOM     15  C   UNL d   1       6.209  -2.184  -0.438  0.00  0.00     0.048 A 
ATOM     16  C   UNL d   1       5.862  -1.660   0.817  0.00  0.00     0.017 A 
ATOM     17  C   UNL d   1       4.859  -0.692   0.931  0.00  0.00     0.012 A 
BRANCH  15  18
ATOM     18  C   UNL d   1       7.318  -3.202  -0.557  0.00  0.00     0.417 C 
ATOM     19  F   UNL d   1       7.543  -3.617  -1.836  0.00  0.00    -0.166 F 
ATOM     20  F   UNL d   1       8.512  -2.726  -0.106  0.00  0.00    -0.166 F 
ATOM     21  F   UNL d   1       7.071  -4.332   0.162  0.00  0.00    -0.166 F 
ENDBRANCH  15  18
ENDBRANCH   4  12
TORSDOF 2
