REMARK  2 active torsions:
REMARK  status: ('A' for Active; 'I' for Inactive)
REMARK    1  A    between atoms: N_9  and  N_2 
REMARK    2  A    between atoms: C_6  and  N_9 
ROOT
ATOM      1  C   UNL d   1       3.015   1.254   0.667  0.00  0.00     0.209 C 
ATOM      2  N   UNL d   1       2.261   2.003   1.414  0.00  0.00    -0.281 N 
ATOM      3  HN  UNL d   1       2.649   2.826   1.876  1.00  0.00     0.188 HD
ATOM      4  N   UNL d   1       5.508   1.973   0.529  0.00  0.00    -0.189 NA
ATOM      5  N   UNL d   1       2.077  -0.831  -0.564  0.00  0.00    -0.189 NA
ATOM      6  C   UNL d   1       4.388   1.665   0.596  0.00  0.00     0.130 C 
ATOM      7  C   UNL d   1       2.498   0.109  -0.023  0.00  0.00     0.130 C 
ENDROOT
BRANCH   2   8
ATOM      8  N   UNL d   1       0.940   1.679   1.576  0.00  0.00    -0.296 N 
ATOM      9  H   UNL d   1       0.660   0.697   1.698  0.00  0.00     0.187 HD
BRANCH   8  10
ATOM     10  C   UNL d   1       0.187   2.518   2.435  0.00  0.00     0.086 A 
ATOM     11  C   UNL d   1      -0.928   1.996   3.114  0.00  0.00     0.147 A 
ATOM     12  C   UNL d   1      -1.719   2.785   3.941  0.00  0.00     0.086 A 
ATOM     13  F   UNL d   1      -1.222   0.694   2.980  0.00  0.00    -0.204 F 
ATOM     14  C   UNL d   1      -1.407   4.129   4.076  0.00  0.00     0.119 A 
ATOM     15  C   UNL d   1      -0.324   4.687   3.403  0.00  0.00     0.045 A 
ATOM     16  F   UNL d   1      -2.163   4.905   4.863  0.00  0.00    -0.206 F 
ATOM     17  C   UNL d   1       0.471   3.883   2.582  0.00  0.00     0.037 A 
ENDBRANCH   8  10
ENDBRANCH   2   8
TORSDOF 2
