REMARK  7 active torsions:
REMARK  status: ('A' for Active; 'I' for Inactive)
REMARK    1  A    between atoms: C_7  and  C_1 
REMARK    2  A    between atoms: C_3  and  C_2 
REMARK    3  A    between atoms: S_15  and  C_6 
REMARK    4  A    between atoms: O_23  and  C_7 
REMARK    5  A    between atoms: C_8  and  C_14 
REMARK    6  A    between atoms: C_14  and  S_15 
REMARK    7  A    between atoms: C_27  and  O_23 
ROOT
ATOM      1  C   UNL d   1      -0.976  -1.350  -1.575  0.00  0.00     0.086 A 
ATOM      2  C   UNL d   1       0.336  -0.944  -1.440  0.00  0.00     0.136 A 
ATOM      3  N   UNL d   1       0.636   0.342  -1.061  0.00  0.00    -0.332 N 
ATOM      4  HN  UNL d   1       1.607   0.639  -0.966  1.00  0.00     0.168 HD
ATOM      5  C   UNL d   1      -0.365   1.205  -0.817  0.00  0.00     0.144 A 
ATOM      6  N   UNL d   1      -1.656   0.873  -0.891  0.00  0.00    -0.346 N 
ATOM      7  HN  UNL d   1      -2.396   1.540  -0.670  1.00  0.00     0.167 HD
ATOM      8  C   UNL d   1      -1.932  -0.394  -1.273  0.00  0.00     0.110 A 
ENDROOT
BRANCH   5   9
ATOM      9  S   UNL d   1       0.099   2.882  -0.477  0.00  0.00    -0.089 SA
BRANCH   9  10
ATOM     10  C   UNL d   1      -1.507   3.614  -0.009  0.00  0.00     0.122 C 
BRANCH  10  11
ATOM     11  C   UNL d   1      -1.430   5.136   0.041  0.00  0.00    -0.037 A 
ATOM     12  C   UNL d   1      -1.790   5.920  -1.088  0.00  0.00    -0.054 A 
ATOM     13  C   UNL d   1      -1.666   7.324  -1.039  0.00  0.00     0.014 A 
ATOM     14  C   UNL d   1      -2.341   5.365  -2.378  0.00  0.00     0.049 C 
ATOM     15  C   UNL d   1      -1.187   7.978   0.093  0.00  0.00    -0.061 A 
ATOM     16  C   UNL d   1      -0.840   7.213   1.204  0.00  0.00     0.014 A 
ATOM     17  C   UNL d   1      -1.060   9.472   0.101  0.00  0.00     0.048 C 
ATOM     18  C   UNL d   1      -0.961   5.807   1.202  0.00  0.00    -0.054 A 
ATOM     19  C   UNL d   1      -0.543   5.114   2.474  0.00  0.00     0.049 C 
ENDBRANCH  10  11
ENDBRANCH   9  10
ENDBRANCH   5   9
BRANCH   2  20
ATOM     20  C   UNL d   1       1.533  -1.858  -1.651  0.00  0.00     0.433 C 
ATOM     21  F   UNL d   1       1.261  -3.163  -1.912  0.00  0.00    -0.165 F 
ATOM     22  F   UNL d   1       2.342  -1.434  -2.665  0.00  0.00    -0.165 F 
ATOM     23  F   UNL d   1       2.333  -1.900  -0.541  0.00  0.00    -0.165 F 
ENDBRANCH   2  20
BRANCH   1  24
ATOM     24  C   UNL d   1      -1.423  -2.652  -2.099  0.00  0.00     0.296 C 
ATOM     25  O   UNL d   1      -0.909  -3.217  -3.040  0.00  0.00    -0.259 OA
BRANCH  24  26
ATOM     26  O   UNL d   1      -2.522  -3.046  -1.406  0.00  0.00    -0.318 OA
BRANCH  26  27
ATOM     27  C   UNL d   1      -3.163  -4.253  -1.850  0.00  0.00     0.174 C 
ATOM     28  C   UNL d   1      -2.614  -5.435  -1.078  0.00  0.00     0.034 C 
ENDBRANCH  26  27
ENDBRANCH  24  26
ENDBRANCH   1  24
TORSDOF 7
