REMARK  3 active torsions:
REMARK  status: ('A' for Active; 'I' for Inactive)
REMARK    1  A    between atoms: N_6  and  C_1 
REMARK    2  A    between atoms: N_3  and  C_2 
REMARK       I    between atoms: C_10  and  N_6 
REMARK    3  A    between atoms: C_9  and  C_10 
ROOT
ATOM      1  N   UNL d   1      -3.822  -0.502   0.184  0.00  0.00    -0.301 N 
ATOM      2  C   UNL d   1      -4.752   0.419   0.611  0.00  0.00     0.281 C 
ATOM      3  O   UNL d   1      -4.508   1.508   1.120  0.00  0.00    -0.265 OA
ATOM      4  H   UNL d   1      -4.141  -1.411  -0.122  0.00  0.00     0.171 HD
ENDROOT
BRANCH   1   5
ATOM      5  C   UNL d   1      -2.457  -0.358   0.213  0.00  0.00     0.152 A 
ATOM      6  N   UNL d   1      -1.656  -1.368  -0.029  0.00  0.00    -0.335 N 
ATOM      7  C   UNL d   1      -0.335  -0.939   0.019  0.00  0.00     0.051 A 
ATOM      8  HN  UNL d   1      -1.956  -2.323  -0.223  1.00  0.00     0.168 HD
ATOM      9  C   UNL d   1       0.812  -1.738  -0.164  0.00  0.00     0.031 A 
ATOM     10  C   UNL d   1      -0.162   0.423   0.259  0.00  0.00     0.035 A 
ATOM     11  C   UNL d   1       2.083  -1.146  -0.153  0.00  0.00     0.009 A 
ATOM     12  C   UNL d   1       2.233   0.230   0.036  0.00  0.00    -0.061 A 
ATOM     13  C   UNL d   1       1.105   1.028   0.276  0.00  0.00     0.028 A 
ATOM     14  C   UNL d   1       3.600   0.851  -0.004  0.00  0.00     0.048 C 
ATOM     15  S   UNL d   1      -1.703   1.142   0.499  0.00  0.00    -0.052 SA
ENDBRANCH   1   5
BRANCH   2  16
ATOM     16  C   UNL d   1      -6.128  -0.022   0.449  0.00  0.00     0.146 A 
ATOM     17  O   UNL d   1      -6.411  -1.199  -0.201  0.00  0.00    -0.283 OA
ATOM     18  C   UNL d   1      -7.768  -1.323  -0.181  0.00  0.00     0.215 A 
ATOM     19  C   UNL d   1      -8.370  -0.271   0.468  0.00  0.00     0.066 A 
ATOM     20  C   UNL d   1      -7.308   0.575   0.866  0.00  0.00     0.047 A 
BRANCH  18  21
ATOM     21  N   UNL d   1      -8.318  -2.486  -0.803  0.00  0.00    -0.090 N 
ATOM     22  O   UNL d   1      -9.544  -2.630  -0.716  0.00  0.00    -0.530 OA
ATOM     23  O   UNL d   1      -7.534  -3.253  -1.378  0.00  0.00    -0.530 OA
ENDBRANCH  18  21
ENDBRANCH   2  16
TORSDOF 3
