REMARK  4 active torsions:
REMARK  status: ('A' for Active; 'I' for Inactive)
REMARK    1  A    between atoms: C_4  and  C_1 
REMARK    2  A    between atoms: C_2  and  C_4 
REMARK       I    between atoms: N_10  and  C_2 
REMARK    3  A    between atoms: N_14  and  N_10 
REMARK    4  A    between atoms: O_16  and  C_13 
ROOT
ATOM      1  C   UNL d   1       2.413  -0.682  -0.070  0.00  0.00    -0.044 A 
ATOM      2  C   UNL d   1       1.197  -1.381   0.015  0.00  0.00     0.020 A 
ATOM      3  C   UNL d   1      -0.035  -0.705   0.042  0.00  0.00    -0.025 A 
ATOM      4  C   UNL d   1      -0.053   0.705   0.006  0.00  0.00    -0.023 A 
ATOM      5  C   UNL d   1       2.381   0.718  -0.086  0.00  0.00     0.009 A 
ATOM      6  C   UNL d   1      -1.291   1.375   0.011  0.00  0.00     0.049 A 
ATOM      7  C   UNL d   1       1.162   1.402  -0.044  0.00  0.00     0.013 A 
ATOM      8  C   UNL d   1      -1.251  -1.402   0.087  0.00  0.00     0.015 A 
ATOM      9  C   UNL d   1      -2.498   0.671   0.039  0.00  0.00     0.069 A 
ATOM     10  C   UNL d   1      -2.473  -0.721   0.080  0.00  0.00     0.037 A 
ENDROOT
BRANCH   1  11
ATOM     11  C   UNL d   1       3.723  -1.445  -0.189  0.00  0.00     0.108 C 
ATOM     12  C   UNL d   1       4.637  -1.194   1.012  0.00  0.00     0.025 C 
BRANCH  11  13
ATOM     13  C   UNL d   1       4.444  -1.127  -1.504  0.00  0.00     0.239 C 
ATOM     14  O   UNL d   1       5.549  -0.588  -1.570  0.00  0.00    -0.271 OA
ATOM     15  N   UNL d   1       3.740  -1.521  -2.639  0.00  0.00    -0.293 N 
ATOM     16  H   UNL d   1       2.839  -1.989  -2.560  0.00  0.00     0.183 HD
BRANCH  15  17
ATOM     17  N   UNL d   1       4.313  -1.331  -3.914  0.00  0.00    -0.247 NA
ATOM     18  H   UNL d   1       5.315  -1.143  -3.762  0.00  0.00     0.143 HD
ATOM     19  H   UNL d   1       3.958  -0.446  -4.287  0.00  0.00     0.143 HD
ENDBRANCH  15  17
ENDBRANCH  11  13
ENDBRANCH   1  11
BRANCH   9  20
ATOM     20  O   UNL d   1      -3.621   1.452   0.019  0.00  0.00    -0.356 OA
ATOM     21  C   UNL d   1      -4.874   0.778  -0.002  0.00  0.00     0.210 C 
ENDBRANCH   9  20
TORSDOF 4
