REMARK  3 active torsions:
REMARK  status: ('A' for Active; 'I' for Inactive)
REMARK    1  A    between atoms: C_6  and  N_1 
REMARK    2  A    between atoms: C_7  and  O_9 
REMARK    3  A    between atoms: O_9  and  C_8 
ROOT
ATOM      1  N   UNL d   1      -1.834   0.064   0.157  0.00  0.00    -0.240 N 
ATOM      2  C   UNL d   1      -1.058  -0.687  -0.690  0.00  0.00     0.268 A 
ATOM      3  C   UNL d   1      -1.077   0.689   1.129  0.00  0.00     0.283 A 
ATOM      4  C   UNL d   1       0.318  -0.508  -0.257  0.00  0.00     0.065 A 
ATOM      5  C   UNL d   1       0.319   0.354   0.811  0.00  0.00     0.117 A 
ATOM      6  N   UNL d   1       1.414   0.836   1.425  0.00  0.00    -0.361 N 
ATOM      7  HN  UNL d   1       1.371   1.489   2.207  1.00  0.00     0.165 HD
ATOM      8  O   UNL d   1      -1.358  -1.407  -1.619  0.00  0.00    -0.267 OA
ATOM      9  O   UNL d   1      -1.437   1.405   2.046  0.00  0.00    -0.265 OA
ATOM     10  C   UNL d   1       1.506  -1.007  -0.750  0.00  0.00     0.021 A 
ATOM     11  C   UNL d   1       2.583   0.375   0.912  0.00  0.00     0.088 A 
ATOM     12  C   UNL d   1       2.674  -0.545  -0.142  0.00  0.00     0.018 A 
ENDROOT
BRANCH   1  13
ATOM     13  C   UNL d   1      -3.222   0.247   0.009  0.00  0.00     0.079 A 
ATOM     14  C   UNL d   1      -3.782   0.663  -1.213  0.00  0.00     0.105 A 
ATOM     15  C   UNL d   1      -5.168   0.783  -1.349  0.00  0.00     0.039 A 
ATOM     16  C   UNL d   1      -6.002   0.507  -0.266  0.00  0.00     0.003 A 
ATOM     17  C   UNL d   1      -5.453   0.121   0.956  0.00  0.00     0.002 A 
ATOM     18  C   UNL d   1      -4.068   0.011   1.100  0.00  0.00     0.033 A 
BRANCH  14  19
ATOM     19  O   UNL d   1      -3.030   0.932  -2.322  0.00  0.00    -0.253 OA
BRANCH  19  20
ATOM     20  C   UNL d   1      -2.292   2.147  -2.251  0.00  0.00     0.530 C 
ATOM     21  F   UNL d   1      -2.133   2.614  -0.995  0.00  0.00    -0.144 F 
ATOM     22  F   UNL d   1      -1.059   1.931  -2.767  0.00  0.00    -0.144 F 
ATOM     23  F   UNL d   1      -2.902   3.096  -2.992  0.00  0.00    -0.144 F 
ENDBRANCH  19  20
ENDBRANCH  14  19
ENDBRANCH   1  13
TORSDOF 3
