REMARK  3 active torsions:
REMARK  status: ('A' for Active; 'I' for Inactive)
REMARK    1  A    between atoms: N_6  and  C_2 
REMARK    2  A    between atoms: C_9  and  C_5 
REMARK    3  A    between atoms: C_10  and  C_9 
ROOT
ATOM      1  N   UNL d   1       1.260  -2.119   0.908  0.00  0.00    -0.307 N 
ATOM      2  C   UNL d   1       0.444  -2.985   1.537  0.00  0.00     0.141 C 
ATOM      3  C   UNL d   1       0.678  -1.159   0.133  0.00  0.00     0.238 C 
ATOM      4  S   UNL d   1      -1.219  -2.649   1.240  0.00  0.00    -0.080 SA
ATOM      5  C   UNL d   1      -0.826  -1.336   0.024  0.00  0.00     0.151 C 
ATOM      6  O   UNL d   1       1.320  -0.283  -0.432  0.00  0.00    -0.272 OA
ATOM      7  H   UNL d   1       2.260  -2.123   1.020  0.00  0.00     0.171 HD
ENDROOT
BRANCH   5   8
ATOM      8  C   UNL d   1      -1.177  -1.748  -1.409  0.00  0.00     0.063 C 
BRANCH   8   9
ATOM      9  C   UNL d   1      -2.658  -1.902  -1.662  0.00  0.00    -0.057 A 
ATOM     10  C   UNL d   1      -3.518  -0.801  -1.565  0.00  0.00     0.007 A 
ATOM     11  C   UNL d   1      -4.889  -0.954  -1.779  0.00  0.00     0.001 A 
ATOM     12  C   UNL d   1      -5.410  -2.205  -2.101  0.00  0.00     0.000 A 
ATOM     13  C   UNL d   1      -4.562  -3.304  -2.213  0.00  0.00     0.001 A 
ATOM     14  C   UNL d   1      -3.192  -3.155  -1.995  0.00  0.00     0.007 A 
ENDBRANCH   8   9
ENDBRANCH   5   8
BRANCH   2  15
ATOM     15  N   UNL d   1       0.852  -3.945   2.273  0.00  0.00    -0.380 N 
ATOM     16  H   UNL d   1       1.871  -3.970   2.310  0.00  0.00     0.158 HD
ATOM     17  HN  UNL d   1       0.240  -4.599   2.761  1.00  0.00     0.158 HD
ENDBRANCH   2  15
TORSDOF 3
