REMARK  6 active torsions:
REMARK  status: ('A' for Active; 'I' for Inactive)
REMARK    1  A    between atoms: C_2  and  N_1 
REMARK    2  A    between atoms: C_3  and  C_2 
REMARK    3  A    between atoms: S_4  and  C_3 
REMARK    4  A    between atoms: C_7  and  C_3 
REMARK    5  A    between atoms: C_10  and  S_4 
REMARK    6  A    between atoms: N_12  and  C_11 
ROOT
ATOM      1  C   UNL d   1       1.060  -1.601  -1.899  0.00  0.00     0.109 C 
ENDROOT
BRANCH   1   2
ATOM      2  C   UNL d   1       0.165  -0.668  -1.086  0.00  0.00     0.221 C 
BRANCH   2   3
ATOM      3  N   UNL d   1       0.384  -0.929   0.372  0.00  0.00    -0.154 N 
ATOM      4  O   UNL d   1       1.531  -0.760   0.810  0.00  0.00    -0.536 OA
ATOM      5  O   UNL d   1      -0.604  -1.246   1.043  0.00  0.00    -0.536 OA
ENDBRANCH   2   3
ENDBRANCH   1   2
BRANCH   1   6
ATOM      6  S   UNL d   1       0.859  -1.248  -3.722  0.00  0.00    -0.118 SA
BRANCH   6   7
ATOM      7  C   UNL d   1       1.453   0.425  -3.855  0.00  0.00     0.001 A 
ATOM      8  C   UNL d   1       2.748   0.783  -3.482  0.00  0.00     0.020 A 
ATOM      9  C   UNL d   1       3.186   2.104  -3.635  0.00  0.00     0.024 A 
ATOM     10  C   UNL d   1       2.358   3.072  -4.210  0.00  0.00     0.005 A 
ATOM     11  C   UNL d   1       1.049   2.719  -4.538  0.00  0.00     0.024 A 
ATOM     12  C   UNL d   1       0.606   1.401  -4.388  0.00  0.00     0.020 A 
BRANCH  10  13
ATOM     13  N   UNL d   1       2.757   4.412  -4.245  0.00  0.00    -0.303 NA
ATOM     14  H   UNL d   1       2.266   4.970  -4.937  0.00  0.00     0.124 HD
ATOM     15  H   UNL d   1       3.763   4.542  -4.296  0.00  0.00     0.124 HD
ENDBRANCH  10  13
ENDBRANCH   6   7
ENDBRANCH   1   6
BRANCH   1  16
ATOM     16  C   UNL d   1       0.782  -3.084  -1.671  0.00  0.00    -0.042 A 
ATOM     17  C   UNL d   1      -0.477  -3.655  -1.921  0.00  0.00     0.009 A 
ATOM     18  C   UNL d   1      -0.684  -5.029  -1.770  0.00  0.00     0.007 A 
ATOM     19  C   UNL d   1       0.360  -5.865  -1.363  0.00  0.00    -0.062 A 
ATOM     20  C   UNL d   1       1.601  -5.299  -1.062  0.00  0.00     0.007 A 
ATOM     21  C   UNL d   1       0.135  -7.344  -1.241  0.00  0.00     0.048 C 
ATOM     22  C   UNL d   1       1.812  -3.925  -1.218  0.00  0.00     0.009 A 
ENDBRANCH   1  16
TORSDOF 6
