REMARK  1 active torsions:
REMARK  status: ('A' for Active; 'I' for Inactive)
REMARK    1  A    between atoms: N_4  and  C_8 
ROOT
ATOM      1  N   UNL d   1       1.888   0.003  -0.051  0.00  0.00    -0.289 N 
ATOM      2  C   UNL d   1       1.131   1.133  -0.036  0.00  0.00     0.259 A 
ATOM      3  C   UNL d   1       1.131  -1.128  -0.018  0.00  0.00     0.259 A 
ATOM      4  C   UNL d   1      -0.266   0.696  -0.021  0.00  0.00     0.050 A 
ATOM      5  C   UNL d   1      -0.263  -0.690  -0.002  0.00  0.00     0.048 A 
ATOM      6  C   UNL d   1      -1.434   1.434  -0.024  0.00  0.00     0.054 A 
ATOM      7  C   UNL d   1      -2.635   0.706  -0.004  0.00  0.00     0.103 A 
ATOM      8  C   UNL d   1      -1.433  -1.426   0.025  0.00  0.00     0.020 A 
ATOM      9  O   UNL d   1       1.502   2.288  -0.026  0.00  0.00    -0.267 OA
ATOM     10  O   UNL d   1       1.504  -2.283  -0.003  0.00  0.00    -0.267 OA
ATOM     11  C   UNL d   1      -2.638  -0.713   0.025  0.00  0.00     0.037 A 
ATOM     12  H   UNL d   1       2.896   0.002  -0.058  0.00  0.00     0.172 HD
ENDROOT
BRANCH   7  13
ATOM     13  N   UNL d   1      -3.917   1.427  -0.018  0.00  0.00    -0.116 N 
ATOM     14  O   UNL d   1      -3.878   2.664  -0.051  0.00  0.00    -0.532 OA
ATOM     15  O   UNL d   1      -4.955   0.752   0.001  0.00  0.00    -0.532 OA
ENDBRANCH   7  13
TORSDOF 1
