REMARK  3 active torsions:
REMARK  status: ('A' for Active; 'I' for Inactive)
REMARK    1  A    between atoms: C_6  and  C_1 
REMARK    2  A    between atoms: O_14  and  C_1 
REMARK    3  A    between atoms: C_8  and  C_2 
ROOT
ATOM      1  C   UNL d   1       2.192   1.431  -0.298  0.00  0.00     0.010 A 
ATOM      2  C   UNL d   1       2.969   1.370  -1.508  0.00  0.00    -0.013 A 
ATOM      3  C   UNL d   1       2.572   2.295   0.795  0.00  0.00    -0.013 A 
ATOM      4  C   UNL d   1       3.727   3.096   0.633  0.00  0.00    -0.024 A 
ATOM      5  C   UNL d   1       4.149   2.152  -1.577  0.00  0.00    -0.024 A 
ATOM      6  C   UNL d   1       4.487   3.006  -0.526  0.00  0.00     0.024 A 
ATOM      7  C   UNL d   1       2.670   0.624  -2.684  0.00  0.00     0.013 A 
ATOM      8  C   UNL d   1       1.908   2.422   2.046  0.00  0.00     0.013 A 
ATOM      9  C   UNL d   1       4.987   2.112  -2.710  0.00  0.00     0.012 A 
ATOM     10  C   UNL d   1       4.128   4.007   1.633  0.00  0.00     0.012 A 
ATOM     11  C   UNL d   1       2.322   3.321   3.037  0.00  0.00     0.001 A 
ATOM     12  C   UNL d   1       3.518   0.581  -3.796  0.00  0.00     0.001 A 
ATOM     13  C   UNL d   1       3.424   4.123   2.823  0.00  0.00     0.001 A 
ATOM     14  C   UNL d   1       4.688   1.319  -3.803  0.00  0.00     0.001 A 
ENDROOT
BRANCH   1  15
ATOM     15  C   UNL d   1       0.938   0.613  -0.144  0.00  0.00     0.037 C 
ATOM     16  C   UNL d   1       0.845  -0.853  -0.501  0.00  0.00     0.125 C 
ATOM     17  C   UNL d   1      -0.437  -1.232   0.246  0.00  0.00     0.233 C 
ATOM     18  N   UNL d   1      -1.053   0.085   0.426  0.00  0.00    -0.198 NA
ATOM     19  N   UNL d   1      -0.159   1.102   0.351  0.00  0.00    -0.322 N 
ATOM     20  H   UNL d   1      -1.563   0.101   1.312  0.00  0.00     0.150 HD
ATOM     21  HN  UNL d   1      -0.319   2.070   0.631  1.00  0.00     0.180 HD
BRANCH  17  22
ATOM     22  C   UNL d   1      -1.321  -2.238  -0.553  0.00  0.00     0.434 C 
ATOM     23  F   UNL d   1      -1.341  -1.999  -1.884  0.00  0.00    -0.166 F 
ATOM     24  F   UNL d   1      -0.837  -3.499  -0.382  0.00  0.00    -0.166 F 
ATOM     25  F   UNL d   1      -2.603  -2.250  -0.115  0.00  0.00    -0.166 F 
ENDBRANCH  17  22
BRANCH  17  26
ATOM     26  O   UNL d   1      -0.067  -1.762   1.528  0.00  0.00    -0.366 OA
ATOM     27  H   UNL d   1       0.126  -2.708   1.396  0.00  0.00     0.212 HD
ENDBRANCH  17  26
ENDBRANCH   1  15
TORSDOF 3
