REMARK  2 active torsions:
REMARK  status: ('A' for Active; 'I' for Inactive)
REMARK    1  A    between atoms: C_5  and  C_1 
REMARK    2  A    between atoms: N_9  and  C_6 
ROOT
ATOM      1  C   UNL d   1      -0.112   1.176  -0.019  0.00  0.00     0.177 A 
ATOM      2  S   UNL d   1       1.149   0.005   0.006  0.00  0.00    -0.029 SA
ATOM      3  N   UNL d   1      -1.321   0.647  -0.026  0.00  0.00    -0.288 N 
ATOM      4  HN  UNL d   1      -2.181   1.195  -0.035  1.00  0.00     0.187 HD
ATOM      5  C   UNL d   1      -0.064  -1.218  -0.009  0.00  0.00     0.160 A 
ATOM      6  N   UNL d   1      -1.286  -0.731  -0.021  0.00  0.00    -0.279 N 
ATOM      7  HN  UNL d   1      -2.123  -1.314  -0.025  1.00  0.00     0.189 HD
ENDROOT
BRANCH   1   8
ATOM      8  C   UNL d   1       0.190   2.636  -0.032  0.00  0.00     0.440 C 
ATOM      9  F   UNL d   1       1.524   2.912  -0.034  0.00  0.00    -0.164 F 
ATOM     10  F   UNL d   1      -0.324   3.256  -1.129  0.00  0.00    -0.164 F 
ATOM     11  F   UNL d   1      -0.325   3.275   1.053  0.00  0.00    -0.164 F 
ENDBRANCH   1   8
BRANCH   5  12
ATOM     12  N   UNL d   1       0.286  -2.520  -0.013  0.00  0.00    -0.374 N 
ATOM     13  C   UNL d   1      -0.703  -3.570   0.010  0.00  0.00     0.148 C 
ATOM     14  H   UNL d   1       1.259  -2.791   0.045  0.00  0.00     0.161 HD
ENDBRANCH   5  12
TORSDOF 2
