REMARK  2 active torsions:
REMARK  status: ('A' for Active; 'I' for Inactive)
REMARK    1  A    between atoms: C_8  and  C_1 
REMARK    2  A    between atoms: O_12  and  C_2 
ROOT
ATOM      1  C   UNL d   1      -2.432  -0.021   0.001  0.00  0.00     0.094 A 
ATOM      2  C   UNL d   1      -1.629   1.057   0.027  0.00  0.00     0.094 A 
ATOM      3  C   UNL d   1      -1.555  -1.211   0.020  0.00  0.00     0.199 A 
ATOM      4  C   UNL d   1      -0.235   0.667   0.029  0.00  0.00     0.014 A 
ATOM      5  C   UNL d   1      -0.178  -0.721   0.026  0.00  0.00     0.030 A 
ATOM      6  C   UNL d   1       0.931   1.411   0.021  0.00  0.00     0.041 A 
ATOM      7  C   UNL d   1       1.008  -1.430   0.019  0.00  0.00     0.042 A 
ATOM      8  C   UNL d   1       2.156   0.727   0.010  0.00  0.00     0.056 A 
ATOM      9  C   UNL d   1       2.193  -0.688   0.011  0.00  0.00     0.056 A 
ATOM     10  O   UNL d   1      -1.884  -2.377   0.042  0.00  0.00    -0.286 OA
ATOM     11 CL   UNL d   1       3.599   1.679  -0.009  0.00  0.00    -0.083 Cl
ATOM     12 CL   UNL d   1       3.680  -1.568  -0.005  0.00  0.00    -0.083 Cl
ENDROOT
BRANCH   1  13
ATOM     13  C   UNL d   1      -3.898   0.063  -0.065  0.00  0.00     0.162 C 
ATOM     14  O   UNL d   1      -4.441   1.153   0.140  0.00  0.00    -0.293 OA
ATOM     15  C   UNL d   1      -4.707  -1.157  -0.411  0.00  0.00     0.097 C 
ENDBRANCH   1  13
BRANCH   2  16
ATOM     16  O   UNL d   1      -1.972   2.377   0.032  0.00  0.00    -0.359 OA
ATOM     17  H   UNL d   1      -2.955   2.428   0.082  0.00  0.00     0.217 HD
ENDBRANCH   2  16
TORSDOF 2
