REMARK  7 active torsions:
REMARK  status: ('A' for Active; 'I' for Inactive)
REMARK    1  A    between atoms: C_2  and  S_1 
REMARK    2  A    between atoms: C_5  and  S_1 
REMARK    3  A    between atoms: C_3  and  C_6 
REMARK    4  A    between atoms: C_4  and  C_7 
REMARK    5  A    between atoms: N_21  and  C_15 
REMARK    6  A    between atoms: C_20  and  C_31 
REMARK    7  A    between atoms: C_31  and  N_21 
ROOT
ATOM      1  C   UNL d   1      -0.071   0.406  -2.063  0.00  0.00     0.154 C 
ATOM      2  C   UNL d   1      -1.327   0.902  -2.470  0.00  0.00     0.113 C 
ATOM      3  N   UNL d   1      -2.357   1.297  -2.828  0.00  0.00    -0.191 NA
ATOM      4  C   UNL d   1       0.621  -0.508  -2.764  0.00  0.00     0.092 C 
ENDROOT
BRANCH   1   5
ATOM      5  S   UNL d   1       0.668   1.141  -0.678  0.00  0.00     0.217 S 
ATOM      6  O   UNL d   1       0.727   2.579  -0.874  0.00  0.00    -0.216 OA
ATOM      7  O   UNL d   1       1.865   0.422  -0.289  0.00  0.00    -0.216 OA
BRANCH   5   8
ATOM      8  C   UNL d   1      -0.514   0.852   0.630  0.00  0.00     0.066 A 
ATOM      9  C   UNL d   1      -0.468  -0.353   1.340  0.00  0.00     0.049 A 
ATOM     10  C   UNL d   1      -1.326  -0.549   2.428  0.00  0.00     0.057 A 
ATOM     11 CL   UNL d   1      -1.218  -2.052   3.272  0.00  0.00    -0.083 Cl
ATOM     12  C   UNL d   1      -2.224   0.459   2.803  0.00  0.00     0.055 A 
ATOM     13  C   UNL d   1      -2.262   1.661   2.087  0.00  0.00     0.027 A 
ATOM     14 CL   UNL d   1      -3.296   0.291   4.147  0.00  0.00    -0.083 Cl
ATOM     15  C   UNL d   1      -1.405   1.863   1.002  0.00  0.00     0.025 A 
ENDBRANCH   5   8
ENDBRANCH   1   5
BRANCH   4  16
ATOM     16  N   UNL d   1       0.251  -1.225  -3.896  0.00  0.00    -0.296 NA
ATOM     17  H   UNL d   1      -0.752  -1.423  -3.924  0.00  0.00     0.127 HD
BRANCH  16  18
ATOM     18  C   UNL d   1       0.649  -0.754  -5.232  0.00  0.00     0.130 C 
BRANCH  18  19
ATOM     19  C   UNL d   1       1.353  -1.852  -5.990  0.00  0.00    -0.043 A 
ATOM     20  C   UNL d   1       0.837  -2.344  -7.198  0.00  0.00     0.024 A 
ATOM     21  C   UNL d   1       1.514  -3.339  -7.924  0.00  0.00     0.049 A 
ATOM     22  C   UNL d   1       2.723  -3.843  -7.422  0.00  0.00     0.032 A 
ATOM     23  C   UNL d   1       3.262  -3.363  -6.218  0.00  0.00     0.049 A 
ATOM     24  C   UNL d   1       2.571  -2.365  -5.518  0.00  0.00     0.024 A 
BRANCH  21  25
ATOM     25  C   UNL d   1       0.940  -3.841  -9.231  0.00  0.00     0.417 C 
ATOM     26  F   UNL d   1       1.700  -4.801  -9.826  0.00  0.00    -0.166 F 
ATOM     27  F   UNL d   1      -0.299  -4.383  -9.080  0.00  0.00    -0.166 F 
ATOM     28  F   UNL d   1       0.805  -2.847 -10.152  0.00  0.00    -0.166 F 
ENDBRANCH  21  25
BRANCH  23  29
ATOM     29  C   UNL d   1       4.570  -3.885  -5.672  0.00  0.00     0.417 C 
ATOM     30  F   UNL d   1       5.114  -4.880  -6.429  0.00  0.00    -0.166 F 
ATOM     31  F   UNL d   1       5.519  -2.914  -5.594  0.00  0.00    -0.166 F 
ATOM     32  F   UNL d   1       4.445  -4.394  -4.418  0.00  0.00    -0.166 F 
ENDBRANCH  23  29
ENDBRANCH  18  19
ENDBRANCH  16  18
ENDBRANCH   4  16
TORSDOF 7
