REMARK  7 active torsions:
REMARK  status: ('A' for Active; 'I' for Inactive)
REMARK    1  A    between atoms: C_3  and  S_1 
REMARK    2  A    between atoms: O_9  and  S_1 
REMARK    3  A    between atoms: C_6  and  C_2 
REMARK    4  A    between atoms: N_7  and  C_14 
REMARK    5  A    between atoms: N_11  and  O_9 
REMARK    6  A    between atoms: C_14  and  C_13 
REMARK    7  A    between atoms: N_23  and  C_13 
ROOT
ATOM      1  N   UNL d   1       0.534  -2.483   0.250  0.00  0.00    -0.241 N 
ATOM      2  HN  UNL d   1       0.073  -1.576   0.182  1.00  0.00     0.196 HD
ATOM      3  C   UNL d   1       0.241  -3.414   1.114  0.00  0.00     0.096 C 
ENDROOT
BRANCH   3   4
ATOM      4  C   UNL d   1      -0.726  -3.075   2.236  0.00  0.00     0.219 C 
BRANCH   4   5
ATOM      5  N   UNL d   1      -2.106  -3.422   1.944  0.00  0.00    -0.296 N 
ATOM      6  N   UNL d   1      -2.421  -4.593   1.347  0.00  0.00    -0.294 N 
ATOM      7  C   UNL d   1      -3.771  -4.580   1.282  0.00  0.00     0.133 A 
ATOM      8  HN  UNL d   1      -1.785  -5.321   1.021  1.00  0.00     0.187 HD
ATOM      9  C   UNL d   1      -4.295  -3.435   1.942  0.00  0.00     0.054 A 
ATOM     10  C   UNL d   1      -3.201  -2.725   2.368  0.00  0.00     0.113 A 
BRANCH   7  11
ATOM     11  C   UNL d   1      -4.590  -5.655   0.615  0.00  0.00     0.433 C 
ATOM     12  F   UNL d   1      -3.844  -6.595  -0.025  0.00  0.00    -0.165 F 
ATOM     13  F   UNL d   1      -5.369  -6.319   1.513  0.00  0.00    -0.165 F 
ATOM     14  F   UNL d   1      -5.440  -5.133  -0.312  0.00  0.00    -0.165 F 
ENDBRANCH   7  11
ENDBRANCH   4   5
ENDBRANCH   3   4
BRANCH   3  15
ATOM     15  N   UNL d   1       0.772  -4.688   1.093  0.00  0.00    -0.289 NA
ATOM     16  H   UNL d   1       1.197  -4.921   0.200  0.00  0.00     0.125 HD
ATOM     17  H   UNL d   1       0.106  -5.408   1.371  0.00  0.00     0.125 HD
ENDBRANCH   3  15
BRANCH   1  18
ATOM     18  O   UNL d   1       1.593  -2.927  -0.582  0.00  0.00    -0.146 OA
BRANCH  18  19
ATOM     19  S   UNL d   1       1.596  -2.413  -2.135  0.00  0.00     0.320 S 
ATOM     20  O   UNL d   1       2.652  -3.136  -2.821  0.00  0.00    -0.191 OA
ATOM     21  O   UNL d   1       0.236  -2.479  -2.646  0.00  0.00    -0.191 OA
BRANCH  19  22
ATOM     22  C   UNL d   1       2.074  -0.704  -2.246  0.00  0.00     0.111 A 
ATOM     23  C   UNL d   1       2.584   0.075  -1.206  0.00  0.00     0.079 A 
ATOM     24  C   UNL d   1       2.853   1.437  -1.466  0.00  0.00     0.057 A 
ATOM     25 CL   UNL d   1       2.994  -0.563   0.347  0.00  0.00    -0.081 Cl
ATOM     26 CL   UNL d   1       3.420   2.526  -0.240  0.00  0.00    -0.083 Cl
ATOM     27  C   UNL d   1       2.673   1.984  -2.743  0.00  0.00     0.026 A 
ATOM     28  C   UNL d   1       2.220   1.187  -3.784  0.00  0.00     0.003 A 
ATOM     29  C   UNL d   1       1.910  -0.146  -3.534  0.00  0.00     0.028 A 
ENDBRANCH  19  22
ENDBRANCH  18  19
ENDBRANCH   1  18
TORSDOF 7
