REMARK  4 active torsions:
REMARK  status: ('A' for Active; 'I' for Inactive)
REMARK    1  A    between atoms: N_4  and  C_1 
REMARK    2  A    between atoms: O_12  and  C_1 
REMARK       I    between atoms: C_7  and  N_4 
REMARK    3  A    between atoms: C_9  and  C_7 
REMARK    4  A    between atoms: C_8  and  C_9 
ROOT
ATOM      1  C   UNL d   1      -1.828   0.253  -0.660  0.00  0.00     0.269 C 
ATOM      2  C   UNL d   1      -2.423   1.020   0.537  0.00  0.00     0.224 C 
ATOM      3  C   UNL d   1      -0.781  -0.670   0.006  0.00  0.00     0.224 C 
ATOM      4  C   UNL d   1      -1.606   0.714   1.713  0.00  0.00     0.029 A 
ATOM      5  C   UNL d   1      -0.648  -0.251   1.407  0.00  0.00     0.029 A 
ATOM      6  O   UNL d   1      -0.046  -1.478  -0.540  0.00  0.00    -0.286 OA
ATOM      7  O   UNL d   1      -3.367   1.790   0.549  0.00  0.00    -0.286 OA
ATOM      8  C   UNL d   1       0.326  -0.614   2.319  0.00  0.00     0.016 A 
ATOM      9  C   UNL d   1      -1.652   1.322   2.954  0.00  0.00     0.016 A 
ATOM     10  C   UNL d   1       0.310   0.012   3.569  0.00  0.00     0.001 A 
ATOM     11  C   UNL d   1      -0.676   0.966   3.888  0.00  0.00     0.001 A 
ENDROOT
BRANCH   1  12
ATOM     12  N   UNL d   1      -2.815  -0.269  -1.559  0.00  0.00    -0.316 N 
ATOM     13  C   UNL d   1      -3.751  -1.173  -1.119  0.00  0.00     0.224 C 
ATOM     14  O   UNL d   1      -3.610  -1.787  -0.061  0.00  0.00    -0.273 OA
ATOM     15  H   UNL d   1      -3.089   0.380  -2.285  0.00  0.00     0.166 HD
BRANCH  13  16
ATOM     16  C   UNL d   1      -4.970  -1.325  -2.021  0.00  0.00     0.143 C 
BRANCH  16  17
ATOM     17  C   UNL d   1      -4.832  -2.300  -3.174  0.00  0.00    -0.028 A 
ATOM     18  C   UNL d   1      -5.664  -2.212  -4.307  0.00  0.00     0.040 A 
ATOM     19 CL   UNL d   1      -6.905  -1.014  -4.439  0.00  0.00    -0.084 Cl
ATOM     20  C   UNL d   1      -5.526  -3.107  -5.374  0.00  0.00     0.024 A 
ATOM     21  C   UNL d   1      -4.575  -4.122  -5.317  0.00  0.00     0.002 A 
ATOM     22  C   UNL d   1      -3.781  -4.257  -4.184  0.00  0.00     0.001 A 
ATOM     23  C   UNL d   1      -3.914  -3.362  -3.117  0.00  0.00     0.009 A 
ENDBRANCH  16  17
ENDBRANCH  13  16
ENDBRANCH   1  12
BRANCH   1  24
ATOM     24  O   UNL d   1      -1.120   1.195  -1.464  0.00  0.00    -0.358 OA
ATOM     25  H   UNL d   1      -0.230   0.828  -1.617  0.00  0.00     0.213 HD
ENDBRANCH   1  24
TORSDOF 4
