REMARK  4 active torsions:
REMARK  status: ('A' for Active; 'I' for Inactive)
REMARK       I    between atoms: C_3  and  N_4 
REMARK    1  A    between atoms: C_13  and  C_3 
REMARK    2  A    between atoms: N_4  and  C_6 
REMARK    3  A    between atoms: C_5  and  S_10 
REMARK    4  A    between atoms: S_10  and  C_13 
ROOT
ATOM      1  C   UNL d   1      -3.797   2.977  -0.135  0.00  0.00     0.231 C 
ATOM      2  N   UNL d   1      -3.645   1.603  -0.070  0.00  0.00    -0.326 N 
ATOM      3  O   UNL d   1      -2.882   3.785  -0.287  0.00  0.00    -0.272 OA
ATOM      4  H   UNL d   1      -4.508   1.085   0.064  0.00  0.00     0.169 HD
ENDROOT
BRANCH   1   5
ATOM      5  C   UNL d   1      -5.243   3.462  -0.098  0.00  0.00     0.184 C 
BRANCH   5   6
ATOM      6  S   UNL d   1      -6.318   2.375   0.903  0.00  0.00    -0.103 SA
BRANCH   6   7
ATOM      7  C   UNL d   1      -7.862   3.258   0.784  0.00  0.00     0.069 A 
ATOM      8  N   UNL d   1      -7.902   4.392   0.052  0.00  0.00    -0.361 N 
ATOM      9  C   UNL d   1      -9.085   5.043  -0.017  0.00  0.00     0.089 A 
ATOM     10  HN  UNL d   1      -7.074   4.743  -0.429  1.00  0.00     0.165 HD
ATOM     11  C   UNL d   1     -10.243   4.609   0.608  0.00  0.00     0.017 A 
ATOM     12  C   UNL d   1     -10.184   3.438   1.351  0.00  0.00     0.004 A 
ATOM     13  C   UNL d   1      -8.976   2.750   1.444  0.00  0.00     0.037 A 
ENDBRANCH   6   7
ENDBRANCH   5   6
ENDBRANCH   1   5
BRANCH   2  14
ATOM     14  C   UNL d   1      -2.451   0.856  -0.085  0.00  0.00     0.036 A 
ATOM     15  C   UNL d   1      -1.177   1.418  -0.198  0.00  0.00     0.055 A 
ATOM     16  C   UNL d   1      -0.035   0.606  -0.192  0.00  0.00     0.058 A 
ATOM     17  C   UNL d   1      -0.163  -0.782  -0.074  0.00  0.00     0.055 A 
ATOM     18 CL   UNL d   1       1.505   1.379  -0.329  0.00  0.00    -0.082 Cl
ATOM     19  C   UNL d   1      -1.433  -1.350   0.037  0.00  0.00     0.028 A 
ATOM     20 CL   UNL d   1       1.198  -1.845  -0.058  0.00  0.00    -0.083 Cl
ATOM     21  C   UNL d   1      -2.569  -0.535   0.032  0.00  0.00     0.031 A 
ENDBRANCH   2  14
TORSDOF 4
