REMARK  7 active torsions:
REMARK  status: ('A' for Active; 'I' for Inactive)
REMARK    1  A    between atoms: C_3  and  C_1 
REMARK    2  A    between atoms: C_2  and  C_4 
REMARK    3  A    between atoms: C_5  and  N_8 
REMARK    4  A    between atoms: N_14  and  C_5 
REMARK    5  A    between atoms: N_8  and  C_7 
REMARK    6  A    between atoms: N_9  and  N_14 
REMARK    7  A    between atoms: C_24  and  C_15 
ROOT
ATOM      1  N   UNL d   1       0.046  -1.523   4.867  0.00  0.00    -0.332 N 
ATOM      2  H   UNL d   1      -0.239  -0.594   5.159  0.00  0.00     0.168 HD
ENDROOT
BRANCH   1   3
ATOM      3  C   UNL d   1       0.179  -2.355   5.960  0.00  0.00     0.191 C 
ATOM      4  S   UNL d   1       1.085  -3.747   6.092  0.00  0.00    -0.039 SA
BRANCH   3   5
ATOM      5  N   UNL d   1      -0.537  -1.890   7.055  0.00  0.00    -0.276 N 
ATOM      6  H   UNL d   1      -0.539  -2.455   7.900  0.00  0.00     0.189 HD
BRANCH   5   7
ATOM      7  N   UNL d   1      -1.533  -0.984   6.828  0.00  0.00    -0.308 N 
ATOM      8  C   UNL d   1      -2.370  -0.782   7.796  0.00  0.00     0.136 C 
ATOM      9  HN  UNL d   1      -1.614  -0.490   5.940  1.00  0.00     0.186 HD
BRANCH   8  10
ATOM     10  C   UNL d   1      -3.558   0.070   7.587  0.00  0.00     0.049 A 
ATOM     11  N   UNL d   1      -4.264   0.372   8.701  0.00  0.00    -0.365 N 
ATOM     12  C   UNL d   1      -5.363   1.139   8.515  0.00  0.00     0.088 A 
ATOM     13  HN  UNL d   1      -3.984   0.043   9.625  1.00  0.00     0.165 HD
ATOM     14  C   UNL d   1      -5.789   1.601   7.277  0.00  0.00     0.017 A 
ATOM     15  C   UNL d   1      -5.049   1.258   6.152  0.00  0.00     0.004 A 
ATOM     16  C   UNL d   1      -3.910   0.478   6.303  0.00  0.00     0.031 A 
ENDBRANCH   8  10
ENDBRANCH   5   7
ENDBRANCH   3   5
ENDBRANCH   1   3
BRANCH   1  17
ATOM     17  C   UNL d   1       0.025  -1.786   3.491  0.00  0.00     0.035 A 
ATOM     18  C   UNL d   1      -0.240  -3.048   2.959  0.00  0.00     0.045 A 
ATOM     19  C   UNL d   1      -0.414  -3.220   1.574  0.00  0.00     0.050 A 
ATOM     20  C   UNL d   1      -0.274  -2.112   0.723  0.00  0.00     0.032 A 
ATOM     21  C   UNL d   1       0.002  -0.839   1.242  0.00  0.00     0.050 A 
ATOM     22  C   UNL d   1       0.135  -0.689   2.631  0.00  0.00     0.045 A 
BRANCH  19  23
ATOM     23  C   UNL d   1      -0.801  -4.577   1.036  0.00  0.00     0.417 C 
ATOM     24  F   UNL d   1      -0.997  -4.587  -0.312  0.00  0.00    -0.166 F 
ATOM     25  F   UNL d   1      -1.964  -5.035   1.580  0.00  0.00    -0.166 F 
ATOM     26  F   UNL d   1       0.134  -5.532   1.287  0.00  0.00    -0.166 F 
ENDBRANCH  19  23
BRANCH  21  27
ATOM     27  C   UNL d   1       0.146   0.364   0.341  0.00  0.00     0.417 C 
ATOM     28  F   UNL d   1      -0.188   0.115  -0.955  0.00  0.00    -0.166 F 
ATOM     29  F   UNL d   1      -0.641   1.403   0.735  0.00  0.00    -0.166 F 
ATOM     30  F   UNL d   1       1.418   0.846   0.316  0.00  0.00    -0.166 F 
ENDBRANCH  21  27
ENDBRANCH   1  17
TORSDOF 7
