REMARK  4 active torsions:
REMARK  status: ('A' for Active; 'I' for Inactive)
REMARK    1  A    between atoms: C_9  and  C_3 
REMARK    2  A    between atoms: C_13  and  N_6 
REMARK    3  A    between atoms: C_8  and  C_10 
REMARK    4  A    between atoms: C_16  and  C_13 
ROOT
ATOM      1  N   UNL d   1      -0.284  -1.137  -0.192  0.00  0.00    -0.268 N 
ATOM      2  HN  UNL d   1      -0.507  -2.117  -0.365  1.00  0.00     0.190 HD
ATOM      3  C   UNL d   1       0.911  -0.540  -0.021  0.00  0.00     0.144 A 
ATOM      4  N   UNL d   1       0.792   0.812   0.215  0.00  0.00    -0.266 N 
ATOM      5  HN  UNL d   1       1.556   1.468   0.377  1.00  0.00     0.186 HD
ATOM      6  N   UNL d   1      -1.105  -0.071  -0.070  0.00  0.00    -0.212 N 
ATOM      7  N   UNL d   1      -0.499   1.100   0.192  0.00  0.00    -0.002 NA
ENDROOT
BRANCH   3   8
ATOM      8  C   UNL d   1       2.202  -1.216  -0.074  0.00  0.00     0.011 A 
ATOM      9  C   UNL d   1       2.296  -2.586  -0.368  0.00  0.00     0.031 A 
ATOM     10  C   UNL d   1       3.547  -3.226  -0.453  0.00  0.00     0.048 A 
ATOM     11  C   UNL d   1       4.711  -2.477  -0.225  0.00  0.00     0.016 A 
ATOM     12  C   UNL d   1       4.630  -1.120   0.081  0.00  0.00     0.002 A 
ATOM     13  C   UNL d   1       3.384  -0.494   0.154  0.00  0.00     0.015 A 
BRANCH  10  14
ATOM     14  C   UNL d   1       3.656  -4.690  -0.802  0.00  0.00     0.417 C 
ATOM     15  F   UNL d   1       2.454  -5.301  -0.990  0.00  0.00    -0.166 F 
ATOM     16  F   UNL d   1       4.362  -4.897  -1.950  0.00  0.00    -0.166 F 
ATOM     17  F   UNL d   1       4.295  -5.410   0.162  0.00  0.00    -0.166 F 
ENDBRANCH  10  14
ENDBRANCH   3   8
BRANCH   6  18
ATOM     18  C   UNL d   1      -2.549  -0.200  -0.017  0.00  0.00     0.205 C 
BRANCH  18  19
ATOM     19  C   UNL d   1      -3.197   0.006  -1.366  0.00  0.00    -0.035 A 
ATOM     20  C   UNL d   1      -3.578   1.290  -1.790  0.00  0.00     0.034 A 
ATOM     21  C   UNL d   1      -4.220   1.477  -3.021  0.00  0.00     0.056 A 
ATOM     22 CL   UNL d   1      -4.679   3.086  -3.453  0.00  0.00    -0.083 Cl
ATOM     23  C   UNL d   1      -4.479   0.378  -3.846  0.00  0.00     0.055 A 
ATOM     24  C   UNL d   1      -4.083  -0.900  -3.440  0.00  0.00     0.026 A 
ATOM     25 CL   UNL d   1      -5.288   0.525  -5.365  0.00  0.00    -0.083 Cl
ATOM     26  C   UNL d   1      -3.443  -1.085  -2.212  0.00  0.00     0.011 A 
ENDBRANCH  18  19
ENDBRANCH   6  18
TORSDOF 4
