REMARK  4 active torsions:
REMARK  status: ('A' for Active; 'I' for Inactive)
REMARK    1  A    between atoms: C_9  and  N_1 
REMARK    2  A    between atoms: C_5  and  C_8 
REMARK    3  A    between atoms: C_10  and  N_7 
REMARK    4  A    between atoms: N_14  and  C_9 
ROOT
ATOM      1  N   UNL d   1       4.798   0.201  -0.039  0.00  0.00    -0.364 N 
ATOM      2  N   UNL d   1       3.445  -2.449  -0.077  0.00  0.00     0.110 N 
ATOM      3  C   UNL d   1       4.134  -0.270  -1.266  0.00  0.00     0.154 C 
ATOM      4  C   UNL d   1       4.260  -0.376   1.208  0.00  0.00     0.154 C 
ATOM      5  C   UNL d   1       4.036  -1.816  -1.280  0.00  0.00     0.294 C 
ATOM      6  C   UNL d   1       4.147  -1.917   1.113  0.00  0.00     0.294 C 
ENDROOT
BRANCH   1   7
ATOM      7  C   UNL d   1       5.163   1.547   0.067  0.00  0.00     0.103 A 
ATOM      8  N   UNL d   1       5.216   2.103   1.301  0.00  0.00    -0.352 N 
ATOM      9  C   UNL d   1       5.652   3.377   1.448  0.00  0.00     0.106 A 
ATOM     10  HN  UNL d   1       4.928   1.563   2.118  1.00  0.00     0.166 HD
ATOM     11  C   UNL d   1       6.053   4.184   0.402  0.00  0.00     0.063 A 
ATOM     12  C   UNL d   1       5.989   3.628  -0.872  0.00  0.00     0.021 A 
ATOM     13  C   UNL d   1       5.551   2.308  -1.036  0.00  0.00     0.049 A 
BRANCH  11  14
ATOM     14  C   UNL d   1       6.550   5.574   0.641  0.00  0.00     0.418 C 
ATOM     15  F   UNL d   1       6.531   5.943   1.952  0.00  0.00    -0.166 F 
ATOM     16  F   UNL d   1       7.835   5.747   0.226  0.00  0.00    -0.166 F 
ATOM     17  F   UNL d   1       5.816   6.512  -0.019  0.00  0.00    -0.166 F 
ENDBRANCH  11  14
ENDBRANCH   1   7
BRANCH   2  18
ATOM     18  C   UNL d   1       1.993  -2.234   0.033  0.00  0.00     0.418 C 
BRANCH  18  19
ATOM     19  N   UNL d   1       1.296  -2.944  -1.037  0.00  0.00    -0.245 N 
ATOM     20  N   UNL d   1       0.541  -2.244  -1.914  0.00  0.00    -0.018 NA
ATOM     21  N   UNL d   1      -0.040  -3.116  -2.728  0.00  0.00    -0.282 N 
ATOM     22  C   UNL d   1       0.353  -4.373  -2.356  0.00  0.00     0.074 A 
ATOM     23  HN  UNL d   1      -0.670  -2.888  -3.497  1.00  0.00     0.184 HD
ATOM     24  C   UNL d   1       1.216  -4.294  -1.268  0.00  0.00     0.078 A 
ATOM     25  C   UNL d   1       0.023  -5.628  -2.889  0.00  0.00     0.033 A 
ATOM     26  C   UNL d   1       1.790  -5.423  -0.671  0.00  0.00     0.033 A 
ATOM     27  C   UNL d   1       1.455  -6.668  -1.221  0.00  0.00     0.002 A 
ATOM     28  C   UNL d   1       0.585  -6.773  -2.308  0.00  0.00     0.002 A 
ENDBRANCH  18  19
ENDBRANCH   2  18
TORSDOF 4
