REMARK  4 active torsions:
REMARK  status: ('A' for Active; 'I' for Inactive)
REMARK    1  A    between atoms: C_4  and  C_1 
REMARK    2  A    between atoms: N_5  and  C_2 
REMARK    3  A    between atoms: N_3  and  C_8 
REMARK       I    between atoms: C_6  and  N_7 
REMARK    4  A    between atoms: C_12  and  C_6 
ROOT
ATOM      1  N   UNL d   1      -1.195   2.486   0.437  0.00  0.00    -0.266 NA
ATOM      2  C   UNL d   1      -3.909   5.735   0.722  0.00  0.00     0.253 C 
ATOM      3  N   UNL d   1      -2.933   4.745   0.748  0.00  0.00    -0.346 N 
ATOM      4  C   UNL d   1      -1.462   3.362  -0.733  0.00  0.00     0.117 C 
ATOM      5  C   UNL d   1      -2.367   2.417   1.338  0.00  0.00     0.117 C 
ATOM      6  C   UNL d   1      -2.652   3.833   1.869  0.00  0.00     0.141 C 
ATOM      7  C   UNL d   1      -1.859   4.780  -0.259  0.00  0.00     0.141 C 
ATOM      8  O   UNL d   1      -3.898   6.665  -0.083  0.00  0.00    -0.267 OA
ENDROOT
BRANCH   1   9
ATOM      9  C   UNL d   1      -0.655   1.237   0.119  0.00  0.00     0.097 A 
ATOM     10  C   UNL d   1       0.071   0.494   1.054  0.00  0.00     0.086 A 
ATOM     11  C   UNL d   1       0.578  -0.762   0.666  0.00  0.00     0.021 A 
ATOM     12  C   UNL d   1       0.390  -1.227  -0.625  0.00  0.00     0.018 A 
ATOM     13  C   UNL d   1      -0.311  -0.420  -1.492  0.00  0.00     0.089 A 
ATOM     14  N   UNL d   1      -0.827   0.780  -1.145  0.00  0.00    -0.356 N 
ATOM     15  HN  UNL d   1      -1.341   1.336  -1.828  1.00  0.00     0.166 HD
BRANCH  10  16
ATOM     16  C   UNL d   1       0.340   0.954   2.458  0.00  0.00     0.420 C 
ATOM     17  F   UNL d   1       0.168   2.279   2.718  0.00  0.00    -0.166 F 
ATOM     18  F   UNL d   1      -0.458   0.304   3.358  0.00  0.00    -0.166 F 
ATOM     19  F   UNL d   1       1.619   0.680   2.857  0.00  0.00    -0.166 F 
ENDBRANCH  10  16
ENDBRANCH   1   9
BRANCH   2  20
ATOM     20  C   UNL d   1      -5.039   5.686   1.685  0.00  0.00     0.032 A 
ATOM     21  C   UNL d   1      -5.452   6.879   2.292  0.00  0.00     0.019 A 
ATOM     22  C   UNL d   1      -6.514   6.877   3.202  0.00  0.00     0.037 A 
ATOM     23  C   UNL d   1      -7.165   5.671   3.498  0.00  0.00     0.102 A 
ATOM     24  C   UNL d   1      -6.783   4.479   2.865  0.00  0.00     0.037 A 
ATOM     25  C   UNL d   1      -5.738   4.497   1.938  0.00  0.00     0.019 A 
BRANCH  23  26
ATOM     26  N   UNL d   1      -8.256   5.652   4.481  0.00  0.00    -0.116 N 
ATOM     27  O   UNL d   1      -8.665   6.743   4.909  0.00  0.00    -0.532 OA
ATOM     28  O   UNL d   1      -8.699   4.548   4.827  0.00  0.00    -0.532 OA
ENDBRANCH  23  26
ENDBRANCH   2  20
TORSDOF 4
