REMARK  1 active torsions:
REMARK  status: ('A' for Active; 'I' for Inactive)
REMARK    1  A    between atoms: C_13  and  C_4 
ROOT
ATOM      1  N   UNL d   1       1.243   0.121   0.063  0.00  0.00    -0.316 N 
ATOM      2  HN  UNL d   1       2.254   0.234   0.132  1.00  0.00     0.169 HD
ATOM      3  C   UNL d   1       0.543  -0.994   0.024  0.00  0.00     0.208 A 
ATOM      4  C   UNL d   1       0.270   1.104  -0.013  0.00  0.00     0.154 A 
ATOM      5  C   UNL d   1       1.118  -2.299   0.074  0.00  0.00     0.153 A 
ATOM      6  N   UNL d   1      -0.979   0.615  -0.093  0.00  0.00    -0.241 N 
ATOM      7  HN  UNL d   1      -1.855   1.135  -0.155  1.00  0.00     0.196 HD
ATOM      8  O   UNL d   1      -0.801  -0.764  -0.071  0.00  0.00    -0.215 OA
ATOM      9  N   UNL d   1       1.203  -4.553   0.077  0.00  0.00    -0.272 N 
ATOM     10  HN  UNL d   1       0.927  -5.535   0.048  1.00  0.00     0.194 HD
ATOM     11  O   UNL d   1       0.374  -3.445   0.001  0.00  0.00    -0.234 OA
ATOM     12  C   UNL d   1       2.445  -2.660   0.200  0.00  0.00     0.063 A 
ATOM     13  C   UNL d   1       2.437  -4.063   0.197  0.00  0.00     0.117 A 
ENDROOT
BRANCH   4  14
ATOM     14  C   UNL d   1       0.603   2.533  -0.013  0.00  0.00     0.078 A 
ATOM     15  N   UNL d   1      -0.426   3.420  -0.054  0.00  0.00    -0.363 N 
ATOM     16  C   UNL d   1      -0.116   4.734  -0.062  0.00  0.00     0.088 A 
ATOM     17  HN  UNL d   1      -1.396   3.104  -0.079  1.00  0.00     0.165 HD
ATOM     18  C   UNL d   1       1.180   5.220  -0.032  0.00  0.00     0.017 A 
ATOM     19  C   UNL d   1       2.224   4.305   0.013  0.00  0.00     0.004 A 
ATOM     20  C   UNL d   1       1.935   2.942   0.024  0.00  0.00     0.033 A 
ENDBRANCH   4  14
TORSDOF 1
