REMARK  5 active torsions:
REMARK  status: ('A' for Active; 'I' for Inactive)
REMARK    1  A    between atoms: C_2  and  C_1 
REMARK    2  A    between atoms: C_6  and  C_2 
REMARK    3  A    between atoms: S_8  and  C_3 
REMARK    4  A    between atoms: S_9  and  C_3 
REMARK    5  A    between atoms: O_15  and  C_12 
ROOT
ATOM      1  C   UNL d   1       1.086  -0.087  -0.012  0.00  0.00     0.118 C 
ATOM      2  C   UNL d   1       2.408  -0.410  -0.004  0.00  0.00     0.061 C 
ATOM      3  C   UNL d   1       0.395   0.062  -1.252  0.00  0.00     0.105 C 
ATOM      4  N   UNL d   1      -0.183   0.202  -2.250  0.00  0.00    -0.191 NA
ENDROOT
BRANCH   1   5
ATOM      5  C   UNL d   1       0.297   0.150   1.252  0.00  0.00     0.204 C 
ATOM      6  O   UNL d   1       0.786   0.661   2.256  0.00  0.00    -0.286 OA
BRANCH   5   7
ATOM      7  C   UNL d   1      -1.137  -0.239   1.336  0.00  0.00     0.016 A 
ATOM      8  C   UNL d   1      -1.533  -1.061   2.398  0.00  0.00     0.018 A 
ATOM      9  C   UNL d   1      -2.880  -1.426   2.559  0.00  0.00     0.037 A 
ATOM     10  C   UNL d   1      -3.839  -0.969   1.657  0.00  0.00     0.068 A 
ATOM     11  C   UNL d   1      -3.447  -0.115   0.623  0.00  0.00     0.037 A 
ATOM     12  C   UNL d   1      -2.113   0.269   0.474  0.00  0.00     0.018 A 
BRANCH  10  13
ATOM     13  O   UNL d   1      -5.175  -1.259   1.674  0.00  0.00    -0.356 OA
ATOM     14  C   UNL d   1      -5.640  -2.131   2.694  0.00  0.00     0.210 C 
ENDBRANCH  10  13
ENDBRANCH   5   7
ENDBRANCH   1   5
BRANCH   2  15
ATOM     15  S   UNL d   1       3.262  -0.718  -1.528  0.00  0.00    -0.126 SA
ATOM     16  C   UNL d   1       4.708   0.356  -1.397  0.00  0.00     0.096 C 
ENDBRANCH   2  15
BRANCH   2  17
ATOM     17  S   UNL d   1       3.299  -0.815   1.456  0.00  0.00    -0.126 SA
ATOM     18  C   UNL d   1       3.885   0.817   1.973  0.00  0.00     0.096 C 
ENDBRANCH   2  17
TORSDOF 5
