REMARK  7 active torsions:
REMARK  status: ('A' for Active; 'I' for Inactive)
REMARK    1  A    between atoms: C_10  and  C_1 
REMARK    2  A    between atoms: N_11  and  C_6 
REMARK    3  A    between atoms: N_12  and  C_7 
REMARK       I    between atoms: C_17  and  N_11 
REMARK       I    between atoms: C_18  and  N_12 
REMARK    4  A    between atoms: O_14  and  C_13 
REMARK    5  A    between atoms: C_15  and  O_14 
REMARK    6  A    between atoms: C_30  and  C_17 
REMARK    7  A    between atoms: C_29  and  C_18 
ROOT
ATOM      1  C   UNL d   1      -1.345  -0.254  -0.434  0.00  0.00     0.149 A 
ATOM      2  N   UNL d   1      -0.565  -1.324  -0.562  0.00  0.00    -0.174 N 
ATOM      3  HN  UNL d   1      -0.939  -2.272  -0.603  1.00  0.00     0.186 HD
ATOM      4  N   UNL d   1      -0.862   0.980  -0.351  0.00  0.00    -0.174 N 
ATOM      5  HN  UNL d   1      -1.485   1.785  -0.278  1.00  0.00     0.186 HD
ATOM      6  C   UNL d   1       0.742  -1.065  -0.634  0.00  0.00     0.701 A 
ATOM      7  C   UNL d   1       0.443   1.133  -0.365  0.00  0.00     0.701 A 
ATOM      8  N   UNL d   1       1.293   0.141  -0.541  0.00  0.00    -0.022 N 
ATOM      9  HN  UNL d   1       2.300   0.289  -0.602  1.00  0.00     0.203 HD
ENDROOT
BRANCH   1  10
ATOM     10  C   UNL d   1      -2.810  -0.350  -0.216  0.00  0.00     0.043 A 
ATOM     11  C   UNL d   1      -3.556  -1.544  -0.163  0.00  0.00     0.090 A 
ATOM     12  C   UNL d   1      -4.903  -1.516   0.266  0.00  0.00     0.038 A 
ATOM     13  C   UNL d   1      -5.566  -0.312   0.499  0.00  0.00     0.003 A 
ATOM     14  C   UNL d   1      -4.887   0.880   0.342  0.00  0.00     0.001 A 
ATOM     15  C   UNL d   1      -3.533   0.856   0.012  0.00  0.00     0.018 A 
BRANCH  11  16
ATOM     16  O   UNL d   1      -2.938  -2.724  -0.549  0.00  0.00    -0.308 OA
BRANCH  16  17
ATOM     17  C   UNL d   1      -3.727  -3.786  -0.938  0.00  0.00     0.098 A 
ATOM     18  C   UNL d   1      -4.665  -3.751  -1.982  0.00  0.00     0.069 A 
ATOM     19  C   UNL d   1      -5.482  -4.859  -2.224  0.00  0.00     0.050 A 
ATOM     20 CL   UNL d   1      -4.859  -2.382  -3.020  0.00  0.00    -0.081 Cl
ATOM     21  C   UNL d   1      -5.310  -6.021  -1.474  0.00  0.00     0.035 A 
ATOM     22  C   UNL d   1      -4.319  -6.093  -0.496  0.00  0.00     0.026 A 
ATOM     23 CL   UNL d   1      -6.322  -7.381  -1.764  0.00  0.00    -0.084 Cl
ATOM     24  C   UNL d   1      -3.528  -4.975  -0.227  0.00  0.00     0.041 A 
ENDBRANCH  16  17
ENDBRANCH  11  16
ENDBRANCH   1  10
BRANCH   6  25
ATOM     25  N   UNL d   1       1.554  -2.191  -0.738  0.00  0.00    -0.159 N 
ATOM     26  C   UNL d   1       2.922  -2.181  -0.883  0.00  0.00     0.235 C 
ATOM     27  O   UNL d   1       3.628  -1.189  -1.040  0.00  0.00    -0.273 OA
ATOM     28  H   UNL d   1       1.042  -3.061  -0.714  0.00  0.00     0.187 HD
BRANCH  26  29
ATOM     29  C   UNL d   1       3.516  -3.579  -0.794  0.00  0.00     0.099 C 
ATOM     30  C   UNL d   1       4.988  -3.614  -1.176  0.00  0.00     0.014 C 
ENDBRANCH  26  29
ENDBRANCH   6  25
BRANCH   7  31
ATOM     31  N   UNL d   1       0.986   2.392  -0.137  0.00  0.00    -0.159 N 
ATOM     32  C   UNL d   1       0.249   3.474   0.297  0.00  0.00     0.235 C 
ATOM     33  O   UNL d   1      -0.954   3.482   0.538  0.00  0.00    -0.273 OA
ATOM     34  H   UNL d   1       1.993   2.425  -0.190  0.00  0.00     0.187 HD
BRANCH  32  35
ATOM     35  C   UNL d   1       1.087   4.725   0.469  0.00  0.00     0.099 C 
ATOM     36  C   UNL d   1       0.280   5.853   1.095  0.00  0.00     0.014 C 
ENDBRANCH  32  35
ENDBRANCH   7  31
TORSDOF 7
