REMARK  2 active torsions:
REMARK  status: ('A' for Active; 'I' for Inactive)
REMARK    1  A    between atoms: N_5  and  C_1 
REMARK    2  A    between atoms: C_4  and  C_6 
ROOT
ATOM      1  C   UNL d   1       0.072   1.336   0.018  0.00  0.00     0.680 A 
ATOM      2  N   UNL d   1       1.031   0.541  -0.479  0.00  0.00    -0.186 N 
ATOM      3  HN  UNL d   1       1.866   0.939  -0.908  1.00  0.00     0.184 HD
ATOM      4  C   UNL d   1       0.870  -0.806  -0.399  0.00  0.00     0.133 A 
ATOM      5  N   UNL d   1      -1.032   0.846   0.601  0.00  0.00    -0.202 N 
ATOM      6  HN  UNL d   1      -1.738   1.468   0.994  1.00  0.00     0.183 HD
ATOM      7  C   UNL d   1      -0.255  -1.371   0.162  0.00  0.00     0.052 A 
ATOM      8  C   UNL d   1      -1.181  -0.489   0.653  0.00  0.00     0.108 A 
ENDROOT
BRANCH   1   9
ATOM      9  N   UNL d   1       0.180   2.706  -0.154  0.00  0.00    -0.214 N 
ATOM     10  C   UNL d   1      -0.421   3.531   0.900  0.00  0.00     0.167 C 
ATOM     11  C   UNL d   1      -0.500   4.990   0.420  0.00  0.00     0.188 C 
ATOM     12  O   UNL d   1       0.783   5.485  -0.004  0.00  0.00    -0.388 OA
ATOM     13  C   UNL d   1       1.296   4.675  -1.076  0.00  0.00     0.188 C 
ATOM     14  C   UNL d   1       1.469   3.211  -0.639  0.00  0.00     0.167 C 
ENDBRANCH   1   9
BRANCH   4  15
ATOM     15  C   UNL d   1       1.954  -1.714  -0.950  0.00  0.00     0.433 C 
ATOM     16  F   UNL d   1       3.039  -1.060  -1.452  0.00  0.00    -0.165 F 
ATOM     17  F   UNL d   1       2.442  -2.571  -0.005  0.00  0.00    -0.165 F 
ATOM     18  F   UNL d   1       1.499  -2.512  -1.961  0.00  0.00    -0.165 F 
ENDBRANCH   4  15
TORSDOF 2
