REMARK  4 active torsions:
REMARK  status: ('A' for Active; 'I' for Inactive)
REMARK    1  A    between atoms: N_7  and  C_4 
REMARK    2  A    between atoms: C_12  and  C_5 
REMARK    3  A    between atoms: O_13  and  C_11 
REMARK    4  A    between atoms: C_16  and  O_13 
ROOT
ATOM      1  C   UNL d   1      -0.327  -1.280  -0.049  0.00  0.00     0.168 A 
ATOM      2  N   UNL d   1       0.980  -0.859  -0.069  0.00  0.00    -0.324 N 
ATOM      3  HN  UNL d   1       1.827  -1.425  -0.113  1.00  0.00     0.169 HD
ATOM      4  C   UNL d   1      -1.211  -0.215   0.007  0.00  0.00     0.189 A 
ATOM      5  C   UNL d   1       0.877   0.453  -0.018  0.00  0.00     0.161 A 
ATOM      6  O   UNL d   1      -0.412   0.914   0.031  0.00  0.00    -0.273 OA
ATOM      7  C   UNL d   1      -0.662  -2.666  -0.071  0.00  0.00     0.122 C 
ATOM      8  N   UNL d   1      -0.917  -3.801  -0.082  0.00  0.00    -0.190 NA
ENDROOT
BRANCH   4   9
ATOM      9  N   UNL d   1      -2.568  -0.180   0.038  0.00  0.00    -0.325 N 
ATOM     10  C   UNL d   1      -3.104   0.961   0.276  0.00  0.00     0.228 C 
ATOM     11  HN  UNL d   1      -3.130  -1.016  -0.120  1.00  0.00     0.169 HD
BRANCH  10  12
ATOM     12  O   UNL d   1      -4.447   1.065   0.354  0.00  0.00    -0.347 OA
BRANCH  12  13
ATOM     13  C   UNL d   1      -4.920   2.289   0.927  0.00  0.00     0.171 C 
ATOM     14  C   UNL d   1      -6.436   2.292   0.895  0.00  0.00     0.034 C 
ENDBRANCH  12  13
ENDBRANCH  10  12
ENDBRANCH   4   9
BRANCH   5  15
ATOM     15  C   UNL d   1       1.942   1.453  -0.015  0.00  0.00     0.015 A 
ATOM     16  C   UNL d   1       3.270   1.039  -0.204  0.00  0.00     0.016 A 
ATOM     17  C   UNL d   1       4.317   1.964  -0.204  0.00  0.00     0.001 A 
ATOM     18  C   UNL d   1       4.050   3.316  -0.009  0.00  0.00     0.000 A 
ATOM     19  C   UNL d   1       2.738   3.745   0.183  0.00  0.00     0.001 A 
ATOM     20  C   UNL d   1       1.689   2.819   0.179  0.00  0.00     0.016 A 
ENDBRANCH   5  15
TORSDOF 4
