REMARK  6 active torsions:
REMARK  status: ('A' for Active; 'I' for Inactive)
REMARK    1  A    between atoms: C_1  and  N_9 
REMARK    2  A    between atoms: C_4  and  O_16 
REMARK    3  A    between atoms: C_5  and  O_13 
REMARK    4  A    between atoms: C_14  and  C_8 
REMARK       I    between atoms: C_11  and  N_9 
REMARK    5  A    between atoms: C_17  and  O_13 
REMARK    6  A    between atoms: C_18  and  C_17 
ROOT
ATOM      1  C   UNL d   1      -2.456  -0.303   0.057  0.00  0.00     0.170 C 
ATOM      2  C   UNL d   1      -0.074   0.445   0.178  0.00  0.00     0.187 C 
ATOM      3  O   UNL d   1       0.933   1.393  -0.170  0.00  0.00    -0.346 OA
ATOM      4  C   UNL d   1      -1.462   0.807  -0.380  0.00  0.00     0.177 C 
ATOM      5  C   UNL d   1      -1.925  -1.700  -0.365  0.00  0.00     0.285 C 
ATOM      6  C   UNL d   1       0.313  -0.933  -0.338  0.00  0.00     0.180 C 
ATOM      7  O   UNL d   1      -0.606  -1.919   0.137  0.00  0.00    -0.349 OA
ATOM      8  C   UNL d   1       2.205   1.033   0.390  0.00  0.00     0.295 C 
ATOM      9  O   UNL d   1       2.645  -0.232  -0.120  0.00  0.00    -0.354 OA
ATOM     10  C   UNL d   1       1.718  -1.285   0.120  0.00  0.00     0.206 C 
ENDROOT
BRANCH   5  11
ATOM     11  O   UNL d   1      -1.963  -1.840  -1.786  0.00  0.00    -0.355 OA
BRANCH  11  12
ATOM     12  C   UNL d   1      -1.497  -3.128  -2.193  0.00  0.00     0.209 C 
BRANCH  12  13
ATOM     13  C   UNL d   1      -1.401  -3.144  -3.693  0.00  0.00    -0.035 A 
ATOM     14  C   UNL d   1      -0.228  -2.737  -4.340  0.00  0.00     0.009 A 
ATOM     15  C   UNL d   1      -0.150  -2.753  -5.734  0.00  0.00     0.001 A 
ATOM     16  C   UNL d   1      -1.245  -3.168  -6.487  0.00  0.00     0.000 A 
ATOM     17  C   UNL d   1      -2.421  -3.563  -5.850  0.00  0.00     0.001 A 
ATOM     18  C   UNL d   1      -2.501  -3.549  -4.459  0.00  0.00     0.009 A 
ENDBRANCH  12  13
ENDBRANCH  11  12
ENDBRANCH   5  11
BRANCH   1  19
ATOM     19  N   UNL d   1      -3.831  -0.076  -0.406  0.00  0.00    -0.349 N 
ATOM     20  C   UNL d   1      -4.679   0.783   0.247  0.00  0.00     0.214 C 
ATOM     21  O   UNL d   1      -4.341   1.411   1.246  0.00  0.00    -0.274 OA
ATOM     22  C   UNL d   1      -6.062   0.877  -0.342  0.00  0.00     0.117 C 
ATOM     23  H   UNL d   1      -4.077  -0.432  -1.325  0.00  0.00     0.163 HD
ENDBRANCH   1  19
BRANCH   4  24
ATOM     24  O   UNL d   1      -1.844   2.106   0.114  0.00  0.00    -0.391 OA
ATOM     25  H   UNL d   1      -2.597   2.003   0.734  0.00  0.00     0.210 HD
ENDBRANCH   4  24
BRANCH   8  26
ATOM     26  C   UNL d   1       2.271   1.151   1.913  0.00  0.00    -0.004 A 
ATOM     27  C   UNL d   1       3.085   0.304   2.684  0.00  0.00     0.012 A 
ATOM     28  C   UNL d   1       3.108   0.405   4.077  0.00  0.00     0.001 A 
ATOM     29  C   UNL d   1       2.341   1.375   4.719  0.00  0.00     0.000 A 
ATOM     30  C   UNL d   1       1.557   2.248   3.969  0.00  0.00     0.001 A 
ATOM     31  C   UNL d   1       1.529   2.143   2.577  0.00  0.00     0.012 A 
ENDBRANCH   8  26
TORSDOF 6
