REMARK  6 active torsions:
REMARK  status: ('A' for Active; 'I' for Inactive)
REMARK    1  A    between atoms: O_6  and  C_1 
REMARK    2  A    between atoms: N_4  and  C_2 
REMARK    3  A    between atoms: N_5  and  C_3 
REMARK    4  A    between atoms: C_9  and  O_6 
REMARK    5  A    between atoms: C_7  and  C_8 
REMARK    6  A    between atoms: C_12  and  C_9 
ROOT
ATOM      1  C   UNL d   1       1.124  -0.222   0.093  0.00  0.00     0.145 A 
ATOM      2  C   UNL d   1       0.076  -1.141   0.208  0.00  0.00     0.140 A 
ATOM      3  C   UNL d   1       0.827   1.148   0.162  0.00  0.00     0.140 A 
ATOM      4  C   UNL d   1      -1.558   0.659   0.349  0.00  0.00     0.052 A 
ATOM      5  C   UNL d   1      -1.255  -0.711   0.350  0.00  0.00     0.055 A 
ATOM      6  C   UNL d   1      -0.504   1.587   0.285  0.00  0.00     0.055 A 
ENDROOT
BRANCH   1   7
ATOM      7  O   UNL d   1       2.401  -0.591  -0.365  0.00  0.00    -0.270 OA
BRANCH   7   8
ATOM      8  C   UNL d   1       3.218  -1.538   0.243  0.00  0.00     0.298 C 
ATOM      9  O   UNL d   1       2.991  -2.091   1.304  0.00  0.00    -0.259 OA
BRANCH   8  10
ATOM     10  C   UNL d   1       4.315  -1.827  -0.720  0.00  0.00     0.040 A 
ATOM     11  C   UNL d   1       4.600  -0.940  -1.769  0.00  0.00     0.024 A 
ATOM     12  C   UNL d   1       5.529  -1.267  -2.761  0.00  0.00    -0.061 A 
ATOM     13  C   UNL d   1       5.756  -0.342  -3.919  0.00  0.00     0.048 C 
ATOM     14  C   UNL d   1       6.211  -2.482  -2.670  0.00  0.00     0.007 A 
ATOM     15  C   UNL d   1       5.964  -3.356  -1.602  0.00  0.00     0.002 A 
ATOM     16  C   UNL d   1       5.013  -3.035  -0.628  0.00  0.00     0.017 A 
ENDBRANCH   8  10
ENDBRANCH   7   8
ENDBRANCH   1   7
BRANCH   2  17
ATOM     17  N   UNL d   1       0.285  -2.566   0.012  0.00  0.00    -0.113 N 
ATOM     18  O   UNL d   1       0.850  -2.913  -1.033  0.00  0.00    -0.532 OA
ATOM     19  O   UNL d   1      -0.197  -3.325   0.862  0.00  0.00    -0.532 OA
ENDBRANCH   2  17
BRANCH   3  20
ATOM     20  N   UNL d   1       1.879   2.162   0.021  0.00  0.00    -0.113 N 
ATOM     21  O   UNL d   1       3.029   1.865   0.369  0.00  0.00    -0.532 OA
ATOM     22  O   UNL d   1       1.542   3.267  -0.425  0.00  0.00    -0.532 OA
ENDBRANCH   3  20
BRANCH   4  23
ATOM     23  C   UNL d   1      -2.992   1.139   0.289  0.00  0.00     0.417 C 
ATOM     24  F   UNL d   1      -3.894   0.180   0.627  0.00  0.00    -0.166 F 
ATOM     25  F   UNL d   1      -3.228   2.196   1.108  0.00  0.00    -0.166 F 
ATOM     26  F   UNL d   1      -3.325   1.546  -0.965  0.00  0.00    -0.166 F 
ENDBRANCH   4  23
TORSDOF 6
