REMARK  3 active torsions:
REMARK  status: ('A' for Active; 'I' for Inactive)
REMARK    1  A    between atoms: C_7  and  N_1 
REMARK    2  A    between atoms: S_6  and  C_4 
REMARK    3  A    between atoms: C_12  and  S_6 
ROOT
ATOM      1  N   UNL d   1       0.039   0.844  -0.042  0.00  0.00    -0.251 N 
ATOM      2  C   UNL d   1      -1.109   0.097   0.091  0.00  0.00     0.232 C 
ATOM      3  C   UNL d   1       1.151   0.032  -0.119  0.00  0.00     0.245 C 
ATOM      4  C   UNL d   1       0.715  -1.410  -0.221  0.00  0.00     0.154 C 
ATOM      5  C   UNL d   1      -0.774  -1.363   0.043  0.00  0.00     0.129 C 
ATOM      6  O   UNL d   1      -2.264   0.477   0.234  0.00  0.00    -0.273 OA
ATOM      7  O   UNL d   1       2.332   0.360  -0.063  0.00  0.00    -0.271 OA
ENDROOT
BRANCH   1   8
ATOM      8  C   UNL d   1       0.085   2.274  -0.059  0.00  0.00     0.045 A 
ATOM      9  C   UNL d   1      -0.971   3.055   0.445  0.00  0.00     0.033 A 
ATOM     10  C   UNL d   1      -0.926   4.455   0.407  0.00  0.00     0.044 A 
ATOM     11  C   UNL d   1       0.172   5.093  -0.148  0.00  0.00     0.116 A 
ATOM     12  C   UNL d   1       1.228   4.356  -0.659  0.00  0.00     0.044 A 
ATOM     13  F   UNL d   1       0.211   6.430  -0.193  0.00  0.00    -0.206 F 
ATOM     14  C   UNL d   1       1.186   2.957  -0.610  0.00  0.00     0.033 A 
ENDBRANCH   1   8
BRANCH   4  15
ATOM     15  S   UNL d   1       1.133  -2.019  -1.898  0.00  0.00    -0.115 SA
BRANCH  15  16
ATOM     16  C   UNL d   1       0.730  -3.751  -1.749  0.00  0.00     0.001 A 
ATOM     17  C   UNL d   1      -0.197  -4.299  -2.642  0.00  0.00     0.018 A 
ATOM     18  C   UNL d   1      -0.501  -5.662  -2.602  0.00  0.00     0.001 A 
ATOM     19  C   UNL d   1       0.129  -6.488  -1.673  0.00  0.00     0.000 A 
ATOM     20  C   UNL d   1       1.059  -5.951  -0.784  0.00  0.00     0.001 A 
ATOM     21  C   UNL d   1       1.363  -4.587  -0.823  0.00  0.00     0.018 A 
ENDBRANCH  15  16
ENDBRANCH   4  15
TORSDOF 3
