REMARK  3 active torsions:
REMARK  status: ('A' for Active; 'I' for Inactive)
REMARK    1  A    between atoms: C_2  and  C_1 
REMARK    2  A    between atoms: O_7  and  C_2 
REMARK    3  A    between atoms: O_8  and  C_3 
ROOT
ATOM      1  C   UNL d   1       0.829   1.216  -0.015  0.00  0.00     0.088 A 
ATOM      2  C   UNL d   1      -0.556   1.147   0.078  0.00  0.00     0.158 A 
ATOM      3  N   UNL d   1      -1.232  -0.030   0.125  0.00  0.00    -0.346 N 
ATOM      4  HN  UNL d   1      -2.247  -0.055   0.216  1.00  0.00     0.167 HD
ATOM      5  C   UNL d   1       1.553   0.019  -0.100  0.00  0.00     0.024 A 
ATOM      6  C   UNL d   1      -0.507  -1.167   0.047  0.00  0.00     0.090 A 
ATOM      7  C   UNL d   1       0.873  -1.194  -0.064  0.00  0.00     0.018 A 
ENDROOT
BRANCH   1   8
ATOM      8  C   UNL d   1       1.531   2.513  -0.079  0.00  0.00     0.180 C 
ATOM      9  O   UNL d   1       1.207   3.430  -0.808  0.00  0.00    -0.646 OA
BRANCH   8  10
ATOM     10  O   UNL d   1       2.611   2.555   0.734  0.00  0.00    -0.773 OA
ATOM     11  H   UNL d   1       2.691   1.811   1.359  0.00  0.00     0.167 HD
ENDBRANCH   8  10
ENDBRANCH   1   8
BRANCH   2  12
ATOM     12  O   UNL d   1      -1.273   2.317   0.201  0.00  0.00    -0.340 OA
ATOM     13  C   UNL d   1      -2.679   2.142   0.065  0.00  0.00     0.211 C 
ENDBRANCH   2  12
TORSDOF 3
