REMARK  6 active torsions:
REMARK  status: ('A' for Active; 'I' for Inactive)
REMARK    1  A    between atoms: C_5  and  C_1 
REMARK    2  A    between atoms: C_10  and  N_4 
REMARK       I    between atoms: C_7  and  N_12 
REMARK       I    between atoms: N_11  and  C_7 
REMARK    3  A    between atoms: C_9  and  S_13 
REMARK    4  A    between atoms: C_24  and  N_11 
REMARK    5  A    between atoms: N_12  and  C_23 
REMARK    6  A    between atoms: S_13  and  C_25 
ROOT
ATOM      1  C   UNL d   1       6.162   3.759  -1.353  0.00  0.00     0.325 C 
ATOM      2  N   UNL d   1       6.957   4.865  -1.609  0.00  0.00    -0.309 N 
ATOM      3  N   UNL d   1       5.236   3.983  -0.343  0.00  0.00    -0.309 N 
ATOM      4  O   UNL d   1       6.290   2.686  -1.932  0.00  0.00    -0.247 OA
ATOM      5  H   UNL d   1       6.829   5.675  -1.027  0.00  0.00     0.170 HD
ATOM      6  H   UNL d   1       5.257   4.876   0.120  0.00  0.00     0.170 HD
ENDROOT
BRANCH   3   7
ATOM      7  C   UNL d   1       4.409   2.988   0.241  0.00  0.00     0.036 A 
ATOM      8  C   UNL d   1       4.309   1.685  -0.254  0.00  0.00     0.032 A 
ATOM      9  C   UNL d   1       3.632   0.685   0.448  0.00  0.00     0.034 A 
ATOM     10  C   UNL d   1       3.021   0.981   1.665  0.00  0.00     0.056 A 
ATOM     11  C   UNL d   1       3.006   2.310   2.113  0.00  0.00     0.034 A 
ATOM     12  C   UNL d   1       3.700   3.306   1.405  0.00  0.00     0.032 A 
BRANCH  10  13
ATOM     13  N   UNL d   1       2.494  -0.059   2.479  0.00  0.00    -0.267 N 
ATOM     14  N   UNL d   1       1.912   0.214   3.675  0.00  0.00    -0.290 N 
ATOM     15  C   UNL d   1       1.682  -0.985   4.245  0.00  0.00     0.134 A 
ATOM     16  HN  UNL d   1       1.694   1.133   4.060  1.00  0.00     0.187 HD
ATOM     17  C   UNL d   1       2.084  -2.037   3.387  0.00  0.00     0.055 A 
ATOM     18  C   UNL d   1       2.571  -1.419   2.263  0.00  0.00     0.119 A 
BRANCH  15  19
ATOM     19  C   UNL d   1       1.092  -1.148   5.619  0.00  0.00     0.434 C 
ATOM     20  F   UNL d   1       0.802   0.027   6.234  0.00  0.00    -0.165 F 
ATOM     21  F   UNL d   1      -0.063  -1.869   5.583  0.00  0.00    -0.165 F 
ATOM     22  F   UNL d   1       1.937  -1.824   6.445  0.00  0.00    -0.165 F 
ENDBRANCH  15  19
ENDBRANCH  10  13
ENDBRANCH   3   7
BRANCH   2  23
ATOM     23  C   UNL d   1       8.074   4.883  -2.485  0.00  0.00     0.036 A 
ATOM     24  C   UNL d   1       8.392   3.835  -3.354  0.00  0.00     0.031 A 
ATOM     25  C   UNL d   1       9.572   3.844  -4.101  0.00  0.00     0.021 A 
ATOM     26  C   UNL d   1      10.467   4.904  -3.989  0.00  0.00     0.009 A 
ATOM     27  C   UNL d   1      10.115   6.001  -3.198  0.00  0.00     0.021 A 
ATOM     28  C   UNL d   1       8.927   5.991  -2.450  0.00  0.00     0.031 A 
BRANCH  26  29
ATOM     29  S   UNL d   1      12.019   4.880  -4.855  0.00  0.00    -0.016 SA
BRANCH  29  30
ATOM     30  C   UNL d   1      12.822   3.460  -4.083  0.00  0.00     0.448 C 
ATOM     31  F   UNL d   1      12.033   2.776  -3.223  0.00  0.00    -0.160 F 
ATOM     32  F   UNL d   1      13.240   2.577  -5.024  0.00  0.00    -0.160 F 
ATOM     33  F   UNL d   1      13.919   3.849  -3.389  0.00  0.00    -0.160 F 
ENDBRANCH  29  30
ENDBRANCH  26  29
ENDBRANCH   2  23
TORSDOF 6
