REMARK  2 active torsions:
REMARK  status: ('A' for Active; 'I' for Inactive)
REMARK    1  A    between atoms: N_6  and  C_1 
REMARK    2  A    between atoms: N_5  and  C_2 
ROOT
ATOM      1  C   UNL d   1      -2.170  -0.740   0.014  0.00  0.00     0.138 A 
ATOM      2  C   UNL d   1      -2.149   0.658   0.002  0.00  0.00     0.138 A 
ATOM      3  N   UNL d   1       1.544   1.139  -0.005  0.00  0.00    -0.344 N 
ATOM      4  HN  UNL d   1       1.839   2.115  -0.007  1.00  0.00     0.167 HD
ATOM      5  N   UNL d   1       1.571  -1.078   0.001  0.00  0.00    -0.339 N 
ATOM      6  C   UNL d   1       0.264   0.670  -0.004  0.00  0.00     0.063 A 
ATOM      7  C   UNL d   1       0.240  -0.721   0.006  0.00  0.00     0.065 A 
ATOM      8  C   UNL d   1       2.325   0.076  -0.005  0.00  0.00     0.080 A 
ATOM      9  C   UNL d   1      -0.952  -1.458   0.015  0.00  0.00     0.070 A 
ATOM     10  C   UNL d   1      -0.941   1.385  -0.008  0.00  0.00     0.070 A 
ATOM     11  C   UNL d   1       2.095  -2.423  -0.000  0.00  0.00     0.158 C 
ATOM     12  C   UNL d   1       3.811   0.114  -0.007  0.00  0.00     0.089 C 
ENDROOT
BRANCH   1  13
ATOM     13  N   UNL d   1      -3.405  -1.540  -0.015  0.00  0.00    -0.113 N 
ATOM     14  O   UNL d   1      -4.482  -0.961  -0.167  0.00  0.00    -0.532 OA
ATOM     15  O   UNL d   1      -3.287  -2.770   0.083  0.00  0.00    -0.532 OA
ENDBRANCH   1  13
BRANCH   2  16
ATOM     16  N   UNL d   1      -3.347   1.473   0.024  0.00  0.00    -0.113 N 
ATOM     17  O   UNL d   1      -4.012   1.458   1.069  0.00  0.00    -0.532 OA
ATOM     18  O   UNL d   1      -3.544   2.196  -0.957  0.00  0.00    -0.532 OA
ENDBRANCH   2  16
TORSDOF 2
