REMARK  8 active torsions:
REMARK  status: ('A' for Active; 'I' for Inactive)
REMARK       I    between atoms: N_2  and  C_1 
REMARK    1  A    between atoms: O_10  and  C_1 
REMARK    2  A    between atoms: C_7  and  N_2 
REMARK    3  A    between atoms: C_3  and  C_9 
REMARK    4  A    between atoms: N_4  and  O_10 
REMARK    5  A    between atoms: C_9  and  C_6 
REMARK    6  A    between atoms: N_14  and  C_6 
REMARK    7  A    between atoms: O_15  and  C_12 
REMARK    8  A    between atoms: C_23  and  O_15 
ROOT
ATOM      1  N   UNL d   1      -0.800   0.159   1.153  0.00  0.00    -0.244 N 
ATOM      2  HN  UNL d   1       0.213   0.088   1.247  1.00  0.00     0.196 HD
ATOM      3  C   UNL d   1      -1.571   0.754   2.014  0.00  0.00     0.100 C 
ENDROOT
BRANCH   1   4
ATOM      4  O   UNL d   1      -1.533  -0.378   0.074  0.00  0.00    -0.184 OA
BRANCH   4   5
ATOM      5  C   UNL d   1      -1.003  -1.589  -0.319  0.00  0.00     0.364 C 
ATOM      6  N   UNL d   1      -1.181  -1.726  -1.684  0.00  0.00    -0.200 NA
ATOM      7  H   UNL d   1      -1.062  -0.809  -2.097  0.00  0.00     0.139 HD
ATOM      8  O   UNL d   1      -0.440  -2.387   0.421  0.00  0.00    -0.243 OA
BRANCH   6   9
ATOM      9  C   UNL d   1      -0.548  -2.784  -2.372  0.00  0.00     0.050 A 
ATOM     10  C   UNL d   1      -1.215  -3.983  -2.679  0.00  0.00     0.090 A 
ATOM     11  C   UNL d   1      -0.512  -5.010  -3.321  0.00  0.00     0.038 A 
ATOM     12  C   UNL d   1       0.817  -4.837  -3.704  0.00  0.00     0.003 A 
ATOM     13  C   UNL d   1       1.460  -3.629  -3.445  0.00  0.00     0.002 A 
ATOM     14  C   UNL d   1       0.779  -2.604  -2.787  0.00  0.00     0.027 A 
BRANCH  10  15
ATOM     15  O   UNL d   1      -2.528  -4.289  -2.429  0.00  0.00    -0.350 OA
BRANCH  15  16
ATOM     16  C   UNL d   1      -3.461  -3.214  -2.526  0.00  0.00     0.171 C 
ATOM     17  C   UNL d   1      -4.785  -3.767  -3.021  0.00  0.00     0.034 C 
ENDBRANCH  15  16
ENDBRANCH  10  15
ENDBRANCH   6   9
ENDBRANCH   4   5
ENDBRANCH   1   4
BRANCH   3  18
ATOM     18  C   UNL d   1      -0.889   1.478   3.177  0.00  0.00     0.117 C 
BRANCH  18  19
ATOM     19  C   UNL d   1      -0.660   2.955   2.893  0.00  0.00    -0.040 A 
ATOM     20  C   UNL d   1      -1.570   3.985   3.280  0.00  0.00    -0.019 A 
ATOM     21  C   UNL d   1      -1.266   5.328   2.932  0.00  0.00    -0.025 A 
ATOM     22  C   UNL d   1      -2.764   3.764   4.008  0.00  0.00     0.013 A 
ATOM     23  C   UNL d   1      -2.142   6.370   3.281  0.00  0.00     0.012 A 
ATOM     24  C   UNL d   1      -0.085   5.628   2.237  0.00  0.00     0.012 A 
ATOM     25  C   UNL d   1      -3.317   6.113   3.982  0.00  0.00     0.001 A 
ATOM     26  C   UNL d   1      -3.625   4.811   4.348  0.00  0.00     0.001 A 
ATOM     27  C   UNL d   1       0.802   4.619   1.874  0.00  0.00     0.001 A 
ATOM     28  C   UNL d   1       0.511   3.297   2.191  0.00  0.00     0.008 A 
ENDBRANCH  18  19
ENDBRANCH   3  18
BRANCH   3  29
ATOM     29  N   UNL d   1      -2.945   0.778   1.958  0.00  0.00    -0.387 N 
ATOM     30  H   UNL d   1      -3.338   0.518   1.062  0.00  0.00     0.157 HD
ATOM     31  H   UNL d   1      -3.417   1.551   2.410  0.00  0.00     0.157 HD
ENDBRANCH   3  29
TORSDOF 8
