REMARK  3 active torsions:
REMARK  status: ('A' for Active; 'I' for Inactive)
REMARK    1  A    between atoms: C_13  and  C_5 
REMARK    2  A    between atoms: C_8  and  C_9 
REMARK    3  A    between atoms: O_20  and  C_16 
ROOT
ATOM      1  C   UNL d   1      -2.044   0.312   0.028  0.00  0.00    -0.006 C 
ATOM      2  C   UNL d   1      -1.061  -0.814   0.017  0.00  0.00     0.189 C 
ATOM      3  C   UNL d   1       0.379  -0.429   0.025  0.00  0.00     0.021 A 
ATOM      4  C   UNL d   1       0.766   0.920  -0.020  0.00  0.00    -0.041 A 
ATOM      5  C   UNL d   1      -3.245   0.084  -0.529  0.00  0.00     0.022 C 
ATOM      6  C   UNL d   1       1.350  -1.436   0.037  0.00  0.00     0.019 A 
ATOM      7  C   UNL d   1      -1.551   1.595   0.631  0.00  0.00     0.047 C 
ATOM      8  O   UNL d   1      -1.406  -1.989  -0.014  0.00  0.00    -0.287 OA
ATOM      9  C   UNL d   1       2.131   1.234  -0.087  0.00  0.00     0.044 A 
ATOM     10  C   UNL d   1      -0.259   2.024  -0.056  0.00  0.00     0.044 C 
ATOM     11  C   UNL d   1       3.104   0.230  -0.080  0.00  0.00     0.068 A 
ATOM     12  C   UNL d   1       2.709  -1.107  -0.010  0.00  0.00     0.038 A 
ENDROOT
BRANCH   5  13
ATOM     13  C   UNL d   1      -4.286   1.099  -0.670  0.00  0.00    -0.036 A 
ATOM     14  C   UNL d   1      -4.333   1.903  -1.809  0.00  0.00     0.012 A 
ATOM     15  C   UNL d   1      -5.338   2.866  -1.950  0.00  0.00     0.009 A 
ATOM     16  C   UNL d   1      -6.324   3.050  -0.961  0.00  0.00    -0.051 A 
ATOM     17  C   UNL d   1      -6.241   2.244   0.188  0.00  0.00     0.009 A 
ATOM     18  C   UNL d   1      -5.236   1.281   0.333  0.00  0.00     0.012 A 
BRANCH  16  19
ATOM     19  C   UNL d   1      -7.443   4.087  -1.167  0.00  0.00    -0.024 C 
ATOM     20  C   UNL d   1      -8.467   4.130  -0.011  0.00  0.00     0.019 C 
ATOM     21  C   UNL d   1      -6.834   5.499  -1.297  0.00  0.00     0.019 C 
ATOM     22  C   UNL d   1      -8.229   3.756  -2.456  0.00  0.00     0.019 C 
ENDBRANCH  16  19
ENDBRANCH   5  13
BRANCH  11  23
ATOM     23  O   UNL d   1       4.391   0.685  -0.149  0.00  0.00    -0.356 OA
ATOM     24  C   UNL d   1       5.420  -0.295  -0.152  0.00  0.00     0.210 C 
ENDBRANCH  11  23
TORSDOF 3
