REMARK  3 active torsions:
REMARK  status: ('A' for Active; 'I' for Inactive)
REMARK    1  A    between atoms: C_10  and  N_1 
REMARK    2  A    between atoms: O_13  and  C_16 
REMARK    3  A    between atoms: C_17  and  O_13 
ROOT
ATOM      1  C   UNL d   1      -3.659  -0.010  -0.670  0.00  0.00     0.045 A 
ATOM      2  C   UNL d   1      -4.296   1.124  -1.202  0.00  0.00     0.033 A 
ATOM      3  C   UNL d   1      -4.477  -1.126  -0.414  0.00  0.00     0.033 A 
ATOM      4  C   UNL d   1      -6.474   0.063  -1.109  0.00  0.00     0.076 A 
ATOM      5  C   UNL d   1      -5.864  -1.091  -0.627  0.00  0.00     0.039 A 
ATOM      6  C   UNL d   1      -5.678   1.153  -1.445  0.00  0.00     0.039 A 
ENDROOT
BRANCH   1   7
ATOM      7  N   UNL d   1      -2.273  -0.007  -0.300  0.00  0.00    -0.252 N 
ATOM      8  C   UNL d   1      -1.473   1.117  -0.240  0.00  0.00     0.236 C 
ATOM      9  C   UNL d   1      -0.271   0.800   0.621  0.00  0.00     0.096 C 
ATOM     10  O   UNL d   1      -1.680   2.234  -0.690  0.00  0.00    -0.272 OA
ATOM     11  C   UNL d   1       1.000   1.520   0.190  0.00  0.00     0.049 C 
ATOM     12  C   UNL d   1      -0.258  -0.713   0.712  0.00  0.00     0.096 C 
ATOM     13  C   UNL d   1       2.081   0.687  -0.438  0.00  0.00    -0.081 C 
ATOM     14  C   UNL d   1       3.234   1.476  -1.012  0.00  0.00     0.043 C 
ATOM     15  C   UNL d   1       2.063  -0.658  -0.439  0.00  0.00    -0.081 C 
ATOM     16  C   UNL d   1       0.956  -1.470   0.179  0.00  0.00     0.049 C 
ATOM     17  C   UNL d   1       3.203  -1.472  -1.006  0.00  0.00     0.043 C 
ATOM     18  C   UNL d   1      -1.548  -1.128   0.037  0.00  0.00     0.236 C 
ATOM     19  O   UNL d   1      -1.836  -2.305  -0.149  0.00  0.00    -0.272 OA
ENDBRANCH   1   7
BRANCH   4  20
ATOM     20  O   UNL d   1      -7.838   0.019  -1.271  0.00  0.00    -0.311 OA
BRANCH  20  21
ATOM     21  C   UNL d   1      -8.592   1.143  -1.008  0.00  0.00     0.076 A 
ATOM     22  C   UNL d   1      -9.768   1.281  -1.752  0.00  0.00     0.039 A 
ATOM     23  C   UNL d   1     -10.597   2.390  -1.559  0.00  0.00     0.026 A 
ATOM     24  C   UNL d   1     -10.248   3.358  -0.619  0.00  0.00     0.034 A 
ATOM     25  C   UNL d   1      -9.096   3.210   0.152  0.00  0.00     0.026 A 
ATOM     26 CL   UNL d   1     -11.246   4.742  -0.403  0.00  0.00    -0.084 Cl
ATOM     27  C   UNL d   1      -8.281   2.089  -0.025  0.00  0.00     0.039 A 
ENDBRANCH  20  21
ENDBRANCH   4  20
TORSDOF 3
