REMARK  14 active torsions:
REMARK  status: ('A' for Active; 'I' for Inactive)
REMARK    1  A    between atoms: S_10  and  C_2 
REMARK    2  A    between atoms: S_11  and  C_3 
REMARK    3  A    between atoms: C_8  and  C_21 
REMARK       I    between atoms: N_14  and  C_8 
REMARK    4  A    between atoms: C_9  and  C_20 
REMARK       I    between atoms: N_15  and  C_9 
REMARK    5  A    between atoms: C_21  and  S_10 
REMARK    6  A    between atoms: C_20  and  S_11 
REMARK    7  A    between atoms: C_12  and  C_23 
REMARK    8  A    between atoms: O_25  and  C_12 
REMARK    9  A    between atoms: C_13  and  C_22 
REMARK   10  A    between atoms: O_24  and  C_13 
REMARK   11  A    between atoms: C_23  and  N_14 
REMARK   12  A    between atoms: C_22  and  N_15 
REMARK   13  A    between atoms: C_27  and  O_24 
REMARK   14  A    between atoms: C_26  and  O_25 
ROOT
ATOM      1  S   UNL d   1       1.320  -0.003   0.015  0.00  0.00    -0.038 SA
ATOM      2  C   UNL d   1       0.078   1.175   0.016  0.00  0.00     0.129 A 
ATOM      3  C   UNL d   1       0.078  -1.179  -0.007  0.00  0.00     0.129 A 
ATOM      4  N   UNL d   1      -1.143   0.683   0.013  0.00  0.00    -0.287 N 
ATOM      5  HN  UNL d   1      -1.988   1.253   0.042  1.00  0.00     0.188 HD
ATOM      6  N   UNL d   1      -1.143  -0.687  -0.032  0.00  0.00    -0.287 N 
ATOM      7  HN  UNL d   1      -1.988  -1.256  -0.080  1.00  0.00     0.188 HD
ENDROOT
BRANCH   2   8
ATOM      8  S   UNL d   1       0.294   2.900   0.081  0.00  0.00    -0.094 SA
BRANCH   8   9
ATOM      9  C   UNL d   1       0.316   3.359  -1.666  0.00  0.00     0.184 C 
BRANCH   9  10
ATOM     10  C   UNL d   1      -0.930   3.113  -2.508  0.00  0.00     0.227 C 
ATOM     11  N   UNL d   1      -2.018   2.502  -1.946  0.00  0.00    -0.351 N 
ATOM     12  H   UNL d   1      -1.924   2.027  -1.055  0.00  0.00     0.163 HD
ATOM     13  O   UNL d   1      -0.944   3.477  -3.686  0.00  0.00    -0.273 OA
BRANCH  11  14
ATOM     14  C   UNL d   1      -3.209   2.190  -2.724  0.00  0.00     0.233 C 
BRANCH  14  15
ATOM     15  C   UNL d   1      -3.221   0.865  -3.489  0.00  0.00     0.276 C 
ATOM     16  O   UNL d   1      -4.186   0.499  -4.158  0.00  0.00    -0.263 OA
BRANCH  15  17
ATOM     17  O   UNL d   1      -2.081   0.141  -3.319  0.00  0.00    -0.321 OA
BRANCH  17  18
ATOM     18  C   UNL d   1      -2.046  -1.119  -4.015  0.00  0.00     0.174 C 
ATOM     19  C   UNL d   1      -2.724  -2.199  -3.192  0.00  0.00     0.034 C 
ENDBRANCH  17  18
ENDBRANCH  15  17
ENDBRANCH  14  15
ENDBRANCH  11  14
ENDBRANCH   9  10
ENDBRANCH   8   9
ENDBRANCH   2   8
BRANCH   3  20
ATOM     20  S   UNL d   1       0.294  -2.905  -0.044  0.00  0.00    -0.094 SA
BRANCH  20  21
ATOM     21  C   UNL d   1       0.294  -3.332   1.710  0.00  0.00     0.184 C 
BRANCH  21  22
ATOM     22  C   UNL d   1      -0.967  -3.082   2.529  0.00  0.00     0.227 C 
ATOM     23  N   UNL d   1      -2.046  -2.479   1.943  0.00  0.00    -0.351 N 
ATOM     24  H   UNL d   1      -1.940  -2.016   1.047  0.00  0.00     0.163 HD
ATOM     25  O   UNL d   1      -1.000  -3.433   3.710  0.00  0.00    -0.273 OA
BRANCH  23  26
ATOM     26  C   UNL d   1      -3.251  -2.162   2.698  0.00  0.00     0.233 C 
BRANCH  26  27
ATOM     27  C   UNL d   1      -3.276  -0.836   3.459  0.00  0.00     0.276 C 
ATOM     28  O   UNL d   1      -4.250  -0.468   4.110  0.00  0.00    -0.263 OA
BRANCH  27  29
ATOM     29  O   UNL d   1      -2.132  -0.111   3.308  0.00  0.00    -0.321 OA
BRANCH  29  30
ATOM     30  C   UNL d   1      -2.106   1.145   4.007  0.00  0.00     0.174 C 
ATOM     31  C   UNL d   1      -2.770   2.229   3.176  0.00  0.00     0.034 C 
ENDBRANCH  29  30
ENDBRANCH  27  29
ENDBRANCH  26  27
ENDBRANCH  23  26
ENDBRANCH  21  22
ENDBRANCH  20  21
ENDBRANCH   3  20
TORSDOF 14
