REMARK  0 active torsions:
REMARK  status: ('A' for Active; 'I' for Inactive)
ROOT
ATOM      1  C   UNL d   1      -2.600  -0.284   0.000  0.00  0.00     0.259 A 
ATOM      2  C   UNL d   1      -1.984   1.100   0.000  0.00  0.00     0.076 A 
ATOM      3  N   UNL d   1      -1.537  -1.166  -0.001  0.00  0.00    -0.322 N 
ATOM      4  C   UNL d   1      -2.721   2.234   0.000  0.00  0.00     0.141 C 
ATOM      5  C   UNL d   1      -0.516   0.888  -0.001  0.00  0.00     0.009 A 
ATOM      6  C   UNL d   1      -0.319  -0.500  -0.001  0.00  0.00     0.046 A 
ATOM      7  C   UNL d   1      -2.088   3.517  -0.001  0.00  0.00     0.112 C 
ATOM      8  C   UNL d   1      -4.157   2.215   0.001  0.00  0.00     0.112 C 
ATOM      9  N   UNL d   1      -5.319   2.258   0.002  0.00  0.00    -0.191 NA
ATOM     10  N   UNL d   1      -1.540   4.536  -0.002  0.00  0.00    -0.191 NA
ATOM     11  O   UNL d   1      -3.777  -0.577   0.001  0.00  0.00    -0.267 OA
ATOM     12  C   UNL d   1       0.594   1.718  -0.000  0.00  0.00     0.015 A 
ATOM     13  C   UNL d   1       0.931  -1.095  -0.002  0.00  0.00     0.030 A 
ATOM     14  C   UNL d   1       1.873   1.139  -0.001  0.00  0.00     0.001 A 
ATOM     15  C   UNL d   1       2.042  -0.255  -0.002  0.00  0.00     0.002 A 
ATOM     16  H   UNL d   1      -1.657  -2.168  -0.001  0.00  0.00     0.169 HD
ENDROOT
TORSDOF 0
