REMARK  4 active torsions:
REMARK  status: ('A' for Active; 'I' for Inactive)
REMARK       I    between atoms: N_2  and  C_1 
REMARK    1  A    between atoms: O_3  and  C_1 
REMARK    2  A    between atoms: C_6  and  N_2 
REMARK    3  A    between atoms: C_5  and  O_3 
REMARK    4  A    between atoms: O_12  and  C_7 
ROOT
ATOM      1  C   UNL d   1       1.057  -0.009  -0.040  0.00  0.00     0.365 C 
ATOM      2  N   UNL d   1       0.450  -1.238   0.034  0.00  0.00    -0.303 N 
ATOM      3  O   UNL d   1       2.232   0.236   0.189  0.00  0.00    -0.238 OA
ATOM      4  H   UNL d   1      -0.489  -1.263  -0.340  0.00  0.00     0.171 HD
ENDROOT
BRANCH   2   5
ATOM      5  C   UNL d   1       1.046  -2.440   0.456  0.00  0.00     0.037 A 
ATOM      6  C   UNL d   1       2.269  -2.487   1.130  0.00  0.00     0.032 A 
ATOM      7  C   UNL d   1       2.849  -3.708   1.490  0.00  0.00     0.039 A 
ATOM      8  C   UNL d   1       2.213  -4.903   1.174  0.00  0.00     0.068 A 
ATOM      9  C   UNL d   1       0.966  -4.865   0.548  0.00  0.00     0.039 A 
ATOM     10  C   UNL d   1       0.382  -3.642   0.192  0.00  0.00     0.032 A 
BRANCH   8  11
ATOM     11  O   UNL d   1       2.698  -6.150   1.458  0.00  0.00    -0.356 OA
ATOM     12  C   UNL d   1       4.117  -6.245   1.560  0.00  0.00     0.210 C 
ENDBRANCH   8  11
ENDBRANCH   2   5
BRANCH   1  13
ATOM     13  O   UNL d   1       0.149   0.920  -0.448  0.00  0.00    -0.294 OA
BRANCH  13  14
ATOM     14  C   UNL d   1       0.575   2.299  -0.639  0.00  0.00     0.061 C 
ATOM     15  C   UNL d   1       1.558   2.410  -1.812  0.00  0.00     0.046 C 
ATOM     16  C   UNL d   1      -0.702   3.075  -1.001  0.00  0.00     0.046 C 
ATOM     17  C   UNL d   1       1.149   2.911   0.648  0.00  0.00     0.046 C 
ENDBRANCH  13  14
ENDBRANCH   1  13
TORSDOF 4
