REMARK  5 active torsions:
REMARK  status: ('A' for Active; 'I' for Inactive)
REMARK    1  A    between atoms: C_16  and  C_4 
REMARK    2  A    between atoms: C_7  and  S_15 
REMARK    3  A    between atoms: N_18  and  C_8 
REMARK    4  A    between atoms: C_17  and  C_13 
REMARK    5  A    between atoms: S_15  and  C_17 
ROOT
ATOM      1  N   UNL d   1       1.348   0.178  -0.002  0.00  0.00    -0.322 N 
ATOM      2  HN  UNL d   1       2.352   0.356  -0.035  1.00  0.00     0.169 HD
ATOM      3  C   UNL d   1       0.315   1.090   0.045  0.00  0.00     0.137 A 
ATOM      4  N   UNL d   1      -0.901   0.524   0.133  0.00  0.00    -0.242 N 
ATOM      5  HN  UNL d   1      -1.808   0.987   0.197  1.00  0.00     0.196 HD
ATOM      6  C   UNL d   1       0.720  -0.974   0.008  0.00  0.00     0.158 A 
ATOM      7  O   UNL d   1      -0.634  -0.844   0.117  0.00  0.00    -0.222 OA
ENDROOT
BRANCH   6   8
ATOM      8  C   UNL d   1       1.273  -2.347  -0.055  0.00  0.00     0.169 C 
BRANCH   8   9
ATOM      9  S   UNL d   1       0.591  -3.335  -1.421  0.00  0.00    -0.084 SA
BRANCH   9  10
ATOM     10  C   UNL d   1       1.120  -2.432  -2.787  0.00  0.00     0.174 A 
ATOM     11  N   UNL d   1       0.396  -2.433  -3.934  0.00  0.00    -0.168 N 
ATOM     12  C   UNL d   1       1.078  -1.637  -4.806  0.00  0.00     0.692 A 
ATOM     13  H   UNL d   1      -0.468  -2.920  -4.101  0.00  0.00     0.186 HD
ATOM     14  N   UNL d   1       2.157  -1.179  -4.213  0.00  0.00    -0.130 N 
ATOM     15  N   UNL d   1       2.186  -1.685  -2.924  0.00  0.00    -0.265 N 
ATOM     16  HN  UNL d   1       2.852  -0.558  -4.628  1.00  0.00     0.205 HD
ATOM     17  HN  UNL d   1       2.901  -1.509  -2.218  1.00  0.00     0.189 HD
BRANCH  12  18
ATOM     18  N   UNL d   1       0.638  -1.430  -6.050  0.00  0.00    -0.233 N 
ATOM     19  H   UNL d   1      -0.255  -1.742  -6.410  0.00  0.00     0.174 HD
ATOM     20  H   UNL d   1       1.145  -0.779  -6.644  0.00  0.00     0.174 HD
ENDBRANCH  12  18
ENDBRANCH   9  10
ENDBRANCH   8   9
ENDBRANCH   6   8
BRANCH   3  21
ATOM     21  C   UNL d   1       0.557   2.528   0.004  0.00  0.00     0.010 A 
ATOM     22  C   UNL d   1       1.866   3.013  -0.137  0.00  0.00     0.015 A 
ATOM     23  C   UNL d   1       2.116   4.386  -0.186  0.00  0.00     0.001 A 
ATOM     24  C   UNL d   1       1.060   5.290  -0.095  0.00  0.00     0.000 A 
ATOM     25  C   UNL d   1      -0.245   4.822   0.046  0.00  0.00     0.001 A 
ATOM     26  C   UNL d   1      -0.497   3.448   0.095  0.00  0.00     0.015 A 
ENDBRANCH   3  21
TORSDOF 5
