REMARK  6 active torsions:
REMARK  status: ('A' for Active; 'I' for Inactive)
REMARK    1  A    between atoms: N_4  and  C_1 
REMARK    2  A    between atoms: N_5  and  C_1 
REMARK    3  A    between atoms: C_2  and  N_3 
REMARK    4  A    between atoms: N_6  and  C_2 
REMARK    5  A    between atoms: C_13  and  N_5 
REMARK    6  A    between atoms: C_14  and  N_6 
ROOT
ATOM      1  N   UNL d   1       0.033   3.171  -2.371  0.00  0.00    -0.355 N 
ATOM      2  N   UNL d   1       0.266   0.566  -1.214  0.00  0.00    -0.355 N 
ATOM      3  C   UNL d   1       1.128   2.285  -2.794  0.00  0.00     0.145 C 
ATOM      4  C   UNL d   1      -0.871   1.426  -0.846  0.00  0.00     0.145 C 
ATOM      5  C   UNL d   1       0.817   0.810  -2.553  0.00  0.00     0.145 C 
ATOM      6  C   UNL d   1      -0.506   2.913  -1.025  0.00  0.00     0.145 C 
ENDROOT
BRANCH   1   7
ATOM      7  C   UNL d   1      -0.651   3.976  -3.245  0.00  0.00     0.174 C 
ATOM      8  S   UNL d   1      -1.332   3.421  -4.672  0.00  0.00    -0.041 SA
BRANCH   7   9
ATOM      9  N   UNL d   1      -0.856   5.284  -2.900  0.00  0.00    -0.333 N 
ATOM     10  H   UNL d   1      -1.553   5.739  -3.482  0.00  0.00     0.168 HD
BRANCH   9  11
ATOM     11  C   UNL d   1      -0.128   6.129  -2.031  0.00  0.00     0.035 A 
ATOM     12  C   UNL d   1       1.088   5.782  -1.438  0.00  0.00     0.055 A 
ATOM     13  C   UNL d   1       1.752   6.664  -0.578  0.00  0.00     0.058 A 
ATOM     14 CL   UNL d   1       3.228   6.120   0.141  0.00  0.00    -0.082 Cl
ATOM     15  C   UNL d   1       1.218   7.928  -0.331  0.00  0.00     0.055 A 
ATOM     16  C   UNL d   1       0.028   8.305  -0.959  0.00  0.00     0.028 A 
ATOM     17 CL   UNL d   1       1.975   9.066   0.721  0.00  0.00    -0.083 Cl
ATOM     18  C   UNL d   1      -0.639   7.411  -1.806  0.00  0.00     0.031 A 
ENDBRANCH   9  11
ENDBRANCH   7   9
ENDBRANCH   1   7
BRANCH   2  19
ATOM     19  C   UNL d   1       0.911  -0.171  -0.242  0.00  0.00     0.174 C 
ATOM     20  S   UNL d   1       2.509   0.041   0.195  0.00  0.00    -0.041 SA
BRANCH  19  21
ATOM     21  N   UNL d   1       0.123  -1.051   0.462  0.00  0.00    -0.333 N 
ATOM     22  H   UNL d   1       0.471  -1.316   1.377  0.00  0.00     0.168 HD
BRANCH  21  23
ATOM     23  C   UNL d   1      -0.964  -1.790  -0.049  0.00  0.00     0.035 A 
ATOM     24  C   UNL d   1      -1.125  -2.021  -1.421  0.00  0.00     0.055 A 
ATOM     25  C   UNL d   1      -2.226  -2.729  -1.907  0.00  0.00     0.058 A 
ATOM     26 CL   UNL d   1      -2.342  -2.952  -3.616  0.00  0.00    -0.082 Cl
ATOM     27  C   UNL d   1      -3.174  -3.227  -1.012  0.00  0.00     0.055 A 
ATOM     28  C   UNL d   1      -2.993  -3.042   0.362  0.00  0.00     0.028 A 
ATOM     29 CL   UNL d   1      -4.583  -4.074  -1.539  0.00  0.00    -0.083 Cl
ATOM     30  C   UNL d   1      -1.881  -2.342   0.845  0.00  0.00     0.031 A 
ENDBRANCH  21  23
ENDBRANCH  19  21
ENDBRANCH   2  19
TORSDOF 6
