REMARK  5 active torsions:
REMARK  status: ('A' for Active; 'I' for Inactive)
REMARK    1  A    between atoms: N_5  and  C_2 
REMARK    2  A    between atoms: N_7  and  N_5 
REMARK    3  A    between atoms: O_19  and  C_11 
REMARK    4  A    between atoms: O_18  and  C_12 
REMARK    5  A    between atoms: C_14  and  C_15 
ROOT
ATOM      1  N   UNL d   1       3.852   2.666   0.840  0.00  0.00    -0.309 N 
ATOM      2  HN  UNL d   1       4.464   3.255   1.405  1.00  0.00     0.186 HD
ATOM      3  C   UNL d   1       4.265   1.677   0.113  0.00  0.00     0.118 C 
ENDROOT
BRANCH   1   4
ATOM      4  N   UNL d   1       2.470   2.831   0.757  0.00  0.00    -0.280 N 
ATOM      5  HN  UNL d   1       1.873   2.228   0.191  1.00  0.00     0.189 HD
BRANCH   4   6
ATOM      6  C   UNL d   1       2.012   3.813   1.458  0.00  0.00     0.162 A 
ATOM      7  N   UNL d   1       0.683   4.067   1.487  0.00  0.00    -0.306 N 
ATOM      8  C   UNL d   1       0.229   5.083   2.280  0.00  0.00     0.233 A 
ATOM      9  H   UNL d   1       0.043   3.493   0.964  0.00  0.00     0.171 HD
ATOM     10  O   UNL d   1      -0.954   5.371   2.398  0.00  0.00    -0.272 OA
ATOM     11  C   UNL d   1       1.356   5.783   2.995  0.00  0.00     0.185 A 
ATOM     12  S   UNL d   1       2.875   4.955   2.451  0.00  0.00    -0.083 SA
ENDBRANCH   4   6
ENDBRANCH   1   4
BRANCH   3  13
ATOM     13  C   UNL d   1       5.692   1.300   0.057  0.00  0.00    -0.014 A 
ATOM     14  C   UNL d   1       6.637   1.994   0.817  0.00  0.00     0.049 A 
ATOM     15  C   UNL d   1       7.984   1.636   0.758  0.00  0.00     0.071 A 
ATOM     16  C   UNL d   1       8.378   0.572  -0.057  0.00  0.00     0.073 A 
ATOM     17  C   UNL d   1       7.440  -0.118  -0.830  0.00  0.00     0.071 A 
ATOM     18  C   UNL d   1       6.091   0.245  -0.767  0.00  0.00     0.049 A 
BRANCH  15  19
ATOM     19  O   UNL d   1       8.818   2.400   1.528  0.00  0.00    -0.356 OA
ATOM     20  C   UNL d   1      10.206   2.089   1.479  0.00  0.00     0.210 C 
ENDBRANCH  15  19
BRANCH  17  21
ATOM     21  O   UNL d   1       7.726  -1.152  -1.682  0.00  0.00    -0.356 OA
ATOM     22  C   UNL d   1       9.097  -1.520  -1.806  0.00  0.00     0.210 C 
ENDBRANCH  17  21
ENDBRANCH   3  13
TORSDOF 5
