REMARK  5 active torsions:
REMARK  status: ('A' for Active; 'I' for Inactive)
REMARK    1  A    between atoms: N_2  and  C_1 
REMARK    2  A    between atoms: C_3  and  N_2 
REMARK    3  A    between atoms: C_9  and  N_7 
REMARK    4  A    between atoms: O_8  and  C_10 
REMARK    5  A    between atoms: C_10  and  C_9 
ROOT
ATOM      1  C   UNL d   1       1.146  -0.191   0.152  0.00  0.00     0.168 C 
ATOM      2  S   UNL d   1       0.171   1.162   0.231  0.00  0.00    -0.041 SA
ATOM      3  N   UNL d   1       2.498  -0.003   0.196  0.00  0.00    -0.365 N 
ATOM      4  H   UNL d   1       2.768   0.971   0.272  0.00  0.00     0.161 HD
ENDROOT
BRANCH   1   5
ATOM      5  N   UNL d   1       0.724  -1.490   0.088  0.00  0.00    -0.363 N 
ATOM      6  H   UNL d   1       1.404  -2.152  -0.291  0.00  0.00     0.162 HD
BRANCH   5   7
ATOM      7  C   UNL d   1      -0.630  -1.939   0.191  0.00  0.00     0.084 A 
ATOM      8  C   UNL d   1      -1.176  -2.357   1.530  0.00  0.00     0.027 A 
ATOM      9  C   UNL d   1      -0.941  -3.385   0.464  0.00  0.00     0.027 A 
ENDBRANCH   5   7
ENDBRANCH   1   5
BRANCH   3  10
ATOM     10  C   UNL d   1       3.524  -1.007   0.456  0.00  0.00     0.148 C 
BRANCH  10  11
ATOM     11  C   UNL d   1       3.960  -1.753  -0.805  0.00  0.00     0.183 C 
BRANCH  11  12
ATOM     12  O   UNL d   1       2.938  -2.656  -1.230  0.00  0.00    -0.399 OA
ATOM     13  H   UNL d   1       3.224  -3.016  -2.088  0.00  0.00     0.209 HD
ENDBRANCH  11  12
ENDBRANCH  10  11
ENDBRANCH   3  10
TORSDOF 5
