REMARK  1 active torsions:
REMARK  status: ('A' for Active; 'I' for Inactive)
REMARK    1  A    between atoms: N_13  and  C_16 
ROOT
ATOM      1  C   UNL d   1       2.724  -0.738   0.000  0.00  0.00     0.134 A 
ATOM      2  C   UNL d   1       1.776   0.254   0.001  0.00  0.00     0.104 A 
ATOM      3  N   UNL d   1       4.087  -0.337  -0.000  0.00  0.00    -0.288 N 
ATOM      4  N   UNL d   1       3.528   1.970  -0.001  0.00  0.00    -0.270 N 
ATOM      5  N   UNL d   1       2.250  -2.091  -0.001  0.00  0.00    -0.303 N 
ATOM      6  C   UNL d   1       4.498   1.012  -0.002  0.00  0.00     0.332 A 
ATOM      7  C   UNL d   1       2.187   1.696   0.003  0.00  0.00     0.267 A 
ATOM      8  C   UNL d   1      -0.107  -1.354   0.002  0.00  0.00     0.061 A 
ATOM      9  C   UNL d   1       0.320  -0.054   0.002  0.00  0.00     0.068 A 
ATOM     10  C   UNL d   1       0.872  -2.419   0.002  0.00  0.00     0.261 A 
ATOM     11  N   UNL d   1      -0.594   0.954   0.001  0.00  0.00    -0.354 N 
ATOM     12  HN  UNL d   1      -0.273   1.922   0.001  1.00  0.00     0.166 HD
ATOM     13  C   UNL d   1      -1.472  -1.655   0.001  0.00  0.00     0.033 A 
ATOM     14  C   UNL d   1      -1.918   0.693   0.001  0.00  0.00     0.045 A 
ATOM     15  C   UNL d   1      -4.226   1.462  -0.001  0.00  0.00     0.105 A 
ATOM     16  C   UNL d   1      -2.846   1.728   0.000  0.00  0.00     0.066 A 
ATOM     17  C   UNL d   1      -2.407  -0.626   0.000  0.00  0.00    -0.008 A 
ATOM     18  O   UNL d   1       5.693   1.329  -0.005  0.00  0.00    -0.246 OA
ATOM     19  O   UNL d   1       1.376   2.621   0.007  0.00  0.00    -0.267 OA
ATOM     20  O   UNL d   1       0.437  -3.572   0.004  0.00  0.00    -0.267 OA
ATOM     21  C   UNL d   1       5.283  -1.155   0.000  0.00  0.00     0.163 C 
ATOM     22  C   UNL d   1      -4.700   0.146  -0.002  0.00  0.00     0.037 A 
ATOM     23  C   UNL d   1      -3.783  -0.899  -0.001  0.00  0.00     0.016 A 
ATOM     24  C   UNL d   1       3.924   3.372  -0.003  0.00  0.00     0.164 C 
ATOM     25  C   UNL d   1       2.978  -3.343  -0.003  0.00  0.00     0.161 C 
ENDROOT
BRANCH  15  26
ATOM     26  N   UNL d   1      -5.186   2.571  -0.002  0.00  0.00    -0.116 N 
ATOM     27  O   UNL d   1      -4.738   3.724   0.000  0.00  0.00    -0.532 OA
ATOM     28  O   UNL d   1      -6.393   2.284  -0.004  0.00  0.00    -0.532 OA
ENDBRANCH  15  26
TORSDOF 1
