REMARK  3 active torsions:
REMARK  status: ('A' for Active; 'I' for Inactive)
REMARK       I    between atoms: N_5  and  C_1 
REMARK    1  A    between atoms: C_7  and  C_1 
REMARK    2  A    between atoms: N_3  and  C_2 
REMARK    3  A    between atoms: C_9  and  N_5 
ROOT
ATOM      1  C   UNL d   1       1.179  -5.061  -0.225  0.00  0.00     0.052 A 
ATOM      2  C   UNL d   1       0.837  -4.036  -1.132  0.00  0.00     0.062 A 
ATOM      3  C   UNL d   1       1.497  -2.800  -1.121  0.00  0.00     0.055 A 
ATOM      4  C   UNL d   1       2.266  -4.802   0.630  0.00  0.00     0.033 A 
ATOM      5  C   UNL d   1       2.499  -2.531  -0.192  0.00  0.00     0.036 A 
ATOM      6 CL   UNL d   1      -0.517  -4.160  -2.215  0.00  0.00    -0.082 Cl
ATOM      7  C   UNL d   1       2.923  -3.562   0.644  0.00  0.00     0.032 A 
ENDROOT
BRANCH   5   8
ATOM      8  N   UNL d   1       3.082  -1.249  -0.024  0.00  0.00    -0.323 N 
ATOM      9  C   UNL d   1       2.555  -0.065  -0.516  0.00  0.00     0.256 C 
ATOM     10  O   UNL d   1       1.501   0.030  -1.141  0.00  0.00    -0.267 OA
ATOM     11  H   UNL d   1       3.836  -1.196   0.644  0.00  0.00     0.169 HD
BRANCH   9  12
ATOM     12  C   UNL d   1       3.301   1.204  -0.241  0.00  0.00     0.032 A 
ATOM     13  C   UNL d   1       4.590   1.258   0.301  0.00  0.00     0.017 A 
ATOM     14  C   UNL d   1       5.239   2.493   0.443  0.00  0.00     0.007 A 
ATOM     15  C   UNL d   1       4.622   3.681   0.034  0.00  0.00    -0.062 A 
ATOM     16  C   UNL d   1       3.321   3.632  -0.468  0.00  0.00     0.007 A 
ATOM     17  C   UNL d   1       5.345   4.990   0.143  0.00  0.00     0.048 C 
ATOM     18  C   UNL d   1       2.670   2.405  -0.604  0.00  0.00     0.017 A 
ENDBRANCH   9  12
ENDBRANCH   5   8
BRANCH   1  19
ATOM     19  N   UNL d   1       0.447  -6.227  -0.097  0.00  0.00    -0.375 N 
ATOM     20  C   UNL d   1       0.212  -6.847   1.213  0.00  0.00     0.149 C 
ATOM     21  C   UNL d   1      -1.192  -7.477   1.212  0.00  0.00     0.187 C 
ATOM     22  O   UNL d   1      -1.355  -8.413   0.131  0.00  0.00    -0.388 OA
ATOM     23  C   UNL d   1      -1.146  -7.757  -1.137  0.00  0.00     0.187 C 
ATOM     24  C   UNL d   1       0.268  -7.155  -1.224  0.00  0.00     0.149 C 
ENDBRANCH   1  19
TORSDOF 3
