REMARK  6 active torsions:
REMARK  status: ('A' for Active; 'I' for Inactive)
REMARK    1  A    between atoms: C_11  and  C_1 
REMARK    2  A    between atoms: N_7  and  C_2 
REMARK    3  A    between atoms: C_13  and  C_3 
REMARK       I    between atoms: C_10  and  N_7 
REMARK    4  A    between atoms: C_8  and  C_10 
REMARK    5  A    between atoms: C_12  and  CA_9 
REMARK    6  A    between atoms: OXT_25  and  C_12 
ROOT
ATOM      1  C   UNL d   1       1.607   0.731   0.063  0.00  0.00     0.147 A 
ATOM      2  C   UNL d   1       0.166  -0.978   0.106  0.00  0.00     0.138 A 
ATOM      3  C   UNL d   1       1.526  -0.705   0.019  0.00  0.00     0.053 A 
ATOM      4  N   UNL d   1       0.379   1.271   0.235  0.00  0.00    -0.292 N 
ATOM      5  HN  UNL d   1       0.144   2.259   0.321  1.00  0.00     0.187 HD
ATOM      6  N   UNL d   1      -0.462   0.230   0.268  0.00  0.00    -0.280 N 
ATOM      7  C   UNL d   1      -1.878   0.517   0.206  0.00  0.00     0.179 C 
ENDROOT
BRANCH   2   8
ATOM      8  N   UNL d   1      -0.418  -2.212  -0.141  0.00  0.00    -0.306 N 
ATOM      9  C   UNL d   1      -1.304  -2.893   0.753  0.00  0.00     0.276 C 
ATOM     10  O   UNL d   1      -1.677  -2.325   1.767  0.00  0.00    -0.266 OA
ATOM     11  H   UNL d   1      -0.232  -2.601  -1.065  0.00  0.00     0.170 HD
BRANCH   9  12
ATOM     12  C   UNL d   1      -1.647  -4.336   0.463  0.00  0.00     0.134 A 
ATOM     13  CA  UNL d   1      -1.958  -4.863  -0.784  0.00  0.00     0.139 A 
ATOM     14  N   UNL d   1      -2.268  -6.188  -0.987  0.00  0.00    -0.357 N 
ATOM     15  C   UNL d   1      -2.216  -6.978   0.108  0.00  0.00     0.105 A 
ATOM     16  HN  UNL d   1      -2.522  -6.550  -1.906  1.00  0.00     0.165 HD
ATOM     17  C   UNL d   1      -1.921  -6.469   1.359  0.00  0.00     0.105 A 
ATOM     18  N   UNL d   1      -1.644  -5.154   1.562  0.00  0.00    -0.358 N 
ATOM     19  HN  UNL d   1      -1.441  -4.792   2.493  1.00  0.00     0.165 HD
BRANCH  13  20
ATOM     20  C   UNL d   1      -1.991  -4.069  -2.030  0.00  0.00     0.196 C 
ATOM     21  O   UNL d   1      -1.373  -3.032  -2.183  0.00  0.00    -0.645 OA
BRANCH  20  22
ATOM     22  OXT UNL d   1      -2.744  -4.655  -2.983  0.00  0.00    -0.772 OA
ATOM     23  HXT UNL d   1      -3.055  -5.548  -2.702  0.00  0.00     0.167 HD
ENDBRANCH  20  22
ENDBRANCH  13  20
ENDBRANCH   9  12
ENDBRANCH   2   8
BRANCH   3  24
ATOM     24  C   UNL d   1       2.587  -1.718  -0.006  0.00  0.00    -0.020 A 
ATOM     25  C   UNL d   1       2.487  -2.894  -0.765  0.00  0.00     0.014 A 
ATOM     26  C   UNL d   1       3.459  -3.898  -0.676  0.00  0.00     0.020 A 
ATOM     27  C   UNL d   1       4.578  -3.710   0.127  0.00  0.00     0.011 A 
ATOM     28  C   UNL d   1       4.731  -2.529   0.844  0.00  0.00     0.020 A 
ATOM     29 BR   UNL d   1       5.889  -5.064   0.245  0.00  0.00    -0.051 Br
ATOM     30  C   UNL d   1       3.729  -1.552   0.795  0.00  0.00     0.014 A 
ENDBRANCH   3  24
BRANCH   1  31
ATOM     31  C   UNL d   1       2.812   1.631  -0.093  0.00  0.00     0.434 C 
ATOM     32  F   UNL d   1       3.950   0.958  -0.409  0.00  0.00    -0.165 F 
ATOM     33  F   UNL d   1       2.637   2.547  -1.084  0.00  0.00    -0.165 F 
ATOM     34  F   UNL d   1       3.081   2.324   1.045  0.00  0.00    -0.165 F 
ENDBRANCH   1  31
TORSDOF 6
