REMARK  3 active torsions:
REMARK  status: ('A' for Active; 'I' for Inactive)
REMARK    1  A    between atoms: C_7  and  C_1 
REMARK    2  A    between atoms: O_16  and  C_6 
REMARK    3  A    between atoms: C_18  and  C_11 
ROOT
ATOM      1  C   UNL d   1       1.032  -1.140  -0.001  0.00  0.00     0.117 A 
ATOM      2  N   UNL d   1      -0.312  -1.173  -0.042  0.00  0.00    -0.323 N 
ATOM      3  HN  UNL d   1      -0.839  -2.046  -0.060  1.00  0.00     0.169 HD
ATOM      4  N   UNL d   1       1.768  -0.009   0.028  0.00  0.00    -0.345 N 
ATOM      5  HN  UNL d   1       2.787  -0.042   0.054  1.00  0.00     0.167 HD
ATOM      6  C   UNL d   1      -0.905   0.023  -0.056  0.00  0.00     0.143 A 
ATOM      7  C   UNL d   1      -0.268   1.234  -0.031  0.00  0.00     0.081 A 
ATOM      8  C   UNL d   1       1.106   1.169   0.020  0.00  0.00     0.014 A 
ENDROOT
BRANCH   1   9
ATOM      9  C   UNL d   1       1.753  -2.430   0.028  0.00  0.00     0.010 A 
ATOM     10  C   UNL d   1       1.062  -3.659  -0.027  0.00  0.00     0.042 A 
ATOM     11  C   UNL d   1       1.747  -4.877   0.003  0.00  0.00     0.073 A 
ATOM     12 CL   UNL d   1       0.856  -6.349  -0.069  0.00  0.00    -0.081 Cl
ATOM     13  C   UNL d   1       3.134  -4.892   0.090  0.00  0.00     0.138 A 
ATOM     14  C   UNL d   1       3.846  -3.701   0.146  0.00  0.00     0.045 A 
ATOM     15  F   UNL d   1       3.810  -6.051   0.120  0.00  0.00    -0.204 F 
ATOM     16  C   UNL d   1       3.160  -2.483   0.115  0.00  0.00     0.018 A 
ENDBRANCH   1   9
BRANCH   6  17
ATOM     17  O   UNL d   1      -2.261  -0.031  -0.088  0.00  0.00    -0.346 OA
ATOM     18  H   UNL d   1      -2.405  -0.995  -0.084  0.00  0.00     0.219 HD
ENDBRANCH   6  17
BRANCH   8  19
ATOM     19  C   UNL d   1       1.939   2.422   0.072  0.00  0.00     0.053 C 
ATOM     20  C   UNL d   1       2.348   2.900  -1.312  0.00  0.00     0.011 C 
ENDBRANCH   8  19
TORSDOF 3
