REMARK  8 active torsions:
REMARK  status: ('A' for Active; 'I' for Inactive)
REMARK    1  A    between atoms: C_11  and  N_1 
REMARK    2  A    between atoms: C_12  and  C_2 
REMARK    3  A    between atoms: S_9  and  C_3 
REMARK    4  A    between atoms: C_8  and  C_10 
REMARK    5  A    between atoms: C_10  and  S_9 
REMARK    6  A    between atoms: C_18  and  C_12 
REMARK    7  A    between atoms: O_28  and  C_13 
REMARK    8  A    between atoms: O_30  and  C_16 
ROOT
ATOM      1  N   UNL d   1      -0.465  -1.240   0.189  0.00  0.00    -0.279 N 
ATOM      2  C   UNL d   1       0.808  -0.663   0.047  0.00  0.00     0.109 A 
ATOM      3  C   UNL d   1      -1.324  -0.143   0.041  0.00  0.00     0.167 A 
ATOM      4  N   UNL d   1       0.678   0.627  -0.209  0.00  0.00    -0.286 N 
ATOM      5  HN  UNL d   1       1.445   1.280  -0.370  1.00  0.00     0.188 HD
ATOM      6  N   UNL d   1      -0.641   0.944  -0.224  0.00  0.00    -0.278 N 
ATOM      7  HN  UNL d   1      -1.034   1.868  -0.408  1.00  0.00     0.189 HD
ENDROOT
BRANCH   2   8
ATOM      8  C   UNL d   1       2.162  -1.314   0.072  0.00  0.00     0.117 C 
BRANCH   8   9
ATOM      9  C   UNL d   1       2.524  -2.210  -1.098  0.00  0.00    -0.048 A 
ATOM     10  C   UNL d   1       3.494  -3.220  -0.930  0.00  0.00     0.047 A 
ATOM     11  C   UNL d   1       3.983  -3.966  -2.022  0.00  0.00     0.102 A 
ATOM     12  C   UNL d   1       3.465  -3.724  -3.304  0.00  0.00     0.101 A 
ATOM     13  C   UNL d   1       2.483  -2.738  -3.463  0.00  0.00     0.040 A 
ATOM     14  C   UNL d   1       2.030  -1.979  -2.386  0.00  0.00     0.010 A 
BRANCH  11  15
ATOM     15  O   UNL d   1       4.920  -4.954  -1.867  0.00  0.00    -0.353 OA
ATOM     16  C   UNL d   1       5.865  -4.788  -0.816  0.00  0.00     0.210 C 
ENDBRANCH  11  15
BRANCH  12  17
ATOM     17  O   UNL d   1       3.795  -4.321  -4.492  0.00  0.00    -0.353 OA
ATOM     18  C   UNL d   1       4.929  -5.172  -4.543  0.00  0.00     0.210 C 
ENDBRANCH  12  17
ENDBRANCH   8   9
ENDBRANCH   2   8
BRANCH   1  19
ATOM     19  C   UNL d   1      -0.798  -2.623   0.388  0.00  0.00     0.043 A 
ATOM     20  C   UNL d   1       0.073  -3.498   1.056  0.00  0.00     0.033 A 
ATOM     21  C   UNL d   1      -0.251  -4.850   1.222  0.00  0.00     0.044 A 
ATOM     22  C   UNL d   1      -1.460  -5.333   0.747  0.00  0.00     0.116 A 
ATOM     23  C   UNL d   1      -2.344  -4.490   0.093  0.00  0.00     0.044 A 
ATOM     24  F   UNL d   1      -1.776  -6.621   0.925  0.00  0.00    -0.206 F 
ATOM     25  C   UNL d   1      -2.008  -3.144  -0.100  0.00  0.00     0.033 A 
ENDBRANCH   1  19
BRANCH   3  26
ATOM     26  S   UNL d   1      -3.036  -0.086   0.380  0.00  0.00    -0.087 SA
BRANCH  26  27
ATOM     27  C   UNL d   1      -3.584   1.149  -0.853  0.00  0.00     0.126 C 
BRANCH  27  28
ATOM     28  C   UNL d   1      -5.087   1.339  -0.916  0.00  0.00     0.012 A 
ATOM     29  C   UNL d   1      -5.634   2.584  -0.577  0.00  0.00     0.125 A 
ATOM     30  F   UNL d   1      -4.832   3.584  -0.184  0.00  0.00    -0.205 F 
ATOM     31  C   UNL d   1      -7.004   2.847  -0.662  0.00  0.00     0.043 A 
ATOM     32  C   UNL d   1      -7.875   1.851  -1.087  0.00  0.00     0.005 A 
ATOM     33  C   UNL d   1      -7.361   0.604  -1.440  0.00  0.00     0.024 A 
ATOM     34  C   UNL d   1      -5.979   0.353  -1.368  0.00  0.00     0.044 A 
ATOM     35 CL   UNL d   1      -5.441  -1.198  -1.911  0.00  0.00    -0.084 Cl
ENDBRANCH  27  28
ENDBRANCH  26  27
ENDBRANCH   3  26
TORSDOF 8
