REMARK  1 active torsions:
REMARK  status: ('A' for Active; 'I' for Inactive)
REMARK       I    between atoms: N_2  and  C_1 
REMARK       I    between atoms: N_3  and  C_1 
REMARK       I    between atoms: C_4  and  N_2 
REMARK    1  A    between atoms: C_5  and  C_4 
ROOT
ATOM      1  C   UNL d   1       1.094   0.283  -0.034  0.00  0.00     0.325 C 
ATOM      2  N   UNL d   1       0.687  -0.962  -0.453  0.00  0.00    -0.275 N 
ATOM      3  N   UNL d   1       0.251   0.917   0.871  0.00  0.00    -0.329 N 
ATOM      4  C   UNL d   1       1.451  -1.811  -1.236  0.00  0.00     0.259 C 
ATOM      5  O   UNL d   1      -0.359   1.853   3.499  0.00  0.00    -0.378 OA
ATOM      6  C   UNL d   1       0.581   2.287   1.288  0.00  0.00     0.159 C 
ATOM      7  C   UNL d   1      -0.862   0.333   1.635  0.00  0.00     0.159 C 
ATOM      8  O   UNL d   1       2.126   0.826  -0.418  0.00  0.00    -0.247 OA
ATOM      9  O   UNL d   1       2.539  -1.567  -1.747  0.00  0.00    -0.267 OA
ATOM     10  C   UNL d   1       0.801   2.357   2.808  0.00  0.00     0.136 C 
ATOM     11  C   UNL d   1      -0.611   0.479   3.152  0.00  0.00     0.136 C 
ATOM     12  C   UNL d   1      -1.816   0.017   3.958  0.00  0.00     0.041 C 
ATOM     13  C   UNL d   1       1.025   3.792   3.260  0.00  0.00     0.041 C 
ATOM     14  H   UNL d   1      -0.291  -1.167  -0.374  0.00  0.00     0.173 HD
ENDROOT
BRANCH   4  15
ATOM     15  C   UNL d   1       0.859  -3.150  -1.494  0.00  0.00     0.034 A 
ATOM     16  C   UNL d   1       0.168  -3.844  -0.493  0.00  0.00     0.044 A 
ATOM     17  C   UNL d   1      -0.363  -5.105  -0.775  0.00  0.00     0.073 A 
ATOM     18 CL   UNL d   1      -1.218  -5.949   0.458  0.00  0.00    -0.081 Cl
ATOM     19  C   UNL d   1      -0.200  -5.669  -2.040  0.00  0.00     0.138 A 
ATOM     20  C   UNL d   1       0.519  -5.001  -3.026  0.00  0.00     0.045 A 
ATOM     21  F   UNL d   1      -0.728  -6.868  -2.329  0.00  0.00    -0.204 F 
ATOM     22  C   UNL d   1       1.060  -3.744  -2.750  0.00  0.00     0.020 A 
ENDBRANCH   4  15
TORSDOF 1
