REMARK  5 active torsions:
REMARK  status: ('A' for Active; 'I' for Inactive)
REMARK    1  A    between atoms: C_12  and  C_1 
REMARK    2  A    between atoms: C_7  and  C_5 
REMARK    3  A    between atoms: O_18  and  C_8 
REMARK    4  A    between atoms: C_11  and  O_16 
REMARK    5  A    between atoms: O_16  and  C_12 
ROOT
ATOM      1  C   UNL d   1       1.451  -0.293   0.068  0.00  0.00     0.000 A 
ATOM      2  C   UNL d   1      -0.862  -1.093  -0.134  0.00  0.00     0.010 A 
ATOM      3  C   UNL d   1       0.513  -1.344  -0.068  0.00  0.00     0.027 A 
ATOM      4  C   UNL d   1       0.972   1.026   0.118  0.00  0.00     0.076 A 
ATOM      5  C   UNL d   1      -1.321   0.221  -0.061  0.00  0.00     0.018 A 
ATOM      6  C   UNL d   1      -0.407   1.270   0.068  0.00  0.00     0.038 A 
ENDROOT
BRANCH   1   7
ATOM      7  C   UNL d   1       2.928  -0.613   0.177  0.00  0.00     0.217 C 
BRANCH   7   8
ATOM      8  O   UNL d   1       3.160  -2.015   0.342  0.00  0.00    -0.347 OA
BRANCH   8   9
ATOM      9  C   UNL d   1       4.453  -2.383   0.581  0.00  0.00     0.070 A 
ATOM     10  C   UNL d   1       4.602  -3.601   1.240  0.00  0.00     0.045 A 
ATOM     11  C   UNL d   1       5.874  -4.099   1.562  0.00  0.00    -0.037 A 
ATOM     12  C   UNL d   1       5.970  -5.398   2.314  0.00  0.00     0.050 C 
ATOM     13  C   UNL d   1       7.014  -3.358   1.192  0.00  0.00     0.046 A 
ATOM     14  C   UNL d   1       6.878  -2.139   0.502  0.00  0.00    -0.037 A 
ATOM     15 CL   UNL d   1       8.586  -3.969   1.598  0.00  0.00    -0.083 Cl
ATOM     16  C   UNL d   1       5.586  -1.665   0.203  0.00  0.00     0.045 A 
ATOM     17  C   UNL d   1       8.039  -1.289   0.055  0.00  0.00     0.050 C 
ENDBRANCH   8   9
ENDBRANCH   7   8
ENDBRANCH   1   7
BRANCH   4  18
ATOM     18  O   UNL d   1       1.719   2.151   0.350  0.00  0.00    -0.355 OA
ATOM     19  C   UNL d   1       2.876   2.335  -0.457  0.00  0.00     0.210 C 
ENDBRANCH   4  18
BRANCH   2  20
ATOM     20  C   UNL d   1      -1.869  -2.189  -0.238  0.00  0.00     0.155 C 
ATOM     21  O   UNL d   1      -3.025  -1.984   0.129  0.00  0.00    -0.293 OA
ATOM     22  C   UNL d   1      -1.461  -3.531  -0.789  0.00  0.00     0.096 C 
ENDBRANCH   2  20
TORSDOF 5
