REMARK  5 active torsions:
REMARK  status: ('A' for Active; 'I' for Inactive)
REMARK    1  A    between atoms: N_3  and  S_1 
REMARK    2  A    between atoms: C_6  and  S_1 
REMARK    3  A    between atoms: C_2  and  C_4 
REMARK    4  A    between atoms: C_5  and  N_3 
REMARK    5  A    between atoms: N_15  and  C_14 
ROOT
ATOM      1  S   UNL d   1       0.694   0.198  -0.114  0.00  0.00     0.263 S 
ATOM      2  O   UNL d   1       2.043   0.673  -0.325  0.00  0.00    -0.200 OA
ATOM      3  O   UNL d   1       0.179  -0.070   1.211  0.00  0.00    -0.200 OA
ENDROOT
BRANCH   1   4
ATOM      4  N   UNL d   1       0.469  -1.224  -1.007  0.00  0.00    -0.280 N 
ATOM      5  H   UNL d   1      -0.360  -1.731  -0.696  0.00  0.00     0.179 HD
BRANCH   4   6
ATOM      6  C   UNL d   1       0.771  -1.234  -2.397  0.00  0.00     0.057 A 
ATOM      7  C   UNL d   1       2.068  -1.430  -2.889  0.00  0.00     0.075 A 
ATOM      8  C   UNL d   1       2.266  -1.382  -4.287  0.00  0.00     0.018 A 
ATOM      9  C   UNL d   1       1.205  -1.159  -5.165  0.00  0.00     0.001 A 
ATOM     10  C   UNL d   1      -0.076  -0.975  -4.662  0.00  0.00     0.002 A 
ATOM     11  C   UNL d   1      -0.292  -1.011  -3.284  0.00  0.00     0.031 A 
BRANCH   7  12
ATOM     12  C   UNL d   1       3.271  -1.759  -2.038  0.00  0.00     0.419 C 
ATOM     13  F   UNL d   1       3.048  -1.909  -0.707  0.00  0.00    -0.166 F 
ATOM     14  F   UNL d   1       3.842  -2.939  -2.433  0.00  0.00    -0.166 F 
ATOM     15  F   UNL d   1       4.263  -0.831  -2.163  0.00  0.00    -0.166 F 
ENDBRANCH   7  12
ENDBRANCH   4   6
ENDBRANCH   1   4
BRANCH   1  16
ATOM     16  C   UNL d   1      -0.410   1.357  -0.887  0.00  0.00     0.080 A 
ATOM     17  C   UNL d   1      -1.737   1.450  -0.454  0.00  0.00     0.027 A 
ATOM     18  C   UNL d   1      -2.583   2.404  -1.029  0.00  0.00     0.025 A 
ATOM     19  C   UNL d   1      -2.127   3.245  -2.050  0.00  0.00     0.005 A 
ATOM     20  C   UNL d   1      -0.780   3.185  -2.420  0.00  0.00     0.025 A 
ATOM     21  C   UNL d   1       0.077   2.238  -1.855  0.00  0.00     0.027 A 
BRANCH  19  22
ATOM     22  N   UNL d   1      -2.934   4.287  -2.515  0.00  0.00    -0.303 NA
ATOM     23  H   UNL d   1      -2.658   4.662  -3.418  0.00  0.00     0.124 HD
ATOM     24  H   UNL d   1      -3.932   4.106  -2.459  0.00  0.00     0.124 HD
ENDBRANCH  19  22
ENDBRANCH   1  16
TORSDOF 5
