REMARK  3 active torsions:
REMARK  status: ('A' for Active; 'I' for Inactive)
REMARK    1  A    between atoms: C_8  and  N_1 
REMARK    2  A    between atoms: C_2  and  C_3 
REMARK    3  A    between atoms: C_4  and  C_9 
ROOT
ATOM      1  C   UNL d   1       2.306   0.271  -0.172  0.00  0.00    -0.018 A 
ATOM      2  C   UNL d   1       0.988   0.243  -0.693  0.00  0.00    -0.014 A 
ATOM      3  C   UNL d   1       0.471  -0.979  -1.212  0.00  0.00    -0.014 A 
ATOM      4  C   UNL d   1       3.098  -0.883  -0.199  0.00  0.00     0.025 A 
ATOM      5  C   UNL d   1       1.292  -2.163  -1.212  0.00  0.00    -0.015 A 
ATOM      6  C   UNL d   1       2.615  -2.087  -0.713  0.00  0.00    -0.024 A 
ATOM      7  C   UNL d   1       0.168   1.399  -0.725  0.00  0.00     0.013 A 
ATOM      8  C   UNL d   1      -0.853  -0.958  -1.728  0.00  0.00     0.013 A 
ATOM      9  C   UNL d   1       0.873  -3.431  -1.695  0.00  0.00     0.013 A 
ATOM     10  C   UNL d   1       3.456  -3.213  -0.731  0.00  0.00     0.012 A 
ATOM     11  C   UNL d   1      -1.635   0.197  -1.751  0.00  0.00     0.001 A 
ATOM     12  C   UNL d   1      -1.122   1.379  -1.250  0.00  0.00     0.001 A 
ATOM     13  C   UNL d   1       1.716  -4.546  -1.704  0.00  0.00     0.001 A 
ATOM     14  C   UNL d   1       3.012  -4.436  -1.228  0.00  0.00     0.001 A 
ENDROOT
BRANCH   1  15
ATOM     15  C   UNL d   1       2.936   1.496   0.376  0.00  0.00    -0.050 C 
ATOM     16  C   UNL d   1       3.723   2.212  -0.448  0.00  0.00     0.021 C 
ATOM     17  C   UNL d   1       2.652   1.806   1.817  0.00  0.00     0.049 C 
BRANCH  16  18
ATOM     18  C   UNL d   1       4.419   3.464  -0.125  0.00  0.00    -0.003 A 
ATOM     19  C   UNL d   1       5.762   3.543   0.277  0.00  0.00     0.113 A 
ATOM     20  C   UNL d   1       6.405   4.778   0.466  0.00  0.00     0.037 A 
ATOM     21  C   UNL d   1       5.694   5.957   0.255  0.00  0.00     0.002 A 
ATOM     22  C   UNL d   1       4.351   5.899  -0.113  0.00  0.00     0.001 A 
ATOM     23  C   UNL d   1       3.718   4.665  -0.299  0.00  0.00     0.014 A 
BRANCH  19  24
ATOM     24  N   UNL d   1       6.540   2.341   0.512  0.00  0.00    -0.115 N 
ATOM     25  O   UNL d   1       6.662   1.542  -0.424  0.00  0.00    -0.532 OA
ATOM     26  O   UNL d   1       7.067   2.227   1.630  0.00  0.00    -0.532 OA
ENDBRANCH  19  24
ENDBRANCH  16  18
ENDBRANCH   1  15
TORSDOF 3
