REMARK  5 active torsions:
REMARK  status: ('A' for Active; 'I' for Inactive)
REMARK    1  A    between atoms: C_4  and  C_1 
REMARK    2  A    between atoms: C_8  and  C_2 
REMARK    3  A    between atoms: O_14  and  C_3 
REMARK    4  A    between atoms: O_15  and  C_4 
REMARK    5  A    between atoms: O_16  and  C_7 
ROOT
ATOM      1  C   UNL d   1       0.947  -0.790   0.042  0.00  0.00     0.120 C 
ATOM      2  C   UNL d   1       0.501  -0.162   1.149  0.00  0.00     0.040 C 
ATOM      3  C   UNL d   1       2.095  -1.634   0.050  0.00  0.00     0.105 C 
ATOM      4  N   UNL d   1       3.033  -2.315   0.071  0.00  0.00    -0.191 NA
ENDROOT
BRANCH   1   5
ATOM      5  C   UNL d   1       0.192  -0.601  -1.226  0.00  0.00     0.303 C 
ATOM      6  O   UNL d   1      -0.803   0.100  -1.341  0.00  0.00    -0.258 OA
BRANCH   5   7
ATOM      7  O   UNL d   1       0.762  -1.324  -2.224  0.00  0.00    -0.322 OA
ATOM      8  C   UNL d   1       0.111  -1.231  -3.493  0.00  0.00     0.213 C 
ENDBRANCH   5   7
ENDBRANCH   1   5
BRANCH   2   9
ATOM      9  C   UNL d   1       1.128  -0.310   2.469  0.00  0.00    -0.030 A 
ATOM     10  C   UNL d   1       0.712  -1.328   3.322  0.00  0.00     0.033 A 
ATOM     11  C   UNL d   1       1.367  -1.521   4.540  0.00  0.00     0.047 A 
ATOM     12 BR   UNL d   1       0.741  -2.940   5.646  0.00  0.00    -0.048 Br
ATOM     13  C   UNL d   1       2.445  -0.702   4.933  0.00  0.00     0.116 A 
ATOM     14  C   UNL d   1       2.859   0.338   4.090  0.00  0.00     0.103 A 
ATOM     15  C   UNL d   1       2.186   0.516   2.863  0.00  0.00     0.051 A 
BRANCH  13  16
ATOM     16  O   UNL d   1       3.010  -1.015   6.138  0.00  0.00    -0.357 OA
ATOM     17  H   UNL d   1       3.622  -0.335   6.431  0.00  0.00     0.218 HD
ENDBRANCH  13  16
BRANCH  14  18
ATOM     18  O   UNL d   1       3.854   1.263   4.230  0.00  0.00    -0.353 OA
ATOM     19  C   UNL d   1       4.743   1.263   5.329  0.00  0.00     0.210 C 
ENDBRANCH  14  18
ENDBRANCH   2   9
TORSDOF 5
