REMARK  6 active torsions:
REMARK  status: ('A' for Active; 'I' for Inactive)
REMARK       I    between atoms: N_3  and  C_1 
REMARK    1  A    between atoms: C_12  and  C_1 
REMARK    2  A    between atoms: C_2  and  N_3 
REMARK    3  A    between atoms: C_4  and  C_13 
REMARK    4  A    between atoms: O_17  and  C_4 
REMARK    5  A    between atoms: C_14  and  C_12 
REMARK    6  A    between atoms: C_13  and  C_14 
ROOT
ATOM      1  C   UNL d   1       0.804   0.355  -0.638  0.00  0.00     0.222 C 
ATOM      2  N   UNL d   1       0.064  -0.788  -0.878  0.00  0.00    -0.327 N 
ATOM      3  O   UNL d   1       0.419   1.503  -0.859  0.00  0.00    -0.273 OA
ATOM      4  H   UNL d   1       0.418  -1.655  -0.492  0.00  0.00     0.169 HD
ENDROOT
BRANCH   1   5
ATOM      5  C   UNL d   1       2.203   0.090  -0.098  0.00  0.00     0.108 C 
BRANCH   5   6
ATOM      6  C   UNL d   1       3.002   1.396   0.135  0.00  0.00    -0.000 C 
ATOM      7  C   UNL d   1       4.494   1.120   0.351  0.00  0.00     0.011 C 
BRANCH   6   8
ATOM      8  C   UNL d   1       2.447   2.316   1.243  0.00  0.00     0.114 C 
BRANCH   8   9
ATOM      9  C   UNL d   1       2.348   1.711   2.626  0.00  0.00     0.139 C 
ATOM     10  O   UNL d   1       2.614   0.558   2.924  0.00  0.00    -0.650 OA
BRANCH   9  11
ATOM     11  O   UNL d   1       1.909   2.607   3.542  0.00  0.00    -0.776 OA
ATOM     12  H   UNL d   1       1.712   3.486   3.164  0.00  0.00     0.167 HD
ENDBRANCH   9  11
ENDBRANCH   8   9
ENDBRANCH   6   8
ENDBRANCH   5   6
ENDBRANCH   1   5
BRANCH   2  13
ATOM     13  C   UNL d   1      -1.144  -0.857  -1.620  0.00  0.00     0.037 A 
ATOM     14  C   UNL d   1      -1.677   0.231  -2.322  0.00  0.00     0.053 A 
ATOM     15  C   UNL d   1      -2.814   0.080  -3.118  0.00  0.00     0.037 A 
ATOM     16 CL   UNL d   1      -3.415   1.429  -4.005  0.00  0.00    -0.084 Cl
ATOM     17  C   UNL d   1      -3.449  -1.150  -3.222  0.00  0.00     0.048 A 
ATOM     18  C   UNL d   1      -2.942  -2.229  -2.507  0.00  0.00     0.037 A 
ATOM     19  C   UNL d   1      -1.799  -2.092  -1.708  0.00  0.00     0.053 A 
ATOM     20 CL   UNL d   1      -3.720  -3.760  -2.627  0.00  0.00    -0.084 Cl
ENDBRANCH   2  13
TORSDOF 6
