REMARK  14 active torsions:
REMARK  status: ('A' for Active; 'I' for Inactive)
REMARK    1  A    between atoms: C_6  and  S_1 
REMARK    2  A    between atoms: N_7  and  S_1 
REMARK    3  A    between atoms: N_2  and  O_12 
REMARK    4  A    between atoms: C_20  and  C_4 
REMARK    5  A    between atoms: C_5  and  C_14 
REMARK    6  A    between atoms: O_12  and  C_5 
REMARK    7  A    between atoms: C_29  and  N_7 
REMARK    8  A    between atoms: C_30  and  N_7 
REMARK    9  A    between atoms: C_8  and  C_13 
REMARK   10  A    between atoms: C_15  and  S_19 
REMARK   11  A    between atoms: O_28  and  C_16 
REMARK   12  A    between atoms: S_19  and  C_20 
REMARK   13  A    between atoms: C_35  and  C_29 
REMARK   14  A    between atoms: C_36  and  C_30 
ROOT
ATOM      1  N   UNL d   1       2.371   5.000   0.008  0.00  0.00    -0.261 N 
ATOM      2  HN  UNL d   1       2.525   4.057   0.366  1.00  0.00     0.194 HD
ATOM      3  C   UNL d   1       3.116   6.003   0.370  0.00  0.00     0.039 C 
ATOM      4  C   UNL d   1       2.931   7.410  -0.130  0.00  0.00     0.071 C 
ENDROOT
BRANCH   1   5
ATOM      5  O   UNL d   1       1.339   5.292  -0.906  0.00  0.00    -0.195 OA
BRANCH   5   6
ATOM      6  C   UNL d   1       0.752   4.098  -1.247  0.00  0.00     0.315 C 
ATOM      7  O   UNL d   1       1.103   2.979  -0.881  0.00  0.00    -0.257 OA
BRANCH   6   8
ATOM      8  C   UNL d   1      -0.433   4.251  -2.140  0.00  0.00     0.041 A 
ATOM      9  C   UNL d   1      -0.827   5.466  -2.713  0.00  0.00     0.019 A 
ATOM     10  C   UNL d   1      -1.947   5.511  -3.560  0.00  0.00     0.026 A 
ATOM     11  C   UNL d   1      -2.689   4.347  -3.814  0.00  0.00     0.074 A 
ATOM     12  C   UNL d   1      -2.296   3.129  -3.262  0.00  0.00     0.026 A 
ATOM     13  C   UNL d   1      -1.174   3.087  -2.430  0.00  0.00     0.019 A 
BRANCH  11  14
ATOM     14  S   UNL d   1      -4.047   4.378  -4.971  0.00  0.00     0.243 S 
ATOM     15  O   UNL d   1      -4.045   3.102  -5.651  0.00  0.00    -0.206 OA
ATOM     16  O   UNL d   1      -3.948   5.615  -5.722  0.00  0.00    -0.206 OA
BRANCH  14  17
ATOM     17  N   UNL d   1      -5.481   4.494  -3.986  0.00  0.00    -0.206 NA
BRANCH  17  18
ATOM     18  C   UNL d   1      -5.449   5.693  -3.075  0.00  0.00     0.107 C 
BRANCH  18  19
ATOM     19  C   UNL d   1      -6.656   5.853  -2.146  0.00  0.00     0.011 C 
ATOM     20  C   UNL d   1      -6.960   4.628  -1.300  0.00  0.00     0.006 C 
ENDBRANCH  18  19
ENDBRANCH  17  18
BRANCH  17  21
ATOM     21  C   UNL d   1      -6.738   4.442  -4.820  0.00  0.00     0.107 C 
BRANCH  21  22
ATOM     22  C   UNL d   1      -7.067   3.052  -5.366  0.00  0.00     0.011 C 
ATOM     23  C   UNL d   1      -7.123   1.971  -4.297  0.00  0.00     0.006 C 
ENDBRANCH  21  22
ENDBRANCH  17  21
ENDBRANCH  14  17
ENDBRANCH  11  14
ENDBRANCH   6   8
ENDBRANCH   5   6
ENDBRANCH   1   5
BRANCH   3  24
ATOM     24  C   UNL d   1       4.241   5.697   1.318  0.00  0.00    -0.011 A 
ATOM     25  C   UNL d   1       4.818   4.418   1.243  0.00  0.00     0.024 A 
ATOM     26  C   UNL d   1       5.799   3.950   2.150  0.00  0.00    -0.014 A 
ATOM     27  C   UNL d   1       6.234   4.859   3.131  0.00  0.00     0.075 A 
ATOM     28  C   UNL d   1       5.664   6.148   3.201  0.00  0.00     0.038 A 
ATOM     29  C   UNL d   1       4.674   6.571   2.304  0.00  0.00     0.016 A 
BRANCH  26  30
ATOM     30  C   UNL d   1       6.300   2.510   2.076  0.00  0.00     0.122 C 
BRANCH  30  31
ATOM     31  S   UNL d   1       5.430   1.428   0.886  0.00  0.00    -0.108 SA
BRANCH  31  32
ATOM     32  C   UNL d   1       6.350  -0.086   0.981  0.00  0.00     0.069 A 
ATOM     33  N   UNL d   1       7.304  -0.233   1.925  0.00  0.00    -0.361 N 
ATOM     34  C   UNL d   1       7.934  -1.429   1.968  0.00  0.00     0.089 A 
ATOM     35  HN  UNL d   1       7.537   0.520   2.572  1.00  0.00     0.165 HD
ATOM     36  C   UNL d   1       7.663  -2.485   1.109  0.00  0.00     0.017 A 
ATOM     37  C   UNL d   1       6.686  -2.306   0.138  0.00  0.00     0.004 A 
ATOM     38  C   UNL d   1       6.019  -1.089   0.074  0.00  0.00     0.037 A 
ENDBRANCH  31  32
ENDBRANCH  30  31
ENDBRANCH  26  30
BRANCH  27  39
ATOM     39  O   UNL d   1       7.102   4.610   4.162  0.00  0.00    -0.355 OA
ATOM     40  C   UNL d   1       8.296   3.898   3.866  0.00  0.00     0.210 C 
ENDBRANCH  27  39
ENDBRANCH   3  24
TORSDOF 14
