REMARK  7 active torsions:
REMARK  status: ('A' for Active; 'I' for Inactive)
REMARK    1  A    between atoms: N_2  and  C_1 
REMARK    2  A    between atoms: N_8  and  C_1 
REMARK    3  A    between atoms: C_6  and  N_2 
REMARK    4  A    between atoms: C_3  and  C_5 
REMARK    5  A    between atoms: O_12  and  C_3 
REMARK    6  A    between atoms: C_5  and  C_11 
REMARK    7  A    between atoms: C_11  and  N_8 
ROOT
ATOM      1  C   UNL d   1       1.133  -0.007   0.064  0.00  0.00     0.172 C 
ATOM      2  S   UNL d   1       0.412  -0.847   1.319  0.00  0.00    -0.041 SA
ENDROOT
BRANCH   1   3
ATOM      3  N   UNL d   1       0.511   0.634  -0.980  0.00  0.00    -0.333 N 
ATOM      4  H   UNL d   1       0.930   0.439  -1.891  0.00  0.00     0.168 HD
BRANCH   3   5
ATOM      5  C   UNL d   1      -0.804   1.149  -0.984  0.00  0.00     0.037 A 
ATOM      6  C   UNL d   1      -1.328   1.812   0.128  0.00  0.00     0.071 A 
ATOM      7  C   UNL d   1      -2.622   2.317   0.086  0.00  0.00     0.118 A 
ATOM      8  F   UNL d   1      -3.112   2.965   1.151  0.00  0.00    -0.206 F 
ATOM      9  C   UNL d   1      -3.412   2.172  -1.048  0.00  0.00     0.042 A 
ATOM     10  C   UNL d   1      -2.883   1.538  -2.171  0.00  0.00     0.005 A 
ATOM     11  C   UNL d   1      -1.571   1.049  -2.149  0.00  0.00     0.029 A 
ENDBRANCH   3   5
ENDBRANCH   1   3
BRANCH   1  12
ATOM     12  N   UNL d   1       2.501   0.005   0.037  0.00  0.00    -0.366 N 
ATOM     13  H   UNL d   1       2.907  -0.488   0.826  0.00  0.00     0.161 HD
BRANCH  12  14
ATOM     14  C   UNL d   1       3.333   1.000  -0.624  0.00  0.00     0.132 C 
BRANCH  14  15
ATOM     15  C   UNL d   1       4.302   0.372  -1.612  0.00  0.00     0.129 C 
BRANCH  15  16
ATOM     16  C   UNL d   1       3.587  -0.130  -2.839  0.00  0.00     0.140 C 
ATOM     17  O   UNL d   1       2.453   0.190  -3.173  0.00  0.00    -0.650 OA
BRANCH  16  18
ATOM     18  O   UNL d   1       4.349  -0.964  -3.583  0.00  0.00    -0.776 OA
ATOM     19  H   UNL d   1       5.232  -1.148  -3.206  0.00  0.00     0.167 HD
ENDBRANCH  16  18
ENDBRANCH  15  16
ENDBRANCH  14  15
ENDBRANCH  12  14
ENDBRANCH   1  12
TORSDOF 7
