REMARK  8 active torsions:
REMARK  status: ('A' for Active; 'I' for Inactive)
REMARK    1  A    between atoms: C_6  and  C_1 
REMARK    2  A    between atoms: C_4  and  O_9 
REMARK    3  A    between atoms: N_15  and  C_5 
REMARK    4  A    between atoms: O_9  and  C_21 
REMARK    5  A    between atoms: N_10  and  C_28 
REMARK    6  A    between atoms: C_29  and  N_15 
REMARK    7  A    between atoms: C_23  and  C_20 
REMARK    8  A    between atoms: C_28  and  C_29 
ROOT
ATOM      1  C   UNL d   1      -3.347  -4.361   4.073  0.00  0.00     0.139 C 
ENDROOT
BRANCH   1   2
ATOM      2  N   UNL d   1      -3.641  -5.720   4.542  0.00  0.00    -0.397 N 
ATOM      3  C   UNL d   1      -3.471  -5.920   5.806  0.00  0.00     0.094 C 
ATOM      4  HN  UNL d   1      -3.957  -6.458   3.912  1.00  0.00     0.158 HD
BRANCH   3   5
ATOM      5  C   UNL d   1      -3.713  -7.238   6.424  0.00  0.00    -0.021 A 
ATOM      6  C   UNL d   1      -4.116  -8.332   5.658  0.00  0.00     0.015 A 
ATOM      7  C   UNL d   1      -4.323  -9.569   6.272  0.00  0.00     0.038 A 
ATOM      8  C   UNL d   1      -4.120  -9.726   7.647  0.00  0.00     0.078 A 
ATOM      9  C   UNL d   1      -3.765  -8.616   8.414  0.00  0.00     0.038 A 
ATOM     10  C   UNL d   1      -3.539  -7.377   7.803  0.00  0.00     0.015 A 
BRANCH   8  11
ATOM     11  O   UNL d   1      -4.368 -10.975   8.127  0.00  0.00    -0.255 OA
BRANCH  11  12
ATOM     12  C   UNL d   1      -3.619 -11.469   9.230  0.00  0.00     0.530 C 
ATOM     13  F   UNL d   1      -2.699 -10.609   9.716  0.00  0.00    -0.144 F 
ATOM     14  F   UNL d   1      -4.470 -11.794  10.227  0.00  0.00    -0.144 F 
ATOM     15  F   UNL d   1      -2.972 -12.592   8.846  0.00  0.00    -0.144 F 
ENDBRANCH  11  12
ENDBRANCH   8  11
ENDBRANCH   3   5
ENDBRANCH   1   2
BRANCH   1  16
ATOM     16  C   UNL d   1      -2.235  -4.412   3.014  0.00  0.00     0.157 C 
BRANCH  16  17
ATOM     17  N   UNL d   1      -1.921  -3.091   2.487  0.00  0.00    -0.224 N 
ATOM     18  H   UNL d   1      -2.701  -2.509   2.215  0.00  0.00     0.177 HD
BRANCH  17  19
ATOM     19  C   UNL d   1      -0.987  -2.335   3.163  0.00  0.00     0.678 A 
ATOM     20  N   UNL d   1      -1.142  -1.006   3.105  0.00  0.00    -0.187 N 
ATOM     21  C   UNL d   1      -0.189  -0.229   3.693  0.00  0.00     0.133 A 
ATOM     22  HN  UNL d   1      -1.947  -0.589   2.637  1.00  0.00     0.184 HD
ATOM     23  C   UNL d   1       0.907  -0.777   4.331  0.00  0.00     0.052 A 
ATOM     24  C   UNL d   1       0.967  -2.145   4.351  0.00  0.00     0.108 A 
ATOM     25  N   UNL d   1       0.033  -2.929   3.789  0.00  0.00    -0.202 N 
ATOM     26  HN  UNL d   1       0.100  -3.946   3.839  1.00  0.00     0.183 HD
BRANCH  21  27
ATOM     27  C   UNL d   1      -0.312   1.286   3.648  0.00  0.00     0.433 C 
ATOM     28  F   UNL d   1      -1.416   1.749   3.000  0.00  0.00    -0.165 F 
ATOM     29  F   UNL d   1       0.757   1.874   3.034  0.00  0.00    -0.165 F 
ATOM     30  F   UNL d   1      -0.356   1.836   4.898  0.00  0.00    -0.165 F 
ENDBRANCH  21  27
ENDBRANCH  17  19
ENDBRANCH  16  17
ENDBRANCH   1  16
TORSDOF 8
