REMARK  3 active torsions:
REMARK  status: ('A' for Active; 'I' for Inactive)
REMARK    1  A    between atoms: C_2  and  C_1 
REMARK    2  A    between atoms: N_5  and  C_3 
REMARK       I    between atoms: C_4  and  N_5 
REMARK    3  A    between atoms: C_6  and  C_4 
ROOT
ATOM      1  C   UNL d   1       2.214  -1.246  -0.407  0.00  0.00     0.075 A 
ATOM      2  C   UNL d   1       3.106  -0.235  -0.015  0.00  0.00     0.050 A 
ATOM      3  C   UNL d   1       0.829  -0.959  -0.404  0.00  0.00     0.037 A 
ATOM      4  C   UNL d   1       2.622   1.056   0.247  0.00  0.00     0.032 A 
ATOM      5  C   UNL d   1       0.359   0.314  -0.088  0.00  0.00     0.011 A 
ATOM      6  C   UNL d   1       1.253   1.331   0.223  0.00  0.00     0.021 A 
ATOM      7 BR   UNL d   1      -1.495   0.669  -0.125  0.00  0.00    -0.051 Br
ENDROOT
BRANCH   2   8
ATOM      8  N   UNL d   1       4.499  -0.396   0.018  0.00  0.00    -0.324 N 
ATOM      9  C   UNL d   1       5.273  -0.934   1.020  0.00  0.00     0.255 C 
ATOM     10  O   UNL d   1       6.478  -0.633   0.964  0.00  0.00    -0.270 OA
ATOM     11  H   UNL d   1       5.034   0.366  -0.392  0.00  0.00     0.169 HD
BRANCH   9  12
ATOM     12  C   UNL d   1       4.792  -1.853   2.141  0.00  0.00     0.270 C 
ATOM     13 CL   UNL d   1       3.265  -1.376   2.885  0.00  0.00    -0.098 Cl
ATOM     14 CL   UNL d   1       4.792  -3.538   1.617  0.00  0.00    -0.098 Cl
ENDBRANCH   9  12
ENDBRANCH   2   8
BRANCH   1  15
ATOM     15  C   UNL d   1       2.621  -2.600  -0.929  0.00  0.00     0.419 C 
ATOM     16  F   UNL d   1       3.953  -2.757  -1.145  0.00  0.00    -0.166 F 
ATOM     17  F   UNL d   1       2.240  -3.607  -0.098  0.00  0.00    -0.166 F 
ATOM     18  F   UNL d   1       2.030  -2.878  -2.127  0.00  0.00    -0.166 F 
ENDBRANCH   1  15
TORSDOF 3
