REMARK  2 active torsions:
REMARK  status: ('A' for Active; 'I' for Inactive)
REMARK    1  A    between atoms: N_9  and  N_5 
REMARK    2  A    between atoms: C_7  and  N_9 
ROOT
ATOM      1  C   UNL d   1       0.016   0.719   0.040  0.00  0.00     0.006 A 
ATOM      2  C   UNL d   1      -1.304   1.437   0.061  0.00  0.00     0.038 C 
ATOM      3  C   UNL d   1       0.106  -0.678  -0.059  0.00  0.00     0.013 A 
ATOM      4  S   UNL d   1      -1.287  -1.784  -0.150  0.00  0.00    -0.124 SA
ATOM      5  N   UNL d   1      -1.301   2.691   0.416  0.00  0.00    -0.302 N 
ATOM      6  HN  UNL d   1      -0.424   3.136   0.687  1.00  0.00     0.186 HD
ATOM      7  C   UNL d   1      -2.528   0.642  -0.365  0.00  0.00     0.074 C 
ATOM      8  C   UNL d   1       1.192   1.488   0.109  0.00  0.00     0.038 A 
ATOM      9  C   UNL d   1      -2.616  -0.671   0.400  0.00  0.00     0.054 C 
ATOM     10  C   UNL d   1       1.375  -1.281  -0.094  0.00  0.00     0.021 A 
ATOM     11  C   UNL d   1       2.441   0.870   0.076  0.00  0.00     0.035 A 
ATOM     12  C   UNL d   1       2.538  -0.512  -0.025  0.00  0.00     0.025 A 
ATOM     13 CL   UNL d   1       3.870   1.823   0.153  0.00  0.00    -0.084 Cl
ATOM     14  C   UNL d   1      -3.955  -1.363   0.162  0.00  0.00     0.022 C 
ENDROOT
BRANCH   5  15
ATOM     15  N   UNL d   1      -2.454   3.414   0.430  0.00  0.00    -0.276 N 
ATOM     16  H   UNL d   1      -3.338   3.030   0.125  0.00  0.00     0.189 HD
BRANCH  15  17
ATOM     17  C   UNL d   1      -2.465   4.721   0.832  0.00  0.00     0.184 C 
ATOM     18  S   UNL d   1      -3.858   5.622   0.858  0.00  0.00    -0.040 SA
ATOM     19  N   UNL d   1      -1.272   5.234   1.208  0.00  0.00    -0.375 N 
ATOM     20  H   UNL d   1      -0.465   4.628   1.143  0.00  0.00     0.158 HD
ATOM     21  H   UNL d   1      -1.177   6.195   1.501  0.00  0.00     0.158 HD
ENDBRANCH  15  17
ENDBRANCH   5  15
TORSDOF 2
