REMARK  8 active torsions:
REMARK  status: ('A' for Active; 'I' for Inactive)
REMARK       I    between atoms: N_3  and  C_1 
REMARK    1  A    between atoms: O_5  and  C_1 
REMARK    2  A    between atoms: C_2  and  N_3 
REMARK    3  A    between atoms: C_4  and  C_2 
REMARK    4  A    between atoms: C_11  and  C_2 
REMARK       I    between atoms: N_9  and  C_4 
REMARK    5  A    between atoms: C_8  and  O_5 
REMARK    6  A    between atoms: O_10  and  C_11 
REMARK    7  A    between atoms: C_13  and  O_10 
REMARK    8  A    between atoms: C_12  and  C_13 
ROOT
ATOM      1  C   UNL d   1       1.189   1.717   1.709  0.00  0.00     0.202 C 
ENDROOT
BRANCH   1   2
ATOM      2  N   UNL d   1       0.521   0.762   0.829  0.00  0.00    -0.322 N 
ATOM      3  C   UNL d   1       0.297  -0.529   1.193  0.00  0.00     0.362 C 
ATOM      4  O   UNL d   1       0.633  -1.010   2.266  0.00  0.00    -0.238 OA
ATOM      5  H   UNL d   1       0.228   1.056  -0.095  0.00  0.00     0.165 HD
BRANCH   3   6
ATOM      6  O   UNL d   1      -0.302  -1.201   0.181  0.00  0.00    -0.294 OA
BRANCH   6   7
ATOM      7  C   UNL d   1      -0.580  -2.625   0.320  0.00  0.00     0.061 C 
ATOM      8  C   UNL d   1      -1.634  -2.888   1.403  0.00  0.00     0.046 C 
ATOM      9  C   UNL d   1      -1.151  -3.072  -1.038  0.00  0.00     0.046 C 
ATOM     10  C   UNL d   1       0.701  -3.432   0.573  0.00  0.00     0.046 C 
ENDBRANCH   6   7
ENDBRANCH   3   6
ENDBRANCH   1   2
BRANCH   1  11
ATOM     11  C   UNL d   1       1.982   2.716   0.849  0.00  0.00     0.242 C 
ATOM     12  O   UNL d   1       1.603   3.057  -0.270  0.00  0.00    -0.271 OA
ATOM     13  N   UNL d   1       3.098   3.250   1.464  0.00  0.00    -0.364 N 
ATOM     14  C   UNL d   1       3.970   4.188   0.796  0.00  0.00     0.149 C 
ATOM     15  H   UNL d   1       3.441   2.819   2.314  0.00  0.00     0.161 HD
ENDBRANCH   1  11
BRANCH   1  16
ATOM     16  C   UNL d   1       0.197   2.516   2.570  0.00  0.00     0.202 C 
BRANCH  16  17
ATOM     17  O   UNL d   1      -0.498   1.656   3.476  0.00  0.00    -0.384 OA
BRANCH  17  18
ATOM     18  C   UNL d   1      -1.472   2.368   4.237  0.00  0.00     0.206 C 
BRANCH  18  19
ATOM     19  C   UNL d   1      -2.294   1.436   5.095  0.00  0.00    -0.035 A 
ATOM     20  C   UNL d   1      -2.801   1.886   6.324  0.00  0.00     0.009 A 
ATOM     21  C   UNL d   1      -3.642   1.075   7.089  0.00  0.00     0.001 A 
ATOM     22  C   UNL d   1      -3.992  -0.194   6.631  0.00  0.00     0.000 A 
ATOM     23  C   UNL d   1      -3.492  -0.655   5.415  0.00  0.00     0.001 A 
ATOM     24  C   UNL d   1      -2.649   0.154   4.651  0.00  0.00     0.009 A 
ENDBRANCH  18  19
ENDBRANCH  17  18
ENDBRANCH  16  17
ENDBRANCH   1  16
TORSDOF 8
