REMARK  5 active torsions:
REMARK  status: ('A' for Active; 'I' for Inactive)
REMARK    1  A    between atoms: C_7  and  N_1 
REMARK    2  A    between atoms: S_8  and  C_2 
REMARK    3  A    between atoms: C_14  and  S_8 
REMARK    4  A    between atoms: C_10  and  C_12 
REMARK    5  A    between atoms: C_12  and  C_14 
ROOT
ATOM      1  N   UNL d   1       0.508   0.460  -0.225  0.00  0.00    -0.218 N 
ATOM      2  C   UNL d   1       0.980  -0.840  -0.052  0.00  0.00     0.177 A 
ATOM      3  N   UNL d   1       0.069  -1.554   0.571  0.00  0.00    -0.264 N 
ATOM      4  HN  UNL d   1       0.118  -2.547   0.798  1.00  0.00     0.186 HD
ATOM      5  N   UNL d   1      -0.700   0.521   0.397  0.00  0.00     0.001 NA
ATOM      6  N   UNL d   1      -0.956  -0.696   0.852  0.00  0.00    -0.006 NA
ENDROOT
BRANCH   2   7
ATOM      7  S   UNL d   1       2.576  -1.389  -0.454  0.00  0.00    -0.084 SA
BRANCH   7   8
ATOM      8  C   UNL d   1       2.481  -3.148  -0.035  0.00  0.00     0.166 C 
BRANCH   8   9
ATOM      9  C   UNL d   1       2.525  -3.410   1.460  0.00  0.00     0.169 C 
ATOM     10  O   UNL d   1       2.732  -2.537   2.302  0.00  0.00    -0.291 OA
BRANCH   9  11
ATOM     11  C   UNL d   1       2.352  -4.822   1.923  0.00  0.00     0.011 A 
ATOM     12  C   UNL d   1       2.171  -5.057   3.293  0.00  0.00     0.027 A 
ATOM     13  C   UNL d   1       2.039  -6.362   3.793  0.00  0.00    -0.025 A 
ATOM     14  C   UNL d   1       1.861  -6.604   5.165  0.00  0.00     0.012 A 
ATOM     15  C   UNL d   1       2.092  -7.457   2.901  0.00  0.00    -0.026 A 
ATOM     16  C   UNL d   1       1.742  -7.907   5.649  0.00  0.00     0.001 A 
ATOM     17  C   UNL d   1       1.798  -8.985   4.770  0.00  0.00     0.001 A 
ATOM     18  C   UNL d   1       1.971  -8.761   3.403  0.00  0.00     0.012 A 
ATOM     19  C   UNL d   1       2.269  -7.214   1.530  0.00  0.00     0.013 A 
ATOM     20  C   UNL d   1       2.397  -5.909   1.043  0.00  0.00     0.016 A 
ENDBRANCH   9  11
ENDBRANCH   8   9
ENDBRANCH   7   8
ENDBRANCH   2   7
BRANCH   1  21
ATOM     21  C   UNL d   1       1.013   1.548  -0.992  0.00  0.00     0.068 A 
ATOM     22  C   UNL d   1       0.806   2.916  -0.610  0.00  0.00     0.003 A 
ATOM     23  C   UNL d   1       1.367   3.922  -1.446  0.00  0.00    -0.024 A 
ATOM     24  C   UNL d   1       0.126   3.379   0.550  0.00  0.00     0.014 A 
ATOM     25  C   UNL d   1       1.232   5.282  -1.128  0.00  0.00     0.012 A 
ATOM     26  C   UNL d   1       2.078   3.576  -2.603  0.00  0.00     0.012 A 
ATOM     27  C   UNL d   1       0.542   5.692   0.009  0.00  0.00     0.001 A 
ATOM     28  C   UNL d   1      -0.013   4.740   0.848  0.00  0.00     0.001 A 
ATOM     29  C   UNL d   1       2.240   2.248  -2.974  0.00  0.00     0.003 A 
ATOM     30  C   UNL d   1       1.706   1.243  -2.180  0.00  0.00     0.032 A 
ENDBRANCH   1  21
TORSDOF 5
