REMARK  6 active torsions:
REMARK  status: ('A' for Active; 'I' for Inactive)
REMARK       I    between atoms: N_2  and  C_1 
REMARK    1  A    between atoms: C_5  and  C_1 
REMARK       I    between atoms: C_3  and  N_2 
REMARK       I    between atoms: N_7  and  C_3 
REMARK    2  A    between atoms: C_4  and  C_8 
REMARK    3  A    between atoms: C_6  and  N_7 
REMARK    4  A    between atoms: O_10  and  C_9 
REMARK    5  A    between atoms: C_12  and  O_10 
REMARK    6  A    between atoms: O_24  and  C_18 
ROOT
ATOM      1  C   UNL d   1       2.904   0.684   1.011  0.00  0.00     0.071 A 
ATOM      2  C   UNL d   1       4.982  -0.510   0.518  0.00  0.00     0.050 A 
ATOM      3  C   UNL d   1       2.718   0.942  -0.359  0.00  0.00     0.103 A 
ATOM      4  C   UNL d   1       4.056   0.003   1.439  0.00  0.00     0.048 A 
ATOM      5  C   UNL d   1       4.761  -0.292  -0.847  0.00  0.00     0.019 A 
ATOM      6  C   UNL d   1       3.667   0.461  -1.277  0.00  0.00     0.040 A 
ENDROOT
BRANCH   1   7
ATOM      7  N   UNL d   1       2.032   1.113   2.026  0.00  0.00    -0.306 N 
ATOM      8  C   UNL d   1       0.714   0.793   2.242  0.00  0.00     0.327 C 
ATOM      9  N   UNL d   1       0.093  -0.002   1.316  0.00  0.00    -0.275 N 
ATOM     10  O   UNL d   1       0.221   1.165   3.308  0.00  0.00    -0.247 OA
ATOM     11  C   UNL d   1      -1.181  -0.532   1.453  0.00  0.00     0.262 C 
ATOM     12  H   UNL d   1       0.660  -0.325   0.554  0.00  0.00     0.173 HD
ATOM     13  O   UNL d   1      -1.991  -0.237   2.325  0.00  0.00    -0.267 OA
ATOM     14  H   UNL d   1       2.449   1.349   2.921  0.00  0.00     0.171 HD
BRANCH  11  15
ATOM     15  C   UNL d   1      -1.620  -1.496   0.408  0.00  0.00     0.070 A 
ATOM     16  C   UNL d   1      -0.730  -2.327  -0.274  0.00  0.00     0.132 A 
ATOM     17  F   UNL d   1       0.586  -2.280  -0.007  0.00  0.00    -0.205 F 
ATOM     18  C   UNL d   1      -1.181  -3.203  -1.261  0.00  0.00     0.043 A 
ATOM     19  C   UNL d   1      -2.534  -3.274  -1.564  0.00  0.00     0.003 A 
ATOM     20  C   UNL d   1      -3.444  -2.474  -0.873  0.00  0.00     0.001 A 
ATOM     21  C   UNL d   1      -2.988  -1.593   0.112  0.00  0.00     0.020 A 
ENDBRANCH  11  15
ENDBRANCH   1   7
BRANCH   3  22
ATOM     22  O   UNL d   1       1.682   1.770  -0.767  0.00  0.00    -0.306 OA
BRANCH  22  23
ATOM     23  C   UNL d   1       1.062   1.505  -1.975  0.00  0.00     0.109 A 
ATOM     24  C   UNL d   1       0.674   2.524  -2.856  0.00  0.00     0.102 A 
ATOM     25  C   UNL d   1      -0.035   2.172  -4.021  0.00  0.00     0.039 A 
ATOM     26  C   UNL d   1      -0.346   0.848  -4.323  0.00  0.00     0.003 A 
ATOM     27  C   UNL d   1       0.049  -0.159  -3.459  0.00  0.00     0.003 A 
ATOM     28  C   UNL d   1       0.740   0.171  -2.296  0.00  0.00     0.040 A 
BRANCH  24  29
ATOM     29  O   UNL d   1       0.886   3.871  -2.806  0.00  0.00    -0.353 OA
ATOM     30  C   UNL d   1       1.673   4.449  -1.783  0.00  0.00     0.210 C 
ENDBRANCH  24  29
ENDBRANCH  22  23
ENDBRANCH   3  22
BRANCH   2  31
ATOM     31  C   UNL d   1       6.200  -1.280   0.969  0.00  0.00     0.417 C 
ATOM     32  F   UNL d   1       6.349  -1.320   2.322  0.00  0.00    -0.166 F 
ATOM     33  F   UNL d   1       6.178  -2.576   0.554  0.00  0.00    -0.166 F 
ATOM     34  F   UNL d   1       7.355  -0.750   0.481  0.00  0.00    -0.166 F 
ENDBRANCH   2  31
TORSDOF 6
