REMARK  3 active torsions:
REMARK  status: ('A' for Active; 'I' for Inactive)
REMARK    1  A    between atoms: N_6  and  C_1 
REMARK    2  A    between atoms: C_9  and  C_4 
REMARK    3  A    between atoms: C_10  and  N_7 
ROOT
ATOM      1  C   UNL d   1       0.202  -1.245  -0.022  0.00  0.00     0.147 A 
ATOM      2  N   UNL d   1       0.826  -0.567   0.915  0.00  0.00    -0.336 N 
ATOM      3  HN  UNL d   1       1.265  -0.993   1.731  1.00  0.00     0.168 HD
ATOM      4  C   UNL d   1       0.815   0.789   0.662  0.00  0.00     0.051 A 
ATOM      5  S   UNL d   1      -0.470  -0.243  -1.265  0.00  0.00    -0.064 SA
ATOM      6  C   UNL d   1       0.135   1.151  -0.480  0.00  0.00     0.083 A 
ENDROOT
BRANCH   1   7
ATOM      7  N   UNL d   1       0.153  -2.611  -0.043  0.00  0.00    -0.358 N 
ATOM      8  C   UNL d   1       0.730  -3.276   1.151  0.00  0.00     0.145 C 
ATOM      9  C   UNL d   1       1.014  -4.761   0.870  0.00  0.00     0.143 C 
ATOM     10  N   UNL d   1      -0.223  -5.411   0.401  0.00  0.00    -0.378 N 
ATOM     11  C   UNL d   1      -0.768  -4.811  -0.825  0.00  0.00     0.143 C 
ATOM     12  C   UNL d   1      -1.045  -3.303  -0.577  0.00  0.00     0.145 C 
BRANCH  10  13
ATOM     13  C   UNL d   1      -0.499  -6.697   0.810  0.00  0.00     0.030 A 
ATOM     14  C   UNL d   1      -0.843  -7.726  -0.071  0.00  0.00     0.031 A 
ATOM     15  C   UNL d   1      -1.134  -9.015   0.399  0.00  0.00     0.026 A 
ATOM     16  C   UNL d   1      -1.101  -9.284   1.765  0.00  0.00     0.034 A 
ATOM     17  C   UNL d   1      -0.779  -8.276   2.663  0.00  0.00     0.026 A 
ATOM     18 CL   UNL d   1      -1.463 -10.860   2.344  0.00  0.00    -0.084 Cl
ATOM     19  C   UNL d   1      -0.481  -7.000   2.183  0.00  0.00     0.031 A 
ENDBRANCH  10  13
ENDBRANCH   1   7
BRANCH   4  20
ATOM     20  C   UNL d   1       1.479   1.722   1.565  0.00  0.00    -0.009 A 
ATOM     21  C   UNL d   1       2.009   2.937   1.107  0.00  0.00     0.015 A 
ATOM     22  C   UNL d   1       2.657   3.806   1.990  0.00  0.00     0.024 A 
ATOM     23  C   UNL d   1       2.780   3.466   3.335  0.00  0.00     0.034 A 
ATOM     24  C   UNL d   1       2.267   2.260   3.805  0.00  0.00     0.024 A 
ATOM     25 CL   UNL d   1       3.579   4.538   4.417  0.00  0.00    -0.084 Cl
ATOM     26  C   UNL d   1       1.623   1.389   2.921  0.00  0.00     0.015 A 
ENDBRANCH   4  20
TORSDOF 3
