REMARK  7 active torsions:
REMARK  status: ('A' for Active; 'I' for Inactive)
REMARK    1  A    between atoms: C_7  and  N_1 
REMARK    2  A    between atoms: N_2  and  C_8 
REMARK    3  A    between atoms: O_9  and  N_3 
REMARK    4  A    between atoms: C_5  and  C_10 
REMARK    5  A    between atoms: N_22  and  C_5 
REMARK    6  A    between atoms: C_6  and  O_9 
REMARK    7  A    between atoms: C_16  and  C_6 
ROOT
ATOM      1  N   UNL d   1      -0.417  -0.771   6.003  0.00  0.00    -0.246 N 
ATOM      2  HN  UNL d   1       0.036  -0.760   6.916  1.00  0.00     0.196 HD
ATOM      3  C   UNL d   1       0.165  -0.388   4.906  0.00  0.00     0.109 C 
ENDROOT
BRANCH   1   4
ATOM      4  O   UNL d   1      -1.746  -1.207   5.795  0.00  0.00    -0.193 OA
BRANCH   4   5
ATOM      5  C   UNL d   1      -1.999  -2.248   6.640  0.00  0.00     0.315 C 
ATOM      6  O   UNL d   1      -1.254  -3.197   6.852  0.00  0.00    -0.257 OA
BRANCH   5   7
ATOM      7  C   UNL d   1      -3.318  -2.096   7.322  0.00  0.00     0.041 A 
ATOM      8  C   UNL d   1      -3.684  -3.079   8.259  0.00  0.00     0.020 A 
ATOM      9  C   UNL d   1      -4.866  -2.963   8.999  0.00  0.00     0.037 A 
ATOM     10  C   UNL d   1      -5.695  -1.854   8.802  0.00  0.00     0.102 A 
ATOM     11  C   UNL d   1      -5.351  -0.871   7.862  0.00  0.00     0.037 A 
ATOM     12  C   UNL d   1      -4.163  -0.994   7.125  0.00  0.00     0.020 A 
BRANCH  10  13
ATOM     13  N   UNL d   1      -6.923  -1.713   9.598  0.00  0.00    -0.116 N 
ATOM     14  O   UNL d   1      -7.188  -2.607  10.413  0.00  0.00    -0.532 OA
ATOM     15  O   UNL d   1      -7.621  -0.707   9.405  0.00  0.00    -0.532 OA
ENDBRANCH  10  13
ENDBRANCH   5   7
ENDBRANCH   4   5
ENDBRANCH   1   4
BRANCH   3  16
ATOM     16  C   UNL d   1       1.531   0.227   5.032  0.00  0.00     0.006 A 
ATOM     17  C   UNL d   1       1.996   1.136   4.074  0.00  0.00     0.050 A 
ATOM     18  C   UNL d   1       3.259   1.727   4.241  0.00  0.00     0.103 A 
ATOM     19  C   UNL d   1       4.055   1.421   5.353  0.00  0.00     0.036 A 
ATOM     20  C   UNL d   1       3.584   0.516   6.304  0.00  0.00     0.003 A 
ATOM     21  C   UNL d   1       2.328  -0.076   6.146  0.00  0.00     0.015 A 
BRANCH  18  22
ATOM     22  N   UNL d   1       3.755   2.684   3.242  0.00  0.00    -0.116 N 
ATOM     23  O   UNL d   1       3.042   2.898   2.251  0.00  0.00    -0.532 OA
ATOM     24  O   UNL d   1       4.855   3.212   3.444  0.00  0.00    -0.532 OA
ENDBRANCH  18  22
ENDBRANCH   3  16
BRANCH   3  25
ATOM     25  N   UNL d   1      -0.385  -0.528   3.654  0.00  0.00    -0.286 NA
ATOM     26  H   UNL d   1      -1.141  -1.206   3.646  0.00  0.00     0.125 HD
ATOM     27  H   UNL d   1       0.276  -0.711   2.905  0.00  0.00     0.125 HD
ENDBRANCH   3  25
TORSDOF 7
