REMARK  4 active torsions:
REMARK  status: ('A' for Active; 'I' for Inactive)
REMARK    1  A    between atoms: C_7  and  N_1 
REMARK    2  A    between atoms: S_10  and  C_2 
REMARK    3  A    between atoms: C_9  and  C_12 
REMARK    4  A    between atoms: C_12  and  S_10 
ROOT
ATOM      1  N   UNL d   1       2.409  -0.723  -0.031  0.00  0.00    -0.258 N 
ATOM      2  C   UNL d   1       2.352   0.677  -0.074  0.00  0.00     0.155 A 
ATOM      3  C   UNL d   1       1.223  -1.470   0.042  0.00  0.00     0.266 A 
ATOM      4  N   UNL d   1       1.252   1.358  -0.027  0.00  0.00    -0.335 N 
ATOM      5  HN  UNL d   1       1.273   2.378  -0.033  1.00  0.00     0.168 HD
ATOM      6  C   UNL d   1      -0.036  -0.717   0.048  0.00  0.00     0.059 A 
ATOM      7  C   UNL d   1       0.037   0.671   0.033  0.00  0.00     0.049 A 
ATOM      8  O   UNL d   1       1.163  -2.696   0.120  0.00  0.00    -0.267 OA
ATOM      9  C   UNL d   1      -1.270  -1.382   0.050  0.00  0.00     0.019 A 
ATOM     10  C   UNL d   1      -1.155   1.399   0.016  0.00  0.00     0.030 A 
ATOM     11  C   UNL d   1      -2.451  -0.646   0.021  0.00  0.00     0.001 A 
ATOM     12  C   UNL d   1      -2.393   0.746   0.003  0.00  0.00     0.002 A 
ENDROOT
BRANCH   2  13
ATOM     13  S   UNL d   1       3.836   1.575  -0.370  0.00  0.00    -0.088 SA
BRANCH  13  14
ATOM     14  C   UNL d   1       3.525   3.182   0.418  0.00  0.00     0.126 C 
BRANCH  14  15
ATOM     15  C   UNL d   1       3.301   3.151   1.909  0.00  0.00     0.012 A 
ATOM     16  C   UNL d   1       2.132   3.732   2.422  0.00  0.00     0.125 A 
ATOM     17  F   UNL d   1       1.283   4.366   1.599  0.00  0.00    -0.205 F 
ATOM     18  C   UNL d   1       1.821   3.700   3.780  0.00  0.00     0.043 A 
ATOM     19  C   UNL d   1       2.687   3.075   4.670  0.00  0.00     0.005 A 
ATOM     20  C   UNL d   1       3.889   2.551   4.200  0.00  0.00     0.024 A 
ATOM     21  C   UNL d   1       4.211   2.621   2.837  0.00  0.00     0.044 A 
ATOM     22 CL   UNL d   1       5.793   2.092   2.388  0.00  0.00    -0.084 Cl
ENDBRANCH  14  15
ENDBRANCH  13  14
ENDBRANCH   2  13
BRANCH   1  23
ATOM     23  C   UNL d   1       3.631  -1.468  -0.063  0.00  0.00     0.046 A 
ATOM     24  C   UNL d   1       4.636  -1.263   0.893  0.00  0.00     0.057 A 
ATOM     25  C   UNL d   1       5.812  -2.017   0.850  0.00  0.00     0.074 A 
ATOM     26 CL   UNL d   1       7.032  -1.751   2.037  0.00  0.00    -0.081 Cl
ATOM     27  C   UNL d   1       5.987  -2.985  -0.137  0.00  0.00     0.138 A 
ATOM     28  C   UNL d   1       4.989  -3.218  -1.077  0.00  0.00     0.046 A 
ATOM     29  F   UNL d   1       7.108  -3.716  -0.194  0.00  0.00    -0.204 F 
ATOM     30  C   UNL d   1       3.812  -2.468  -1.034  0.00  0.00     0.033 A 
ENDBRANCH   1  23
TORSDOF 4
