REMARK  3 active torsions:
REMARK  status: ('A' for Active; 'I' for Inactive)
REMARK    1  A    between atoms: C_2  and  C_1 
REMARK    2  A    between atoms: C_12  and  N_3 
REMARK    3  A    between atoms: C_14  and  C_8 
ROOT
ATOM      1  C   UNL d   1      -0.108  -1.257   0.030  0.00  0.00     0.153 C 
ATOM      2  N   UNL d   1       1.017  -0.665   0.573  0.00  0.00    -0.224 N 
ATOM      3  N   UNL d   1       0.762   0.655   0.730  0.00  0.00     0.001 NA
ATOM      4  N   UNL d   1      -0.374   0.876   0.086  0.00  0.00    -0.007 NA
ATOM      5  N   UNL d   1      -0.914  -0.295  -0.377  0.00  0.00    -0.269 N 
ATOM      6  HN  UNL d   1      -1.768  -0.402  -0.925  1.00  0.00     0.185 HD
ENDROOT
BRANCH   1   7
ATOM      7  C   UNL d   1      -0.439  -2.699  -0.028  0.00  0.00     0.065 A 
ATOM      8  C   UNL d   1      -1.194  -3.334  -0.986  0.00  0.00     0.124 A 
ATOM      9  O   UNL d   1      -1.288  -4.657  -0.654  0.00  0.00    -0.236 OA
ATOM     10  N   UNL d   1      -0.579  -4.902   0.512  0.00  0.00    -0.271 N 
ATOM     11  C   UNL d   1      -0.076  -3.719   0.872  0.00  0.00     0.132 A 
ATOM     12  HN  UNL d   1      -0.466  -5.795   0.993  1.00  0.00     0.194 HD
BRANCH   8  13
ATOM     13  C   UNL d   1      -1.784  -2.958  -2.260  0.00  0.00     0.001 A 
ATOM     14  C   UNL d   1      -1.142  -2.025  -3.087  0.00  0.00     0.015 A 
ATOM     15  C   UNL d   1      -1.706  -1.636  -4.302  0.00  0.00     0.007 A 
ATOM     16  C   UNL d   1      -2.921  -2.184  -4.721  0.00  0.00    -0.062 A 
ATOM     17  C   UNL d   1      -3.552  -3.138  -3.916  0.00  0.00     0.007 A 
ATOM     18  C   UNL d   1      -3.526  -1.731  -6.016  0.00  0.00     0.048 C 
ATOM     19  C   UNL d   1      -2.986  -3.525  -2.697  0.00  0.00     0.015 A 
ENDBRANCH   8  13
ENDBRANCH   1   7
BRANCH   2  20
ATOM     20  C   UNL d   1       2.306  -1.201   0.796  0.00  0.00     0.056 A 
ATOM     21  C   UNL d   1       2.756  -2.300   0.051  0.00  0.00     0.032 A 
ATOM     22  C   UNL d   1       4.034  -2.814   0.268  0.00  0.00     0.009 A 
ATOM     23  C   UNL d   1       4.873  -2.242   1.227  0.00  0.00    -0.062 A 
ATOM     24  C   UNL d   1       4.430  -1.125   1.947  0.00  0.00     0.009 A 
ATOM     25  C   UNL d   1       6.247  -2.805   1.438  0.00  0.00     0.048 C 
ATOM     26  C   UNL d   1       3.156  -0.594   1.724  0.00  0.00     0.032 A 
ENDBRANCH   2  20
TORSDOF 3
