REMARK  6 active torsions:
REMARK  status: ('A' for Active; 'I' for Inactive)
REMARK    1  A    between atoms: C_2  and  N_1 
REMARK    2  A    between atoms: C_3  and  C_6 
REMARK    3  A    between atoms: C_4  and  C_3 
REMARK    4  A    between atoms: C_8  and  C_7 
REMARK    5  A    between atoms: O_17  and  C_8 
REMARK    6  A    between atoms: N_16  and  C_9 
ROOT
ATOM      1  C   UNL d   1      -1.123  -1.178  -1.196  0.00  0.00     0.124 A 
ATOM      2  C   UNL d   1      -1.800   0.048  -1.016  0.00  0.00     0.053 A 
ATOM      3  C   UNL d   1      -1.160   1.109  -0.367  0.00  0.00     0.017 A 
ATOM      4  C   UNL d   1       0.225  -1.334  -0.811  0.00  0.00     0.039 A 
ATOM      5  C   UNL d   1       0.170   0.961   0.034  0.00  0.00     0.017 A 
ATOM      6  C   UNL d   1       0.843  -0.251  -0.173  0.00  0.00     0.027 A 
ENDROOT
BRANCH   3   7
ATOM      7  C   UNL d   1      -1.852   2.394  -0.051  0.00  0.00     0.193 C 
ATOM      8  O   UNL d   1      -1.184   3.406   0.137  0.00  0.00    -0.287 OA
BRANCH   7   9
ATOM      9  C   UNL d   1      -3.318   2.483   0.152  0.00  0.00     0.032 A 
ATOM     10  C   UNL d   1      -4.093   3.573  -0.286  0.00  0.00     0.051 A 
ATOM     11  C   UNL d   1      -5.482   3.551  -0.034  0.00  0.00     0.019 A 
ATOM     12  C   UNL d   1      -6.087   2.490   0.639  0.00  0.00     0.001 A 
ATOM     13  C   UNL d   1      -5.312   1.432   1.093  0.00  0.00     0.001 A 
ATOM     14  C   UNL d   1      -3.936   1.438   0.869  0.00  0.00     0.016 A 
BRANCH  10  15
ATOM     15  C   UNL d   1      -3.632   4.749  -1.079  0.00  0.00     0.177 C 
ATOM     16  O   UNL d   1      -4.374   5.274  -1.899  0.00  0.00    -0.646 OA
BRANCH  15  17
ATOM     17  O   UNL d   1      -2.437   5.282  -0.776  0.00  0.00    -0.773 OA
ATOM     18  H   UNL d   1      -1.851   4.740  -0.195  0.00  0.00     0.167 HD
ENDBRANCH  15  17
ENDBRANCH  10  15
ENDBRANCH   7   9
ENDBRANCH   3   7
BRANCH   1  19
ATOM     19  N   UNL d   1      -1.877  -2.286  -1.809  0.00  0.00    -0.114 N 
ATOM     20  O   UNL d   1      -3.103  -2.142  -1.930  0.00  0.00    -0.532 OA
ATOM     21  O   UNL d   1      -1.255  -3.292  -2.183  0.00  0.00    -0.532 OA
ENDBRANCH   1  19
BRANCH   4  22
ATOM     22  N   UNL d   1       0.912  -2.558  -0.803  0.00  0.00    -0.301 NA
ATOM     23  H   UNL d   1       0.539  -3.251  -1.461  0.00  0.00     0.124 HD
ATOM     24  H   UNL d   1       1.923  -2.484  -0.869  0.00  0.00     0.124 HD
ENDBRANCH   4  22
TORSDOF 6
