REMARK  5 active torsions:
REMARK  status: ('A' for Active; 'I' for Inactive)
REMARK    1  A    between atoms: N_8  and  C_1 
REMARK    2  A    between atoms: N_6  and  C_2 
REMARK       I    between atoms: C_9  and  N_8 
REMARK    3  A    between atoms: O_20  and  C_9 
REMARK    4  A    between atoms: N_10  and  O_20 
REMARK    5  A    between atoms: C_12  and  C_19 
ROOT
ATOM      1  N   UNL d   1       2.609  -1.763  -0.140  0.00  0.00    -0.296 N 
ATOM      2  C   UNL d   1       2.629  -3.136  -0.157  0.00  0.00     0.387 C 
ATOM      3  O   UNL d   1       1.665  -3.872  -0.331  0.00  0.00    -0.236 OA
ATOM      4  H   UNL d   1       3.497  -1.299  -0.269  0.00  0.00     0.171 HD
ENDROOT
BRANCH   1   5
ATOM      5  C   UNL d   1       1.442  -1.021  -0.115  0.00  0.00     0.100 A 
ATOM      6  C   UNL d   1       1.246   0.253  -0.617  0.00  0.00     0.156 A 
ATOM      7  N   UNL d   1      -0.043   0.600  -0.276  0.00  0.00    -0.279 N 
ATOM      8  C   UNL d   1      -0.864   1.704  -0.719  0.00  0.00     0.179 C 
ATOM      9  N   UNL d   1      -0.669  -0.356   0.445  0.00  0.00    -0.306 N 
ATOM     10  C   UNL d   1       0.212  -1.355   0.494  0.00  0.00     0.141 A 
ATOM     11  HN  UNL d   1      -1.602  -0.322   0.856  1.00  0.00     0.186 HD
BRANCH   6  12
ATOM     12  N   UNL d   1       2.104   0.998  -1.427  0.00  0.00    -0.316 N 
ATOM     13  C   UNL d   1       2.164   2.371  -1.571  0.00  0.00     0.098 A 
ATOM     14  C   UNL d   1       3.120   2.694  -2.511  0.00  0.00     0.019 A 
ATOM     15  C   UNL d   1       3.690   1.488  -2.959  0.00  0.00     0.019 A 
ATOM     16  C   UNL d   1       3.065   0.471  -2.274  0.00  0.00     0.098 A 
ENDBRANCH   6  12
ENDBRANCH   1   5
BRANCH   2  17
ATOM     17  O   UNL d   1       3.891  -3.614   0.096  0.00  0.00    -0.181 OA
BRANCH  17  18
ATOM     18  N   UNL d   1       4.542  -3.913  -1.119  0.00  0.00    -0.267 N 
ATOM     19  C   UNL d   1       5.313  -4.940  -0.922  0.00  0.00     0.127 C 
ATOM     20  HN  UNL d   1       4.428  -3.411  -1.999  1.00  0.00     0.194 HD
BRANCH  19  21
ATOM     21  C   UNL d   1       6.199  -5.479  -1.979  0.00  0.00     0.003 A 
ATOM     22  C   UNL d   1       6.950  -6.654  -1.790  0.00  0.00     0.045 A 
ATOM     23 CL   UNL d   1       6.853  -7.616  -0.363  0.00  0.00    -0.083 Cl
ATOM     24  C   UNL d   1       7.812  -7.096  -2.805  0.00  0.00     0.024 A 
ATOM     25  C   UNL d   1       7.940  -6.375  -3.990  0.00  0.00     0.002 A 
ATOM     26  C   UNL d   1       7.191  -5.213  -4.180  0.00  0.00     0.001 A 
ATOM     27  C   UNL d   1       6.323  -4.770  -3.179  0.00  0.00     0.014 A 
ENDBRANCH  19  21
ENDBRANCH  17  18
ENDBRANCH   2  17
TORSDOF 5
