REMARK  4 active torsions:
REMARK  status: ('A' for Active; 'I' for Inactive)
REMARK    1  A    between atoms: S_8  and  C_3 
REMARK    2  A    between atoms: C_11  and  S_8 
REMARK    3  A    between atoms: C_9  and  C_11 
REMARK    4  A    between atoms: C_10  and  C_9 
ROOT
ATOM      1  N   UNL d   1       1.746   1.395   0.024  0.00  0.00    -0.329 N 
ATOM      2  HN  UNL d   1       2.206   2.286  -0.167  1.00  0.00     0.168 HD
ATOM      3  C   UNL d   1       2.295   0.270   0.446  0.00  0.00     0.188 A 
ATOM      4  C   UNL d   1       0.414   1.088  -0.096  0.00  0.00     0.070 A 
ATOM      5  O   UNL d   1       1.404  -0.756   0.637  0.00  0.00    -0.285 OA
ATOM      6  C   UNL d   1       0.202  -0.229   0.277  0.00  0.00     0.105 A 
ATOM      7  C   UNL d   1      -0.673   1.858  -0.527  0.00  0.00     0.056 A 
ATOM      8  C   UNL d   1      -1.030  -0.871   0.260  0.00  0.00     0.041 A 
ATOM      9  C   UNL d   1      -1.929   1.238  -0.575  0.00  0.00     0.036 A 
ATOM     10  C   UNL d   1      -2.108  -0.097  -0.190  0.00  0.00     0.026 A 
ATOM     11 CL   UNL d   1      -3.285   2.140  -1.138  0.00  0.00    -0.084 Cl
ENDROOT
BRANCH   3  12
ATOM     12  S   UNL d   1       3.998   0.061   0.714  0.00  0.00    -0.078 SA
BRANCH  12  13
ATOM     13  C   UNL d   1       4.636   1.649   0.099  0.00  0.00     0.166 C 
BRANCH  13  14
ATOM     14  C   UNL d   1       6.157   1.665   0.067  0.00  0.00     0.169 C 
ATOM     15  O   UNL d   1       6.859   0.741   0.477  0.00  0.00    -0.291 OA
BRANCH  14  16
ATOM     16  C   UNL d   1       6.848   2.866  -0.501  0.00  0.00     0.011 A 
ATOM     17  C   UNL d   1       6.157   4.012  -0.921  0.00  0.00     0.018 A 
ATOM     18  C   UNL d   1       6.861   5.088  -1.475  0.00  0.00     0.043 A 
ATOM     19  C   UNL d   1       8.244   5.021  -1.605  0.00  0.00     0.116 A 
ATOM     20  C   UNL d   1       8.946   3.902  -1.181  0.00  0.00     0.043 A 
ATOM     21  F   UNL d   1       8.906   6.050  -2.150  0.00  0.00    -0.206 F 
ATOM     22  C   UNL d   1       8.248   2.826  -0.628  0.00  0.00     0.018 A 
ENDBRANCH  14  16
ENDBRANCH  13  14
ENDBRANCH  12  13
ENDBRANCH   3  12
TORSDOF 4
