REMARK  3 active torsions:
REMARK  status: ('A' for Active; 'I' for Inactive)
REMARK    1  A    between atoms: N_3  and  N_1 
REMARK    2  A    between atoms: C_7  and  C_5 
REMARK    3  A    between atoms: C_8  and  C_6 
ROOT
ATOM      1  N   UNL d   1       0.914  -0.350   2.510  0.00  0.00    -0.304 N 
ATOM      2  HN  UNL d   1       0.408  -0.373   3.395  1.00  0.00     0.186 HD
ATOM      3  C   UNL d   1       2.213  -0.434   2.444  0.00  0.00     0.032 C 
ATOM      4  C   UNL d   1       2.994  -0.415   1.141  0.00  0.00     0.070 C 
ENDROOT
BRANCH   1   5
ATOM      5  N   UNL d   1       0.272  -0.227   1.287  0.00  0.00    -0.304 N 
ATOM      6  C   UNL d   1      -1.029  -0.195   1.351  0.00  0.00     0.032 C 
ATOM      7  C   UNL d   1      -1.812  -0.296   2.650  0.00  0.00     0.070 C 
ATOM      8  HN  UNL d   1       0.780  -0.166   0.405  1.00  0.00     0.186 HD
BRANCH   6   9
ATOM      9  C   UNL d   1      -1.817  -0.047   0.076  0.00  0.00    -0.012 A 
ATOM     10  C   UNL d   1      -1.145   0.018  -1.155  0.00  0.00     0.016 A 
ATOM     11  C   UNL d   1      -1.859   0.162  -2.349  0.00  0.00     0.043 A 
ATOM     12  C   UNL d   1      -3.246   0.240  -2.313  0.00  0.00     0.116 A 
ATOM     13  C   UNL d   1      -3.932   0.177  -1.107  0.00  0.00     0.043 A 
ATOM     14  F   UNL d   1      -3.932   0.380  -3.455  0.00  0.00    -0.206 F 
ATOM     15  C   UNL d   1      -3.219   0.034   0.087  0.00  0.00     0.016 A 
ENDBRANCH   6   9
ENDBRANCH   1   5
BRANCH   3  16
ATOM     16  C   UNL d   1       2.999  -0.556   3.722  0.00  0.00    -0.012 A 
ATOM     17  C   UNL d   1       2.323  -0.614   4.952  0.00  0.00     0.016 A 
ATOM     18  C   UNL d   1       3.037  -0.721   6.151  0.00  0.00     0.043 A 
ATOM     19  C   UNL d   1       4.425  -0.770   6.122  0.00  0.00     0.116 A 
ATOM     20  C   UNL d   1       5.113  -0.716   4.917  0.00  0.00     0.043 A 
ATOM     21  F   UNL d   1       5.109  -0.870   7.268  0.00  0.00    -0.206 F 
ATOM     22  C   UNL d   1       4.403  -0.609   3.718  0.00  0.00     0.016 A 
ENDBRANCH   3  16
TORSDOF 3
