REMARK  1 active torsions:
REMARK  status: ('A' for Active; 'I' for Inactive)
REMARK    1  A    between atoms: N_8  and  C_3 
ROOT
ATOM      1  C   UNL d   1      -0.193   0.995  -0.125  0.00  0.00     0.065 A 
ATOM      2  C   UNL d   1       0.152  -0.342  -0.194  0.00  0.00     0.137 A 
ATOM      3  C   UNL d   1      -1.546   1.317   0.059  0.00  0.00     0.099 A 
ATOM      4  N   UNL d   1       2.085   0.859  -0.335  0.00  0.00    -0.307 N 
ATOM      5  HN  UNL d   1       3.071   1.100  -0.437  1.00  0.00     0.186 HD
ATOM      6  N   UNL d   1       1.518  -0.368  -0.293  0.00  0.00    -0.281 N 
ATOM      7  C   UNL d   1       1.037   1.681  -0.209  0.00  0.00     0.126 A 
ATOM      8  N   UNL d   1      -0.689  -1.389  -0.133  0.00  0.00    -0.337 N 
ATOM      9  HN  UNL d   1      -0.402  -2.365  -0.202  1.00  0.00     0.168 HD
ATOM     10  N   UNL d   1      -2.424   0.285   0.147  0.00  0.00    -0.342 N 
ATOM     11  HN  UNL d   1      -3.418   0.461   0.296  1.00  0.00     0.167 HD
ATOM     12  C   UNL d   1      -1.960  -0.978   0.033  0.00  0.00     0.183 A 
ATOM     13  C   UNL d   1       2.367  -1.533  -0.284  0.00  0.00     0.179 C 
ENDROOT
BRANCH   3  14
ATOM     14  N   UNL d   1      -1.947   2.627   0.284  0.00  0.00    -0.265 NA
ATOM     15  C   UNL d   1      -3.193   2.799   1.042  0.00  0.00     0.127 C 
ATOM     16  C   UNL d   1      -3.257   4.264   1.538  0.00  0.00     0.286 C 
ATOM     17  N   UNL d   1      -3.167   5.257   0.438  0.00  0.00     0.086 N 
ATOM     18  C   UNL d   1      -1.978   4.981  -0.403  0.00  0.00     0.286 C 
ATOM     19  C   UNL d   1      -3.094   6.611   0.988  0.00  0.00     0.310 C 
ATOM     20  C   UNL d   1      -1.898   3.513  -0.890  0.00  0.00     0.127 C 
ENDBRANCH   3  14
TORSDOF 1
