REMARK  4 active torsions:
REMARK  status: ('A' for Active; 'I' for Inactive)
REMARK    1  A    between atoms: N_2  and  C_1 
REMARK    2  A    between atoms: C_9  and  N_2 
REMARK    3  A    between atoms: C_8  and  N_4 
REMARK    4  A    between atoms: C_7  and  C_8 
ROOT
ATOM      1  C   UNL d   1       1.246  -0.037  -0.054  0.00  0.00     0.172 C 
ATOM      2  S   UNL d   1       0.704  -1.460  -0.746  0.00  0.00    -0.041 SA
ATOM      3  N   UNL d   1       2.580   0.020   0.215  0.00  0.00    -0.361 N 
ATOM      4  H   UNL d   1       3.119  -0.772  -0.133  0.00  0.00     0.162 HD
ENDROOT
BRANCH   1   5
ATOM      5  N   UNL d   1       0.522   1.071   0.320  0.00  0.00    -0.333 N 
ATOM      6  H   UNL d   1       0.939   1.599   1.071  0.00  0.00     0.168 HD
BRANCH   5   7
ATOM      7  C   UNL d   1      -0.811   1.439   0.015  0.00  0.00     0.034 A 
ATOM      8  C   UNL d   1      -1.450   2.327   0.890  0.00  0.00     0.029 A 
ATOM      9  C   UNL d   1      -2.776   2.717   0.672  0.00  0.00     0.002 A 
ATOM     10  C   UNL d   1      -3.469   2.243  -0.439  0.00  0.00     0.000 A 
ATOM     11  C   UNL d   1      -2.828   1.399  -1.341  0.00  0.00     0.002 A 
ATOM     12  C   UNL d   1      -1.503   1.009  -1.120  0.00  0.00     0.029 A 
ENDBRANCH   5   7
ENDBRANCH   1   5
BRANCH   3  13
ATOM     13  C   UNL d   1       3.401   1.109   0.718  0.00  0.00     0.179 C 
BRANCH  13  14
ATOM     14  C   UNL d   1       4.878   0.781   0.616  0.00  0.00     0.026 A 
ATOM     15  N   UNL d   1       5.240  -0.221  -0.230  0.00  0.00    -0.368 N 
ATOM     16  C   UNL d   1       6.558  -0.497  -0.346  0.00  0.00     0.088 A 
ATOM     17  HN  UNL d   1       4.542  -0.746  -0.758  1.00  0.00     0.165 HD
ATOM     18  C   UNL d   1       7.546   0.176   0.347  0.00  0.00     0.017 A 
ATOM     19  C   UNL d   1       7.164   1.197   1.210  0.00  0.00     0.003 A 
ATOM     20  C   UNL d   1       5.813   1.511   1.345  0.00  0.00     0.027 A 
ENDBRANCH  13  14
ENDBRANCH   3  13
TORSDOF 4
