REMARK  8 active torsions:
REMARK  status: ('A' for Active; 'I' for Inactive)
REMARK    1  A    between atoms: C_8  and  C_1 
REMARK    2  A    between atoms: C_5  and  C_2 
REMARK    3  A    between atoms: O_14  and  C_5 
REMARK    4  A    between atoms: N_7  and  C_6 
REMARK    5  A    between atoms: C_9  and  C_15 
REMARK    6  A    between atoms: C_12  and  O_16 
REMARK    7  A    between atoms: C_17  and  O_14 
REMARK    8  A    between atoms: O_16  and  C_18 
ROOT
ATOM      1  C   UNL d   1      -1.827  -3.467   0.010  0.00  0.00     0.113 A 
ATOM      2  C   UNL d   1      -2.108  -2.834  -1.204  0.00  0.00     0.110 A 
ATOM      3  C   UNL d   1      -3.340  -3.077  -1.824  0.00  0.00     0.040 A 
ATOM      4  C   UNL d   1      -2.737  -4.394   0.545  0.00  0.00     0.040 A 
ATOM      5  C   UNL d   1      -3.943  -4.653  -0.101  0.00  0.00     0.003 A 
ATOM      6  C   UNL d   1      -4.252  -3.983  -1.282  0.00  0.00     0.003 A 
ENDROOT
BRANCH   1   7
ATOM      7  O   UNL d   1      -0.641  -3.334   0.784  0.00  0.00    -0.272 OA
BRANCH   7   8
ATOM      8  C   UNL d   1       0.244  -2.263   0.944  0.00  0.00     0.303 C 
ATOM      9  O   UNL d   1       0.133  -1.185   0.377  0.00  0.00    -0.259 OA
BRANCH   8  10
ATOM     10  C   UNL d   1       1.325  -2.582   1.864  0.00  0.00     0.100 A 
ATOM     11  C   UNL d   1       2.362  -1.732   2.392  0.00  0.00     0.088 A 
ATOM     12  N   UNL d   1       3.108  -2.422   3.271  0.00  0.00    -0.259 N 
ATOM     13  O   UNL d   1       2.652  -3.710   3.263  0.00  0.00    -0.241 OA
ATOM     14  HN  UNL d   1       3.872  -2.054   3.838  1.00  0.00     0.195 HD
ATOM     15  C   UNL d   1       1.596  -3.823   2.423  0.00  0.00     0.091 A 
ATOM     16  C   UNL d   1       1.047  -5.192   2.339  0.00  0.00     0.080 C 
BRANCH  11  17
ATOM     17  C   UNL d   1       2.685  -0.321   2.139  0.00  0.00     0.054 A 
ATOM     18  C   UNL d   1       1.669   0.644   2.128  0.00  0.00     0.130 A 
ATOM     19  F   UNL d   1       0.405   0.305   2.427  0.00  0.00    -0.205 F 
ATOM     20  C   UNL d   1       1.927   1.990   1.858  0.00  0.00     0.043 A 
ATOM     21  C   UNL d   1       3.233   2.423   1.667  0.00  0.00     0.005 A 
ATOM     22  C   UNL d   1       4.273   1.500   1.732  0.00  0.00     0.025 A 
ATOM     23  C   UNL d   1       4.005   0.138   1.944  0.00  0.00     0.049 A 
ATOM     24 CL   UNL d   1       5.389  -0.907   1.915  0.00  0.00    -0.083 Cl
ENDBRANCH  11  17
ENDBRANCH   8  10
ENDBRANCH   7   8
ENDBRANCH   1   7
BRANCH   2  25
ATOM     25  O   UNL d   1      -1.316  -1.911  -1.823  0.00  0.00    -0.305 OA
BRANCH  25  26
ATOM     26  C   UNL d   1      -0.053  -2.235  -2.258  0.00  0.00     0.109 A 
ATOM     27  C   UNL d   1       0.840  -1.183  -2.535  0.00  0.00     0.137 A 
ATOM     28  C   UNL d   1       2.161  -1.450  -2.941  0.00  0.00     0.055 A 
ATOM     29  C   UNL d   1       2.604  -2.772  -3.087  0.00  0.00     0.050 A 
ATOM     30  C   UNL d   1       1.712  -3.818  -2.807  0.00  0.00     0.019 A 
ATOM     31  C   UNL d   1       0.394  -3.554  -2.414  0.00  0.00     0.040 A 
BRANCH  27  32
ATOM     32  N   UNL d   1       0.443   0.225  -2.376  0.00  0.00    -0.113 N 
ATOM     33  O   UNL d   1      -0.746   0.533  -2.528  0.00  0.00    -0.532 OA
ATOM     34  O   UNL d   1       1.354   1.045  -2.169  0.00  0.00    -0.532 OA
ENDBRANCH  27  32
BRANCH  29  35
ATOM     35  C   UNL d   1       4.009  -3.080  -3.553  0.00  0.00     0.417 C 
ATOM     36  F   UNL d   1       4.714  -1.973  -3.911  0.00  0.00    -0.166 F 
ATOM     37  F   UNL d   1       4.746  -3.709  -2.599  0.00  0.00    -0.166 F 
ATOM     38  F   UNL d   1       4.019  -3.899  -4.640  0.00  0.00    -0.166 F 
ENDBRANCH  29  35
ENDBRANCH  25  26
ENDBRANCH   2  25
TORSDOF 8
