REMARK  11 active torsions:
REMARK  status: ('A' for Active; 'I' for Inactive)
REMARK    1  A    between atoms: N_5  and  C_1 
REMARK    2  A    between atoms: N_4  and  C_2 
REMARK    3  A    between atoms: N_17  and  C_3 
REMARK    4  A    between atoms: C_6  and  C_7 
REMARK    5  A    between atoms: C_10  and  N_23 
REMARK    6  A    between atoms: N_11  and  C_10 
REMARK    7  A    between atoms: C_18  and  N_11 
REMARK    8  A    between atoms: C_28  and  N_17 
REMARK    9  A    between atoms: N_23  and  C_29 
REMARK   10  A    between atoms: S_25  and  C_24 
REMARK   11  A    between atoms: C_29  and  C_28 
ROOT
ATOM      1  N   UNL d   1       2.841  -2.145  -0.968  0.00  0.00    -0.384 N 
ATOM      2  H   UNL d   1       3.515  -2.666  -1.537  0.00  0.00     0.159 HD
ENDROOT
BRANCH   1   3
ATOM      3  C   UNL d   1       2.904  -0.754  -1.072  0.00  0.00     0.095 A 
ATOM      4  C   UNL d   1       3.862  -0.136  -1.916  0.00  0.00     0.132 A 
ATOM      5  C   UNL d   1       3.917   1.256  -2.159  0.00  0.00     0.054 A 
ATOM      6  C   UNL d   1       2.991   2.112  -1.560  0.00  0.00     0.052 A 
ATOM      7  C   UNL d   1       2.066   1.556  -0.672  0.00  0.00     0.054 A 
ATOM      8  C   UNL d   1       2.033   0.162  -0.446  0.00  0.00     0.132 A 
BRANCH   4   9
ATOM      9  N   UNL d   1       4.893  -0.934  -2.572  0.00  0.00    -0.113 N 
ATOM     10  O   UNL d   1       4.525  -1.923  -3.224  0.00  0.00    -0.532 OA
ATOM     11  O   UNL d   1       6.065  -0.562  -2.436  0.00  0.00    -0.532 OA
ENDBRANCH   4   9
BRANCH   6  12
ATOM     12  C   UNL d   1       2.941   3.588  -1.880  0.00  0.00     0.417 C 
ATOM     13  F   UNL d   1       3.874   3.975  -2.789  0.00  0.00    -0.166 F 
ATOM     14  F   UNL d   1       1.737   3.949  -2.400  0.00  0.00    -0.166 F 
ATOM     15  F   UNL d   1       3.128   4.365  -0.781  0.00  0.00    -0.166 F 
ENDBRANCH   6  12
BRANCH   8  16
ATOM     16  N   UNL d   1       0.974  -0.269   0.445  0.00  0.00    -0.113 N 
ATOM     17  O   UNL d   1      -0.016  -0.809  -0.074  0.00  0.00    -0.532 OA
ATOM     18  O   UNL d   1       1.109  -0.009   1.645  0.00  0.00    -0.532 OA
ENDBRANCH   8  16
ENDBRANCH   1   3
BRANCH   1  19
ATOM     19  C   UNL d   1       2.493  -2.862   0.260  0.00  0.00     0.139 C 
BRANCH  19  20
ATOM     20  C   UNL d   1       2.855  -4.354   0.139  0.00  0.00     0.141 C 
BRANCH  20  21
ATOM     21  N   UNL d   1       4.260  -4.676  -0.124  0.00  0.00    -0.365 N 
ATOM     22  H   UNL d   1       4.448  -5.261  -0.930  0.00  0.00     0.161 HD
BRANCH  21  23
ATOM     23  C   UNL d   1       5.294  -4.592   0.766  0.00  0.00     0.172 C 
ATOM     24  S   UNL d   1       5.465  -3.447   1.967  0.00  0.00    -0.041 SA
BRANCH  23  25
ATOM     25  N   UNL d   1       6.310  -5.495   0.611  0.00  0.00    -0.333 N 
ATOM     26  H   UNL d   1       7.160  -5.190   1.079  0.00  0.00     0.168 HD
BRANCH  25  27
ATOM     27  C   UNL d   1       6.211  -6.909   0.506  0.00  0.00     0.035 A 
ATOM     28  C   UNL d   1       5.008  -7.602   0.330  0.00  0.00     0.048 A 
ATOM     29  C   UNL d   1       4.956  -9.001   0.397  0.00  0.00     0.002 A 
ATOM     30  C   UNL d   1       6.141  -9.707   0.633  0.00  0.00     0.018 A 
ATOM     31  C   UNL d   1       7.351  -9.032   0.788  0.00  0.00     0.004 A 
ATOM     32  C   UNL d   1       7.385  -7.640   0.721  0.00  0.00     0.029 A 
BRANCH  29  33
ATOM     33  S   UNL d   1       3.451  -9.962   0.245  0.00  0.00    -0.134 SA
ATOM     34  C   UNL d   1       2.159  -8.703   0.059  0.00  0.00     0.095 C 
ENDBRANCH  29  33
ENDBRANCH  25  27
ENDBRANCH  23  25
ENDBRANCH  21  23
ENDBRANCH  20  21
ENDBRANCH  19  20
ENDBRANCH   1  19
TORSDOF 11
