REMARK  6 active torsions:
REMARK  status: ('A' for Active; 'I' for Inactive)
REMARK    1  A    between atoms: N_4  and  C_1 
REMARK    2  A    between atoms: N_5  and  C_1 
REMARK       I    between atoms: C_2  and  N_3 
REMARK    3  A    between atoms: C_7  and  C_2 
REMARK    4  A    between atoms: N_3  and  N_4 
REMARK    5  A    between atoms: C_15  and  N_5 
REMARK    6  A    between atoms: C_8  and  C_9 
ROOT
ATOM      1  C   UNL d   1       0.268   2.543  -2.655  0.00  0.00     0.270 C 
ATOM      2  N   UNL d   1       0.974   2.130  -1.542  0.00  0.00    -0.264 N 
ATOM      3  O   UNL d   1       0.875   2.823  -3.688  0.00  0.00    -0.266 OA
ATOM      4  H   UNL d   1       1.977   2.039  -1.696  0.00  0.00     0.190 HD
ENDROOT
BRANCH   2   5
ATOM      5  N   UNL d   1       0.450   1.288  -0.554  0.00  0.00    -0.273 N 
ATOM      6  H   UNL d   1      -0.435   0.827  -0.745  0.00  0.00     0.189 HD
BRANCH   5   7
ATOM      7  C   UNL d   1       0.947   1.284   0.722  0.00  0.00     0.191 C 
ATOM      8  S   UNL d   1       2.007   2.423   1.342  0.00  0.00    -0.039 SA
BRANCH   7   9
ATOM      9  N   UNL d   1       0.532   0.286   1.555  0.00  0.00    -0.332 N 
ATOM     10  H   UNL d   1       0.776   0.464   2.529  0.00  0.00     0.168 HD
BRANCH   9  11
ATOM     11  C   UNL d   1      -0.014  -0.987   1.293  0.00  0.00     0.034 A 
ATOM     12  C   UNL d   1      -0.076  -1.565   0.017  0.00  0.00     0.031 A 
ATOM     13  C   UNL d   1      -0.626  -2.842  -0.161  0.00  0.00     0.026 A 
ATOM     14  C   UNL d   1      -1.080  -3.561   0.939  0.00  0.00     0.034 A 
ATOM     15  C   UNL d   1      -0.983  -3.019   2.217  0.00  0.00     0.026 A 
ATOM     16 CL   UNL d   1      -1.738  -5.133   0.718  0.00  0.00    -0.084 Cl
ATOM     17  C   UNL d   1      -0.449  -1.737   2.392  0.00  0.00     0.031 A 
ENDBRANCH   9  11
ENDBRANCH   7   9
ENDBRANCH   5   7
ENDBRANCH   2   5
BRANCH   1  18
ATOM     18  C   UNL d   1      -1.216   2.636  -2.625  0.00  0.00     0.033 A 
ATOM     19  C   UNL d   1      -1.943   2.869  -1.457  0.00  0.00     0.017 A 
ATOM     20  C   UNL d   1      -3.342   2.893  -1.491  0.00  0.00     0.009 A 
ATOM     21  C   UNL d   1      -4.055   2.731  -2.696  0.00  0.00    -0.051 A 
ATOM     22  C   UNL d   1      -3.303   2.564  -3.870  0.00  0.00     0.009 A 
ATOM     23  C   UNL d   1      -1.905   2.516  -3.836  0.00  0.00     0.017 A 
BRANCH  21  24
ATOM     24  C   UNL d   1      -5.594   2.723  -2.691  0.00  0.00    -0.024 C 
ATOM     25  C   UNL d   1      -6.221   2.639  -4.101  0.00  0.00     0.019 C 
ATOM     26  C   UNL d   1      -6.088   1.497  -1.894  0.00  0.00     0.019 C 
ATOM     27  C   UNL d   1      -6.136   4.010  -2.031  0.00  0.00     0.019 C 
ENDBRANCH  21  24
ENDBRANCH   1  18
TORSDOF 6
