REMARK  0 active torsions:
REMARK  status: ('A' for Active; 'I' for Inactive)
ROOT
ATOM      1  C   UNL d   1      -1.878  -0.214  -0.277  0.00  0.00     0.060 C 
ATOM      2  S   UNL d   1      -1.008   1.329  -0.851  0.00  0.00    -0.143 SA
ATOM      3  S   UNL d   1      -0.837  -1.641  -0.805  0.00  0.00    -0.143 SA
ATOM      4  C   UNL d   1       1.610   0.692   0.015  0.00  0.00    -0.041 A 
ATOM      5  C   UNL d   1       1.680  -0.711   0.052  0.00  0.00    -0.041 A 
ATOM      6  C   UNL d   1      -3.292  -0.209  -0.976  0.00  0.00     0.011 C 
ATOM      7  C   UNL d   1      -3.719  -0.193   1.443  0.00  0.00    -0.045 C 
ATOM      8  C   UNL d   1      -2.194  -0.183   1.247  0.00  0.00     0.040 C 
ATOM      9  C   UNL d   1       2.807   1.422  -0.162  0.00  0.00     0.015 A 
ATOM     10  C   UNL d   1       2.938  -1.334  -0.102  0.00  0.00     0.015 A 
ATOM     11  C   UNL d   1       4.057   0.796  -0.268  0.00  0.00    -0.056 A 
ATOM     12  C   UNL d   1       4.123  -0.602  -0.238  0.00  0.00    -0.056 A 
ATOM     13  C   UNL d   1       0.358   1.481   0.321  0.00  0.00     0.114 C 
ATOM     14  C   UNL d   1       0.511  -1.598   0.396  0.00  0.00     0.114 C 
ATOM     15  C   UNL d   1      -4.260   0.306   0.103  0.00  0.00     0.015 C 
ATOM     16  C   UNL d   1      -4.126   0.756   2.581  0.00  0.00     0.015 C 
ATOM     17  C   UNL d   1      -4.205  -1.603   1.806  0.00  0.00     0.015 C 
ATOM     18  C   UNL d   1       5.297   1.642  -0.364  0.00  0.00     0.049 C 
ATOM     19  C   UNL d   1       5.436  -1.332  -0.304  0.00  0.00     0.049 C 
ATOM     20  C   UNL d   1      -3.806  -1.516  -1.596  0.00  0.00     0.012 C 
ENDROOT
TORSDOF 0
