REMARK  15 active torsions:
REMARK  status: ('A' for Active; 'I' for Inactive)
REMARK    1  A    between atoms: C_7  and  C_3 
REMARK    2  A    between atoms: C_17  and  C_6 
REMARK    3  A    between atoms: O_16  and  C_8 
REMARK    4  A    between atoms: S_18  and  C_17 
REMARK    5  A    between atoms: C_19  and  S_18 
REMARK    6  A    between atoms: C_21  and  C_19 
REMARK    7  A    between atoms: C_29  and  C_21 
REMARK    8  A    between atoms: C_22  and  C_23 
REMARK    9  A    between atoms: C_23  and  C_28 
REMARK   10  A    between atoms: C_24  and  C_30 
REMARK   11  A    between atoms: C_25  and  C_24 
REMARK   12  A    between atoms: C_26  and  C_25 
REMARK   13  A    between atoms: C_27  and  C_26 
REMARK   14  A    between atoms: C_28  and  C_27 
REMARK   15  A    between atoms: C_30  and  C_29 
ROOT
ATOM      1  N   UNL d   1       0.648  -4.457  -1.339  0.00  0.00    -0.322 N 
ATOM      2  HN  UNL d   1       0.734  -5.188  -0.632  1.00  0.00     0.169 HD
ATOM      3  C   UNL d   1       0.347  -4.585  -2.675  0.00  0.00     0.138 A 
ATOM      4  N   UNL d   1       0.284  -3.408  -3.329  0.00  0.00    -0.242 N 
ATOM      5  HN  UNL d   1       0.067  -3.246  -4.312  1.00  0.00     0.196 HD
ATOM      6  C   UNL d   1       0.798  -3.162  -1.201  0.00  0.00     0.157 A 
ATOM      7  O   UNL d   1       0.586  -2.466  -2.354  0.00  0.00    -0.222 OA
ENDROOT
BRANCH   6   8
ATOM      8  C   UNL d   1       1.201  -2.388  -0.009  0.00  0.00     0.160 C 
BRANCH   8   9
ATOM      9  S   UNL d   1       2.996  -2.096   0.057  0.00  0.00    -0.161 SA
BRANCH   9  10
ATOM     10  C   UNL d   1       3.614  -3.817   0.048  0.00  0.00     0.074 C 
BRANCH  10  11
ATOM     11  C   UNL d   1       5.138  -3.761   0.053  0.00  0.00     0.010 C 
BRANCH  11  12
ATOM     12  C   UNL d   1       5.754  -5.157   0.061  0.00  0.00     0.001 C 
BRANCH  12  13
ATOM     13  C   UNL d   1       7.277  -5.058   0.064  0.00  0.00     0.000 C 
BRANCH  13  14
ATOM     14  C   UNL d   1       7.911  -6.442   0.075  0.00  0.00     0.000 C 
BRANCH  14  15
ATOM     15  C   UNL d   1       9.430  -6.337   0.080  0.00  0.00     0.000 C 
BRANCH  15  16
ATOM     16  C   UNL d   1      10.057  -7.724   0.089  0.00  0.00     0.000 C 
BRANCH  16  17
ATOM     17  C   UNL d   1      11.576  -7.625   0.094  0.00  0.00     0.000 C 
BRANCH  17  18
ATOM     18  C   UNL d   1      12.200  -9.014   0.104  0.00  0.00     0.000 C 
BRANCH  18  19
ATOM     19  C   UNL d   1      13.720  -8.914   0.113  0.00  0.00    -0.000 C 
BRANCH  19  20
ATOM     20  C   UNL d   1      14.357 -10.298   0.123  0.00  0.00    -0.005 C 
ATOM     21  C   UNL d   1      15.871 -10.195   0.133  0.00  0.00     0.005 C 
ENDBRANCH  19  20
ENDBRANCH  18  19
ENDBRANCH  17  18
ENDBRANCH  16  17
ENDBRANCH  15  16
ENDBRANCH  14  15
ENDBRANCH  13  14
ENDBRANCH  12  13
ENDBRANCH  11  12
ENDBRANCH  10  11
ENDBRANCH   9  10
ENDBRANCH   8   9
ENDBRANCH   6   8
BRANCH   3  22
ATOM     22  C   UNL d   1       0.145  -5.876  -3.311  0.00  0.00     0.013 A 
ATOM     23  C   UNL d   1       0.249  -7.063  -2.576  0.00  0.00     0.037 A 
ATOM     24  C   UNL d   1       0.074  -8.299  -3.210  0.00  0.00     0.046 A 
ATOM     25 BR   UNL d   1       0.215  -9.849  -2.113  0.00  0.00    -0.048 Br
ATOM     26  C   UNL d   1      -0.194  -8.396  -4.595  0.00  0.00     0.102 A 
ATOM     27  C   UNL d   1      -0.284  -7.196  -5.325  0.00  0.00     0.046 A 
ATOM     28  C   UNL d   1      -0.128  -5.960  -4.675  0.00  0.00     0.037 A 
ATOM     29 BR   UNL d   1      -0.501  -7.030  -7.205  0.00  0.00    -0.048 Br
BRANCH  26  30
ATOM     30  O   UNL d   1      -0.221  -9.667  -5.096  0.00  0.00    -0.353 OA
ATOM     31  C   UNL d   1      -1.149  -9.985  -6.123  0.00  0.00     0.210 C 
ENDBRANCH  26  30
ENDBRANCH   3  22
TORSDOF 15
