REMARK  3 active torsions:
REMARK  status: ('A' for Active; 'I' for Inactive)
REMARK    1  A    between atoms: N_9  and  C_1 
REMARK    2  A    between atoms: C_7  and  N_2 
REMARK    3  A    between atoms: C_8  and  C_3 
ROOT
ATOM      1  C   UNL d   1      -0.364  -1.115  -0.034  0.00  0.00     0.134 C 
ATOM      2  N   UNL d   1       0.930  -0.585   0.035  0.00  0.00    -0.240 N 
ATOM      3  C   UNL d   1      -1.226  -0.024  -0.064  0.00  0.00     0.043 C 
ATOM      4  N   UNL d   1       0.907   0.760   0.219  0.00  0.00    -0.296 N 
ATOM      5  HN  UNL d   1       1.694   1.371   0.437  1.00  0.00     0.187 HD
ATOM      6  C   UNL d   1      -0.372   1.107   0.049  0.00  0.00     0.037 C 
ATOM      7  C   UNL d   1      -0.703   2.557   0.021  0.00  0.00     0.070 C 
ENDROOT
BRANCH   2   8
ATOM      8  C   UNL d   1       2.190  -1.248  -0.041  0.00  0.00     0.058 A 
ATOM      9  C   UNL d   1       2.346  -2.446  -0.748  0.00  0.00     0.031 A 
ATOM     10  C   UNL d   1       3.604  -3.051  -0.825  0.00  0.00     0.002 A 
ATOM     11  C   UNL d   1       4.702  -2.474  -0.190  0.00  0.00     0.000 A 
ATOM     12  C   UNL d   1       4.555  -1.278   0.509  0.00  0.00     0.002 A 
ATOM     13  C   UNL d   1       3.307  -0.655   0.569  0.00  0.00     0.031 A 
ENDBRANCH   2   8
BRANCH   1  14
ATOM     14  N   UNL d   1      -0.647  -2.452   0.005  0.00  0.00    -0.383 N 
ATOM     15  H   UNL d   1       0.033  -3.081   0.428  0.00  0.00     0.157 HD
ATOM     16  H   UNL d   1      -1.596  -2.724   0.258  0.00  0.00     0.157 HD
ENDBRANCH   1  14
BRANCH   3  17
ATOM     17  C   UNL d   1      -2.683  -0.099  -0.126  0.00  0.00    -0.020 A 
ATOM     18  C   UNL d   1      -3.466   0.735   0.687  0.00  0.00     0.012 A 
ATOM     19  C   UNL d   1      -4.862   0.698   0.618  0.00  0.00     0.001 A 
ATOM     20  C   UNL d   1      -5.493  -0.193  -0.246  0.00  0.00     0.000 A 
ATOM     21  C   UNL d   1      -4.729  -1.042  -1.045  0.00  0.00     0.001 A 
ATOM     22  C   UNL d   1      -3.332  -0.988  -0.994  0.00  0.00     0.012 A 
ENDBRANCH   3  17
TORSDOF 3
