REMARK  1 active torsions:
REMARK  status: ('A' for Active; 'I' for Inactive)
REMARK    1  A    between atoms: C_9  and  C_4 
ROOT
ATOM      1  C   UNL d   1      -2.068   0.342   0.039  0.00  0.00    -0.006 C 
ATOM      2  C   UNL d   1      -1.089  -0.790  -0.006  0.00  0.00     0.189 C 
ATOM      3  C   UNL d   1       0.354  -0.414   0.007  0.00  0.00     0.021 A 
ATOM      4  C   UNL d   1      -3.277   0.140  -0.513  0.00  0.00     0.022 C 
ATOM      5  C   UNL d   1       0.746   0.938  -0.026  0.00  0.00    -0.044 A 
ATOM      6  C   UNL d   1      -1.557   1.605   0.666  0.00  0.00     0.047 C 
ATOM      7  O   UNL d   1      -1.444  -1.963  -0.068  0.00  0.00    -0.287 OA
ATOM      8  C   UNL d   1      -0.281   2.041  -0.042  0.00  0.00     0.044 C 
ATOM      9  C   UNL d   1       1.323  -1.425   0.016  0.00  0.00     0.016 A 
ATOM     10  C   UNL d   1       2.110   1.255  -0.090  0.00  0.00     0.008 A 
ATOM     11  C   UNL d   1       2.678  -1.095  -0.024  0.00  0.00     0.001 A 
ATOM     12  C   UNL d   1       3.069   0.242  -0.085  0.00  0.00     0.001 A 
ENDROOT
BRANCH   4  13
ATOM     13  C   UNL d   1      -4.311   1.168  -0.636  0.00  0.00    -0.035 A 
ATOM     14  C   UNL d   1      -4.331   2.007  -1.757  0.00  0.00     0.013 A 
ATOM     15  C   UNL d   1      -5.337   2.967  -1.899  0.00  0.00     0.024 A 
ATOM     16  C   UNL d   1      -6.318   3.089  -0.917  0.00  0.00     0.034 A 
ATOM     17  C   UNL d   1      -6.293   2.271   0.212  0.00  0.00     0.024 A 
ATOM     18 CL   UNL d   1      -7.575   4.248  -1.107  0.00  0.00    -0.084 Cl
ATOM     19  C   UNL d   1      -5.287   1.312   0.354  0.00  0.00     0.013 A 
ENDBRANCH   4  13
TORSDOF 1
