REMARK  5 active torsions:
REMARK  status: ('A' for Active; 'I' for Inactive)
REMARK    1  A    between atoms: C_3  and  S_1 
REMARK    2  A    between atoms: N_4  and  S_1 
REMARK    3  A    between atoms: S_2  and  C_3 
REMARK    4  A    between atoms: C_9  and  N_4 
REMARK    5  A    between atoms: C_11  and  C_9 
ROOT
ATOM      1  N   UNL d   1       0.242  -1.515   0.339  0.00  0.00    -0.215 NA
ATOM      2  H   UNL d   1      -0.770  -1.498   0.199  0.00  0.00     0.140 HD
ENDROOT
BRANCH   1   3
ATOM      3  S   UNL d   1       0.948  -0.022  -0.065  0.00  0.00     0.223 S 
ATOM      4  O   UNL d   1       2.351  -0.152   0.255  0.00  0.00    -0.210 OA
ATOM      5  O   UNL d   1       0.490   0.258  -1.404  0.00  0.00    -0.210 OA
BRANCH   3   6
ATOM      6  C   UNL d   1       0.186   1.067   1.086  0.00  0.00     0.296 C 
BRANCH   6   7
ATOM      7  S   UNL d   1       0.762   2.724   0.927  0.00  0.00     0.155 S 
ATOM      8  O   UNL d   1       0.394   3.235  -0.380  0.00  0.00    -0.227 OA
ATOM      9  O   UNL d   1       0.304   3.426   2.119  0.00  0.00    -0.227 OA
ATOM     10  C   UNL d   1       2.538   2.672   1.029  0.00  0.00     0.162 C 
ENDBRANCH   6   7
ENDBRANCH   3   6
ENDBRANCH   1   3
BRANCH   1  11
ATOM     11  C   UNL d   1       0.833  -2.629  -0.444  0.00  0.00     0.142 C 
BRANCH  11  12
ATOM     12  C   UNL d   1       0.128  -3.932  -0.157  0.00  0.00    -0.044 A 
ATOM     13  C   UNL d   1      -0.977  -4.323  -0.929  0.00  0.00     0.010 A 
ATOM     14  C   UNL d   1      -1.628  -5.530  -0.669  0.00  0.00     0.024 A 
ATOM     15  C   UNL d   1      -1.183  -6.348   0.368  0.00  0.00     0.034 A 
ATOM     16  C   UNL d   1      -0.096  -5.965   1.151  0.00  0.00     0.024 A 
ATOM     17 CL   UNL d   1      -1.980  -7.839   0.681  0.00  0.00    -0.084 Cl
ATOM     18  C   UNL d   1       0.555  -4.756   0.893  0.00  0.00     0.010 A 
ENDBRANCH  11  12
ENDBRANCH   1  11
TORSDOF 5
