REMARK  5 active torsions:
REMARK  status: ('A' for Active; 'I' for Inactive)
REMARK    1  A    between atoms: C_2  and  S_1 
REMARK    2  A    between atoms: C_7  and  S_1 
REMARK    3  A    between atoms: C_3  and  C_8 
REMARK    4  A    between atoms: N_11  and  C_4 
REMARK    5  A    between atoms: C_18  and  N_11 
ROOT
ATOM      1  C   UNL d   1       0.408   0.739   1.544  0.00  0.00     0.159 C 
ATOM      2  C   UNL d   1      -0.358   1.842   1.488  0.00  0.00     0.123 C 
ATOM      3  C   UNL d   1       0.862   0.081   0.384  0.00  0.00     0.113 C 
ATOM      4  N   UNL d   1       1.224  -0.419  -0.600  0.00  0.00    -0.191 NA
ENDROOT
BRANCH   1   5
ATOM      5  S   UNL d   1       0.789   0.068   3.091  0.00  0.00     0.218 S 
ATOM      6  O   UNL d   1      -0.192  -0.952   3.420  0.00  0.00    -0.216 OA
ATOM      7  O   UNL d   1       1.058   1.138   4.038  0.00  0.00    -0.216 OA
BRANCH   5   8
ATOM      8  C   UNL d   1       2.342  -0.781   2.850  0.00  0.00     0.065 A 
ATOM      9  C   UNL d   1       3.544  -0.110   3.099  0.00  0.00     0.025 A 
ATOM     10  C   UNL d   1       4.754  -0.785   2.924  0.00  0.00     0.025 A 
ATOM     11  C   UNL d   1       4.755  -2.119   2.512  0.00  0.00     0.034 A 
ATOM     12  C   UNL d   1       3.554  -2.791   2.281  0.00  0.00     0.025 A 
ATOM     13 CL   UNL d   1       6.248  -2.946   2.300  0.00  0.00    -0.084 Cl
ATOM     14  C   UNL d   1       2.340  -2.126   2.461  0.00  0.00     0.025 A 
ENDBRANCH   5   8
ENDBRANCH   1   5
BRANCH   2  15
ATOM     15  N   UNL d   1      -0.850   2.465   0.360  0.00  0.00    -0.364 N 
ATOM     16  H   UNL d   1      -0.750   1.978  -0.528  0.00  0.00     0.165 HD
BRANCH  15  17
ATOM     17  C   UNL d   1      -1.577   3.664   0.286  0.00  0.00     0.032 A 
ATOM     18  C   UNL d   1      -1.447   4.688   1.229  0.00  0.00     0.045 A 
ATOM     19  C   UNL d   1      -2.241   5.846   1.164  0.00  0.00     0.050 A 
ATOM     20  C   UNL d   1      -3.195   5.962   0.143  0.00  0.00     0.016 A 
ATOM     21  C   UNL d   1      -3.340   4.947  -0.800  0.00  0.00     0.003 A 
ATOM     22  C   UNL d   1      -2.535   3.809  -0.727  0.00  0.00     0.029 A 
BRANCH  19  23
ATOM     23  C   UNL d   1      -2.083   6.946   2.183  0.00  0.00     0.417 C 
ATOM     24  F   UNL d   1      -1.104   6.703   3.099  0.00  0.00    -0.166 F 
ATOM     25  F   UNL d   1      -1.771   8.144   1.616  0.00  0.00    -0.166 F 
ATOM     26  F   UNL d   1      -3.220   7.156   2.901  0.00  0.00    -0.166 F 
ENDBRANCH  19  23
ENDBRANCH  15  17
ENDBRANCH   2  15
TORSDOF 5
