REMARK  8 active torsions:
REMARK  status: ('A' for Active; 'I' for Inactive)
REMARK    1  A    between atoms: C_4  and  S_1 
REMARK    2  A    between atoms: N_6  and  S_1 
REMARK    3  A    between atoms: C_2  and  C_11 
REMARK       I    between atoms: N_3  and  C_2 
REMARK    4  A    between atoms: C_5  and  N_3 
REMARK    5  A    between atoms: C_22  and  N_6 
REMARK    6  A    between atoms: C_23  and  N_6 
REMARK    7  A    between atoms: C_24  and  C_22 
REMARK    8  A    between atoms: C_25  and  C_23 
ROOT
ATOM      1  C   UNL d   1       0.515  -1.574  -0.485  0.00  0.00     0.074 A 
ATOM      2  C   UNL d   1      -0.483  -4.151  -0.968  0.00  0.00     0.032 A 
ATOM      3  C   UNL d   1       1.388  -2.659  -0.471  0.00  0.00     0.026 A 
ATOM      4  C   UNL d   1      -0.856  -1.767  -0.685  0.00  0.00     0.026 A 
ATOM      5  C   UNL d   1      -1.354  -3.052  -0.926  0.00  0.00     0.018 A 
ATOM      6  C   UNL d   1       0.887  -3.940  -0.715  0.00  0.00     0.018 A 
ENDROOT
BRANCH   2   7
ATOM      7  C   UNL d   1      -0.917  -5.552  -1.293  0.00  0.00     0.256 C 
ATOM      8  N   UNL d   1      -2.247  -5.742  -1.635  0.00  0.00    -0.320 N 
ATOM      9  H   UNL d   1      -2.805  -4.924  -1.820  0.00  0.00     0.169 HD
ATOM     10  O   UNL d   1      -0.046  -6.416  -1.325  0.00  0.00    -0.267 OA
BRANCH   8  11
ATOM     11  C   UNL d   1      -2.823  -6.968  -2.054  0.00  0.00     0.074 A 
ATOM     12  C   UNL d   1      -2.312  -8.242  -1.762  0.00  0.00     0.146 A 
ATOM     13  C   UNL d   1      -2.874  -9.389  -2.317  0.00  0.00     0.086 A 
ATOM     14  F   UNL d   1      -1.324  -8.422  -0.876  0.00  0.00    -0.204 F 
ATOM     15  C   UNL d   1      -3.981  -9.271  -3.142  0.00  0.00     0.119 A 
ATOM     16  C   UNL d   1      -4.557  -8.030  -3.388  0.00  0.00     0.044 A 
ATOM     17  F   UNL d   1      -4.514 -10.366  -3.696  0.00  0.00    -0.206 F 
ATOM     18  C   UNL d   1      -3.986  -6.880  -2.836  0.00  0.00     0.036 A 
ENDBRANCH   8  11
ENDBRANCH   2   7
BRANCH   1  19
ATOM     19  S   UNL d   1       1.127   0.056  -0.133  0.00  0.00     0.243 S 
ATOM     20  O   UNL d   1       2.186  -0.103   0.841  0.00  0.00    -0.206 OA
ATOM     21  O   UNL d   1      -0.018   0.900   0.152  0.00  0.00    -0.206 OA
BRANCH  19  22
ATOM     22  N   UNL d   1       1.806   0.617  -1.635  0.00  0.00    -0.206 NA
BRANCH  22  23
ATOM     23  C   UNL d   1       0.842   0.517  -2.789  0.00  0.00     0.107 C 
BRANCH  23  24
ATOM     24  C   UNL d   1       1.426   0.903  -4.152  0.00  0.00     0.011 C 
ATOM     25  C   UNL d   1       2.681   0.131  -4.528  0.00  0.00     0.006 C 
ENDBRANCH  23  24
ENDBRANCH  22  23
BRANCH  22  26
ATOM     26  C   UNL d   1       2.374   2.010  -1.504  0.00  0.00     0.107 C 
BRANCH  26  27
ATOM     27  C   UNL d   1       3.611   2.101  -0.614  0.00  0.00     0.011 C 
ATOM     28  C   UNL d   1       4.730   1.167  -1.048  0.00  0.00     0.006 C 
ENDBRANCH  26  27
ENDBRANCH  22  26
ENDBRANCH  19  22
ENDBRANCH   1  19
TORSDOF 8
