REMARK  5 active torsions:
REMARK  status: ('A' for Active; 'I' for Inactive)
REMARK    1  A    between atoms: C_10  and  N_1 
REMARK    2  A    between atoms: C_14  and  C_4 
REMARK    3  A    between atoms: C_17  and  C_8 
REMARK    4  A    between atoms: C_9  and  C_16 
REMARK    5  A    between atoms: C_16  and  C_10 
ROOT
ATOM      1  N   UNL d   1       0.061  -1.361   0.088  0.00  0.00    -0.297 N 
ATOM      2  N   UNL d   1       1.484   0.394  -0.027  0.00  0.00    -0.337 N 
ATOM      3  HN  UNL d   1       2.348   0.934  -0.083  1.00  0.00     0.167 HD
ATOM      4  C   UNL d   1       1.357  -0.905   0.018  0.00  0.00     0.121 A 
ATOM      5  C   UNL d   1       0.194   0.876   0.017  0.00  0.00     0.103 A 
ATOM      6  C   UNL d   1      -0.761  -0.267   0.028  0.00  0.00     0.276 A 
ATOM      7  C   UNL d   1      -0.143   2.176   0.047  0.00  0.00     0.046 C 
ATOM      8  O   UNL d   1      -1.974  -0.223  -0.048  0.00  0.00    -0.265 OA
ENDROOT
BRANCH   1   9
ATOM      9  C   UNL d   1      -0.422  -2.741   0.046  0.00  0.00     0.138 C 
BRANCH   9  10
ATOM     10  C   UNL d   1      -1.935  -2.983   0.083  0.00  0.00     0.060 C 
BRANCH  10  11
ATOM     11  C   UNL d   1      -2.248  -4.458   0.060  0.00  0.00    -0.038 A 
ATOM     12  C   UNL d   1      -2.443  -5.163  -1.110  0.00  0.00     0.058 A 
ATOM     13  S   UNL d   1      -2.777  -6.809  -0.851  0.00  0.00    -0.101 SA
ATOM     14  C   UNL d   1      -2.672  -6.634   0.857  0.00  0.00     0.015 A 
ATOM     15  C   UNL d   1      -2.373  -5.318   1.225  0.00  0.00    -0.012 A 
ATOM     16  C   UNL d   1      -2.854  -7.652   1.814  0.00  0.00     0.019 A 
ATOM     17  C   UNL d   1      -2.242  -5.040   2.610  0.00  0.00     0.013 A 
ATOM     18  C   UNL d   1      -2.419  -6.048   3.565  0.00  0.00     0.001 A 
ATOM     19  C   UNL d   1      -2.725  -7.342   3.168  0.00  0.00     0.001 A 
ENDBRANCH  10  11
ENDBRANCH   9  10
ENDBRANCH   1   9
BRANCH   4  20
ATOM     20  C   UNL d   1       2.538  -1.811  -0.071  0.00  0.00     0.008 A 
ATOM     21  C   UNL d   1       2.618  -3.033   0.606  0.00  0.00     0.015 A 
ATOM     22  C   UNL d   1       3.690  -3.903   0.391  0.00  0.00     0.001 A 
ATOM     23  C   UNL d   1       4.733  -3.528  -0.448  0.00  0.00     0.000 A 
ATOM     24  C   UNL d   1       4.713  -2.276  -1.058  0.00  0.00     0.001 A 
ATOM     25  C   UNL d   1       3.619  -1.421  -0.875  0.00  0.00     0.015 A 
ENDBRANCH   4  20
BRANCH   7  26
ATOM     26  C   UNL d   1      -1.524   2.662   0.119  0.00  0.00    -0.034 A 
ATOM     27  C   UNL d   1      -2.143   2.829   1.365  0.00  0.00     0.013 A 
ATOM     28  C   UNL d   1      -3.490   3.196   1.440  0.00  0.00     0.024 A 
ATOM     29  C   UNL d   1      -4.218   3.401   0.269  0.00  0.00     0.034 A 
ATOM     30  C   UNL d   1      -3.609   3.251  -0.976  0.00  0.00     0.024 A 
ATOM     31 CL   UNL d   1      -5.882   3.830   0.362  0.00  0.00    -0.084 Cl
ATOM     32  C   UNL d   1      -2.261   2.883  -1.051  0.00  0.00     0.013 A 
ENDBRANCH   7  26
TORSDOF 5
