REMARK  2 active torsions:
REMARK  status: ('A' for Active; 'I' for Inactive)
REMARK    1  A    between atoms: N_6  and  C_1 
REMARK    2  A    between atoms: C_10  and  C_5 
ROOT
ATOM      1  C   UNL d   1      -1.071  -1.514  -0.057  0.00  0.00     0.045 A 
ATOM      2  N   UNL d   1      -1.223   1.289  -0.013  0.00  0.00    -0.355 N 
ATOM      3  HN  UNL d   1      -1.281   2.307   0.019  1.00  0.00     0.166 HD
ATOM      4  C   UNL d   1      -2.304  -0.855  -0.053  0.00  0.00     0.060 A 
ATOM      5  C   UNL d   1      -2.351   0.539  -0.029  0.00  0.00     0.046 A 
ATOM      6  C   UNL d   1       0.110  -0.720  -0.091  0.00  0.00     0.017 A 
ATOM      7  C   UNL d   1      -0.031   0.679  -0.041  0.00  0.00     0.045 A 
ATOM      8  C   UNL d   1       1.417  -1.263  -0.194  0.00  0.00     0.016 A 
ATOM      9  C   UNL d   1       1.117   1.467  -0.022  0.00  0.00     0.030 A 
ATOM     10  C   UNL d   1       2.551  -0.456  -0.170  0.00  0.00     0.001 A 
ATOM     11  C   UNL d   1       2.400   0.916  -0.071  0.00  0.00     0.002 A 
ENDROOT
BRANCH   1  12
ATOM     12  N   UNL d   1      -0.973  -2.912  -0.027  0.00  0.00    -0.377 N 
ATOM     13  C   UNL d   1      -2.035  -3.763  -0.594  0.00  0.00     0.153 C 
ATOM     14  C   UNL d   1      -1.464  -5.190  -0.827  0.00  0.00     0.291 C 
ATOM     15  N   UNL d   1      -0.853  -5.795   0.384  0.00  0.00     0.087 N 
ATOM     16  C   UNL d   1       0.136  -4.861   0.971  0.00  0.00     0.291 C 
ATOM     17  C   UNL d   1      -0.205  -7.064   0.051  0.00  0.00     0.310 C 
ATOM     18  C   UNL d   1      -0.469  -3.467   1.251  0.00  0.00     0.153 C 
ENDBRANCH   1  12
BRANCH   5  19
ATOM     19  C   UNL d   1      -3.609   1.310  -0.021  0.00  0.00     0.006 A 
ATOM     20  C   UNL d   1      -4.782   0.846   0.575  0.00  0.00     0.101 A 
ATOM     21  N   UNL d   1      -5.964   1.516   0.608  0.00  0.00    -0.374 N 
ATOM     22  C   UNL d   1      -5.986   2.732   0.026  0.00  0.00     0.087 A 
ATOM     23  HN  UNL d   1      -6.793   1.118   1.050  1.00  0.00     0.164 HD
ATOM     24  C   UNL d   1      -4.887   3.305  -0.586  0.00  0.00     0.018 A 
ATOM     25  C   UNL d   1      -3.693   2.584  -0.606  0.00  0.00     0.016 A 
ENDBRANCH   5  19
TORSDOF 2
