REMARK  3 active torsions:
REMARK  status: ('A' for Active; 'I' for Inactive)
REMARK    1  A    between atoms: N_3  and  C_1 
REMARK    2  A    between atoms: N_2  and  C_4 
REMARK    3  A    between atoms: C_5  and  C_7 
ROOT
ATOM      1  C   UNL d   1       1.269  -0.172   0.128  0.00  0.00     0.130 A 
ATOM      2  C   UNL d   1       0.524  -1.355  -0.039  0.00  0.00     0.063 A 
ATOM      3  C   UNL d   1       0.679   1.107   0.077  0.00  0.00     0.054 A 
ATOM      4  C   UNL d   1      -0.689   1.238  -0.186  0.00  0.00     0.050 A 
ATOM      5  C   UNL d   1      -0.827  -1.183  -0.398  0.00  0.00     0.032 A 
ATOM      6  C   UNL d   1      -1.425   0.081  -0.471  0.00  0.00     0.018 A 
ENDROOT
BRANCH   2   7
ATOM      7  N   UNL d   1       0.936  -2.668   0.226  0.00  0.00    -0.378 N 
ATOM      8  C   UNL d   1       1.795  -2.899   1.397  0.00  0.00     0.131 C 
ATOM      9  C   UNL d   1       1.164  -3.930   2.355  0.00  0.00    -0.032 C 
ATOM     10  C   UNL d   1       1.321  -5.394   1.864  0.00  0.00     0.011 C 
ATOM     11  C   UNL d   1       1.881  -3.800   3.723  0.00  0.00     0.016 C 
ATOM     12  C   UNL d   1      -0.320  -3.585   2.629  0.00  0.00     0.016 C 
ATOM     13  C   UNL d   1       1.677  -5.655   0.393  0.00  0.00     0.007 C 
ATOM     14  C   UNL d   1       0.813  -5.012  -0.700  0.00  0.00    -0.001 C 
ATOM     15  C   UNL d   1       1.133  -3.523  -0.948  0.00  0.00     0.127 C 
ATOM     16  C   UNL d   1      -0.677  -5.327  -0.550  0.00  0.00     0.011 C 
ENDBRANCH   2   7
BRANCH   1  17
ATOM     17  N   UNL d   1       2.713  -0.200   0.321  0.00  0.00    -0.113 N 
ATOM     18  O   UNL d   1       3.393  -0.802  -0.523  0.00  0.00    -0.532 OA
ATOM     19  O   UNL d   1       3.163   0.414   1.296  0.00  0.00    -0.532 OA
ENDBRANCH   1  17
BRANCH   4  20
ATOM     20  C   UNL d   1      -1.373   2.583  -0.154  0.00  0.00     0.417 C 
ATOM     21  F   UNL d   1      -0.561   3.591   0.270  0.00  0.00    -0.166 F 
ATOM     22  F   UNL d   1      -1.840   2.961  -1.373  0.00  0.00    -0.166 F 
ATOM     23  F   UNL d   1      -2.447   2.596   0.684  0.00  0.00    -0.166 F 
ENDBRANCH   4  20
TORSDOF 3
