REMARK  6 active torsions:
REMARK  status: ('A' for Active; 'I' for Inactive)
REMARK    1  A    between atoms: C_8  and  N_1 
REMARK    2  A    between atoms: S_7  and  C_2 
REMARK    3  A    between atoms: C_11  and  S_7 
REMARK    4  A    between atoms: C_9  and  C_11 
REMARK    5  A    between atoms: C_10  and  C_9 
REMARK    6  A    between atoms: O_24  and  C_18 
ROOT
ATOM      1  N   UNL d   1       0.548   0.475  -0.141  0.00  0.00    -0.219 N 
ATOM      2  C   UNL d   1       1.012  -0.827   0.007  0.00  0.00     0.177 A 
ATOM      3  N   UNL d   1       0.292  -1.442   0.919  0.00  0.00    -0.264 N 
ATOM      4  HN  UNL d   1       0.371  -2.417   1.209  1.00  0.00     0.186 HD
ATOM      5  N   UNL d   1      -0.584  -0.510   1.402  0.00  0.00    -0.006 NA
ATOM      6  N   UNL d   1      -0.401   0.665   0.817  0.00  0.00     0.001 NA
ENDROOT
BRANCH   2   7
ATOM      7  S   UNL d   1       2.439  -1.478  -0.720  0.00  0.00    -0.084 SA
BRANCH   7   8
ATOM      8  C   UNL d   1       2.470  -3.163  -0.033  0.00  0.00     0.166 C 
BRANCH   8   9
ATOM      9  C   UNL d   1       3.727  -3.905  -0.463  0.00  0.00     0.169 C 
ATOM     10  O   UNL d   1       4.619  -3.405  -1.149  0.00  0.00    -0.291 OA
BRANCH   9  11
ATOM     11  C   UNL d   1       3.882  -5.331  -0.057  0.00  0.00     0.011 A 
ATOM     12  C   UNL d   1       4.754  -6.137  -0.808  0.00  0.00     0.018 A 
ATOM     13  C   UNL d   1       4.951  -7.478  -0.469  0.00  0.00     0.043 A 
ATOM     14  C   UNL d   1       4.283  -8.008   0.628  0.00  0.00     0.116 A 
ATOM     15  C   UNL d   1       3.421  -7.223   1.386  0.00  0.00     0.043 A 
ATOM     16  F   UNL d   1       4.476  -9.289   0.960  0.00  0.00    -0.206 F 
ATOM     17  C   UNL d   1       3.213  -5.881   1.046  0.00  0.00     0.018 A 
ENDBRANCH   9  11
ENDBRANCH   8   9
ENDBRANCH   7   8
ENDBRANCH   2   7
BRANCH   1  18
ATOM     18  C   UNL d   1       0.842   1.509  -1.071  0.00  0.00     0.057 A 
ATOM     19  C   UNL d   1       1.401   1.238  -2.326  0.00  0.00     0.034 A 
ATOM     20  C   UNL d   1       1.619   2.275  -3.237  0.00  0.00     0.039 A 
ATOM     21  C   UNL d   1       1.282   3.579  -2.900  0.00  0.00     0.065 A 
ATOM     22  C   UNL d   1       0.734   3.871  -1.655  0.00  0.00     0.039 A 
ATOM     23  C   UNL d   1       0.505   2.836  -0.745  0.00  0.00     0.034 A 
BRANCH  21  24
ATOM     24  O   UNL d   1       1.491   4.549  -3.833  0.00  0.00    -0.361 OA
ATOM     25  H   UNL d   1       1.144   5.391  -3.493  0.00  0.00     0.217 HD
ENDBRANCH  21  24
ENDBRANCH   1  18
TORSDOF 6
