REMARK  2 active torsions:
REMARK  status: ('A' for Active; 'I' for Inactive)
REMARK    1  A    between atoms: C_5  and  C_1 
REMARK    2  A    between atoms: N_3  and  C_5 
ROOT
ATOM      1  C   UNL d   1      -2.193  -1.831   0.036  0.00  0.00     0.312 C 
ENDROOT
BRANCH   1   2
ATOM      2  N   UNL d   1      -3.552  -1.238  -0.035  0.00  0.00     0.094 N 
ATOM      3  C   UNL d   1      -3.701  -0.431  -1.261  0.00  0.00     0.274 C 
ATOM      4  C   UNL d   1      -5.151  -0.104  -1.631  0.00  0.00     0.060 C 
ATOM      5  C   UNL d   1      -5.869   0.984  -0.832  0.00  0.00     0.271 C 
ATOM      6  N   UNL d   1      -5.253   1.428   0.409  0.00  0.00     0.085 N 
ATOM      7  C   UNL d   1      -5.077   0.324   1.351  0.00  0.00     0.299 C 
ATOM      8  H   UNL d   1      -4.350   1.866   0.218  0.00  0.00     0.315 HD
ATOM      9  C   UNL d   1      -3.744  -0.431   1.192  0.00  0.00     0.302 C 
ENDBRANCH   1   2
BRANCH   1  10
ATOM     10  C   UNL d   1      -1.967  -3.022  -0.877  0.00  0.00    -0.008 A 
ATOM     11  C   UNL d   1      -1.190  -2.961  -2.047  0.00  0.00     0.043 A 
ATOM     12  C   UNL d   1      -0.962  -4.107  -2.815  0.00  0.00     0.048 A 
ATOM     13 CL   UNL d   1      -0.459  -1.492  -2.596  0.00  0.00    -0.084 Cl
ATOM     14  C   UNL d   1      -1.495  -5.328  -2.414  0.00  0.00     0.035 A 
ATOM     15  C   UNL d   1      -2.271  -5.413  -1.265  0.00  0.00     0.024 A 
ATOM     16 CL   UNL d   1      -1.177  -6.744  -3.340  0.00  0.00    -0.084 Cl
ATOM     17  C   UNL d   1      -2.515  -4.266  -0.506  0.00  0.00     0.012 A 
ENDBRANCH   1  10
TORSDOF 2
