REMARK  2 active torsions:
REMARK  status: ('A' for Active; 'I' for Inactive)
REMARK       I    between atoms: N_2  and  C_1 
REMARK    1  A    between atoms: C_4  and  C_1 
REMARK    2  A    between atoms: C_3  and  N_2 
ROOT
ATOM      1  C   UNL d   1       1.139   0.043   0.032  0.00  0.00     0.256 C 
ATOM      2  N   UNL d   1       0.522  -0.592   1.090  0.00  0.00    -0.322 N 
ATOM      3  O   UNL d   1       2.326   0.345  -0.053  0.00  0.00    -0.267 OA
ATOM      4  H   UNL d   1      -0.355  -1.066   0.902  0.00  0.00     0.169 HD
ENDROOT
BRANCH   1   5
ATOM      5  C   UNL d   1       0.270   0.315  -1.135  0.00  0.00     0.032 A 
ATOM      6  C   UNL d   1      -0.949   0.985  -0.971  0.00  0.00     0.020 A 
ATOM      7  C   UNL d   1      -1.701   1.322  -2.097  0.00  0.00     0.043 A 
ATOM      8  C   UNL d   1      -1.237   0.980  -3.366  0.00  0.00     0.116 A 
ATOM      9  C   UNL d   1      -0.033   0.305  -3.534  0.00  0.00     0.043 A 
ATOM     10  F   UNL d   1      -1.956   1.321  -4.443  0.00  0.00    -0.206 F 
ATOM     11  C   UNL d   1       0.732  -0.023  -2.413  0.00  0.00     0.020 A 
ENDBRANCH   1   5
BRANCH   2  12
ATOM     12  C   UNL d   1       1.146  -0.906   2.321  0.00  0.00     0.051 A 
ATOM     13  C   UNL d   1       0.687  -1.987   3.093  0.00  0.00     0.033 A 
ATOM     14  I   UNL d   1      -0.907  -3.202   2.466  0.00  0.00    -0.042 I 
ATOM     15  C   UNL d   1       1.322  -2.323   4.295  0.00  0.00     0.020 A 
ATOM     16  C   UNL d   1       2.396  -1.561   4.755  0.00  0.00     0.001 A 
ATOM     17  C   UNL d   1       2.832  -0.464   4.019  0.00  0.00     0.002 A 
ATOM     18  C   UNL d   1       2.213  -0.142   2.808  0.00  0.00     0.031 A 
ENDBRANCH   2  12
TORSDOF 2
