REMARK  5 active torsions:
REMARK  status: ('A' for Active; 'I' for Inactive)
REMARK    1  A    between atoms: O_10  and  C_1 
REMARK    2  A    between atoms: C_8  and  N_2 
REMARK    3  A    between atoms: C_7  and  C_3 
REMARK    4  A    between atoms: S_11  and  C_7 
REMARK    5  A    between atoms: C_15  and  S_11 
ROOT
ATOM      1  C   UNL d   1      -0.389  -1.167  -0.145  0.00  0.00     0.176 C 
ATOM      2  N   UNL d   1       0.886  -0.640   0.062  0.00  0.00    -0.233 N 
ATOM      3  C   UNL d   1      -1.271  -0.091  -0.151  0.00  0.00     0.068 C 
ATOM      4  N   UNL d   1       0.827   0.673   0.375  0.00  0.00    -0.295 N 
ATOM      5  HN  UNL d   1       1.588   1.266   0.708  1.00  0.00     0.187 HD
ATOM      6  C   UNL d   1      -0.442   1.030   0.156  0.00  0.00     0.039 C 
ATOM      7  C   UNL d   1      -0.795   2.468   0.289  0.00  0.00     0.071 C 
ENDROOT
BRANCH   2   8
ATOM      8  C   UNL d   1       2.153  -1.286  -0.028  0.00  0.00     0.059 A 
ATOM      9  C   UNL d   1       2.333  -2.449  -0.787  0.00  0.00     0.031 A 
ATOM     10  C   UNL d   1       3.594  -3.048  -0.861  0.00  0.00     0.002 A 
ATOM     11  C   UNL d   1       4.678  -2.493  -0.183  0.00  0.00     0.000 A 
ATOM     12  C   UNL d   1       4.510  -1.325   0.559  0.00  0.00     0.002 A 
ATOM     13  C   UNL d   1       3.256  -0.715   0.627  0.00  0.00     0.031 A 
ENDBRANCH   2   8
BRANCH   1  14
ATOM     14  O   UNL d   1      -0.652  -2.470  -0.290  0.00  0.00    -0.344 OA
ATOM     15  H   UNL d   1       0.019  -2.978   0.204  0.00  0.00     0.219 HD
ENDBRANCH   1  14
BRANCH   3  16
ATOM     16  C   UNL d   1      -2.704  -0.168  -0.382  0.00  0.00     0.084 C 
ATOM     17  S   UNL d   1      -3.400   0.914  -1.449  0.00  0.00    -0.071 SA
BRANCH  16  18
ATOM     18  S   UNL d   1      -3.586  -1.364   0.555  0.00  0.00    -0.118 SA
BRANCH  18  19
ATOM     19  C   UNL d   1      -4.382  -2.293  -0.791  0.00  0.00     0.076 C 
ATOM     20  C   UNL d   1      -5.047  -3.551  -0.261  0.00  0.00     0.016 C 
ENDBRANCH  18  19
ENDBRANCH  16  18
ENDBRANCH   3  16
TORSDOF 5
