REMARK  8 active torsions:
REMARK  status: ('A' for Active; 'I' for Inactive)
REMARK    1  A    between atoms: O_7  and  N_1 
REMARK    2  A    between atoms: C_15  and  C_3 
REMARK    3  A    between atoms: C_4  and  O_7 
REMARK    4  A    between atoms: C_9  and  C_4 
REMARK    5  A    between atoms: C_5  and  C_8 
REMARK    6  A    between atoms: C_10  and  S_14 
REMARK    7  A    between atoms: O_25  and  C_11 
REMARK    8  A    between atoms: S_14  and  C_15 
ROOT
ATOM      1  C   UNL d   1       3.355   2.985  -2.072  0.00  0.00    -0.014 A 
ATOM      2  C   UNL d   1       3.154   0.828  -0.877  0.00  0.00    -0.011 A 
ATOM      3  C   UNL d   1       2.704   2.127  -1.155  0.00  0.00     0.024 A 
ATOM      4  C   UNL d   1       4.529   2.501  -2.683  0.00  0.00     0.075 A 
ATOM      5  C   UNL d   1       4.294   0.358  -1.517  0.00  0.00     0.016 A 
ATOM      6  C   UNL d   1       4.973   1.194  -2.407  0.00  0.00     0.038 A 
ENDROOT
BRANCH   2   7
ATOM      7  C   UNL d   1       2.347  -0.014   0.061  0.00  0.00     0.039 C 
ATOM      8  N   UNL d   1       1.061   0.176   0.112  0.00  0.00    -0.261 N 
ATOM      9  HN  UNL d   1       0.573   0.871  -0.452  1.00  0.00     0.194 HD
ATOM     10  C   UNL d   1       3.063  -1.027   0.924  0.00  0.00     0.071 C 
BRANCH   8  11
ATOM     11  O   UNL d   1       0.412  -0.677   1.027  0.00  0.00    -0.195 OA
BRANCH  11  12
ATOM     12  C   UNL d   1      -0.926  -0.383   1.064  0.00  0.00     0.315 C 
ATOM     13  O   UNL d   1      -1.511   0.506   0.458  0.00  0.00    -0.257 OA
BRANCH  12  14
ATOM     14  C   UNL d   1      -1.645  -1.318   1.976  0.00  0.00     0.041 A 
ATOM     15  C   UNL d   1      -3.030  -1.144   2.137  0.00  0.00     0.019 A 
ATOM     16  C   UNL d   1      -3.766  -1.994   2.971  0.00  0.00     0.025 A 
ATOM     17  C   UNL d   1      -3.117  -3.022   3.650  0.00  0.00     0.034 A 
ATOM     18  C   UNL d   1      -1.743  -3.207   3.502  0.00  0.00     0.025 A 
ATOM     19 CL   UNL d   1      -4.017  -4.071   4.675  0.00  0.00    -0.084 Cl
ATOM     20  C   UNL d   1      -1.006  -2.358   2.667  0.00  0.00     0.019 A 
ENDBRANCH  12  14
ENDBRANCH  11  12
ENDBRANCH   8  11
ENDBRANCH   2   7
BRANCH   1  21
ATOM     21  C   UNL d   1       2.770   4.346  -2.410  0.00  0.00     0.122 C 
BRANCH  21  22
ATOM     22  S   UNL d   1       1.147   4.753  -1.683  0.00  0.00    -0.108 SA
BRANCH  22  23
ATOM     23  C   UNL d   1       0.943   6.434  -2.221  0.00  0.00     0.069 A 
ATOM     24  N   UNL d   1       1.849   6.959  -3.075  0.00  0.00    -0.361 N 
ATOM     25  C   UNL d   1       1.648   8.235  -3.473  0.00  0.00     0.089 A 
ATOM     26  HN  UNL d   1       2.648   6.417  -3.405  1.00  0.00     0.165 HD
ATOM     27  C   UNL d   1       0.589   9.018  -3.048  0.00  0.00     0.017 A 
ATOM     28  C   UNL d   1      -0.327   8.462  -2.166  0.00  0.00     0.004 A 
ATOM     29  C   UNL d   1      -0.151   7.148  -1.746  0.00  0.00     0.037 A 
ENDBRANCH  22  23
ENDBRANCH  21  22
ENDBRANCH   1  21
BRANCH   4  30
ATOM     30  O   UNL d   1       5.286   3.112  -3.648  0.00  0.00    -0.355 OA
ATOM     31  C   UNL d   1       5.548   4.503  -3.530  0.00  0.00     0.210 C 
ENDBRANCH   4  30
TORSDOF 8
