REMARK  7 active torsions:
REMARK  status: ('A' for Active; 'I' for Inactive)
REMARK    1  A    between atoms: C_3  and  C_1 
REMARK    2  A    between atoms: N_4  and  C_2 
REMARK    3  A    between atoms: C_5  and  N_13 
REMARK    4  A    between atoms: N_10  and  C_5 
REMARK    5  A    between atoms: C_7  and  N_6 
REMARK    6  A    between atoms: C_19  and  N_10 
REMARK    7  A    between atoms: N_13  and  C_26 
ROOT
ATOM      1  C   UNL d   1      -3.340   6.112   1.131  0.00  0.00     0.082 A 
ATOM      2  N   UNL d   1      -2.750   7.228   0.650  0.00  0.00    -0.354 N 
ATOM      3  HN  UNL d   1      -2.007   7.164  -0.046  1.00  0.00     0.166 HD
ATOM      4  C   UNL d   1      -4.402   6.224   2.035  0.00  0.00     0.044 A 
ATOM      5  C   UNL d   1      -3.167   8.438   1.111  0.00  0.00     0.118 A 
ATOM      6  C   UNL d   1      -4.156   8.609   2.069  0.00  0.00     0.049 A 
ATOM      7  C   UNL d   1      -4.785   7.465   2.535  0.00  0.00     0.034 A 
ENDROOT
BRANCH   1   8
ATOM      8  N   UNL d   1      -2.909   4.845   0.701  0.00  0.00    -0.267 NA
ATOM      9  C   UNL d   1      -2.777   3.838   1.784  0.00  0.00     0.112 C 
ATOM     10  C   UNL d   1      -2.490   2.447   1.184  0.00  0.00     0.112 C 
ATOM     11  N   UNL d   1      -1.223   2.520   0.428  0.00  0.00    -0.266 NA
ATOM     12  C   UNL d   1      -1.364   3.453  -0.716  0.00  0.00     0.112 C 
ATOM     13  C   UNL d   1      -1.707   4.876  -0.181  0.00  0.00     0.112 C 
BRANCH  11  14
ATOM     14  C   UNL d   1      -0.659   1.278   0.158  0.00  0.00     0.097 A 
ATOM     15  C   UNL d   1      -0.015   0.548   1.161  0.00  0.00     0.086 A 
ATOM     16  C   UNL d   1       0.534  -0.707   0.830  0.00  0.00     0.021 A 
ATOM     17  C   UNL d   1       0.449  -1.189  -0.465  0.00  0.00     0.018 A 
ATOM     18  C   UNL d   1      -0.184  -0.395  -1.397  0.00  0.00     0.089 A 
ATOM     19  N   UNL d   1      -0.730   0.810  -1.112  0.00  0.00    -0.356 N 
ATOM     20  HN  UNL d   1      -1.188   1.357  -1.841  1.00  0.00     0.166 HD
BRANCH  15  21
ATOM     21  C   UNL d   1       0.156   1.027   2.573  0.00  0.00     0.420 C 
ATOM     22  F   UNL d   1      -0.258   2.290   2.868  0.00  0.00    -0.166 F 
ATOM     23  F   UNL d   1      -0.515   0.224   3.455  0.00  0.00    -0.166 F 
ATOM     24  F   UNL d   1       1.461   0.980   2.976  0.00  0.00    -0.166 F 
ENDBRANCH  15  21
ENDBRANCH  11  14
ENDBRANCH   1   8
BRANCH   6  25
ATOM     25  N   UNL d   1      -4.480   9.832   2.684  0.00  0.00    -0.332 N 
ATOM     26  H   UNL d   1      -4.992   9.780   3.552  0.00  0.00     0.168 HD
BRANCH  25  27
ATOM     27  C   UNL d   1      -4.304  11.104   2.219  0.00  0.00     0.176 C 
ATOM     28  S   UNL d   1      -4.534  11.603   0.639  0.00  0.00    -0.041 SA
BRANCH  27  29
ATOM     29  N   UNL d   1      -4.065  12.066   3.165  0.00  0.00    -0.333 N 
ATOM     30  H   UNL d   1      -4.227  13.009   2.823  0.00  0.00     0.168 HD
BRANCH  29  31
ATOM     31  C   UNL d   1      -3.459  11.967   4.438  0.00  0.00     0.035 A 
ATOM     32  C   UNL d   1      -2.783  10.833   4.897  0.00  0.00     0.053 A 
ATOM     33  C   UNL d   1      -2.172  10.841   6.154  0.00  0.00     0.036 A 
ATOM     34 CL   UNL d   1      -1.341   9.438   6.706  0.00  0.00    -0.084 Cl
ATOM     35  C   UNL d   1      -2.216  11.976   6.959  0.00  0.00     0.024 A 
ATOM     36  C   UNL d   1      -2.869  13.117   6.500  0.00  0.00     0.004 A 
ATOM     37  C   UNL d   1      -3.482  13.113   5.244  0.00  0.00     0.029 A 
ENDBRANCH  29  31
ENDBRANCH  27  29
ENDBRANCH  25  27
ENDBRANCH   6  25
TORSDOF 7
