REMARK  7 active torsions:
REMARK  status: ('A' for Active; 'I' for Inactive)
REMARK    1  A    between atoms: C_8  and  N_1 
REMARK    2  A    between atoms: C_2  and  O_6 
REMARK    3  A    between atoms: C_3  and  C_2 
REMARK    4  A    between atoms: O_6  and  N_4 
REMARK    5  A    between atoms: C_9  and  C_18 
REMARK    6  A    between atoms: N_19  and  C_9 
REMARK    7  A    between atoms: C_18  and  C_20 
ROOT
ATOM      1  N   UNL d   1       0.421  -5.378  -1.997  0.00  0.00    -0.245 N 
ATOM      2  HN  UNL d   1       0.971  -6.215  -1.803  1.00  0.00     0.196 HD
ATOM      3  C   UNL d   1      -0.628  -5.357  -2.760  0.00  0.00     0.100 C 
ENDROOT
BRANCH   3   4
ATOM      4  C   UNL d   1      -1.040  -6.676  -3.409  0.00  0.00     0.116 C 
BRANCH   4   5
ATOM      5  C   UNL d   1      -1.974  -7.517  -2.564  0.00  0.00    -0.051 A 
ATOM      6  C   UNL d   1      -3.225  -7.908  -3.067  0.00  0.00     0.010 A 
ATOM      7  C   UNL d   1      -4.053  -8.764  -2.333  0.00  0.00     0.036 A 
ATOM      8  C   UNL d   1      -3.627  -9.237  -1.086  0.00  0.00     0.102 A 
ATOM      9  C   UNL d   1      -2.389  -8.845  -0.564  0.00  0.00     0.036 A 
ATOM     10  C   UNL d   1      -1.568  -7.991  -1.306  0.00  0.00     0.010 A 
BRANCH   8  11
ATOM     11  N   UNL d   1      -4.476 -10.167  -0.331  0.00  0.00    -0.116 N 
ATOM     12  O   UNL d   1      -4.055 -10.580   0.759  0.00  0.00    -0.532 OA
ATOM     13  O   UNL d   1      -5.565 -10.488  -0.830  0.00  0.00    -0.532 OA
ENDBRANCH   8  11
ENDBRANCH   4   5
ENDBRANCH   3   4
BRANCH   3  14
ATOM     14  N   UNL d   1      -1.383  -4.242  -3.029  0.00  0.00    -0.387 N 
ATOM     15  H   UNL d   1      -1.226  -3.467  -2.394  0.00  0.00     0.157 HD
ATOM     16  H   UNL d   1      -2.356  -4.387  -3.274  0.00  0.00     0.157 HD
ENDBRANCH   3  14
BRANCH   1  17
ATOM     17  O   UNL d   1       0.709  -4.101  -1.465  0.00  0.00    -0.193 OA
BRANCH  17  18
ATOM     18  C   UNL d   1       1.895  -4.145  -0.758  0.00  0.00     0.322 C 
ATOM     19  O   UNL d   1       2.604  -5.138  -0.624  0.00  0.00    -0.257 OA
BRANCH  18  20
ATOM     20  C   UNL d   1       2.215  -2.849  -0.173  0.00  0.00     0.082 A 
ATOM     21  S   UNL d   1       1.207  -1.472  -0.330  0.00  0.00    -0.096 SA
ATOM     22  C   UNL d   1       2.262  -0.502   0.605  0.00  0.00     0.050 A 
ATOM     23  C   UNL d   1       3.368  -1.203   1.028  0.00  0.00     0.009 A 
ATOM     24  C   UNL d   1       3.341  -2.553   0.578  0.00  0.00     0.026 A 
ENDBRANCH  18  20
ENDBRANCH  17  18
ENDBRANCH   1  17
TORSDOF 7
