REMARK  1 active torsions:
REMARK  status: ('A' for Active; 'I' for Inactive)
REMARK    1  A    between atoms: C_2  and  C_1 
ROOT
ATOM      1  C   UNL d   1       3.653   0.169   0.001  0.00  0.00     0.057 A 
ATOM      2  N   UNL d   1       4.313   1.373   0.174  0.00  0.00    -0.347 N 
ATOM      3  HN  UNL d   1       3.851   2.274   0.294  1.00  0.00     0.167 HD
ATOM      4  C   UNL d   1       5.616   1.196   0.163  0.00  0.00     0.111 A 
ATOM      5  C   UNL d   1       6.524   2.291   0.336  0.00  0.00     0.134 A 
ATOM      6  S   UNL d   1       6.135  -0.420  -0.062  0.00  0.00    -0.079 SA
ATOM      7  C   UNL d   1       4.494  -0.920  -0.135  0.00  0.00     0.082 A 
ATOM      8  N   UNL d   1       8.480   3.408   0.509  0.00  0.00    -0.272 N 
ATOM      9  HN  UNL d   1       9.477   3.621   0.535  1.00  0.00     0.194 HD
ATOM     10  O   UNL d   1       7.889   2.172   0.301  0.00  0.00    -0.236 OA
ATOM     11  C   UNL d   1       6.223   3.620   0.569  0.00  0.00     0.061 A 
ATOM     12  C   UNL d   1       7.467   4.260   0.669  0.00  0.00     0.117 A 
ENDROOT
BRANCH   1  13
ATOM     13  C   UNL d   1       2.144   0.086  -0.023  0.00  0.00     0.039 A 
ATOM     14  S   UNL d   1       1.321  -1.412  -0.106  0.00  0.00    -0.087 SA
ATOM     15  C   UNL d   1      -0.226  -0.683  -0.049  0.00  0.00     0.016 A 
ATOM     16  C   UNL d   1      -1.474  -1.339  -0.057  0.00  0.00     0.019 A 
ATOM     17  C   UNL d   1      -0.126   0.706   0.005  0.00  0.00    -0.012 A 
ATOM     18  C   UNL d   1      -2.643  -0.576  -0.016  0.00  0.00     0.001 A 
ATOM     19  C   UNL d   1      -2.576   0.807   0.028  0.00  0.00     0.001 A 
ATOM     20  C   UNL d   1      -1.336   1.450   0.039  0.00  0.00     0.013 A 
ATOM     21  C   UNL d   1       1.260   1.158   0.021  0.00  0.00    -0.031 A 
ATOM     22  C   UNL d   1       1.582   2.622   0.080  0.00  0.00     0.050 C 
ENDBRANCH   1  13
TORSDOF 1
