REMARK  3 active torsions:
REMARK  status: ('A' for Active; 'I' for Inactive)
REMARK    1  A    between atoms: C_17  and  N_9 
REMARK    2  A    between atoms: C_13  and  C_18 
REMARK    3  A    between atoms: C_18  and  C_17 
ROOT
ATOM      1  C   UNL d   1       0.070  -0.747   0.082  0.00  0.00     0.101 A 
ATOM      2  C   UNL d   1       0.054   0.596   0.096  0.00  0.00     0.077 A 
ATOM      3  N   UNL d   1       1.280  -1.407  -0.039  0.00  0.00    -0.293 N 
ATOM      4  N   UNL d   1       2.472   0.633   0.005  0.00  0.00    -0.270 N 
ATOM      5  C   UNL d   1       2.510  -0.749  -0.079  0.00  0.00     0.332 A 
ATOM      6  C   UNL d   1       1.309   1.365   0.071  0.00  0.00     0.262 A 
ATOM      7  N   UNL d   1      -1.146  -1.420   0.182  0.00  0.00    -0.252 NA
ATOM      8  C   UNL d   1      -1.216   1.398   0.097  0.00  0.00     0.321 C 
ATOM      9  N   UNL d   1      -2.406   0.634  -0.329  0.00  0.00     0.106 N 
ATOM     10  C   UNL d   1      -2.373  -0.654   0.350  0.00  0.00     0.368 C 
ATOM     11  O   UNL d   1       3.573  -1.370  -0.179  0.00  0.00    -0.246 OA
ATOM     12  O   UNL d   1       1.279   2.595   0.121  0.00  0.00    -0.267 OA
ATOM     13  C   UNL d   1       1.346  -2.860  -0.082  0.00  0.00     0.162 C 
ATOM     14  C   UNL d   1       3.714   1.381   0.019  0.00  0.00     0.164 C 
ATOM     15  H   UNL d   1      -1.236  -2.113  -0.554  0.00  0.00     0.130 HD
ENDROOT
BRANCH   9  16
ATOM     16  C   UNL d   1      -3.655   1.364  -0.063  0.00  0.00     0.278 C 
BRANCH  16  17
ATOM     17  C   UNL d   1      -3.754   2.676  -0.868  0.00  0.00     0.064 C 
BRANCH  17  18
ATOM     18  C   UNL d   1      -5.015   3.461  -0.595  0.00  0.00    -0.082 C 
ATOM     19  C   UNL d   1      -4.965   4.695  -0.060  0.00  0.00    -0.024 C 
ATOM     20  C   UNL d   1      -6.175   5.531   0.233  0.00  0.00     0.027 C 
ATOM     21  C   UNL d   1      -7.481   4.743   0.150  0.00  0.00     0.004 C 
ATOM     22  C   UNL d   1      -7.485   3.813  -1.059  0.00  0.00     0.005 C 
ATOM     23  C   UNL d   1      -6.323   2.820  -0.993  0.00  0.00     0.034 C 
ENDBRANCH  17  18
ENDBRANCH  16  17
ENDBRANCH   9  16
TORSDOF 3
