REMARK  3 active torsions:
REMARK  status: ('A' for Active; 'I' for Inactive)
REMARK    1  A    between atoms: C_1  and  O_7 
REMARK    2  A    between atoms: C_4  and  C_10 
REMARK    3  A    between atoms: C_8  and  O_7 
ROOT
ATOM      1  C   UNL d   1      -2.346   0.169  -0.328  0.00  0.00     0.240 C 
ATOM      2  C   UNL d   1      -1.337  -0.937  -0.068  0.00  0.00     0.194 C 
ATOM      3  O   UNL d   1      -0.541   1.822  -0.221  0.00  0.00    -0.337 OA
ATOM      4  C   UNL d   1      -1.795   1.423   0.361  0.00  0.00     0.199 C 
ATOM      5  C   UNL d   1       0.081  -0.533  -0.086  0.00  0.00     0.046 A 
ATOM      6  C   UNL d   1       0.400   0.826  -0.164  0.00  0.00     0.083 A 
ATOM      7  O   UNL d   1      -1.641  -2.106   0.162  0.00  0.00    -0.289 OA
ATOM      8  C   UNL d   1       1.092  -1.495  -0.001  0.00  0.00     0.018 A 
ATOM      9  C   UNL d   1       1.735   1.219  -0.188  0.00  0.00     0.038 A 
ATOM     10  C   UNL d   1       2.427  -1.096  -0.002  0.00  0.00     0.001 A 
ATOM     11  C   UNL d   1       2.749   0.259  -0.098  0.00  0.00     0.003 A 
ENDROOT
BRANCH   4  12
ATOM     12  C   UNL d   1      -2.762   2.595   0.278  0.00  0.00    -0.026 A 
ATOM     13  C   UNL d   1      -3.111   3.186  -0.946  0.00  0.00     0.010 A 
ATOM     14  C   UNL d   1      -4.053   4.218  -0.991  0.00  0.00     0.001 A 
ATOM     15  C   UNL d   1      -4.649   4.676   0.183  0.00  0.00     0.000 A 
ATOM     16  C   UNL d   1      -4.298   4.112   1.406  0.00  0.00     0.001 A 
ATOM     17  C   UNL d   1      -3.360   3.080   1.454  0.00  0.00     0.010 A 
ENDBRANCH   4  12
BRANCH   1  18
ATOM     18  O   UNL d   1      -3.604  -0.198   0.256  0.00  0.00    -0.305 OA
BRANCH  18  19
ATOM     19  C   UNL d   1      -4.416  -0.943  -0.541  0.00  0.00     0.255 C 
ATOM     20  O   UNL d   1      -4.168  -1.285  -1.688  0.00  0.00    -0.266 OA
ATOM     21  C   UNL d   1      -5.670  -1.305   0.196  0.00  0.00     0.126 C 
ENDBRANCH  18  19
ENDBRANCH   1  18
TORSDOF 3
