REMARK  3 active torsions:
REMARK  status: ('A' for Active; 'I' for Inactive)
REMARK    1  A    between atoms: C_9  and  N_6 
REMARK    2  A    between atoms: C_10  and  C_9 
REMARK    3  A    between atoms: C_11  and  C_10 
ROOT
ATOM      1  C   UNL d   1      -0.409  -1.161   0.062  0.00  0.00     0.709 A 
ATOM      2  N   UNL d   1       0.584  -0.571   0.736  0.00  0.00    -0.116 N 
ATOM      3  HN  UNL d   1       1.153  -0.929   1.503  1.00  0.00     0.207 HD
ATOM      4  N   UNL d   1      -0.997  -0.317  -0.848  0.00  0.00    -0.113 N 
ATOM      5  HN  UNL d   1      -1.789  -0.534  -1.452  1.00  0.00     0.203 HD
ATOM      6  N   UNL d   1       0.625   0.628   0.121  0.00  0.00    -0.196 N 
ATOM      7  N   UNL d   1      -0.341   0.831  -0.793  0.00  0.00     0.011 NA
ATOM      8  N   UNL d   1      -0.760  -2.459   0.138  0.00  0.00    -0.211 N 
ATOM      9  O   UNL d   1      -1.058  -5.279   0.111  0.00  0.00    -0.388 OA
ATOM     10  C   UNL d   1      -1.565  -3.098  -0.900  0.00  0.00     0.167 C 
ATOM     11  C   UNL d   1      -0.659  -3.208   1.389  0.00  0.00     0.167 C 
ATOM     12  C   UNL d   1      -0.215  -4.649   1.093  0.00  0.00     0.188 C 
ATOM     13  C   UNL d   1      -1.044  -4.529  -1.116  0.00  0.00     0.188 C 
ENDROOT
BRANCH   6  14
ATOM     14  C   UNL d   1       1.851   1.388   0.047  0.00  0.00     0.246 C 
BRANCH  14  15
ATOM     15  C   UNL d   1       1.974   2.415   1.134  0.00  0.00     0.155 C 
ATOM     16  O   UNL d   1       2.675   2.167   2.127  0.00  0.00    -0.295 OA
BRANCH  15  17
ATOM     17  C   UNL d   1       1.242   3.771   1.036  0.00  0.00     0.011 C 
ATOM     18  C   UNL d   1       0.086   3.752   2.043  0.00  0.00     0.022 C 
ATOM     19  C   UNL d   1       2.245   4.875   1.426  0.00  0.00     0.022 C 
ATOM     20  C   UNL d   1       0.705   4.110  -0.359  0.00  0.00     0.022 C 
ENDBRANCH  15  17
ENDBRANCH  14  15
ENDBRANCH   6  14
TORSDOF 3
