REMARK  8 active torsions:
REMARK  status: ('A' for Active; 'I' for Inactive)
REMARK    1  A    between atoms: N_2  and  C_1 
REMARK    2  A    between atoms: C_3  and  C_1 
REMARK    3  A    between atoms: C_5  and  C_1 
REMARK    4  A    between atoms: N_6  and  C_1 
REMARK       I    between atoms: C_4  and  N_2 
REMARK    5  A    between atoms: C_7  and  C_4 
REMARK    6  A    between atoms: O_15  and  C_5 
REMARK    7  A    between atoms: C_14  and  N_6 
REMARK    8  A    between atoms: C_26  and  O_15 
ROOT
ATOM      1  C   UNL d   1       0.767  -0.074   0.140  0.00  0.00     0.297 C 
ENDROOT
BRANCH   1   2
ATOM      2  N   UNL d   1       0.489  -1.000  -0.980  0.00  0.00    -0.315 N 
ATOM      3  C   UNL d   1       0.088  -2.304  -0.868  0.00  0.00     0.254 C 
ATOM      4  O   UNL d   1      -0.026  -2.863   0.215  0.00  0.00    -0.268 OA
ATOM      5  H   UNL d   1       0.715  -0.641  -1.887  0.00  0.00     0.166 HD
BRANCH   3   6
ATOM      6  C   UNL d   1      -0.226  -3.039  -2.150  0.00  0.00     0.032 A 
ATOM      7  C   UNL d   1      -0.699  -4.362  -2.046  0.00  0.00     0.023 A 
ATOM      8  C   UNL d   1      -1.006  -5.120  -3.188  0.00  0.00    -0.061 A 
ATOM      9  C   UNL d   1      -1.508  -6.530  -3.064  0.00  0.00     0.048 C 
ATOM     10  C   UNL d   1      -0.868  -4.539  -4.453  0.00  0.00     0.007 A 
ATOM     11  C   UNL d   1      -0.424  -3.228  -4.570  0.00  0.00     0.002 A 
ATOM     12  C   UNL d   1      -0.107  -2.476  -3.430  0.00  0.00     0.017 A 
ENDBRANCH   3   6
ENDBRANCH   1   2
BRANCH   1  13
ATOM     13  C   UNL d   1      -0.153  -0.157   1.420  0.00  0.00     0.442 C 
ATOM     14  F   UNL d   1      -1.247  -0.935   1.285  0.00  0.00    -0.166 F 
ATOM     15  F   UNL d   1       0.558  -0.616   2.489  0.00  0.00    -0.166 F 
ATOM     16  F   UNL d   1      -0.626   1.061   1.810  0.00  0.00    -0.166 F 
ENDBRANCH   1  13
BRANCH   1  17
ATOM     17  C   UNL d   1       0.442   1.345  -0.389  0.00  0.00     0.318 C 
ATOM     18  O   UNL d   1      -0.348   1.562  -1.300  0.00  0.00    -0.260 OA
BRANCH  17  19
ATOM     19  O   UNL d   1       1.140   2.327   0.259  0.00  0.00    -0.318 OA
BRANCH  19  20
ATOM     20  C   UNL d   1       0.829   3.674  -0.127  0.00  0.00     0.174 C 
ATOM     21  C   UNL d   1       1.527   4.057  -1.420  0.00  0.00     0.034 C 
ENDBRANCH  19  20
ENDBRANCH  17  19
ENDBRANCH   1  17
BRANCH   1  22
ATOM     22  N   UNL d   1       2.219  -0.228   0.446  0.00  0.00    -0.348 N 
ATOM     23  H   UNL d   1       2.401  -0.230   1.450  0.00  0.00     0.163 HD
BRANCH  22  24
ATOM     24  C   UNL d   1       3.314   0.052  -0.347  0.00  0.00     0.030 A 
ATOM     25  C   UNL d   1       3.239   0.445  -1.689  0.00  0.00     0.031 A 
ATOM     26  C   UNL d   1       4.386   0.570  -2.484  0.00  0.00     0.026 A 
ATOM     27  C   UNL d   1       5.636   0.307  -1.942  0.00  0.00     0.034 A 
ATOM     28  C   UNL d   1       5.750  -0.056  -0.607  0.00  0.00     0.026 A 
ATOM     29 CL   UNL d   1       7.035   0.415  -2.933  0.00  0.00    -0.084 Cl
ATOM     30  C   UNL d   1       4.596  -0.187   0.176  0.00  0.00     0.031 A 
ENDBRANCH  22  24
ENDBRANCH   1  22
TORSDOF 8
