REMARK  2 active torsions:
REMARK  status: ('A' for Active; 'I' for Inactive)
REMARK       I    between atoms: N_2  and  C_1 
REMARK    1  A    between atoms: C_5  and  C_1 
REMARK    2  A    between atoms: C_7  and  N_2 
ROOT
ATOM      1  C   UNL d   1       4.344  -2.720   2.923  0.00  0.00    -0.078 C 
ATOM      2  C   UNL d   1       5.454  -2.466   3.302  0.00  0.00     0.018 C 
ATOM      3  C   UNL d   1       1.090  -2.102   1.212  0.00  0.00     0.036 A 
ATOM      4  C   UNL d   1       3.024  -2.952   2.420  0.00  0.00     0.019 A 
ATOM      5  C   UNL d   1       2.356  -1.910   1.771  0.00  0.00     0.050 A 
ATOM      6  C   UNL d   1       1.127  -4.388   2.035  0.00  0.00     0.004 A 
ATOM      7  C   UNL d   1       0.465  -3.343   1.378  0.00  0.00     0.029 A 
ATOM      8  C   UNL d   1       2.413  -4.197   2.545  0.00  0.00     0.021 A 
ENDROOT
BRANCH   3   9
ATOM      9  N   UNL d   1       0.417  -1.101   0.469  0.00  0.00    -0.323 N 
ATOM     10  C   UNL d   1       1.018   0.038  -0.049  0.00  0.00     0.256 C 
ATOM     11  O   UNL d   1       2.207   0.330   0.031  0.00  0.00    -0.267 OA
ATOM     12  H   UNL d   1      -0.520  -1.322   0.161  0.00  0.00     0.169 HD
BRANCH  10  13
ATOM     13  C   UNL d   1       0.155   0.966  -0.828  0.00  0.00     0.032 A 
ATOM     14  C   UNL d   1      -1.201   1.164  -0.544  0.00  0.00     0.018 A 
ATOM     15  C   UNL d   1      -1.925   2.120  -1.269  0.00  0.00     0.025 A 
ATOM     16  C   UNL d   1      -1.299   2.873  -2.265  0.00  0.00     0.034 A 
ATOM     17  C   UNL d   1       0.049   2.678  -2.553  0.00  0.00     0.025 A 
ATOM     18 CL   UNL d   1      -2.188   4.067  -3.125  0.00  0.00    -0.084 Cl
ATOM     19  C   UNL d   1       0.770   1.728  -1.834  0.00  0.00     0.018 A 
ENDBRANCH  10  13
ENDBRANCH   3   9
TORSDOF 2
