REMARK  5 active torsions:
REMARK  status: ('A' for Active; 'I' for Inactive)
REMARK    1  A    between atoms: C_4  and  N_6 
REMARK    2  A    between atoms: C_14  and  C_5 
REMARK    3  A    between atoms: C_15  and  C_5 
REMARK    4  A    between atoms: O_16  and  C_14 
REMARK    5  A    between atoms: O_17  and  C_15 
ROOT
ATOM      1  C   UNL d   1      -1.179  -3.068  -0.258  0.00  0.00     0.141 C 
ATOM      2  N   UNL d   1      -1.562  -4.300  -0.234  0.00  0.00    -0.356 N 
ATOM      3  HN  UNL d   1      -1.023  -5.063   0.175  1.00  0.00     0.162 HD
ATOM      4  C   UNL d   1      -2.898  -4.463  -0.882  0.00  0.00     0.083 C 
ATOM      5  N   UNL d   1       0.002  -2.535   0.157  0.00  0.00    -0.336 N 
ATOM      6  S   UNL d   1      -2.325  -1.891  -0.864  0.00  0.00    -0.091 SA
ATOM      7  C   UNL d   1      -3.645  -3.124  -0.836  0.00  0.00     0.117 C 
ATOM      8  H   UNL d   1       0.086  -1.535   0.015  0.00  0.00     0.168 HD
ENDROOT
BRANCH   5   9
ATOM      9  C   UNL d   1       1.258  -3.177   0.231  0.00  0.00     0.046 A 
ATOM     10  C   UNL d   1       1.732  -4.070  -0.755  0.00  0.00    -0.034 A 
ATOM     11  C   UNL d   1       3.010  -4.649  -0.615  0.00  0.00     0.015 A 
ATOM     12  C   UNL d   1       0.958  -4.465  -1.984  0.00  0.00     0.050 C 
ATOM     13  C   UNL d   1       3.855  -4.313   0.441  0.00  0.00    -0.061 A 
ATOM     14  C   UNL d   1       3.408  -3.393   1.388  0.00  0.00     0.015 A 
ATOM     15  C   UNL d   1       5.217  -4.932   0.534  0.00  0.00     0.048 C 
ATOM     16  C   UNL d   1       2.120  -2.829   1.299  0.00  0.00    -0.034 A 
ATOM     17  C   UNL d   1       1.736  -1.831   2.365  0.00  0.00     0.050 C 
ENDBRANCH   5   9
BRANCH   4  18
ATOM     18  C   UNL d   1      -3.666  -5.535  -0.085  0.00  0.00     0.198 C 
BRANCH  18  19
ATOM     19  O   UNL d   1      -3.712  -5.194   1.301  0.00  0.00    -0.398 OA
ATOM     20  H   UNL d   1      -2.785  -4.983   1.536  0.00  0.00     0.209 HD
ENDBRANCH  18  19
ENDBRANCH   4  18
BRANCH   4  21
ATOM     21  C   UNL d   1      -2.685  -4.955  -2.333  0.00  0.00     0.198 C 
BRANCH  21  22
ATOM     22  O   UNL d   1      -3.916  -5.230  -2.992  0.00  0.00    -0.398 OA
ATOM     23  H   UNL d   1      -4.097  -6.182  -2.897  0.00  0.00     0.209 HD
ENDBRANCH  21  22
ENDBRANCH   4  21
TORSDOF 5
