REMARK  0 active torsions:
REMARK  status: ('A' for Active; 'I' for Inactive)
ROOT
ATOM      1  C   UNL d   1       2.717  -0.746  -0.002  0.00  0.00     0.134 A 
ATOM      2  C   UNL d   1       1.768   0.244  -0.002  0.00  0.00     0.104 A 
ATOM      3  N   UNL d   1       4.080  -0.340  -0.002  0.00  0.00    -0.288 N 
ATOM      4  N   UNL d   1       3.513   1.966  -0.004  0.00  0.00    -0.270 N 
ATOM      5  N   UNL d   1       2.245  -2.100  -0.004  0.00  0.00    -0.303 N 
ATOM      6  C   UNL d   1       4.485   1.012  -0.005  0.00  0.00     0.332 A 
ATOM      7  C   UNL d   1       2.173   1.687  -0.002  0.00  0.00     0.267 A 
ATOM      8  C   UNL d   1      -0.115  -1.367  -0.003  0.00  0.00     0.061 A 
ATOM      9  C   UNL d   1       0.314  -0.068  -0.002  0.00  0.00     0.068 A 
ATOM     10  C   UNL d   1       0.866  -2.431  -0.003  0.00  0.00     0.261 A 
ATOM     11  N   UNL d   1      -0.595   0.941  -0.000  0.00  0.00    -0.354 N 
ATOM     12  HN  UNL d   1      -0.271   1.908   0.001  1.00  0.00     0.166 HD
ATOM     13  C   UNL d   1      -1.482  -1.665  -0.003  0.00  0.00     0.033 A 
ATOM     14  C   UNL d   1      -1.919   0.684  -0.000  0.00  0.00     0.044 A 
ATOM     15  C   UNL d   1      -2.414  -0.631  -0.002  0.00  0.00    -0.008 A 
ATOM     16  O   UNL d   1       5.679   1.334  -0.007  0.00  0.00    -0.246 OA
ATOM     17  O   UNL d   1       1.360   2.611  -0.000  0.00  0.00    -0.267 OA
ATOM     18  C   UNL d   1      -2.838   1.725   0.001  0.00  0.00     0.054 A 
ATOM     19  O   UNL d   1       0.434  -3.586  -0.002  0.00  0.00    -0.267 OA
ATOM     20  C   UNL d   1       5.279  -1.153   0.001  0.00  0.00     0.163 C 
ATOM     21  C   UNL d   1       3.900   3.369  -0.004  0.00  0.00     0.164 C 
ATOM     22  C   UNL d   1       2.978  -3.349  -0.004  0.00  0.00     0.161 C 
ATOM     23  C   UNL d   1      -3.795  -0.886  -0.002  0.00  0.00     0.015 A 
ATOM     24  C   UNL d   1      -4.212   1.476   0.001  0.00  0.00     0.036 A 
ATOM     25  C   UNL d   1      -4.696   0.172  -0.001  0.00  0.00     0.025 A 
ATOM     26 CL   UNL d   1      -5.323   2.790   0.002  0.00  0.00    -0.084 Cl
ENDROOT
TORSDOF 0
