REMARK  6 active torsions:
REMARK  status: ('A' for Active; 'I' for Inactive)
REMARK    1  A    between atoms: C_7  and  C_1 
REMARK    2  A    between atoms: C_12  and  C_5 
REMARK    3  A    between atoms: S_22  and  C_10 
REMARK    4  A    between atoms: C_14  and  C_29 
REMARK       I    between atoms: N_18  and  C_14 
REMARK    5  A    between atoms: C_21  and  N_18 
REMARK    6  A    between atoms: C_29  and  S_22 
ROOT
ATOM      1  C   UNL d   1      -0.369  -2.612  -0.172  0.00  0.00     0.054 A 
ATOM      2  N   UNL d   1       0.426  -3.370   0.609  0.00  0.00    -0.336 N 
ATOM      3  HN  UNL d   1       1.086  -2.956   1.268  1.00  0.00     0.168 HD
ATOM      4  C   UNL d   1       0.305  -4.696   0.472  0.00  0.00     0.145 A 
ATOM      5  N   UNL d   1      -0.539  -5.319  -0.362  0.00  0.00    -0.347 N 
ATOM      6  HN  UNL d   1      -0.588  -6.336  -0.419  1.00  0.00     0.167 HD
ATOM      7  C   UNL d   1      -1.268  -3.155  -1.067  0.00  0.00     0.048 A 
ATOM      8  C   UNL d   1      -1.315  -4.526  -1.119  0.00  0.00     0.092 A 
ENDROOT
BRANCH   4   9
ATOM      9  S   UNL d   1       1.503  -5.672   1.341  0.00  0.00    -0.085 SA
BRANCH   9  10
ATOM     10  C   UNL d   1       2.043  -6.733  -0.033  0.00  0.00     0.185 C 
BRANCH  10  11
ATOM     11  C   UNL d   1       2.625  -6.009  -1.245  0.00  0.00     0.231 C 
ATOM     12  N   UNL d   1       2.949  -4.676  -1.073  0.00  0.00    -0.326 N 
ATOM     13  H   UNL d   1       2.857  -4.308  -0.131  0.00  0.00     0.169 HD
ATOM     14  O   UNL d   1       2.808  -6.649  -2.282  0.00  0.00    -0.272 OA
BRANCH  12  15
ATOM     15  C   UNL d   1       3.305  -3.743  -2.070  0.00  0.00     0.037 A 
ATOM     16  C   UNL d   1       3.372  -4.052  -3.432  0.00  0.00     0.069 A 
ATOM     17  C   UNL d   1       3.686  -3.040  -4.317  0.00  0.00     0.107 A 
ATOM     18  O   UNL d   1       3.772  -3.170  -5.668  0.00  0.00    -0.323 OA
ATOM     19  C   UNL d   1       3.938  -1.757  -3.897  0.00  0.00     0.105 A 
ATOM     20  C   UNL d   1       4.088  -1.817  -6.052  0.00  0.00     0.352 A 
ATOM     21  O   UNL d   1       4.218  -0.918  -4.930  0.00  0.00    -0.323 OA
ATOM     22  C   UNL d   1       3.890  -1.413  -2.566  0.00  0.00     0.042 A 
ATOM     23  C   UNL d   1       3.564  -2.419  -1.645  0.00  0.00     0.032 A 
ENDBRANCH  12  15
ENDBRANCH  10  11
ENDBRANCH   9  10
ENDBRANCH   4   9
BRANCH   1  24
ATOM     24  C   UNL d   1      -0.207  -1.170   0.014  0.00  0.00     0.056 A 
ATOM     25  S   UNL d   1      -0.285  -0.102  -1.331  0.00  0.00    -0.068 SA
ATOM     26  C   UNL d   1      -0.098   1.253  -0.292  0.00  0.00     0.085 A 
ATOM     27  N   UNL d   1       0.070   0.946   0.979  0.00  0.00    -0.352 N 
ATOM     28  C   UNL d   1       0.035  -0.429   1.165  0.00  0.00     0.025 A 
ATOM     29  HN  UNL d   1       0.207   1.627   1.726  1.00  0.00     0.166 HD
ATOM     30  C   UNL d   1       0.203  -0.947   2.550  0.00  0.00     0.070 C 
BRANCH  26  31
ATOM     31  C   UNL d   1      -0.207   2.628  -0.806  0.00  0.00    -0.002 A 
ATOM     32  C   UNL d   1      -0.695   3.635   0.044  0.00  0.00     0.016 A 
ATOM     33  C   UNL d   1      -0.853   4.948  -0.408  0.00  0.00     0.024 A 
ATOM     34  C   UNL d   1      -0.512   5.272  -1.718  0.00  0.00     0.034 A 
ATOM     35  C   UNL d   1      -0.009   4.296  -2.575  0.00  0.00     0.024 A 
ATOM     36 CL   UNL d   1      -0.712   6.885  -2.283  0.00  0.00    -0.084 Cl
ATOM     37  C   UNL d   1       0.145   2.982  -2.120  0.00  0.00     0.016 A 
ENDBRANCH  26  31
ENDBRANCH   1  24
TORSDOF 6
