REMARK  2 active torsions:
REMARK  status: ('A' for Active; 'I' for Inactive)
REMARK    1  A    between atoms: C_7  and  C_3 
REMARK    2  A    between atoms: C_9  and  C_8 
ROOT
ATOM      1  N   UNL d   1      -1.505   1.182   0.044  0.00  0.00    -0.334 N 
ATOM      2  HN  UNL d   1      -1.823   2.151   0.041  1.00  0.00     0.168 HD
ATOM      3  C   UNL d   1      -2.258   0.088   0.066  0.00  0.00     0.148 A 
ATOM      4  O   UNL d   1      -1.498  -1.073   0.063  0.00  0.00    -0.292 OA
ATOM      5  C   UNL d   1      -0.213   0.731   0.027  0.00  0.00     0.068 A 
ATOM      6  C   UNL d   1      -0.203  -0.649   0.038  0.00  0.00     0.104 A 
ATOM      7  C   UNL d   1       1.003   1.424   0.001  0.00  0.00     0.032 A 
ATOM      8  C   UNL d   1       0.946  -1.430   0.027  0.00  0.00     0.040 A 
ATOM      9  C   UNL d   1       2.158  -0.726   0.006  0.00  0.00     0.003 A 
ATOM     10  C   UNL d   1       2.188   0.675  -0.007  0.00  0.00     0.002 A 
ENDROOT
BRANCH   3  11
ATOM     11  C   UNL d   1      -3.681   0.106   0.069  0.00  0.00     0.057 C 
ATOM     12  C   UNL d   1      -4.423  -1.011   0.055  0.00  0.00     0.015 C 
BRANCH  12  13
ATOM     13  C   UNL d   1      -5.896  -1.007  -0.003  0.00  0.00    -0.036 A 
ATOM     14  C   UNL d   1      -6.614   0.008  -0.652  0.00  0.00     0.011 A 
ATOM     15  C   UNL d   1      -8.008  -0.040  -0.735  0.00  0.00     0.001 A 
ATOM     16  C   UNL d   1      -8.702  -1.111  -0.181  0.00  0.00     0.000 A 
ATOM     17  C   UNL d   1      -8.002  -2.134   0.457  0.00  0.00     0.001 A 
ATOM     18  C   UNL d   1      -6.607  -2.084   0.543  0.00  0.00     0.011 A 
ENDBRANCH  12  13
ENDBRANCH   3  11
TORSDOF 2
