REMARK  2 active torsions:
REMARK  status: ('A' for Active; 'I' for Inactive)
REMARK    1  A    between atoms: N_11  and  C_7 
REMARK    2  A    between atoms: C_10  and  N_11 
ROOT
ATOM      1  S   UNL d   1      -1.202  -1.618   0.019  0.00  0.00     0.270 S 
ATOM      2  C   UNL d   1      -2.442  -0.528   0.476  0.00  0.00     0.146 C 
ATOM      3  N   UNL d   1      -1.750  -2.026  -1.545  0.00  0.00    -0.275 N 
ATOM      4  C   UNL d   1      -2.705   0.575  -0.459  0.00  0.00     0.209 C 
ATOM      5  C   UNL d   1      -2.408   0.356  -1.903  0.00  0.00     0.043 A 
ATOM      6  C   UNL d   1      -1.958  -0.883  -2.416  0.00  0.00     0.059 A 
ATOM      7  C   UNL d   1      -3.275  -0.810   1.488  0.00  0.00     0.135 C 
ATOM      8  O   UNL d   1       0.052  -0.911  -0.138  0.00  0.00    -0.200 OA
ATOM      9  O   UNL d   1      -1.249  -2.822   0.826  0.00  0.00    -0.200 OA
ATOM     10  O   UNL d   1      -3.223   1.623  -0.079  0.00  0.00    -0.286 OA
ATOM     11  C   UNL d   1      -1.300  -3.322  -2.074  0.00  0.00     0.170 C 
ATOM     12  C   UNL d   1      -2.679   1.427  -2.773  0.00  0.00     0.018 A 
ATOM     13  C   UNL d   1      -1.857  -1.023  -3.808  0.00  0.00     0.031 A 
ATOM     14  C   UNL d   1      -2.543   1.271  -4.149  0.00  0.00     0.001 A 
ATOM     15  C   UNL d   1      -2.140   0.045  -4.665  0.00  0.00     0.002 A 
ENDROOT
BRANCH   7  16
ATOM     16  N   UNL d   1      -4.407  -0.126   1.852  0.00  0.00    -0.200 N 
ATOM     17  H   UNL d   1      -4.636   0.738   1.369  0.00  0.00     0.183 HD
BRANCH  16  18
ATOM     18  C   UNL d   1      -5.359  -0.492   2.794  0.00  0.00     0.681 A 
ATOM     19  N   UNL d   1      -5.194  -1.608   3.524  0.00  0.00    -0.202 N 
ATOM     20  C   UNL d   1      -6.140  -1.889   4.438  0.00  0.00     0.107 A 
ATOM     21  HN  UNL d   1      -4.387  -2.217   3.390  1.00  0.00     0.183 HD
ATOM     22  C   UNL d   1      -7.248  -1.108   4.645  0.00  0.00     0.035 A 
ATOM     23  C   UNL d   1      -7.340  -0.002   3.838  0.00  0.00     0.107 A 
ATOM     24  N   UNL d   1      -6.419   0.324   2.913  0.00  0.00    -0.202 N 
ATOM     25  HN  UNL d   1      -6.521   1.153   2.329  1.00  0.00     0.183 HD
ENDBRANCH  16  18
ENDBRANCH   7  16
TORSDOF 2
