REMARK  2 active torsions:
REMARK  status: ('A' for Active; 'I' for Inactive)
REMARK    1  A    between atoms: S_10  and  C_4 
REMARK    2  A    between atoms: C_9  and  C_5 
ROOT
ATOM      1  C   UNL d   1      -0.327  -1.335  -0.008  0.00  0.00     0.108 A 
ATOM      2  N   UNL d   1      -0.500   0.928  -0.041  0.00  0.00    -0.296 N 
ATOM      3  HN  UNL d   1      -0.863   1.881  -0.074  1.00  0.00     0.187 HD
ATOM      4  C   UNL d   1       0.956  -0.824  -0.005  0.00  0.00     0.109 A 
ATOM      5  C   UNL d   1      -1.207  -0.213  -0.005  0.00  0.00     0.082 A 
ATOM      6  N   UNL d   1       0.794   0.542  -0.024  0.00  0.00    -0.288 N 
ATOM      7  C   UNL d   1      -0.710  -2.705  -0.025  0.00  0.00     0.104 C 
ATOM      8  N   UNL d   1      -1.030  -3.822  -0.016  0.00  0.00    -0.191 NA
ATOM      9  C   UNL d   1       1.793   1.589  -0.027  0.00  0.00     0.178 C 
ENDROOT
BRANCH   4  10
ATOM     10  S   UNL d   1       2.556  -1.521   0.009  0.00  0.00    -0.114 SA
ATOM     11  C   UNL d   1       2.324  -3.305   0.074  0.00  0.00     0.097 C 
ENDBRANCH   4  10
BRANCH   5  12
ATOM     12  C   UNL d   1      -2.679  -0.186   0.007  0.00  0.00    -0.006 A 
ATOM     13  C   UNL d   1      -3.375   0.846  -0.644  0.00  0.00     0.015 A 
ATOM     14  C   UNL d   1      -4.775   0.858  -0.677  0.00  0.00     0.024 A 
ATOM     15  C   UNL d   1      -5.492  -0.161  -0.055  0.00  0.00     0.034 A 
ATOM     16  C   UNL d   1      -4.822  -1.178   0.617  0.00  0.00     0.024 A 
ATOM     17 CL   UNL d   1      -7.211  -0.165  -0.112  0.00  0.00    -0.084 Cl
ATOM     18  C   UNL d   1      -3.423  -1.182   0.658  0.00  0.00     0.015 A 
ENDBRANCH   5  12
TORSDOF 2
