REMARK  6 active torsions:
REMARK  status: ('A' for Active; 'I' for Inactive)
REMARK    1  A    between atoms: C_8  and  C_1 
REMARK    2  A    between atoms: S_10  and  C_3 
REMARK    3  A    between atoms: N_9  and  C_12 
REMARK    4  A    between atoms: C_11  and  S_10 
REMARK    5  A    between atoms: C_21  and  C_11 
REMARK    6  A    between atoms: C_17  and  C_21 
ROOT
ATOM      1  S   UNL d   1       1.996  -2.819   2.114  0.00  0.00    -0.015 SA
ENDROOT
BRANCH   1   2
ATOM      2  C   UNL d   1       0.273  -2.901   2.046  0.00  0.00     0.170 A 
ATOM      3  N   UNL d   1      -0.575  -1.833   2.189  0.00  0.00    -0.312 N 
ATOM      4  C   UNL d   1      -1.846  -2.353   2.040  0.00  0.00     0.209 A 
ATOM      5  C   UNL d   1      -0.191  -0.470   2.462  0.00  0.00     0.160 C 
ATOM      6  N   UNL d   1      -1.739  -3.658   1.840  0.00  0.00    -0.279 N 
ATOM      7  N   UNL d   1      -0.413  -3.998   1.841  0.00  0.00    -0.278 N 
ATOM      8  HN  UNL d   1      -2.517  -4.304   1.708  1.00  0.00     0.188 HD
ATOM      9  HN  UNL d   1      -0.030  -4.933   1.708  1.00  0.00     0.189 HD
BRANCH   4  10
ATOM     10  C   UNL d   1      -3.127  -1.595   2.088  0.00  0.00     0.450 C 
ATOM     11  F   UNL d   1      -2.968  -0.268   2.337  0.00  0.00    -0.163 F 
ATOM     12  F   UNL d   1      -3.809  -1.680   0.916  0.00  0.00    -0.163 F 
ATOM     13  F   UNL d   1      -3.956  -2.057   3.061  0.00  0.00    -0.163 F 
ENDBRANCH   4  10
ENDBRANCH   1   2
BRANCH   1  14
ATOM     14  C   UNL d   1       2.242  -2.903   0.368  0.00  0.00     0.197 C 
ATOM     15  O   UNL d   1       1.851  -2.000  -0.363  0.00  0.00    -0.285 OA
BRANCH  14  16
ATOM     16  C   UNL d   1       3.026  -4.103  -0.120  0.00  0.00     0.130 C 
BRANCH  16  17
ATOM     17  C   UNL d   1       4.521  -3.872  -0.149  0.00  0.00    -0.048 A 
ATOM     18  C   UNL d   1       5.383  -4.679   0.610  0.00  0.00     0.043 A 
ATOM     19  C   UNL d   1       6.771  -4.465   0.557  0.00  0.00     0.103 A 
ATOM     20  C   UNL d   1       7.308  -3.452  -0.245  0.00  0.00     0.036 A 
ATOM     21  C   UNL d   1       6.452  -2.655  -1.002  0.00  0.00     0.003 A 
ATOM     22  C   UNL d   1       5.072  -2.864  -0.957  0.00  0.00     0.007 A 
BRANCH  19  23
ATOM     23  N   UNL d   1       7.666  -5.317   1.348  0.00  0.00    -0.116 N 
ATOM     24  O   UNL d   1       7.157  -6.221   2.025  0.00  0.00    -0.532 OA
ATOM     25  O   UNL d   1       8.884  -5.080   1.298  0.00  0.00    -0.532 OA
ENDBRANCH  19  23
ENDBRANCH  16  17
ENDBRANCH  14  16
ENDBRANCH   1  14
TORSDOF 6
