REMARK  4 active torsions:
REMARK  status: ('A' for Active; 'I' for Inactive)
REMARK    1  A    between atoms: C_14  and  C_5 
REMARK    2  A    between atoms: C_6  and  C_13 
REMARK    3  A    between atoms: C_15  and  C_9 
REMARK    4  A    between atoms: C_16  and  C_10 
ROOT
ATOM      1  C   UNL d   1      -4.306  -3.756  -0.007  0.00  0.00     0.015 A 
ATOM      2  C   UNL d   1      -2.203  -1.834  -0.026  0.00  0.00     0.015 A 
ATOM      3  C   UNL d   1      -4.204  -2.796  -1.029  0.00  0.00     0.017 A 
ATOM      4  C   UNL d   1      -2.313  -2.792   0.997  0.00  0.00     0.017 A 
ATOM      5  C   UNL d   1      -3.345  -3.738   1.009  0.00  0.00     0.017 A 
ATOM      6  C   UNL d   1      -3.167  -1.845  -1.040  0.00  0.00     0.017 A 
ENDROOT
BRANCH   1   7
ATOM      7  C   UNL d   1      -5.386  -4.743  -0.026  0.00  0.00     0.159 A 
ATOM      8  N   UNL d   1      -6.373  -4.878  -0.890  0.00  0.00    -0.337 N 
ATOM      9  C   UNL d   1      -7.074  -5.978  -0.440  0.00  0.00     0.042 A 
ATOM     10  HN  UNL d   1      -6.573  -4.300  -1.707  1.00  0.00     0.168 HD
ATOM     11  C   UNL d   1      -8.288  -6.425  -1.155  0.00  0.00     0.071 C 
ATOM     12  C   UNL d   1      -6.473  -6.484   0.699  0.00  0.00     0.110 A 
ATOM     13  O   UNL d   1      -5.394  -5.680   0.976  0.00  0.00    -0.290 OA
BRANCH  12  14
ATOM     14  C   UNL d   1      -6.692  -7.611   1.600  0.00  0.00    -0.000 A 
ATOM     15  C   UNL d   1      -6.324  -7.538   2.953  0.00  0.00     0.014 A 
ATOM     16  C   UNL d   1      -6.523  -8.625   3.812  0.00  0.00     0.001 A 
ATOM     17  C   UNL d   1      -7.093  -9.802   3.332  0.00  0.00     0.000 A 
ATOM     18  C   UNL d   1      -7.466  -9.891   1.994  0.00  0.00     0.001 A 
ATOM     19  C   UNL d   1      -7.267  -8.803   1.137  0.00  0.00     0.014 A 
ENDBRANCH  12  14
ENDBRANCH   1   7
BRANCH   2  20
ATOM     20  C   UNL d   1      -1.079  -0.898   0.016  0.00  0.00     0.159 A 
ATOM     21  N   UNL d   1      -0.078  -0.896   0.879  0.00  0.00    -0.337 N 
ATOM     22  C   UNL d   1       0.714   0.150   0.484  0.00  0.00     0.042 A 
ATOM     23  HN  UNL d   1       0.071  -1.531   1.663  1.00  0.00     0.168 HD
ATOM     24  C   UNL d   1       0.163   0.765  -0.625  0.00  0.00     0.110 A 
ATOM     25  C   UNL d   1       1.938   0.457   1.255  0.00  0.00     0.071 C 
ATOM     26  O   UNL d   1      -1.006   0.101  -0.926  0.00  0.00    -0.290 OA
BRANCH  24  27
ATOM     27  C   UNL d   1       0.544   1.892  -1.469  0.00  0.00    -0.000 A 
ATOM     28  C   UNL d   1       1.900   2.146  -1.735  0.00  0.00     0.014 A 
ATOM     29  C   UNL d   1       2.296   3.277  -2.454  0.00  0.00     0.001 A 
ATOM     30  C   UNL d   1       1.338   4.164  -2.933  0.00  0.00     0.000 A 
ATOM     31  C   UNL d   1      -0.015   3.910  -2.707  0.00  0.00     0.001 A 
ATOM     32  C   UNL d   1      -0.409   2.780  -1.982  0.00  0.00     0.014 A 
ENDBRANCH  24  27
ENDBRANCH   2  20
TORSDOF 4
