REMARK  1 active torsions:
REMARK  status: ('A' for Active; 'I' for Inactive)
REMARK    1  A    between atoms: C_7  and  C_1 
ROOT
ATOM      1  C   UNL d   1       3.091  -3.485  -0.493  0.00  0.00     0.125 C 
ATOM      2  N   UNL d   1       1.011  -4.353  -1.754  0.00  0.00    -0.191 NA
ATOM      3  N   UNL d   1       5.100  -5.090  -0.236  0.00  0.00    -0.191 NA
ATOM      4  C   UNL d   1       3.191  -2.247   0.030  0.00  0.00     0.052 C 
ATOM      5  C   UNL d   1       1.949  -3.963  -1.195  0.00  0.00     0.111 C 
ATOM      6  C   UNL d   1       4.196  -4.375  -0.360  0.00  0.00     0.111 C 
ENDROOT
BRANCH   4   7
ATOM      7  C   UNL d   1       2.167  -1.249  -0.003  0.00  0.00     0.008 A 
ATOM      8  C   UNL d   1       0.784  -1.347   0.031  0.00  0.00     0.038 A 
ATOM      9  C   UNL d   1       0.149  -0.082  -0.026  0.00  0.00     0.018 A 
ATOM     10 BR   UNL d   1      -1.729   0.084  -0.021  0.00  0.00    -0.051 Br
ATOM     11  C   UNL d   1       1.028   0.966  -0.074  0.00  0.00     0.069 A 
ATOM     12  S   UNL d   1       2.645   0.415  -0.051  0.00  0.00    -0.101 SA
ENDBRANCH   4   7
TORSDOF 1
