REMARK  1 active torsions:
REMARK  status: ('A' for Active; 'I' for Inactive)
REMARK    1  A    between atoms: C_9  and  C_6 
ROOT
ATOM      1  C   UNL d   1      -2.549  -0.681   0.076  0.00  0.00     0.088 C 
ATOM      2  S   UNL d   1      -2.586   1.112   0.168  0.00  0.00     0.090 S 
ATOM      3  C   UNL d   1      -1.150  -1.190   0.182  0.00  0.00     0.203 C 
ATOM      4  C   UNL d   1      -0.813   1.187   0.047  0.00  0.00     0.051 A 
ATOM      5  C   UNL d   1      -0.197  -0.062   0.105  0.00  0.00     0.035 A 
ATOM      6  C   UNL d   1      -3.699  -1.360  -0.020  0.00  0.00     0.036 C 
ATOM      7  O   UNL d   1      -3.143   1.597  -1.136  0.00  0.00    -0.247 OA
ATOM      8  O   UNL d   1      -0.798  -2.350   0.301  0.00  0.00    -0.286 OA
ATOM      9  C   UNL d   1       1.186  -0.185   0.076  0.00  0.00     0.017 A 
ATOM     10  C   UNL d   1      -0.059   2.348  -0.044  0.00  0.00     0.022 A 
ATOM     11  C   UNL d   1       1.953   0.980  -0.010  0.00  0.00     0.001 A 
ATOM     12  C   UNL d   1       1.335   2.239  -0.071  0.00  0.00     0.002 A 
ENDROOT
BRANCH   6  13
ATOM     13  C   UNL d   1      -3.842  -2.815  -0.045  0.00  0.00    -0.035 A 
ATOM     14  C   UNL d   1      -3.949  -3.533   1.151  0.00  0.00     0.011 A 
ATOM     15  C   UNL d   1      -4.158  -4.913   1.125  0.00  0.00     0.001 A 
ATOM     16  C   UNL d   1      -4.258  -5.581  -0.095  0.00  0.00     0.000 A 
ATOM     17  C   UNL d   1      -4.142  -4.871  -1.289  0.00  0.00     0.001 A 
ATOM     18  C   UNL d   1      -3.935  -3.490  -1.266  0.00  0.00     0.011 A 
ENDBRANCH   6  13
TORSDOF 1
