REMARK  4 active torsions:
REMARK  status: ('A' for Active; 'I' for Inactive)
REMARK    1  A    between atoms: N_2  and  S_1 
REMARK    2  A    between atoms: C_4  and  S_1 
REMARK    3  A    between atoms: C_5  and  N_3 
REMARK    4  A    between atoms: O_19  and  C_12 
ROOT
ATOM      1  N   UNL d   1       0.788   1.615   0.071  0.00  0.00    -0.304 N 
ATOM      2  N   UNL d   1      -0.380   4.232   0.206  0.00  0.00    -0.376 N 
ATOM      3  C   UNL d   1       0.432   2.366  -1.175  0.00  0.00     0.155 C 
ATOM      4  C   UNL d   1      -0.057   2.020   1.234  0.00  0.00     0.155 C 
ATOM      5  C   UNL d   1       0.490   3.891  -0.936  0.00  0.00     0.143 C 
ATOM      6  C   UNL d   1       0.013   3.548   1.449  0.00  0.00     0.143 C 
ENDROOT
BRANCH   1   7
ATOM      7  S   UNL d   1       1.171  -0.024  -0.076  0.00  0.00     0.260 S 
ATOM      8  O   UNL d   1       1.593  -0.487   1.230  0.00  0.00    -0.200 OA
ATOM      9  O   UNL d   1       2.022  -0.186  -1.231  0.00  0.00    -0.200 OA
BRANCH   7  10
ATOM     10  C   UNL d   1      -0.371  -0.844  -0.453  0.00  0.00     0.079 A 
ATOM     11  C   UNL d   1      -0.913  -0.735  -1.739  0.00  0.00     0.027 A 
ATOM     12  C   UNL d   1      -2.060  -1.458  -2.075  0.00  0.00     0.025 A 
ATOM     13  C   UNL d   1      -2.642  -2.312  -1.137  0.00  0.00     0.034 A 
ATOM     14  C   UNL d   1      -2.092  -2.442   0.138  0.00  0.00     0.025 A 
ATOM     15 CL   UNL d   1      -4.029  -3.234  -1.570  0.00  0.00    -0.084 Cl
ATOM     16  C   UNL d   1      -0.955  -1.706   0.485  0.00  0.00     0.027 A 
ENDBRANCH   7  10
ENDBRANCH   1   7
BRANCH   2  17
ATOM     17  C   UNL d   1      -0.957   5.502   0.246  0.00  0.00     0.064 A 
ATOM     18  C   UNL d   1      -1.841   5.952  -0.771  0.00  0.00     0.094 A 
ATOM     19  C   UNL d   1      -2.513   7.178  -0.639  0.00  0.00     0.039 A 
ATOM     20  C   UNL d   1      -2.299   7.989   0.473  0.00  0.00     0.003 A 
ATOM     21  C   UNL d   1      -1.405   7.589   1.456  0.00  0.00     0.002 A 
ATOM     22  C   UNL d   1      -0.745   6.362   1.340  0.00  0.00     0.032 A 
BRANCH  18  23
ATOM     23  O   UNL d   1      -2.075   5.094  -1.825  0.00  0.00    -0.354 OA
ATOM     24  C   UNL d   1      -2.556   5.688  -3.026  0.00  0.00     0.210 C 
ENDBRANCH  18  23
ENDBRANCH   2  17
TORSDOF 4
