REMARK  5 active torsions:
REMARK  status: ('A' for Active; 'I' for Inactive)
REMARK    1  A    between atoms: C_4  and  C_1 
REMARK    2  A    between atoms: O_7  and  C_1 
REMARK    3  A    between atoms: N_2  and  C_4 
REMARK    4  A    between atoms: C_5  and  N_2 
REMARK    5  A    between atoms: C_13  and  O_7 
ROOT
ATOM      1  N   UNL d   1      -1.266  -0.685  -0.912  0.00  0.00    -0.284 NA
ATOM      2  H   UNL d   1      -1.490   0.226  -0.511  0.00  0.00     0.128 HD
ENDROOT
BRANCH   1   3
ATOM      3  C   UNL d   1       0.184  -0.863  -1.072  0.00  0.00     0.203 C 
BRANCH   3   4
ATOM      4  C   UNL d   1       0.963  -0.114   0.005  0.00  0.00     0.272 C 
ATOM      5  O   UNL d   1       0.535   0.837   0.650  0.00  0.00    -0.264 OA
BRANCH   4   6
ATOM      6  O   UNL d   1       2.236  -0.605   0.054  0.00  0.00    -0.321 OA
BRANCH   6   7
ATOM      7  C   UNL d   1       3.165   0.131   0.860  0.00  0.00     0.174 C 
ATOM      8  C   UNL d   1       3.836   1.180  -0.008  0.00  0.00     0.034 C 
ENDBRANCH   6   7
ENDBRANCH   4   6
ENDBRANCH   3   4
ENDBRANCH   1   3
BRANCH   1   9
ATOM      9  C   UNL d   1      -2.084  -1.031  -1.994  0.00  0.00     0.008 A 
ATOM     10  C   UNL d   1      -1.753  -2.042  -2.908  0.00  0.00     0.026 A 
ATOM     11  C   UNL d   1      -2.622  -2.392  -3.943  0.00  0.00     0.044 A 
ATOM     12  C   UNL d   1      -3.847  -1.747  -4.056  0.00  0.00     0.116 A 
ATOM     13  C   UNL d   1      -4.220  -0.775  -3.141  0.00  0.00     0.044 A 
ATOM     14  F   UNL d   1      -4.678  -2.080  -5.050  0.00  0.00    -0.206 F 
ATOM     15  C   UNL d   1      -3.348  -0.430  -2.106  0.00  0.00     0.026 A 
ENDBRANCH   1   9
TORSDOF 5
