REMARK  4 active torsions:
REMARK  status: ('A' for Active; 'I' for Inactive)
REMARK    1  A    between atoms: C_3  and  N_1 
REMARK    2  A    between atoms: C_2  and  C_3 
REMARK    3  A    between atoms: O_10  and  C_2 
REMARK    4  A    between atoms: C_9  and  C_3 
ROOT
ATOM      1  C   UNL d   1      -0.754  -2.474   0.219  0.00  0.00     0.219 C 
ENDROOT
BRANCH   1   2
ATOM      2  C   UNL d   1      -0.078  -3.164   1.404  0.00  0.00     0.168 C 
ATOM      3  O   UNL d   1      -0.645  -3.802   2.280  0.00  0.00    -0.648 OA
BRANCH   2   4
ATOM      4  O   UNL d   1       1.282  -3.062   1.397  0.00  0.00    -0.775 OA
ATOM      5  H   UNL d   1       1.650  -2.491   0.693  0.00  0.00     0.167 HD
ENDBRANCH   2   4
ENDBRANCH   1   2
BRANCH   1   6
ATOM      6  N   UNL d   1      -0.373  -1.056   0.122  0.00  0.00    -0.347 N 
ATOM      7  C   UNL d   1      -0.453  -0.120   1.122  0.00  0.00     0.092 A 
ATOM      8  C   UNL d   1       0.067   1.063   0.650  0.00  0.00     0.019 A 
ATOM      9  C   UNL d   1       0.503   0.834  -0.674  0.00  0.00     0.019 A 
ATOM     10  C   UNL d   1       0.227  -0.482  -0.976  0.00  0.00     0.092 A 
ENDBRANCH   1   6
BRANCH   1  11
ATOM     11  C   UNL d   1      -2.263  -2.655   0.124  0.00  0.00    -0.025 A 
ATOM     12  C   UNL d   1      -3.126  -2.298   1.173  0.00  0.00     0.010 A 
ATOM     13  C   UNL d   1      -4.506  -2.483   1.059  0.00  0.00     0.001 A 
ATOM     14  C   UNL d   1      -5.045  -3.032  -0.102  0.00  0.00     0.000 A 
ATOM     15  C   UNL d   1      -4.206  -3.391  -1.153  0.00  0.00     0.001 A 
ATOM     16  C   UNL d   1      -2.826  -3.200  -1.044  0.00  0.00     0.010 A 
ENDBRANCH   1  11
TORSDOF 4
