REMARK  7 active torsions:
REMARK  status: ('A' for Active; 'I' for Inactive)
REMARK    1  A    between atoms: N_2  and  C_1 
REMARK    2  A    between atoms: C_3  and  C_1 
REMARK    3  A    between atoms: C_4  and  C_1 
REMARK    4  A    between atoms: N_6  and  C_1 
REMARK       I    between atoms: C_5  and  N_2 
REMARK    5  A    between atoms: C_7  and  C_5 
REMARK    6  A    between atoms: C_14  and  N_6 
REMARK    7  A    between atoms: C_8  and  C_14 
ROOT
ATOM      1  C   UNL d   1       0.961   0.166  -0.095  0.00  0.00     0.426 C 
ENDROOT
BRANCH   1   2
ATOM      2  N   UNL d   1       0.691  -0.151   1.343  0.00  0.00    -0.307 N 
ATOM      3  C   UNL d   1       0.453   0.775   2.322  0.00  0.00     0.254 C 
ATOM      4  O   UNL d   1       0.491   1.976   2.089  0.00  0.00    -0.268 OA
ATOM      5  H   UNL d   1       0.655  -1.140   1.557  0.00  0.00     0.166 HD
BRANCH   3   6
ATOM      6  C   UNL d   1       0.155   0.262   3.702  0.00  0.00     0.037 A 
ATOM      7  C   UNL d   1      -0.569   1.040   4.634  0.00  0.00    -0.046 A 
ATOM      8  C   UNL d   1      -1.151   2.397   4.336  0.00  0.00     0.049 C 
ATOM      9  C   UNL d   1      -0.740   0.551   5.944  0.00  0.00     0.007 A 
ATOM     10  C   UNL d   1      -0.261  -0.703   6.316  0.00  0.00     0.001 A 
ATOM     11  C   UNL d   1       0.415  -1.485   5.389  0.00  0.00     0.001 A 
ATOM     12  C   UNL d   1       0.638  -1.001   4.098  0.00  0.00     0.017 A 
ENDBRANCH   3   6
ENDBRANCH   1   2
BRANCH   1  13
ATOM     13  C   UNL d   1       0.018   1.242  -0.752  0.00  0.00     0.452 C 
ATOM     14  F   UNL d   1      -1.274   1.062  -0.383  0.00  0.00    -0.166 F 
ATOM     15  F   UNL d   1       0.336   2.518  -0.452  0.00  0.00    -0.166 F 
ATOM     16  F   UNL d   1       0.059   1.165  -2.107  0.00  0.00    -0.166 F 
ENDBRANCH   1  13
BRANCH   1  17
ATOM     17  C   UNL d   1       0.554  -1.102  -0.936  0.00  0.00     0.452 C 
ATOM     18  F   UNL d   1       0.933  -2.236  -0.277  0.00  0.00    -0.166 F 
ATOM     19  F   UNL d   1      -0.775  -1.221  -1.139  0.00  0.00    -0.166 F 
ATOM     20  F   UNL d   1       1.166  -1.135  -2.143  0.00  0.00    -0.166 F 
ENDBRANCH   1  17
BRANCH   1  21
ATOM     21  N   UNL d   1       2.456   0.362  -0.198  0.00  0.00     0.137 N 
ATOM     22  H   UNL d   1       2.689   0.443  -1.194  0.00  0.00     0.320 HD
BRANCH  21  23
ATOM     23  C   UNL d   1       2.953   1.583   0.445  0.00  0.00     0.338 C 
BRANCH  23  24
ATOM     24  C   UNL d   1       4.337   1.905  -0.009  0.00  0.00     0.080 A 
ATOM     25  O   UNL d   1       4.492   2.212  -1.332  0.00  0.00    -0.325 OA
ATOM     26  C   UNL d   1       5.795   2.558  -1.505  0.00  0.00     0.142 A 
ATOM     27  C   UNL d   1       6.482   2.466  -0.318  0.00  0.00     0.027 A 
ATOM     28  C   UNL d   1       5.542   2.037   0.649  0.00  0.00     0.036 A 
ENDBRANCH  23  24
ENDBRANCH  21  23
ENDBRANCH   1  21
TORSDOF 7
