REMARK  4 active torsions:
REMARK  status: ('A' for Active; 'I' for Inactive)
REMARK    1  A    between atoms: C_7  and  C_1 
REMARK    2  A    between atoms: C_9  and  C_2 
REMARK       I    between atoms: N_13  and  C_7 
REMARK    3  A    between atoms: C_17  and  C_8 
REMARK    4  A    between atoms: C_10  and  C_20 
ROOT
ATOM      1  C   UNL d   1       0.064  -2.542   0.008  0.00  0.00     0.258 C 
ATOM      2  N   UNL d   1      -0.558  -3.816  -0.027  0.00  0.00    -0.348 N 
ATOM      3  C   UNL d   1      -1.781  -6.499   0.072  0.00  0.00     0.066 C 
ATOM      4  O   UNL d   1       0.648  -2.147   1.015  0.00  0.00    -0.267 OA
ATOM      5  C   UNL d   1      -0.610  -4.561   1.232  0.00  0.00     0.127 C 
ATOM      6  C   UNL d   1      -1.497  -4.239  -1.063  0.00  0.00     0.127 C 
ATOM      7  C   UNL d   1      -0.660  -6.074   1.023  0.00  0.00     0.033 C 
ATOM      8  C   UNL d   1      -1.626  -5.746  -1.247  0.00  0.00     0.033 C 
ENDROOT
BRANCH   1   9
ATOM      9  C   UNL d   1       0.097  -1.722  -1.201  0.00  0.00     0.092 C 
ATOM     10  C   UNL d   1       1.230  -1.048  -1.785  0.00  0.00     0.086 C 
ATOM     11  N   UNL d   1       0.865  -0.472  -2.944  0.00  0.00    -0.259 N 
ATOM     12  O   UNL d   1      -0.501  -0.580  -3.026  0.00  0.00    -0.241 OA
ATOM     13  HN  UNL d   1       1.484  -0.038  -3.629  1.00  0.00     0.195 HD
ATOM     14  C   UNL d   1      -0.970  -1.273  -1.959  0.00  0.00     0.090 C 
ATOM     15  C   UNL d   1      -2.443  -1.347  -1.882  0.00  0.00     0.080 C 
BRANCH  10  16
ATOM     16  C   UNL d   1       2.614  -0.903  -1.299  0.00  0.00     0.037 A 
ATOM     17  C   UNL d   1       3.378  -2.003  -0.872  0.00  0.00     0.048 A 
ATOM     18 CL   UNL d   1       2.881  -3.647  -1.117  0.00  0.00    -0.083 Cl
ATOM     19  C   UNL d   1       4.642  -1.825  -0.289  0.00  0.00     0.025 A 
ATOM     20  C   UNL d   1       5.202  -0.555  -0.184  0.00  0.00     0.003 A 
ATOM     21  C   UNL d   1       4.507   0.537  -0.677  0.00  0.00     0.025 A 
ATOM     22  C   UNL d   1       3.224   0.374  -1.221  0.00  0.00     0.048 A 
ATOM     23 CL   UNL d   1       2.467   1.843  -1.758  0.00  0.00    -0.083 Cl
ENDBRANCH  10  16
ENDBRANCH   1   9
BRANCH   3  24
ATOM     24  C   UNL d   1      -3.140  -6.356   0.681  0.00  0.00     0.152 A 
ATOM     25  N   UNL d   1      -4.211  -5.720   0.258  0.00  0.00    -0.322 N 
ATOM     26  C   UNL d   1      -5.171  -6.095   1.183  0.00  0.00     0.137 A 
ATOM     27  HN  UNL d   1      -4.309  -5.104  -0.549  1.00  0.00     0.169 HD
ATOM     28  N   UNL d   1      -4.695  -6.885   2.160  0.00  0.00    -0.242 N 
ATOM     29  O   UNL d   1      -3.362  -7.065   1.825  0.00  0.00    -0.222 OA
ATOM     30  HN  UNL d   1      -5.198  -7.265   2.962  1.00  0.00     0.196 HD
BRANCH  26  31
ATOM     31  C   UNL d   1      -6.584  -5.744   1.054  0.00  0.00     0.010 A 
ATOM     32  C   UNL d   1      -7.005  -4.847   0.059  0.00  0.00     0.017 A 
ATOM     33  C   UNL d   1      -8.368  -4.581  -0.128  0.00  0.00     0.025 A 
ATOM     34  C   UNL d   1      -9.321  -5.201   0.678  0.00  0.00     0.034 A 
ATOM     35  C   UNL d   1      -8.915  -6.074   1.689  0.00  0.00     0.025 A 
ATOM     36 CL   UNL d   1     -10.991  -4.922   0.409  0.00  0.00    -0.084 Cl
ATOM     37  C   UNL d   1      -7.552  -6.334   1.879  0.00  0.00     0.017 A 
ENDBRANCH  26  31
ENDBRANCH   3  24
TORSDOF 4
