REMARK  6 active torsions:
REMARK  status: ('A' for Active; 'I' for Inactive)
REMARK    1  A    between atoms: C_2  and  S_1 
REMARK    2  A    between atoms: N_10  and  S_1 
REMARK    3  A    between atoms: C_12  and  C_3 
REMARK    4  A    between atoms: C_4  and  N_10 
REMARK    5  A    between atoms: C_13  and  C_8 
REMARK    6  A    between atoms: O_23  and  C_12 
ROOT
ATOM      1  C   UNL d   1       2.227   1.523   2.713  0.00  0.00     0.103 A 
ATOM      2  C   UNL d   1       0.975   1.554   2.125  0.00  0.00     0.047 A 
ATOM      3  S   UNL d   1       2.163   2.008   4.350  0.00  0.00    -0.081 SA
ATOM      4  C   UNL d   1       0.459   2.193   4.328  0.00  0.00     0.024 A 
ATOM      5  C   UNL d   1      -0.035   1.954   3.056  0.00  0.00     0.046 A 
ENDROOT
BRANCH   2   6
ATOM      6  N   UNL d   1       0.680   1.204   0.787  0.00  0.00    -0.179 NA
ATOM      7  H   UNL d   1       1.391   0.598   0.350  0.00  0.00     0.146 HD
BRANCH   6   8
ATOM      8  S   UNL d   1       0.426   2.469  -0.340  0.00  0.00     0.263 S 
ATOM      9  O   UNL d   1      -0.934   2.417  -0.827  0.00  0.00    -0.204 OA
ATOM     10  O   UNL d   1       1.050   3.686   0.130  0.00  0.00    -0.204 OA
BRANCH   8  11
ATOM     11  C   UNL d   1       1.399   2.024  -1.728  0.00  0.00     0.161 A 
ATOM     12  N   UNL d   1       2.137   0.846  -1.752  0.00  0.00    -0.341 N 
ATOM     13  C   UNL d   1       2.762   0.863  -2.909  0.00  0.00     0.183 A 
ATOM     14  HN  UNL d   1       2.184   0.126  -1.030  1.00  0.00     0.167 HD
ATOM     15  N   UNL d   1       2.465   1.990  -3.624  0.00  0.00    -0.354 N 
ATOM     16  C   UNL d   1       1.598   2.746  -2.888  0.00  0.00     0.134 A 
ATOM     17  C   UNL d   1       2.996   2.306  -4.927  0.00  0.00     0.156 C 
ENDBRANCH   8  11
ENDBRANCH   6   8
ENDBRANCH   2   6
BRANCH   1  18
ATOM     18  C   UNL d   1       3.521   1.184   2.158  0.00  0.00     0.301 C 
ATOM     19  O   UNL d   1       4.614   1.485   2.628  0.00  0.00    -0.259 OA
BRANCH  18  20
ATOM     20  O   UNL d   1       3.357   0.450   1.020  0.00  0.00    -0.322 OA
ATOM     21  C   UNL d   1       4.563   0.052   0.365  0.00  0.00     0.213 C 
ENDBRANCH  18  20
ENDBRANCH   1  18
BRANCH   4  22
ATOM     22  C   UNL d   1      -0.261   2.531   5.537  0.00  0.00     0.022 A 
ATOM     23  S   UNL d   1      -1.912   2.105   5.757  0.00  0.00    -0.101 SA
ATOM     24  C   UNL d   1      -1.950   2.750   7.339  0.00  0.00     0.050 A 
ATOM     25  C   UNL d   1      -0.741   3.298   7.702  0.00  0.00     0.008 A 
ATOM     26  C   UNL d   1       0.229   3.173   6.665  0.00  0.00     0.021 A 
ENDBRANCH   4  22
TORSDOF 6
