REMARK  5 active torsions:
REMARK  status: ('A' for Active; 'I' for Inactive)
REMARK    1  A    between atoms: C_2  and  C_1 
REMARK       I    between atoms: N_5  and  C_1 
REMARK    2  A    between atoms: C_4  and  C_3 
REMARK    3  A    between atoms: O_15  and  C_4 
REMARK    4  A    between atoms: C_11  and  N_5 
REMARK    5  A    between atoms: C_6  and  C_7 
REMARK       I    between atoms: N_14  and  C_6 
ROOT
ATOM      1  C   UNL d   1       1.012  -0.088   0.162  0.00  0.00     0.257 C 
ATOM      2  N   UNL d   1       0.245  -1.231   0.040  0.00  0.00    -0.323 N 
ATOM      3  O   UNL d   1       0.578   1.060   0.159  0.00  0.00    -0.267 OA
ATOM      4  H   UNL d   1       0.660  -2.135   0.233  0.00  0.00     0.169 HD
ENDROOT
BRANCH   2   5
ATOM      5  C   UNL d   1      -1.124  -1.278  -0.301  0.00  0.00     0.035 A 
ATOM      6  C   UNL d   1      -1.808  -0.206  -0.877  0.00  0.00     0.030 A 
ATOM      7  C   UNL d   1      -3.143  -0.346  -1.271  0.00  0.00     0.019 A 
ATOM      8  C   UNL d   1      -3.807  -1.561  -1.096  0.00  0.00     0.032 A 
ATOM      9  C   UNL d   1      -3.143  -2.626  -0.481  0.00  0.00     0.019 A 
ATOM     10  C   UNL d   1      -1.803  -2.486  -0.096  0.00  0.00     0.030 A 
BRANCH   8  11
ATOM     11  C   UNL d   1      -5.206  -1.670  -1.583  0.00  0.00     0.249 C 
ATOM     12  O   UNL d   1      -5.922  -0.689  -1.718  0.00  0.00    -0.268 OA
ATOM     13  N   UNL d   1      -5.648  -2.916  -1.937  0.00  0.00    -0.366 N 
ATOM     14  H   UNL d   1      -5.019  -3.691  -2.087  0.00  0.00     0.159 HD
ATOM     15  H   UNL d   1      -6.548  -2.948  -2.400  0.00  0.00     0.159 HD
ENDBRANCH   8  11
ENDBRANCH   2   5
BRANCH   1  16
ATOM     16  C   UNL d   1       2.485  -0.251   0.339  0.00  0.00     0.049 A 
ATOM     17  C   UNL d   1       3.138  -1.292   1.014  0.00  0.00     0.053 A 
ATOM     18  C   UNL d   1       4.547  -1.329   1.029  0.00  0.00     0.019 A 
ATOM     19  C   UNL d   1       5.301  -0.328   0.414  0.00  0.00     0.001 A 
ATOM     20  C   UNL d   1       4.658   0.728  -0.218  0.00  0.00     0.001 A 
ATOM     21  C   UNL d   1       3.264   0.767  -0.253  0.00  0.00     0.018 A 
BRANCH  17  22
ATOM     22  C   UNL d   1       2.476  -2.415   1.715  0.00  0.00     0.177 C 
ATOM     23  O   UNL d   1       2.908  -3.555   1.663  0.00  0.00    -0.646 OA
BRANCH  22  24
ATOM     24  O   UNL d   1       1.361  -2.096   2.397  0.00  0.00    -0.773 OA
ATOM     25  H   UNL d   1       1.121  -1.150   2.467  0.00  0.00     0.167 HD
ENDBRANCH  22  24
ENDBRANCH  17  22
ENDBRANCH   1  16
TORSDOF 5
