REMARK  3 active torsions:
REMARK  status: ('A' for Active; 'I' for Inactive)
REMARK    1  A    between atoms: N_2  and  C_1 
REMARK       I    between atoms: C_4  and  N_2 
REMARK    2  A    between atoms: C_5  and  N_2 
REMARK    3  A    between atoms: C_8  and  C_4 
ROOT
ATOM      1  N   UNL d   1      -2.898  -1.057  -0.373  0.00  0.00    -0.253 N 
ATOM      2  C   UNL d   1      -4.020  -0.199  -0.494  0.00  0.00     0.288 C 
ATOM      3  O   UNL d   1      -3.907   0.978  -0.843  0.00  0.00    -0.264 OA
ENDROOT
BRANCH   1   4
ATOM      4  C   UNL d   1      -1.591  -0.610  -0.072  0.00  0.00     0.157 C 
ATOM      5  S   UNL d   1      -1.502   0.827   0.926  0.00  0.00    -0.016 SA
ATOM      6  C   UNL d   1      -0.001   1.468   0.318  0.00  0.00     0.193 C 
ATOM      7  O   UNL d   1       0.035   2.347  -0.530  0.00  0.00    -0.285 OA
ATOM      8  C   UNL d   1       1.233   0.933   1.001  0.00  0.00     0.093 C 
ATOM      9  C   UNL d   1       1.296  -0.589   0.978  0.00  0.00     0.028 C 
ATOM     10  C   UNL d   1       0.831  -1.143  -0.358  0.00  0.00     0.122 C 
ATOM     11  N   UNL d   1      -0.605  -1.320  -0.473  0.00  0.00    -0.370 N 
ATOM     12  HN  UNL d   1      -0.879  -2.170  -0.966  1.00  0.00     0.161 HD
ENDBRANCH   1   4
BRANCH   1  13
ATOM     13  C   UNL d   1      -3.052  -2.442  -0.724  0.00  0.00     0.083 A 
ATOM     14  C   UNL d   1      -3.638  -2.815  -1.943  0.00  0.00     0.146 A 
ATOM     15  C   UNL d   1      -3.864  -4.150  -2.253  0.00  0.00     0.086 A 
ATOM     16  F   UNL d   1      -3.976  -1.879  -2.842  0.00  0.00    -0.204 F 
ATOM     17  C   UNL d   1      -3.521  -5.121  -1.323  0.00  0.00     0.119 A 
ATOM     18  C   UNL d   1      -2.933  -4.782  -0.107  0.00  0.00     0.045 A 
ATOM     19  F   UNL d   1      -3.765  -6.409  -1.597  0.00  0.00    -0.206 F 
ATOM     20  C   UNL d   1      -2.679  -3.442   0.189  0.00  0.00     0.036 A 
ENDBRANCH   1  13
BRANCH   2  21
ATOM     21  C   UNL d   1      -5.348  -0.767  -0.255  0.00  0.00     0.143 A 
ATOM     22  O   UNL d   1      -5.500  -1.908   0.493  0.00  0.00    -0.317 OA
ATOM     23  C   UNL d   1      -6.823  -2.210   0.512  0.00  0.00     0.143 A 
ATOM     24  C   UNL d   1      -7.542  -1.265  -0.178  0.00  0.00     0.027 A 
ATOM     25  C   UNL d   1      -6.596  -0.324  -0.654  0.00  0.00     0.045 A 
ENDBRANCH   2  21
TORSDOF 3
