REMARK  8 active torsions:
REMARK  status: ('A' for Active; 'I' for Inactive)
REMARK    1  A    between atoms: C_8  and  C_1 
REMARK    2  A    between atoms: C_2  and  C_9 
REMARK    3  A    between atoms: C_3  and  C_6 
REMARK    4  A    between atoms: C_4  and  C_7 
REMARK    5  A    between atoms: C_5  and  N_14 
REMARK    6  A    between atoms: N_15  and  C_5 
REMARK    7  A    between atoms: C_12  and  N_15 
REMARK    8  A    between atoms: N_14  and  C_13 
ROOT
ATOM      1  C   UNL d   1       0.228  -1.564   5.982  0.00  0.00     0.176 C 
ATOM      2  S   UNL d   1       0.543  -1.343   7.609  0.00  0.00    -0.041 SA
ENDROOT
BRANCH   1   3
ATOM      3  N   UNL d   1       0.050  -0.605   5.012  0.00  0.00    -0.333 N 
ATOM      4  H   UNL d   1      -0.446  -0.956   4.204  0.00  0.00     0.168 HD
BRANCH   3   5
ATOM      5  C   UNL d   1       0.841   0.541   4.769  0.00  0.00     0.035 C 
ATOM      6  C   UNL d   1       1.441   1.325   5.749  0.00  0.00     0.045 C 
ATOM      7  C   UNL d   1       2.361   2.333   5.405  0.00  0.00     0.050 C 
ATOM      8  C   UNL d   1       2.704   2.512   4.054  0.00  0.00     0.032 C 
ATOM      9  C   UNL d   1       2.098   1.740   3.056  0.00  0.00     0.050 C 
ATOM     10  C   UNL d   1       1.108   0.818   3.424  0.00  0.00     0.045 C 
BRANCH   7  11
ATOM     11  C   UNL d   1       2.996   3.162   6.495  0.00  0.00     0.417 C 
ATOM     12  F   UNL d   1       3.812   4.144   6.017  0.00  0.00    -0.166 F 
ATOM     13  F   UNL d   1       3.762   2.417   7.336  0.00  0.00    -0.166 F 
ATOM     14  F   UNL d   1       2.075   3.791   7.275  0.00  0.00    -0.166 F 
ENDBRANCH   7  11
BRANCH   9  15
ATOM     15  C   UNL d   1       2.532   1.817   1.613  0.00  0.00     0.417 C 
ATOM     16  F   UNL d   1       3.705   2.485   1.436  0.00  0.00    -0.166 F 
ATOM     17  F   UNL d   1       2.726   0.580   1.074  0.00  0.00    -0.166 F 
ATOM     18  F   UNL d   1       1.616   2.434   0.820  0.00  0.00    -0.166 F 
ENDBRANCH   9  15
ENDBRANCH   3   5
ENDBRANCH   1   3
BRANCH   1  19
ATOM     19  N   UNL d   1       0.049  -2.869   5.576  0.00  0.00    -0.333 N 
ATOM     20  H   UNL d   1      -0.051  -3.501   6.366  0.00  0.00     0.168 HD
BRANCH  19  21
ATOM     21  C   UNL d   1       0.015  -3.463   4.298  0.00  0.00     0.035 A 
ATOM     22  C   UNL d   1       0.561  -2.893   3.146  0.00  0.00     0.045 A 
ATOM     23  C   UNL d   1       0.385  -3.485   1.880  0.00  0.00     0.050 A 
ATOM     24  C   UNL d   1      -0.272  -4.720   1.800  0.00  0.00     0.032 A 
ATOM     25  C   UNL d   1      -0.747  -5.354   2.956  0.00  0.00     0.050 A 
ATOM     26  C   UNL d   1      -0.588  -4.720   4.201  0.00  0.00     0.045 A 
BRANCH  23  27
ATOM     27  C   UNL d   1       0.908  -2.789   0.645  0.00  0.00     0.417 C 
ATOM     28  F   UNL d   1       0.385  -3.280  -0.511  0.00  0.00    -0.166 F 
ATOM     29  F   UNL d   1       0.614  -1.457   0.650  0.00  0.00    -0.166 F 
ATOM     30  F   UNL d   1       2.257  -2.881   0.524  0.00  0.00    -0.166 F 
ENDBRANCH  23  27
BRANCH  25  31
ATOM     31  C   UNL d   1      -1.453  -6.687   2.891  0.00  0.00     0.417 C 
ATOM     32  F   UNL d   1      -1.544  -7.195   1.635  0.00  0.00    -0.166 F 
ATOM     33  F   UNL d   1      -0.831  -7.638   3.641  0.00  0.00    -0.166 F 
ATOM     34  F   UNL d   1      -2.729  -6.613   3.362  0.00  0.00    -0.166 F 
ENDBRANCH  25  31
ENDBRANCH  19  21
ENDBRANCH   1  19
TORSDOF 8
