REMARK  7 active torsions:
REMARK  status: ('A' for Active; 'I' for Inactive)
REMARK       I    between atoms: N_2  and  C_1 
REMARK    1  A    between atoms: C_16  and  C_1 
REMARK    2  A    between atoms: C_12  and  N_2 
REMARK    3  A    between atoms: C_3  and  C_17 
REMARK    4  A    between atoms: O_13  and  C_3 
REMARK    5  A    between atoms: C_4  and  C_5 
REMARK    6  A    between atoms: S_11  and  C_16 
REMARK    7  A    between atoms: C_17  and  S_11 
ROOT
ATOM      1  C   UNL d   1      -0.931   0.877  -0.645  0.00  0.00     0.231 C 
ATOM      2  N   UNL d   1       0.244   0.413  -1.207  0.00  0.00    -0.327 N 
ATOM      3  O   UNL d   1      -1.786   1.542  -1.234  0.00  0.00    -0.272 OA
ATOM      4  H   UNL d   1       0.744  -0.320  -0.718  0.00  0.00     0.169 HD
ENDROOT
BRANCH   2   5
ATOM      5  C   UNL d   1       0.764   0.791  -2.466  0.00  0.00     0.034 A 
ATOM      6  C   UNL d   1       0.333   1.926  -3.156  0.00  0.00     0.030 A 
ATOM      7  C   UNL d   1       0.919   2.284  -4.374  0.00  0.00     0.017 A 
ATOM      8  C   UNL d   1       1.952   1.515  -4.916  0.00  0.00     0.009 A 
ATOM      9  C   UNL d   1       2.369   0.361  -4.247  0.00  0.00     0.017 A 
ATOM     10  C   UNL d   1       1.786   0.011  -3.020  0.00  0.00     0.030 A 
BRANCH   8  11
ATOM     11  C   UNL d   1       2.566   1.976  -6.189  0.00  0.00     0.155 C 
ATOM     12  O   UNL d   1       1.891   2.621  -6.987  0.00  0.00    -0.293 OA
ATOM     13  C   UNL d   1       4.026   1.698  -6.452  0.00  0.00     0.096 C 
ENDBRANCH   8  11
ENDBRANCH   2   5
BRANCH   1  14
ATOM     14  C   UNL d   1      -1.152   0.468   0.804  0.00  0.00     0.177 C 
BRANCH  14  15
ATOM     15  S   UNL d   1      -1.247   1.917   1.913  0.00  0.00    -0.149 SA
BRANCH  15  16
ATOM     16  C   UNL d   1      -2.634   2.877   1.207  0.00  0.00     0.184 C 
BRANCH  16  17
ATOM     17  C   UNL d   1      -3.913   2.082   1.074  0.00  0.00     0.149 C 
ATOM     18  O   UNL d   1      -4.737   1.958   1.970  0.00  0.00    -0.649 OA
BRANCH  17  19
ATOM     19  O   UNL d   1      -4.079   1.487  -0.131  0.00  0.00    -0.776 OA
ATOM     20  H   UNL d   1      -3.336   1.650  -0.765  0.00  0.00     0.167 HD
ENDBRANCH  17  19
ENDBRANCH  16  17
ENDBRANCH  15  16
ENDBRANCH  14  15
ENDBRANCH   1  14
TORSDOF 7
