REMARK  3 active torsions:
REMARK  status: ('A' for Active; 'I' for Inactive)
REMARK    1  A    between atoms: N_7  and  C_1 
REMARK    2  A    between atoms: C_2  and  C_6 
REMARK    3  A    between atoms: C_13  and  N_7 
ROOT
ATOM      1  C   UNL d   1       2.239   5.976  -0.628  0.00  0.00     0.048 A 
ATOM      2  C   UNL d   1       2.336   4.836  -1.436  0.00  0.00     0.018 A 
ATOM      3  C   UNL d   1       1.214   6.036   0.322  0.00  0.00     0.018 A 
ATOM      4  C   UNL d   1       0.392   3.837  -0.341  0.00  0.00     0.034 A 
ATOM      5  C   UNL d   1       0.302   4.983   0.454  0.00  0.00     0.030 A 
ATOM      6  C   UNL d   1       1.423   3.783  -1.291  0.00  0.00     0.030 A 
ENDROOT
BRANCH   4   7
ATOM      7  N   UNL d   1      -0.537   2.787  -0.287  0.00  0.00    -0.337 N 
ATOM      8  H   UNL d   1      -0.226   1.901  -0.658  0.00  0.00     0.168 HD
BRANCH   7   9
ATOM      9  C   UNL d   1      -1.815   2.792   0.208  0.00  0.00     0.140 C 
ATOM     10  N   UNL d   1      -2.449   3.829   0.606  0.00  0.00    -0.371 N 
ATOM     11  C   UNL d   1      -3.813   3.859   1.091  0.00  0.00     0.122 C 
ATOM     12  HN  UNL d   1      -1.948   4.717   0.580  1.00  0.00     0.161 HD
ATOM     13  C   UNL d   1      -4.276   2.551   1.692  0.00  0.00     0.030 C 
ATOM     14  C   UNL d   1      -4.184   1.454   0.657  0.00  0.00     0.084 C 
ATOM     15  S   UNL d   1      -2.469   1.161   0.197  0.00  0.00    -0.094 SA
ENDBRANCH   7   9
ENDBRANCH   4   7
BRANCH   1  16
ATOM     16  C   UNL d   1       3.199   7.130  -0.769  0.00  0.00     0.417 C 
ATOM     17  F   UNL d   1       4.145   6.938  -1.731  0.00  0.00    -0.166 F 
ATOM     18  F   UNL d   1       2.572   8.295  -1.093  0.00  0.00    -0.166 F 
ATOM     19  F   UNL d   1       3.884   7.382   0.381  0.00  0.00    -0.166 F 
ENDBRANCH   1  16
TORSDOF 3
