REMARK  2 active torsions:
REMARK  status: ('A' for Active; 'I' for Inactive)
REMARK    1  A    between atoms: C_8  and  N_1 
REMARK    2  A    between atoms: C_17  and  C_8 
ROOT
ATOM      1  N   UNL d   1       0.092  -1.560  -0.208  0.00  0.00    -0.340 N 
ATOM      2  C   UNL d   1       1.185  -0.708  -0.324  0.00  0.00     0.064 C 
ATOM      3  C   UNL d   1       0.701   0.569   0.007  0.00  0.00     0.006 C 
ATOM      4  C   UNL d   1      -0.724   0.507   0.029  0.00  0.00     0.005 A 
ATOM      5  C   UNL d   1      -1.086  -0.829  -0.116  0.00  0.00     0.046 A 
ATOM      6  C   UNL d   1       2.554  -0.885  -0.632  0.00  0.00     0.040 C 
ATOM      7  C   UNL d   1       3.437   0.184  -0.433  0.00  0.00     0.040 C 
ATOM      8  C   UNL d   1      -2.433  -1.236  -0.101  0.00  0.00     0.032 A 
ATOM      9  C   UNL d   1       1.610   1.633   0.193  0.00  0.00     0.033 C 
ATOM     10  C   UNL d   1      -1.736   1.484   0.154  0.00  0.00     0.033 A 
ATOM     11  C   UNL d   1       2.972   1.412   0.010  0.00  0.00     0.013 C 
ATOM     12 BR   UNL d   1       3.279  -2.447  -1.420  0.00  0.00    -0.049 Br
ATOM     13  C   UNL d   1      -3.074   1.088   0.120  0.00  0.00     0.011 A 
ATOM     14  C   UNL d   1      -3.421  -0.253   0.006  0.00  0.00     0.021 A 
ATOM     15 BR   UNL d   1       4.196   2.818   0.328  0.00  0.00    -0.051 Br
ATOM     16 BR   UNL d   1      -4.434   2.400   0.213  0.00  0.00    -0.051 Br
ENDROOT
BRANCH   1  17
ATOM     17  C   UNL d   1       0.124  -3.017  -0.048  0.00  0.00     0.168 C 
BRANCH  17  18
ATOM     18  C   UNL d   1       0.055  -3.420   1.410  0.00  0.00    -0.040 A 
ATOM     19  C   UNL d   1      -1.018  -4.194   1.881  0.00  0.00     0.009 A 
ATOM     20  C   UNL d   1      -1.102  -4.545   3.230  0.00  0.00     0.001 A 
ATOM     21  C   UNL d   1      -0.114  -4.135   4.122  0.00  0.00     0.000 A 
ATOM     22  C   UNL d   1       0.970  -3.389   3.665  0.00  0.00     0.001 A 
ATOM     23  C   UNL d   1       1.055  -3.038   2.318  0.00  0.00     0.009 A 
ENDBRANCH  17  18
ENDBRANCH   1  17
TORSDOF 2
