REMARK  2 active torsions:
REMARK  status: ('A' for Active; 'I' for Inactive)
REMARK    1  A    between atoms: C_2  and  S_1 
REMARK    2  A    between atoms: N_3  and  S_1 
ROOT
ATOM      1  C   UNL d   1       0.379  -0.707  -1.528  0.00  0.00     0.077 A 
ATOM      2  C   UNL d   1      -0.986  -0.962  -1.701  0.00  0.00     0.064 A 
ATOM      3  C   UNL d   1      -1.410  -1.638  -2.849  0.00  0.00     0.103 A 
ATOM      4  C   UNL d   1      -0.486  -2.010  -3.833  0.00  0.00     0.102 A 
ATOM      5  O   UNL d   1      -2.752  -1.909  -2.949  0.00  0.00    -0.346 OA
ATOM      6  C   UNL d   1       1.303  -1.067  -2.514  0.00  0.00     0.028 A 
ATOM      7  O   UNL d   1      -0.829  -2.675  -4.983  0.00  0.00    -0.346 OA
ATOM      8  C   UNL d   1       0.868  -1.722  -3.668  0.00  0.00     0.041 A 
ATOM      9  C   UNL d   1      -3.000  -2.936  -3.921  0.00  0.00     0.202 C 
ATOM     10  C   UNL d   1      -2.242  -2.659  -5.207  0.00  0.00     0.202 C 
ENDROOT
BRANCH   1  11
ATOM     11  S   UNL d   1       0.941   0.147  -0.071  0.00  0.00     0.243 S 
ATOM     12  O   UNL d   1       0.110   1.321   0.075  0.00  0.00    -0.206 OA
ATOM     13  O   UNL d   1       2.386   0.259  -0.145  0.00  0.00    -0.206 OA
BRANCH  11  14
ATOM     14  N   UNL d   1       0.599  -0.922   1.245  0.00  0.00    -0.206 NA
ATOM     15  C   UNL d   1       1.351  -2.201   1.221  0.00  0.00     0.107 C 
ATOM     16  C   UNL d   1       0.485  -3.326   1.790  0.00  0.00     0.015 C 
ATOM     17  C   UNL d   1       0.529  -3.436   3.310  0.00  0.00     0.001 C 
ATOM     18  C   UNL d   1       0.049  -2.190   4.044  0.00  0.00     0.001 C 
ATOM     19  C   UNL d   1       0.945  -0.982   3.803  0.00  0.00     0.015 C 
ATOM     20  C   UNL d   1       0.620  -0.177   2.546  0.00  0.00     0.107 C 
ENDBRANCH  11  14
ENDBRANCH   1  11
TORSDOF 2
