REMARK  4 active torsions:
REMARK  status: ('A' for Active; 'I' for Inactive)
REMARK    1  A    between atoms: N_8  and  C_2 
REMARK    2  A    between atoms: C_11  and  N_8 
REMARK    3  A    between atoms: C_9  and  C_14 
REMARK    4  A    between atoms: C_14  and  C_11 
ROOT
ATOM      1  C   UNL d   1      -1.784  -1.157  -0.160  0.00  0.00     0.112 A 
ATOM      2  C   UNL d   1      -0.568  -1.728  -0.171  0.00  0.00     0.047 A 
ATOM      3  C   UNL d   1      -2.027   0.288  -0.141  0.00  0.00     0.290 A 
ATOM      4  C   UNL d   1       0.598  -0.813  -0.174  0.00  0.00     0.024 A 
ATOM      5  O   UNL d   1      -0.924   1.111  -0.196  0.00  0.00    -0.275 OA
ATOM      6  C   UNL d   1       0.373   0.568  -0.208  0.00  0.00     0.091 A 
ATOM      7  O   UNL d   1      -3.171   0.727  -0.082  0.00  0.00    -0.260 OA
ATOM      8  C   UNL d   1       1.936  -1.237  -0.172  0.00  0.00     0.016 A 
ATOM      9  C   UNL d   1       1.411   1.502  -0.251  0.00  0.00     0.038 A 
ATOM     10  C   UNL d   1       2.990  -0.310  -0.202  0.00  0.00     0.001 A 
ATOM     11  C   UNL d   1       2.727   1.058  -0.248  0.00  0.00     0.003 A 
ENDROOT
BRANCH   2  12
ATOM     12  N   UNL d   1      -0.363  -3.104  -0.197  0.00  0.00    -0.389 N 
ATOM     13  H   UNL d   1       0.516  -3.404   0.216  0.00  0.00     0.159 HD
BRANCH  12  14
ATOM     14  C   UNL d   1      -1.434  -4.099  -0.112  0.00  0.00     0.124 C 
BRANCH  14  15
ATOM     15  C   UNL d   1      -0.894  -5.533  -0.140  0.00  0.00     0.053 C 
BRANCH  15  16
ATOM     16  C   UNL d   1      -2.006  -6.565  -0.164  0.00  0.00    -0.082 C 
ATOM     17  C   UNL d   1      -2.147  -7.432  -1.183  0.00  0.00    -0.024 C 
ATOM     18  C   UNL d   1      -3.253  -8.447  -1.273  0.00  0.00     0.027 C 
ATOM     19  C   UNL d   1      -4.379  -8.206  -0.268  0.00  0.00     0.004 C 
ATOM     20  C   UNL d   1      -3.820  -7.835   1.100  0.00  0.00     0.005 C 
ATOM     21  C   UNL d   1      -2.953  -6.577   1.018  0.00  0.00     0.034 C 
ENDBRANCH  15  16
ENDBRANCH  14  15
ENDBRANCH  12  14
ENDBRANCH   2  12
TORSDOF 4
