REMARK  7 active torsions:
REMARK  status: ('A' for Active; 'I' for Inactive)
REMARK    1  A    between atoms: N_3  and  C_1 
REMARK    2  A    between atoms: C_2  and  C_5 
REMARK    3  A    between atoms: C_5  and  N_3 
REMARK    4  A    between atoms: O_8  and  C_6 
REMARK    5  A    between atoms: C_11  and  N_7 
REMARK    6  A    between atoms: O_9  and  C_13 
REMARK    7  A    between atoms: C_13  and  C_11 
ROOT
ATOM      1  N   UNL d   1       0.588   0.875  -0.765  0.00  0.00    -0.363 N 
ATOM      2  H   UNL d   1       0.137  -0.036  -0.810  0.00  0.00     0.162 HD
ENDROOT
BRANCH   1   3
ATOM      3  C   UNL d   1       0.443   1.538   0.419  0.00  0.00     0.167 C 
ATOM      4  S   UNL d   1       0.584   3.182   0.667  0.00  0.00    -0.041 SA
ATOM      5  N   UNL d   1       0.191   0.756   1.507  0.00  0.00    -0.365 N 
ATOM      6  H   UNL d   1       0.105   1.278   2.372  0.00  0.00     0.161 HD
BRANCH   5   7
ATOM      7  C   UNL d   1       0.269  -0.698   1.604  0.00  0.00     0.148 C 
BRANCH   7   8
ATOM      8  C   UNL d   1      -1.012  -1.390   1.139  0.00  0.00     0.183 C 
BRANCH   8   9
ATOM      9  O   UNL d   1      -1.125  -1.323  -0.283  0.00  0.00    -0.399 OA
ATOM     10  H   UNL d   1      -1.993  -1.705  -0.510  0.00  0.00     0.209 HD
ENDBRANCH   8   9
ENDBRANCH   7   8
ENDBRANCH   5   7
ENDBRANCH   1   3
BRANCH   1  11
ATOM     11  C   UNL d   1       0.982   1.442  -2.043  0.00  0.00     0.163 C 
BRANCH  11  12
ATOM     12  C   UNL d   1      -0.144   1.935  -2.922  0.00  0.00    -0.007 A 
ATOM     13  C   UNL d   1       0.122   2.463  -4.199  0.00  0.00     0.076 A 
ATOM     14  C   UNL d   1      -0.918   2.877  -5.036  0.00  0.00     0.037 A 
ATOM     15  C   UNL d   1      -2.241   2.795  -4.609  0.00  0.00     0.003 A 
ATOM     16  C   UNL d   1      -2.527   2.281  -3.350  0.00  0.00     0.001 A 
ATOM     17  C   UNL d   1      -1.491   1.854  -2.516  0.00  0.00     0.011 A 
BRANCH  13  18
ATOM     18  O   UNL d   1       1.375   2.485  -4.759  0.00  0.00    -0.355 OA
ATOM     19  C   UNL d   1       2.270   3.399  -4.127  0.00  0.00     0.210 C 
ENDBRANCH  13  18
ENDBRANCH  11  12
ENDBRANCH   1  11
TORSDOF 7
