REMARK  7 active torsions:
REMARK  status: ('A' for Active; 'I' for Inactive)
REMARK    1  A    between atoms: C_5  and  C_1 
REMARK    2  A    between atoms: N_13  and  C_4 
REMARK    3  A    between atoms: N_8  and  C_22 
REMARK    4  A    between atoms: C_23  and  N_13 
REMARK    5  A    between atoms: C_18  and  C_15 
REMARK    6  A    between atoms: O_20  and  C_19 
REMARK    7  A    between atoms: C_22  and  C_23 
ROOT
ATOM      1  N   UNL d   1       0.883   4.847   0.362  0.00  0.00    -0.263 NA
ATOM      2  H   UNL d   1       1.827   4.631   0.065  0.00  0.00     0.130 HD
ENDROOT
BRANCH   1   3
ATOM      3  C   UNL d   1       0.338   3.664   0.832  0.00  0.00     0.157 A 
ATOM      4  N   UNL d   1       0.954   2.549   0.425  0.00  0.00    -0.329 N 
ATOM      5  C   UNL d   1       0.431   1.354   0.810  0.00  0.00     0.120 A 
ATOM      6  HN  UNL d   1       1.790   2.592  -0.157  1.00  0.00     0.168 HD
ATOM      7  C   UNL d   1      -0.694   1.277   1.610  0.00  0.00     0.051 A 
ATOM      8  C   UNL d   1      -1.241   2.476   1.991  0.00  0.00     0.093 A 
ATOM      9  N   UNL d   1      -0.744   3.668   1.619  0.00  0.00    -0.343 N 
ATOM     10  HN  UNL d   1      -1.174   4.540   1.926  1.00  0.00     0.167 HD
BRANCH   5  11
ATOM     11  C   UNL d   1       1.087   0.066   0.345  0.00  0.00     0.432 C 
ATOM     12  F   UNL d   1       2.204   0.243  -0.415  0.00  0.00    -0.165 F 
ATOM     13  F   UNL d   1       0.245  -0.705  -0.404  0.00  0.00    -0.165 F 
ATOM     14  F   UNL d   1       1.470  -0.727   1.389  0.00  0.00    -0.165 F 
ENDBRANCH   5  11
ENDBRANCH   1   3
BRANCH   1  15
ATOM     15  C   UNL d   1       0.738   5.998   1.243  0.00  0.00     0.114 C 
BRANCH  15  16
ATOM     16  C   UNL d   1       1.416   7.228   0.617  0.00  0.00     0.133 C 
BRANCH  16  17
ATOM     17  N   UNL d   1       1.242   8.389   1.502  0.00  0.00    -0.397 N 
ATOM     18  C   UNL d   1       2.167   9.281   1.398  0.00  0.00     0.094 C 
ATOM     19  HN  UNL d   1       0.455   8.481   2.145  1.00  0.00     0.158 HD
BRANCH  18  20
ATOM     20  C   UNL d   1       2.141  10.524   2.196  0.00  0.00    -0.018 A 
ATOM     21  C   UNL d   1       1.084  10.783   3.075  0.00  0.00     0.049 A 
ATOM     22  C   UNL d   1       1.086  11.968   3.803  0.00  0.00     0.066 A 
ATOM     23  C   UNL d   1       2.119  12.889   3.669  0.00  0.00     0.036 A 
ATOM     24  C   UNL d   1       3.173  12.627   2.792  0.00  0.00     0.004 A 
ATOM     25  C   UNL d   1       3.186  11.443   2.053  0.00  0.00     0.013 A 
BRANCH  22  26
ATOM     26  O   UNL d   1       0.077  12.269   4.671  0.00  0.00    -0.361 OA
ATOM     27  H   UNL d   1      -0.571  11.544   4.654  0.00  0.00     0.217 HD
ENDBRANCH  22  26
ENDBRANCH  18  20
ENDBRANCH  16  17
ENDBRANCH  15  16
ENDBRANCH   1  15
TORSDOF 7
