REMARK  4 active torsions:
REMARK  status: ('A' for Active; 'I' for Inactive)
REMARK       I    between atoms: C_2  and  N_1 
REMARK    1  A    between atoms: C_5  and  C_2 
REMARK    2  A    between atoms: C_3  and  C_5 
REMARK    3  A    between atoms: C_11  and  C_4 
REMARK    4  A    between atoms: O_23  and  C_4 
ROOT
ATOM      1  N   UNL d   1       1.764   0.441   0.165  0.00  0.00    -0.352 N 
ATOM      2  C   UNL d   1       3.044   0.288  -0.381  0.00  0.00     0.220 C 
ATOM      3  C   UNL d   1      -1.049   0.766  -0.570  0.00  0.00     0.088 C 
ATOM      4  C   UNL d   1      -0.003   1.905  -0.691  0.00  0.00     0.062 C 
ATOM      5  C   UNL d   1      -0.346  -0.611  -0.496  0.00  0.00     0.062 C 
ATOM      6  C   UNL d   1       0.825  -0.629   0.484  0.00  0.00     0.129 C 
ATOM      7  C   UNL d   1       1.166   1.766   0.286  0.00  0.00     0.129 C 
ATOM      8  O   UNL d   1       3.717   1.255  -0.748  0.00  0.00    -0.273 OA
ENDROOT
BRANCH   2   9
ATOM      9  C   UNL d   1       3.554  -1.145  -0.531  0.00  0.00     0.112 C 
BRANCH   9  10
ATOM     10  C   UNL d   1       5.047  -1.421  -0.866  0.00  0.00    -0.031 C 
ATOM     11  C   UNL d   1       5.983  -0.856   0.233  0.00  0.00     0.014 C 
ATOM     12  C   UNL d   1       7.442  -1.287  -0.008  0.00  0.00    -0.013 C 
ATOM     13  C   UNL d   1       7.522  -2.822  -0.007  0.00  0.00     0.009 C 
ATOM     14  C   UNL d   1       7.912  -0.751  -1.370  0.00  0.00     0.009 C 
ATOM     15  C   UNL d   1       6.658  -3.392  -1.143  0.00  0.00    -0.013 C 
ATOM     16  C   UNL d   1       5.202  -2.973  -0.915  0.00  0.00     0.014 C 
ATOM     17  C   UNL d   1       7.133  -2.833  -2.491  0.00  0.00     0.009 C 
ATOM     18  C   UNL d   1       7.010  -1.300  -2.489  0.00  0.00    -0.013 C 
ATOM     19  C   UNL d   1       5.539  -0.879  -2.233  0.00  0.00     0.014 C 
ENDBRANCH   9  10
ENDBRANCH   2   9
BRANCH   3  20
ATOM     20  C   UNL d   1      -2.095   0.752  -1.706  0.00  0.00    -0.024 A 
ATOM     21  C   UNL d   1      -2.078   1.667  -2.775  0.00  0.00     0.012 A 
ATOM     22  C   UNL d   1      -3.004   1.579  -3.821  0.00  0.00     0.024 A 
ATOM     23  C   UNL d   1      -3.974   0.586  -3.814  0.00  0.00     0.034 A 
ATOM     24  C   UNL d   1      -4.043  -0.311  -2.756  0.00  0.00     0.024 A 
ATOM     25 CL   UNL d   1      -5.087   0.460  -5.120  0.00  0.00    -0.084 Cl
ATOM     26  C   UNL d   1      -3.114  -0.226  -1.710  0.00  0.00     0.012 A 
ENDBRANCH   3  20
BRANCH   3  27
ATOM     27  O   UNL d   1      -1.746   0.962   0.672  0.00  0.00    -0.385 OA
ATOM     28  H   UNL d   1      -2.654   1.248   0.472  0.00  0.00     0.211 HD
ENDBRANCH   3  27
TORSDOF 4
