REMARK  20 active torsions:
REMARK  status: ('A' for Active; 'I' for Inactive)
REMARK    1  A    between atoms: C_8  and  C_4 
REMARK    2  A    between atoms: C_9  and  C_7 
REMARK    3  A    between atoms: O_12  and  C_9 
REMARK    4  A    between atoms: C_13  and  O_12 
REMARK    5  A    between atoms: O_22  and  C_14 
REMARK    6  A    between atoms: O_23  and  C_15 
REMARK    7  A    between atoms: C_24  and  O_22 
REMARK    8  A    between atoms: C_25  and  O_23 
REMARK    9  A    between atoms: C_26  and  C_24 
REMARK   10  A    between atoms: C_27  and  C_25 
REMARK   11  A    between atoms: C_36  and  C_26 
REMARK   12  A    between atoms: C_33  and  C_27 
REMARK   13  A    between atoms: C_28  and  C_31 
REMARK   14  A    between atoms: C_29  and  C_30 
REMARK   15  A    between atoms: C_30  and  C_35 
REMARK   16  A    between atoms: C_31  and  C_37 
REMARK   17  A    between atoms: C_32  and  C_36 
REMARK   18  A    between atoms: C_37  and  C_32 
REMARK   19  A    between atoms: C_34  and  C_33 
REMARK   20  A    between atoms: C_35  and  C_34 
ROOT
ATOM      1  N   UNL d   1      -1.305   0.668   0.025  0.00  0.00    -0.292 N 
ATOM      2  HN  UNL d   1      -2.153   1.234  -0.011  1.00  0.00     0.187 HD
ATOM      3  S   UNL d   1       1.150  -0.021   0.058  0.00  0.00    -0.053 SA
ATOM      4  C   UNL d   1      -0.088   1.178   0.057  0.00  0.00     0.101 A 
ATOM      5  N   UNL d   1      -1.308  -0.711   0.045  0.00  0.00    -0.295 N 
ATOM      6  HN  UNL d   1      -2.156  -1.278   0.045  1.00  0.00     0.187 HD
ATOM      7  C   UNL d   1      -0.090  -1.210   0.066  0.00  0.00     0.092 A 
ENDROOT
BRANCH   7   8
ATOM      8  C   UNL d   1       0.234  -2.666   0.003  0.00  0.00     0.242 C 
BRANCH   8   9
ATOM      9  O   UNL d   1       0.378  -3.156   1.338  0.00  0.00    -0.345 OA
BRANCH   9  10
ATOM     10  C   UNL d   1       0.666  -4.491   1.457  0.00  0.00     0.069 A 
ATOM     11  C   UNL d   1       0.807  -5.388   0.397  0.00  0.00     0.039 A 
ATOM     12  C   UNL d   1       1.119  -6.731   0.638  0.00  0.00     0.039 A 
ATOM     13  C   UNL d   1       1.297  -7.193   1.942  0.00  0.00     0.068 A 
ATOM     14  C   UNL d   1       1.129  -6.304   3.003  0.00  0.00     0.039 A 
ATOM     15  C   UNL d   1       0.822  -4.960   2.763  0.00  0.00     0.039 A 
BRANCH  13  16
ATOM     16  O   UNL d   1       1.587  -8.487   2.282  0.00  0.00    -0.351 OA
BRANCH  16  17
ATOM     17  C   UNL d   1       2.316  -9.226   1.300  0.00  0.00     0.175 C 
BRANCH  17  18
ATOM     18  C   UNL d   1       2.581 -10.630   1.834  0.00  0.00     0.027 C 
BRANCH  18  19
ATOM     19  C   UNL d   1       3.382 -11.447   0.821  0.00  0.00     0.002 C 
BRANCH  19  20
ATOM     20  C   UNL d   1       3.642 -12.865   1.320  0.00  0.00     0.000 C 
BRANCH  20  21
ATOM     21  C   UNL d   1       4.449 -13.666   0.297  0.00  0.00     0.000 C 
BRANCH  21  22
ATOM     22  C   UNL d   1       4.713 -15.085   0.795  0.00  0.00    -0.000 C 
BRANCH  22  23
ATOM     23  C   UNL d   1       5.521 -15.891  -0.220  0.00  0.00    -0.005 C 
ATOM     24  C   UNL d   1       5.777 -17.302   0.283  0.00  0.00     0.005 C 
ENDBRANCH  22  23
ENDBRANCH  21  22
ENDBRANCH  20  21
ENDBRANCH  19  20
ENDBRANCH  18  19
ENDBRANCH  17  18
ENDBRANCH  16  17
ENDBRANCH  13  16
ENDBRANCH   9  10
ENDBRANCH   8   9
ENDBRANCH   7   8
BRANCH   4  25
ATOM     25  C   UNL d   1       0.212   2.616   0.055  0.00  0.00    -0.001 A 
ATOM     26  C   UNL d   1      -0.700   3.509  -0.530  0.00  0.00     0.017 A 
ATOM     27  C   UNL d   1      -0.478   4.892  -0.508  0.00  0.00     0.037 A 
ATOM     28  C   UNL d   1       0.659   5.407   0.113  0.00  0.00     0.068 A 
ATOM     29  C   UNL d   1       1.584   4.529   0.677  0.00  0.00     0.037 A 
ATOM     30  C   UNL d   1       1.361   3.151   0.656  0.00  0.00     0.017 A 
BRANCH  28  31
ATOM     31  O   UNL d   1       0.986   6.732   0.191  0.00  0.00    -0.351 OA
BRANCH  31  32
ATOM     32  C   UNL d   1      -0.121   7.634   0.225  0.00  0.00     0.175 C 
BRANCH  32  33
ATOM     33  C   UNL d   1       0.420   9.053   0.371  0.00  0.00     0.027 C 
BRANCH  33  34
ATOM     34  C   UNL d   1      -0.723  10.062   0.415  0.00  0.00     0.002 C 
BRANCH  34  35
ATOM     35  C   UNL d   1      -0.206  11.496   0.527  0.00  0.00     0.000 C 
BRANCH  35  36
ATOM     36  C   UNL d   1      -1.363  12.490   0.572  0.00  0.00     0.000 C 
BRANCH  36  37
ATOM     37  C   UNL d   1      -0.849  13.923   0.688  0.00  0.00    -0.000 C 
BRANCH  37  38
ATOM     38  C   UNL d   1      -2.001  14.925   0.736  0.00  0.00    -0.005 C 
ATOM     39  C   UNL d   1      -1.484  16.349   0.851  0.00  0.00     0.005 C 
ENDBRANCH  37  38
ENDBRANCH  36  37
ENDBRANCH  35  36
ENDBRANCH  34  35
ENDBRANCH  33  34
ENDBRANCH  32  33
ENDBRANCH  31  32
ENDBRANCH  28  31
ENDBRANCH   4  25
TORSDOF 20
