REMARK  6 active torsions:
REMARK  status: ('A' for Active; 'I' for Inactive)
REMARK    1  A    between atoms: S_13  and  C_3 
REMARK    2  A    between atoms: S_14  and  C_4 
REMARK    3  A    between atoms: C_11  and  C_15 
REMARK    4  A    between atoms: C_12  and  C_16 
REMARK    5  A    between atoms: C_15  and  S_13 
REMARK    6  A    between atoms: C_16  and  S_14 
ROOT
ATOM      1  N   UNL d   1       0.115   0.636  -0.441  0.00  0.00    -0.163 NA
ATOM      2  N   UNL d   1       0.080  -0.735  -0.393  0.00  0.00    -0.163 NA
ATOM      3  C   UNL d   1       1.318   1.055   0.072  0.00  0.00     0.135 C 
ATOM      4  C   UNL d   1      -1.169  -1.108   0.059  0.00  0.00     0.135 A 
ATOM      5  N   UNL d   1       2.209   0.127   0.325  0.00  0.00    -0.356 N 
ATOM      6  HN  UNL d   1       3.178   0.227   0.630  1.00  0.00     0.162 HD
ATOM      7  N   UNL d   1      -2.043  -0.143   0.247  0.00  0.00    -0.356 N 
ATOM      8  HN  UNL d   1      -3.028  -0.206   0.504  1.00  0.00     0.162 HD
ATOM      9  C   UNL d   1      -1.204   1.082  -0.018  0.00  0.00     0.177 A 
ATOM     10  C   UNL d   1       1.419  -1.133   0.046  0.00  0.00     0.177 C 
ATOM     11  C   UNL d   1      -1.832   1.903  -1.135  0.00  0.00     0.051 C 
ATOM     12  C   UNL d   1       1.503  -1.983   1.303  0.00  0.00     0.051 C 
ENDROOT
BRANCH   3  13
ATOM     13  S   UNL d   1       1.631   2.737   0.381  0.00  0.00    -0.094 SA
BRANCH  13  14
ATOM     14  C   UNL d   1       3.400   2.815  -0.027  0.00  0.00     0.125 C 
BRANCH  14  15
ATOM     15  C   UNL d   1       3.956   4.206   0.157  0.00  0.00     0.012 A 
ATOM     16  C   UNL d   1       3.825   5.137  -0.883  0.00  0.00     0.125 A 
ATOM     17  F   UNL d   1       3.219   4.776  -2.025  0.00  0.00    -0.205 F 
ATOM     18  C   UNL d   1       4.309   6.440  -0.778  0.00  0.00     0.043 A 
ATOM     19  C   UNL d   1       4.948   6.846   0.388  0.00  0.00     0.005 A 
ATOM     20  C   UNL d   1       5.089   5.944   1.442  0.00  0.00     0.024 A 
ATOM     21  C   UNL d   1       4.592   4.637   1.332  0.00  0.00     0.044 A 
ATOM     22 CL   UNL d   1       4.804   3.596   2.694  0.00  0.00    -0.084 Cl
ENDBRANCH  14  15
ENDBRANCH  13  14
ENDBRANCH   3  13
BRANCH   4  23
ATOM     23  S   UNL d   1      -1.589  -2.776   0.317  0.00  0.00    -0.094 SA
BRANCH  23  24
ATOM     24  C   UNL d   1      -3.364  -2.783  -0.068  0.00  0.00     0.125 C 
BRANCH  24  25
ATOM     25  C   UNL d   1      -3.945  -4.173   0.065  0.00  0.00     0.012 A 
ATOM     26  C   UNL d   1      -3.809  -5.071  -1.005  0.00  0.00     0.125 A 
ATOM     27  F   UNL d   1      -3.196  -4.675  -2.130  0.00  0.00    -0.205 F 
ATOM     28  C   UNL d   1      -4.292  -6.379  -0.944  0.00  0.00     0.043 A 
ATOM     29  C   UNL d   1      -4.936  -6.825   0.202  0.00  0.00     0.005 A 
ATOM     30  C   UNL d   1      -5.087  -5.957   1.284  0.00  0.00     0.024 A 
ATOM     31  C   UNL d   1      -4.590  -4.640   1.218  0.00  0.00     0.044 A 
ATOM     32 CL   UNL d   1      -4.816  -3.648   2.613  0.00  0.00    -0.084 Cl
ENDBRANCH  24  25
ENDBRANCH  23  24
ENDBRANCH   4  23
TORSDOF 6
