REMARK  2 active torsions:
REMARK  status: ('A' for Active; 'I' for Inactive)
REMARK    1  A    between atoms: C_7  and  C_1 
REMARK    2  A    between atoms: C_8  and  C_4 
ROOT
ATOM      1  C   UNL d   1       0.339   1.235  -0.030  0.00  0.00    -0.020 A 
ATOM      2  C   UNL d   1       1.022   0.004   0.086  0.00  0.00    -0.050 A 
ATOM      3  C   UNL d   1       0.294  -1.213   0.053  0.00  0.00     0.020 A 
ATOM      4  C   UNL d   1      -1.108  -1.264  -0.014  0.00  0.00    -0.025 A 
ATOM      5  C   UNL d   1      -1.066   1.178  -0.098  0.00  0.00     0.013 A 
ATOM      6  C   UNL d   1      -1.771  -0.033  -0.070  0.00  0.00     0.013 A 
ATOM      7  C   UNL d   1       2.517  -0.118   0.222  0.00  0.00     0.049 C 
ENDROOT
BRANCH   1   8
ATOM      8  C   UNL d   1       1.006   2.564  -0.083  0.00  0.00    -0.025 A 
ATOM      9  C   UNL d   1       2.129   2.803  -0.890  0.00  0.00     0.012 A 
ATOM     10  C   UNL d   1       2.752   4.057  -0.930  0.00  0.00     0.001 A 
ATOM     11  C   UNL d   1       2.235   5.116  -0.191  0.00  0.00     0.000 A 
ATOM     12  C   UNL d   1       1.104   4.918   0.594  0.00  0.00     0.001 A 
ATOM     13  C   UNL d   1       0.505   3.654   0.655  0.00  0.00     0.012 A 
ENDBRANCH   1   8
BRANCH   4  14
ATOM     14  C   UNL d   1      -1.841  -2.556  -0.035  0.00  0.00    -0.026 A 
ATOM     15  C   UNL d   1      -3.056  -2.705  -0.730  0.00  0.00     0.012 A 
ATOM     16  C   UNL d   1      -3.738  -3.927  -0.766  0.00  0.00     0.001 A 
ATOM     17  C   UNL d   1      -3.214  -5.038  -0.116  0.00  0.00     0.000 A 
ATOM     18  C   UNL d   1      -2.017  -4.924   0.582  0.00  0.00     0.001 A 
ATOM     19  C   UNL d   1      -1.345  -3.697   0.628  0.00  0.00     0.012 A 
ENDBRANCH   4  14
TORSDOF 2
