REMARK  9 active torsions:
REMARK  status: ('A' for Active; 'I' for Inactive)
REMARK    1  A    between atoms: CA_5  and  C_1 
REMARK    2  A    between atoms: OXT_6  and  C_1 
REMARK    3  A    between atoms: C_2  and  C_9 
REMARK    4  A    between atoms: O_8  and  C_2 
REMARK    5  A    between atoms: N_7  and  CA_5 
REMARK    6  A    between atoms: C_10  and  CA_5 
REMARK    7  A    between atoms: C_9  and  C_11 
REMARK    8  A    between atoms: C_12  and  C_10 
REMARK    9  A    between atoms: C_11  and  C_12 
ROOT
ATOM      1  CA  UNL d   1       0.384   0.261   1.231  0.00  0.00     0.314 C 
ENDROOT
BRANCH   1   2
ATOM      2  C   UNL d   1       0.844   1.664   1.659  0.00  0.00     0.173 C 
ATOM      3  O   UNL d   1       1.061   1.988   2.817  0.00  0.00    -0.648 OA
BRANCH   2   4
ATOM      4  OXT UNL d   1       0.994   2.524   0.625  0.00  0.00    -0.775 OA
ATOM      5  HXT UNL d   1       0.817   2.137  -0.253  0.00  0.00     0.167 HD
ENDBRANCH   2   4
ENDBRANCH   1   2
BRANCH   1   6
ATOM      6  N   UNL d   1       0.806  -0.752   2.221  0.00  0.00     0.093 N 
ATOM      7  H1  UNL d   1       0.445  -0.466   3.137  0.00  0.00     0.314 HD
ATOM      8  H2  UNL d   1       1.820  -0.681   2.343  0.00  0.00     0.314 HD
ENDBRANCH   1   6
BRANCH   1   9
ATOM      9  C   UNL d   1      -1.132   0.216   1.004  0.00  0.00     0.046 C 
BRANCH   9  10
ATOM     10  C   UNL d   1      -1.984   0.507   2.251  0.00  0.00     0.003 C 
BRANCH  10  11
ATOM     11  C   UNL d   1      -3.490   0.449   1.980  0.00  0.00     0.010 C 
BRANCH  11  12
ATOM     12  C   UNL d   1      -3.971  -0.939   1.551  0.00  0.00     0.110 C 
BRANCH  12  13
ATOM     13  C   UNL d   1      -5.462  -0.984   1.327  0.00  0.00     0.139 C 
ATOM     14  O   UNL d   1      -6.230  -0.046   1.471  0.00  0.00    -0.650 OA
BRANCH  13  15
ATOM     15  O   UNL d   1      -5.878  -2.206   0.920  0.00  0.00    -0.776 OA
ATOM     16  H   UNL d   1      -5.158  -2.861   0.847  0.00  0.00     0.167 HD
ENDBRANCH  13  15
ENDBRANCH  12  13
ENDBRANCH  11  12
ENDBRANCH  10  11
ENDBRANCH   9  10
ENDBRANCH   1   9
TORSDOF 9
