REMARK  2 active torsions:
REMARK  status: ('A' for Active; 'I' for Inactive)
REMARK    1  A    between atoms: C_7  and  O_9 
REMARK    2  A    between atoms: O_9  and  C_10 
ROOT
ATOM      1  N   UNL d   1       0.996   0.019  -0.008  0.00  0.00    -0.195 NA
ATOM      2  C   UNL d   1       2.161   0.083  -0.037  0.00  0.00     0.085 C 
ATOM      3  C   UNL d   1       3.654   0.161  -0.124  0.00  0.00     0.299 C 
ENDROOT
BRANCH   3   4
ATOM      4  O   UNL d   1       4.171   0.917   0.986  0.00  0.00    -0.338 OA
BRANCH   4   5
ATOM      5  C   UNL d   1       5.531   1.100   1.042  0.00  0.00     0.070 A 
ATOM      6  C   UNL d   1       6.060   1.258   2.327  0.00  0.00     0.049 A 
ATOM      7  C   UNL d   1       7.433   1.489   2.531  0.00  0.00    -0.023 A 
ATOM      8  C   UNL d   1       7.974   1.635   3.820  0.00  0.00     0.012 A 
ATOM      9  C   UNL d   1       8.289   1.582   1.411  0.00  0.00    -0.026 A 
ATOM     10  C   UNL d   1       9.338   1.873   3.999  0.00  0.00     0.001 A 
ATOM     11  C   UNL d   1      10.178   1.970   2.895  0.00  0.00     0.001 A 
ATOM     12  C   UNL d   1       9.658   1.825   1.608  0.00  0.00     0.012 A 
ATOM     13  C   UNL d   1       7.747   1.438   0.125  0.00  0.00     0.015 A 
ATOM     14  C   UNL d   1       6.379   1.201  -0.060  0.00  0.00     0.037 A 
ENDBRANCH   4   5
ENDBRANCH   3   4
TORSDOF 2
