REMARK  6 active torsions:
REMARK  status: ('A' for Active; 'I' for Inactive)
REMARK    1  A    between atoms: C_7  and  N_1 
REMARK    2  A    between atoms: O_11  and  C_5 
REMARK    3  A    between atoms: C_10  and  C_7 
REMARK    4  A    between atoms: O_13  and  C_10 
REMARK    5  A    between atoms: C_14  and  C_10 
REMARK    6  A    between atoms: S_12  and  C_14 
ROOT
ATOM      1  N   UNL d   1       1.027  -0.794   0.178  0.00  0.00    -0.253 N 
ATOM      2  N   UNL d   1       0.411  -0.441   1.367  0.00  0.00    -0.275 N 
ATOM      3  HN  UNL d   1       0.827  -0.644   2.276  1.00  0.00     0.189 HD
ATOM      4  C   UNL d   1       0.474  -0.563  -1.079  0.00  0.00     0.262 A 
ATOM      5  C   UNL d   1      -0.715   0.157   1.252  0.00  0.00     0.154 A 
ATOM      6  C   UNL d   1      -0.823   0.160  -1.099  0.00  0.00     0.080 A 
ATOM      7  C   UNL d   1      -1.425   0.524   0.036  0.00  0.00     0.063 A 
ATOM      8  O   UNL d   1       0.998  -0.896  -2.139  0.00  0.00    -0.267 OA
ENDROOT
BRANCH   1   9
ATOM      9  C   UNL d   1       2.328  -1.450   0.294  0.00  0.00     0.184 C 
BRANCH   9  10
ATOM     10  C   UNL d   1       2.212  -2.983   0.398  0.00  0.00     0.147 C 
BRANCH  10  11
ATOM     11  O   UNL d   1       1.717  -3.559  -0.825  0.00  0.00    -0.393 OA
ATOM     12  H   UNL d   1       1.939  -2.964  -1.567  0.00  0.00     0.210 HD
ENDBRANCH  10  11
BRANCH  10  13
ATOM     13  C   UNL d   1       3.562  -3.655   0.700  0.00  0.00     0.107 C 
BRANCH  13  14
ATOM     14  S   UNL d   1       4.256  -3.184   2.321  0.00  0.00    -0.171 SA
ATOM     15  C   UNL d   1       5.803  -4.115   2.245  0.00  0.00     0.089 C 
ENDBRANCH  13  14
ENDBRANCH  10  13
ENDBRANCH   9  10
ENDBRANCH   1   9
BRANCH   5  16
ATOM     16  O   UNL d   1      -1.376   0.534   2.349  0.00  0.00    -0.345 OA
ATOM     17  H   UNL d   1      -0.846   0.257   3.116  0.00  0.00     0.219 HD
ENDBRANCH   5  16
TORSDOF 6
