REMARK  1 active torsions:
REMARK  status: ('A' for Active; 'I' for Inactive)
REMARK    1  A    between atoms: C_6  and  C_3 
ROOT
ATOM      1  C   UNL d   1       1.174   1.173  -0.072  0.00  0.00     0.176 A 
ATOM      2  C   UNL d   1       1.139  -1.209  -0.074  0.00  0.00     0.176 A 
ATOM      3  C   UNL d   1       2.100  -0.032  -0.126  0.00  0.00     0.168 A 
ATOM      4  C   UNL d   1      -0.208   0.696  -0.044  0.00  0.00     0.025 A 
ATOM      5  C   UNL d   1      -0.229  -0.692  -0.045  0.00  0.00     0.025 A 
ATOM      6  O   UNL d   1       1.477   2.353  -0.061  0.00  0.00    -0.291 OA
ATOM      7  O   UNL d   1       1.407  -2.397  -0.068  0.00  0.00    -0.291 OA
ATOM      8  C   UNL d   1      -1.373   1.440  -0.013  0.00  0.00     0.016 A 
ATOM      9  C   UNL d   1      -1.415  -1.401  -0.016  0.00  0.00     0.016 A 
ATOM     10  C   UNL d   1      -2.605  -0.667   0.013  0.00  0.00     0.001 A 
ATOM     11  C   UNL d   1      -2.584   0.741   0.014  0.00  0.00     0.001 A 
ENDROOT
BRANCH   3  12
ATOM     12  C   UNL d   1       3.137  -0.051   0.974  0.00  0.00    -0.039 A 
ATOM     13  C   UNL d   1       4.502  -0.103   0.643  0.00  0.00     0.011 A 
ATOM     14  C   UNL d   1       5.474  -0.123   1.645  0.00  0.00     0.043 A 
ATOM     15  C   UNL d   1       5.086  -0.092   2.978  0.00  0.00     0.116 A 
ATOM     16  C   UNL d   1       3.744  -0.041   3.330  0.00  0.00     0.043 A 
ATOM     17  F   UNL d   1       6.019  -0.112   3.939  0.00  0.00    -0.206 F 
ATOM     18  C   UNL d   1       2.769  -0.021   2.331  0.00  0.00     0.011 A 
ENDBRANCH   3  12
TORSDOF 1
