REMARK  3 active torsions:
REMARK  status: ('A' for Active; 'I' for Inactive)
REMARK    1  A    between atoms: C_9  and  C_1 
REMARK    2  A    between atoms: O_18  and  C_6 
REMARK    3  A    between atoms: C_7  and  C_11 
REMARK       I    between atoms: N_17  and  C_7 
ROOT
ATOM      1  C   UNL d   1      -0.662   1.145   0.071  0.00  0.00     0.117 A 
ATOM      2  N   UNL d   1      -0.976   0.246   1.022  0.00  0.00    -0.323 N 
ATOM      3  HN  UNL d   1      -1.685   0.426   1.732  1.00  0.00     0.169 HD
ATOM      4  N   UNL d   1       0.275   0.950  -0.882  0.00  0.00    -0.345 N 
ATOM      5  HN  UNL d   1       0.480   1.667  -1.578  1.00  0.00     0.167 HD
ATOM      6  C   UNL d   1      -0.291  -0.898   0.968  0.00  0.00     0.143 A 
ATOM      7  C   UNL d   1       0.673  -1.212   0.051  0.00  0.00     0.080 A 
ATOM      8  C   UNL d   1       0.932  -0.232  -0.879  0.00  0.00     0.011 A 
ATOM      9  C   UNL d   1       1.960  -0.437  -1.950  0.00  0.00     0.068 C 
ENDROOT
BRANCH   1  10
ATOM     10  C   UNL d   1      -1.430   2.409   0.038  0.00  0.00     0.008 A 
ATOM     11  C   UNL d   1      -2.432   2.681   0.990  0.00  0.00     0.016 A 
ATOM     12  C   UNL d   1      -3.209   3.844   0.926  0.00  0.00     0.018 A 
ATOM     13  C   UNL d   1      -2.998   4.779  -0.091  0.00  0.00     0.031 A 
ATOM     14  C   UNL d   1      -1.994   4.546  -1.034  0.00  0.00     0.018 A 
ATOM     15  C   UNL d   1      -1.222   3.377  -0.964  0.00  0.00     0.016 A 
BRANCH  13  16
ATOM     16  C   UNL d   1      -3.896   5.963  -0.151  0.00  0.00     0.249 C 
ATOM     17  O   UNL d   1      -4.990   5.967   0.400  0.00  0.00    -0.268 OA
ATOM     18  N   UNL d   1      -3.455   7.064  -0.827  0.00  0.00    -0.366 N 
ATOM     19  H   UNL d   1      -2.491   7.195  -1.099  0.00  0.00     0.159 HD
ATOM     20  H   UNL d   1      -4.048   7.883  -0.783  0.00  0.00     0.159 HD
ENDBRANCH  13  16
ENDBRANCH   1  10
BRANCH   6  21
ATOM     21  O   UNL d   1      -0.634  -1.795   1.929  0.00  0.00    -0.346 OA
ATOM     22  H   UNL d   1      -1.330  -1.299   2.396  0.00  0.00     0.219 HD
ENDBRANCH   6  21
TORSDOF 3
