REMARK  1 active torsions:
REMARK  status: ('A' for Active; 'I' for Inactive)
REMARK    1  A    between atoms: C_4  and  N_1 
ROOT
ATOM      1  N   UNL d   1       2.446   0.009  -0.022  0.00  0.00    -0.252 N 
ATOM      2  C   UNL d   1       1.665  -1.141  -0.042  0.00  0.00     0.236 C 
ATOM      3  C   UNL d   1       1.649   1.147   0.001  0.00  0.00     0.236 C 
ATOM      4  C   UNL d   1       0.266  -0.686  -0.343  0.00  0.00     0.092 C 
ATOM      5  C   UNL d   1       0.262   0.675   0.319  0.00  0.00     0.092 C 
ATOM      6  O   UNL d   1       1.980  -2.311   0.107  0.00  0.00    -0.272 OA
ATOM      7  O   UNL d   1       1.947   2.322  -0.160  0.00  0.00    -0.272 OA
ATOM      8  C   UNL d   1      -0.935   1.474  -0.154  0.00  0.00     0.015 C 
ATOM      9  C   UNL d   1      -0.914  -1.499   0.147  0.00  0.00     0.015 C 
ATOM     10  C   UNL d   1      -2.210   0.713   0.244  0.00  0.00     0.001 C 
ATOM     11  C   UNL d   1      -2.205  -0.752  -0.229  0.00  0.00     0.001 C 
ENDROOT
BRANCH   1  12
ATOM     12  C   UNL d   1       3.869   0.021  -0.033  0.00  0.00     0.045 A 
ATOM     13  C   UNL d   1       4.604  -1.092  -0.468  0.00  0.00     0.037 A 
ATOM     14  C   UNL d   1       6.012  -1.082  -0.516  0.00  0.00    -0.054 A 
ATOM     15  C   UNL d   1       6.735  -2.284  -1.062  0.00  0.00     0.049 C 
ATOM     16  C   UNL d   1       6.709   0.055  -0.074  0.00  0.00    -0.056 A 
ATOM     17  C   UNL d   1       5.982   1.163   0.373  0.00  0.00     0.009 A 
ATOM     18  C   UNL d   1       8.211   0.115  -0.087  0.00  0.00     0.049 C 
ATOM     19  C   UNL d   1       4.585   1.150   0.382  0.00  0.00     0.031 A 
ENDBRANCH   1  12
TORSDOF 1
