REMARK  6 active torsions:
REMARK  status: ('A' for Active; 'I' for Inactive)
REMARK    1  A    between atoms: C_7  and  C_3 
REMARK    2  A    between atoms: C_17  and  C_7 
REMARK    3  A    between atoms: C_8  and  C_12 
REMARK    4  A    between atoms: N_10  and  C_18 
REMARK    5  A    between atoms: C_22  and  C_17 
REMARK    6  A    between atoms: C_23  and  C_22 
ROOT
ATOM      1  C   UNL d   1      -3.930   3.757   0.379  0.00  0.00     0.046 C 
ENDROOT
BRANCH   1   2
ATOM      2  C   UNL d   1      -2.514   3.169   0.235  0.00  0.00     0.088 C 
BRANCH   2   3
ATOM      3  C   UNL d   1      -2.487   1.674  -0.079  0.00  0.00     0.161 C 
ATOM      4  O   UNL d   1      -3.492   1.036  -0.378  0.00  0.00    -0.292 OA
BRANCH   3   5
ATOM      5  C   UNL d   1      -1.157   0.976  -0.039  0.00  0.00     0.023 A 
ATOM      6  C   UNL d   1      -0.128   1.359  -0.945  0.00  0.00    -0.041 A 
ATOM      7  C   UNL d   1      -0.359   2.434  -1.981  0.00  0.00     0.050 C 
ATOM      8  C   UNL d   1       1.151   0.732  -0.877  0.00  0.00    -0.049 A 
ATOM      9  C   UNL d   1       1.390  -0.290   0.075  0.00  0.00    -0.049 A 
ATOM     10  C   UNL d   1       2.225   1.198  -1.841  0.00  0.00     0.049 C 
ATOM     11  C   UNL d   1       0.333  -0.708   0.943  0.00  0.00    -0.049 A 
ATOM     12  C   UNL d   1       2.722  -1.002   0.190  0.00  0.00     0.049 C 
ATOM     13  C   UNL d   1      -0.946  -0.089   0.875  0.00  0.00    -0.041 A 
ATOM     14  C   UNL d   1       0.610  -1.834   1.923  0.00  0.00     0.049 C 
ATOM     15  C   UNL d   1      -2.045  -0.586   1.785  0.00  0.00     0.050 C 
ENDBRANCH   3   5
ENDBRANCH   2   3
ENDBRANCH   1   2
BRANCH   1  16
ATOM     16  C   UNL d   1      -3.990   5.259   0.140  0.00  0.00    -0.056 A 
ATOM     17  C   UNL d   1      -5.114   5.823  -0.500  0.00  0.00     0.036 A 
ATOM     18  C   UNL d   1      -5.192   7.200  -0.765  0.00  0.00     0.032 A 
ATOM     19  C   UNL d   1      -4.121   8.014  -0.392  0.00  0.00     0.029 A 
ATOM     20  C   UNL d   1      -3.009   7.479   0.258  0.00  0.00     0.003 A 
ATOM     21  C   UNL d   1      -2.952   6.114   0.535  0.00  0.00     0.007 A 
BRANCH  18  22
ATOM     22  N   UNL d   1      -6.242   7.807  -1.476  0.00  0.00    -0.365 N 
ATOM     23  C   UNL d   1      -7.465   7.456  -1.245  0.00  0.00     0.107 C 
ATOM     24  HN  UNL d   1      -6.039   8.523  -2.174  1.00  0.00     0.165 HD
BRANCH  23  25
ATOM     25  C   UNL d   1      -8.545   8.072  -1.980  0.00  0.00     0.020 A 
ATOM     26  S   UNL d   1     -10.137   7.476  -1.794  0.00  0.00    -0.101 SA
ATOM     27  C   UNL d   1     -10.761   8.614  -2.912  0.00  0.00     0.050 A 
ATOM     28  C   UNL d   1      -9.780   9.444  -3.405  0.00  0.00     0.008 A 
ATOM     29  C   UNL d   1      -8.498   9.130  -2.867  0.00  0.00     0.021 A 
ENDBRANCH  23  25
ENDBRANCH  18  22
ENDBRANCH   1  16
TORSDOF 6
