REMARK  4 active torsions:
REMARK  status: ('A' for Active; 'I' for Inactive)
REMARK    1  A    between atoms: N_5  and  S_1 
REMARK    2  A    between atoms: C_14  and  S_1 
REMARK    3  A    between atoms: C_2  and  N_5 
REMARK    4  A    between atoms: C_3  and  C_4 
ROOT
ATOM      1  C   UNL d   1       0.703   2.035   1.704  0.00  0.00     0.077 A 
ATOM      2  C   UNL d   1      -0.179   2.760   2.490  0.00  0.00     0.033 A 
ATOM      3  S   UNL d   1       2.270   1.977   2.363  0.00  0.00    -0.088 SA
ATOM      4  C   UNL d   1       0.435   3.186   3.729  0.00  0.00    -0.040 A 
ATOM      5  C   UNL d   1       1.781   2.857   3.741  0.00  0.00     0.059 A 
ATOM      6  C   UNL d   1      -0.235   3.815   4.910  0.00  0.00     0.049 C 
ENDROOT
BRANCH   1   7
ATOM      7  N   UNL d   1       0.411   1.493   0.399  0.00  0.00    -0.174 NA
ATOM      8  H   UNL d   1      -0.417   1.941  -0.010  0.00  0.00     0.146 HD
BRANCH   7   9
ATOM      9  S   UNL d   1      -0.048  -0.150   0.434  0.00  0.00     0.246 S 
ATOM     10  O   UNL d   1      -1.262  -0.263  -0.353  0.00  0.00    -0.206 OA
ATOM     11  O   UNL d   1       0.029  -0.694   1.778  0.00  0.00    -0.206 OA
BRANCH   9  12
ATOM     12  C   UNL d   1       1.236  -0.915  -0.528  0.00  0.00     0.074 A 
ATOM     13  C   UNL d   1       2.340  -1.469   0.126  0.00  0.00     0.026 A 
ATOM     14  C   UNL d   1       3.300  -2.162  -0.613  0.00  0.00     0.025 A 
ATOM     15  C   UNL d   1       3.148  -2.301  -1.993  0.00  0.00     0.034 A 
ATOM     16  C   UNL d   1       2.040  -1.755  -2.645  0.00  0.00     0.025 A 
ATOM     17 CL   UNL d   1       4.326  -3.168  -2.897  0.00  0.00    -0.084 Cl
ATOM     18  C   UNL d   1       1.076  -1.061  -1.911  0.00  0.00     0.026 A 
ENDBRANCH   9  12
ENDBRANCH   7   9
ENDBRANCH   1   7
BRANCH   2  19
ATOM     19  C   UNL d   1      -1.619   2.940   2.084  0.00  0.00     0.088 C 
ATOM     20  N   UNL d   1      -2.192   2.038   1.320  0.00  0.00    -0.349 N 
ATOM     21  C   UNL d   1      -3.547   2.273   1.237  0.00  0.00     0.050 A 
ATOM     22  HN  UNL d   1      -1.703   1.273   0.854  1.00  0.00     0.166 HD
ATOM     23  C   UNL d   1      -4.502   1.405   0.673  0.00  0.00     0.031 A 
ATOM     24  C   UNL d   1      -3.967   3.489   1.774  0.00  0.00     0.033 A 
ATOM     25  C   UNL d   1      -5.846   1.784   0.645  0.00  0.00     0.002 A 
ATOM     26  C   UNL d   1      -6.238   3.025   1.141  0.00  0.00     0.002 A 
ATOM     27  C   UNL d   1      -5.307   3.900   1.710  0.00  0.00     0.021 A 
ATOM     28  S   UNL d   1      -2.614   4.275   2.491  0.00  0.00    -0.069 SA
ENDBRANCH   2  19
TORSDOF 4
