REMARK  3 active torsions:
REMARK  status: ('A' for Active; 'I' for Inactive)
REMARK    1  A    between atoms: C_9  and  N_2 
REMARK    2  A    between atoms: C_6  and  C_3 
REMARK    3  A    between atoms: C_13  and  C_9 
ROOT
ATOM      1  S   UNL d   1      -1.055  -1.067  -0.103  0.00  0.00     0.178 S 
ATOM      2  N   UNL d   1       1.168   0.328   0.047  0.00  0.00    -0.325 N 
ATOM      3  C   UNL d   1       0.744  -1.063   0.060  0.00  0.00     0.245 C 
ATOM      4  C   UNL d   1       0.137   1.252   0.114  0.00  0.00     0.235 C 
ATOM      5  C   UNL d   1      -1.233   0.642   0.266  0.00  0.00     0.245 C 
ATOM      6  O   UNL d   1      -1.471  -1.256  -1.481  0.00  0.00    -0.225 OA
ATOM      7  O   UNL d   1      -1.636  -1.841   0.977  0.00  0.00    -0.225 OA
ATOM      8  O   UNL d   1       0.307   2.466   0.106  0.00  0.00    -0.272 OA
ENDROOT
BRANCH   2   9
ATOM      9  C   UNL d   1       2.565   0.717   0.161  0.00  0.00     0.166 C 
BRANCH   9  10
ATOM     10  C   UNL d   1       2.995   1.052   1.572  0.00  0.00    -0.040 A 
ATOM     11  C   UNL d   1       3.544   0.075   2.415  0.00  0.00     0.012 A 
ATOM     12  C   UNL d   1       4.025   0.426   3.681  0.00  0.00     0.043 A 
ATOM     13  C   UNL d   1       3.948   1.746   4.111  0.00  0.00     0.116 A 
ATOM     14  C   UNL d   1       3.379   2.721   3.306  0.00  0.00     0.043 A 
ATOM     15  F   UNL d   1       4.442   2.081   5.309  0.00  0.00    -0.206 F 
ATOM     16  C   UNL d   1       2.898   2.375   2.042  0.00  0.00     0.012 A 
ENDBRANCH   9  10
ENDBRANCH   2   9
BRANCH   3  17
ATOM     17  C   UNL d   1       1.324  -1.946  -1.014  0.00  0.00    -0.005 A 
ATOM     18  C   UNL d   1       1.480  -3.311  -0.775  0.00  0.00     0.097 A 
ATOM     19  N   UNL d   1       1.987  -4.190  -1.668  0.00  0.00    -0.375 N 
ATOM     20  C   UNL d   1       2.329  -3.703  -2.878  0.00  0.00     0.087 A 
ATOM     21  HN  UNL d   1       2.105  -5.176  -1.437  1.00  0.00     0.164 HD
ATOM     22  C   UNL d   1       2.193  -2.373  -3.233  0.00  0.00     0.018 A 
ATOM     23  C   UNL d   1       1.681  -1.486  -2.289  0.00  0.00     0.013 A 
ENDBRANCH   3  17
TORSDOF 3
