REMARK  4 active torsions:
REMARK  status: ('A' for Active; 'I' for Inactive)
REMARK    1  A    between atoms: N_2  and  C_1 
REMARK       I    between atoms: C_3  and  N_2 
REMARK    2  A    between atoms: C_5  and  C_3 
REMARK    3  A    between atoms: C_6  and  C_7 
REMARK    4  A    between atoms: O_13  and  C_6 
ROOT
ATOM      1  N   UNL d   1       6.004   0.028  -0.090  0.00  0.00    -0.323 N 
ATOM      2  C   UNL d   1       7.269  -0.333  -0.476  0.00  0.00     0.245 C 
ATOM      3  O   UNL d   1       8.295   0.334  -0.419  0.00  0.00    -0.268 OA
ATOM      4  H   UNL d   1       5.333  -0.716   0.057  0.00  0.00     0.169 HD
ENDROOT
BRANCH   1   5
ATOM      5  C   UNL d   1       5.571   1.340   0.205  0.00  0.00     0.043 A 
ATOM      6  C   UNL d   1       6.272   2.461  -0.254  0.00  0.00     0.072 A 
ATOM      7  C   UNL d   1       5.756   3.737  -0.057  0.00  0.00     0.118 A 
ATOM      8  F   UNL d   1       6.431   4.798  -0.519  0.00  0.00    -0.206 F 
ATOM      9  C   UNL d   1       4.546   3.929   0.589  0.00  0.00     0.043 A 
ATOM     10  C   UNL d   1       3.852   2.826   1.082  0.00  0.00     0.012 A 
ATOM     11  C   UNL d   1       4.365   1.526   0.918  0.00  0.00    -0.035 A 
ATOM     12  C   UNL d   1       3.617   0.380   1.546  0.00  0.00     0.050 C 
ENDBRANCH   1   5
BRANCH   2  13
ATOM     13  C   UNL d   1       7.358  -1.736  -0.912  0.00  0.00     0.081 C 
ATOM     14  C   UNL d   1       8.217  -2.623  -0.389  0.00  0.00     0.086 C 
BRANCH  14  15
ATOM     15  C   UNL d   1       9.149  -2.508   0.747  0.00  0.00     0.165 C 
ATOM     16  O   UNL d   1       9.544  -3.520   1.312  0.00  0.00    -0.647 OA
BRANCH  15  17
ATOM     17  O   UNL d   1       9.531  -1.281   1.126  0.00  0.00    -0.773 OA
ATOM     18  H   UNL d   1       9.276  -0.535   0.535  0.00  0.00     0.167 HD
ENDBRANCH  15  17
ENDBRANCH  14  15
ENDBRANCH   2  13
TORSDOF 4
