REMARK  12 active torsions:
REMARK  status: ('A' for Active; 'I' for Inactive)
REMARK       I    between atoms: C_9  and  N_1 
REMARK    1  A    between atoms: C_2  and  C_5 
REMARK    2  A    between atoms: C_4  and  C_3 
REMARK    3  A    between atoms: C_4  and  O_24 
REMARK    4  A    between atoms: C_7  and  C_4 
REMARK       I    between atoms: N_13  and  C_5 
REMARK    5  A    between atoms: C_7  and  O_11 
REMARK    6  A    between atoms: C_7  and  C_10 
REMARK    7  A    between atoms: C_10  and  O_12 
REMARK    8  A    between atoms: C_18  and  C_10 
REMARK    9  A    between atoms: C_14  and  O_11 
REMARK   10  A    between atoms: C_15  and  O_12 
REMARK   11  A    between atoms: C_16  and  O_20 
REMARK   12  A    between atoms: O_20  and  C_18 
ROOT
ATOM      1  C   UNL d   1       1.058  -2.106  -3.895  0.00  0.00     0.183 C 
ENDROOT
BRANCH   1   2
ATOM      2  C   UNL d   1      -0.097  -1.399  -4.712  0.00  0.00     0.181 C 
ATOM      3  N   UNL d   1      -0.170  -1.744  -6.148  0.00  0.00    -0.322 N 
ATOM      4  C   UNL d   1       0.507  -0.797  -7.060  0.00  0.00     0.190 C 
ATOM      5  C   UNL d   1      -0.724  -2.873  -6.712  0.00  0.00     0.217 C 
ATOM      6  C   UNL d   1       1.228   0.267  -6.229  0.00  0.00     0.111 C 
ATOM      7  S   UNL d   1       0.201   0.410  -4.748  0.00  0.00    -0.138 SA
ATOM      8  O   UNL d   1      -0.655  -3.082  -7.926  0.00  0.00    -0.274 OA
ATOM      9  C   UNL d   1      -1.554  -3.798  -5.859  0.00  0.00     0.117 C 
BRANCH   4  10
ATOM     10  C   UNL d   1      -0.234  -0.025  -8.200  0.00  0.00     0.242 C 
ATOM     11  N   UNL d   1      -1.512   0.505  -8.066  0.00  0.00    -0.359 N 
ATOM     12  C   UNL d   1      -1.995   1.392  -9.120  0.00  0.00     0.152 C 
ATOM     13  C   UNL d   1      -2.537   0.101  -7.122  0.00  0.00     0.152 C 
ATOM     14  O   UNL d   1       0.462   0.308  -9.175  0.00  0.00    -0.271 OA
ENDBRANCH   4  10
ENDBRANCH   1   2
BRANCH   1  15
ATOM     15  O   UNL d   1       0.888  -3.532  -3.895  0.00  0.00    -0.390 OA
ATOM     16  H   UNL d   1       0.355  -3.762  -3.111  0.00  0.00     0.210 HD
ENDBRANCH   1  15
BRANCH   1  17
ATOM     17  C   UNL d   1       1.135  -1.586  -2.419  0.00  0.00     0.195 C 
BRANCH  17  18
ATOM     18  O   UNL d   1      -0.095  -1.991  -1.778  0.00  0.00    -0.311 OA
BRANCH  18  19
ATOM     19  C   UNL d   1      -0.646  -1.097  -0.909  0.00  0.00     0.255 C 
ATOM     20  O   UNL d   1      -0.236   0.036  -0.708  0.00  0.00    -0.266 OA
ATOM     21  C   UNL d   1      -1.871  -1.668  -0.265  0.00  0.00     0.126 C 
ENDBRANCH  18  19
ENDBRANCH  17  18
BRANCH  17  22
ATOM     22  C   UNL d   1       2.383  -2.090  -1.637  0.00  0.00     0.188 C 
BRANCH  22  23
ATOM     23  O   UNL d   1       2.347  -3.506  -1.277  0.00  0.00    -0.311 OA
BRANCH  23  24
ATOM     24  C   UNL d   1       1.623  -3.924  -0.208  0.00  0.00     0.255 C 
ATOM     25  O   UNL d   1       0.838  -3.243   0.445  0.00  0.00    -0.266 OA
ATOM     26  C   UNL d   1       1.926  -5.353   0.132  0.00  0.00     0.126 C 
ENDBRANCH  23  24
ENDBRANCH  22  23
BRANCH  22  27
ATOM     27  C   UNL d   1       2.826  -1.214  -0.435  0.00  0.00     0.213 C 
BRANCH  27  28
ATOM     28  O   UNL d   1       2.700   0.204  -0.621  0.00  0.00    -0.319 OA
BRANCH  28  29
ATOM     29  C   UNL d   1       3.586   0.816  -1.441  0.00  0.00     0.254 C 
ATOM     30  O   UNL d   1       4.423   0.244  -2.122  0.00  0.00    -0.266 OA
ATOM     31  C   UNL d   1       3.385   2.302  -1.381  0.00  0.00     0.126 C 
ENDBRANCH  28  29
ENDBRANCH  27  28
ENDBRANCH  22  27
ENDBRANCH  17  22
ENDBRANCH   1  17
TORSDOF 12
