REMARK  5 active torsions:
REMARK  status: ('A' for Active; 'I' for Inactive)
REMARK    1  A    between atoms: C_5  and  C_1 
REMARK    2  A    between atoms: O_12  and  C_2 
REMARK    3  A    between atoms: O_14  and  C_3 
REMARK    4  A    between atoms: O_13  and  C_4 
REMARK    5  A    between atoms: N_6  and  C_5 
ROOT
ATOM      1  C   UNL d   1       2.818  -0.462   0.185  0.00  0.00     0.221 C 
ATOM      2  N   UNL d   1       3.780   1.773   1.267  0.00  0.00    -0.195 NA
ATOM      3  C   UNL d   1       3.374   0.783   0.816  0.00  0.00     0.089 C 
ENDROOT
BRANCH   1   4
ATOM      4  C   UNL d   1       1.322  -0.331  -0.115  0.00  0.00    -0.017 A 
ATOM      5  C   UNL d   1       0.452  -1.425   0.062  0.00  0.00     0.050 A 
ATOM      6  C   UNL d   1      -0.940  -1.297  -0.094  0.00  0.00     0.104 A 
ATOM      7  C   UNL d   1      -1.481  -0.034  -0.410  0.00  0.00     0.135 A 
ATOM      8  C   UNL d   1      -0.617   1.054  -0.644  0.00  0.00     0.104 A 
ATOM      9  C   UNL d   1       0.765   0.896  -0.506  0.00  0.00     0.050 A 
BRANCH   6  10
ATOM     10  O   UNL d   1      -1.810  -2.334   0.110  0.00  0.00    -0.353 OA
ATOM     11  C   UNL d   1      -1.288  -3.654   0.172  0.00  0.00     0.210 C 
ENDBRANCH   6  10
BRANCH   7  12
ATOM     12  O   UNL d   1      -2.817   0.294  -0.434  0.00  0.00    -0.351 OA
ATOM     13  C   UNL d   1      -3.745  -0.683  -0.877  0.00  0.00     0.210 C 
ENDBRANCH   7  12
BRANCH   8  14
ATOM     14  O   UNL d   1      -1.211   2.250  -0.978  0.00  0.00    -0.353 OA
ATOM     15  C   UNL d   1      -0.377   3.268  -1.505  0.00  0.00     0.210 C 
ENDBRANCH   8  14
ENDBRANCH   1   4
BRANCH   1  16
ATOM     16  N   UNL d   1       3.670  -0.918  -0.930  0.00  0.00    -0.389 N 
ATOM     17  C   UNL d   1       3.752  -0.058  -2.117  0.00  0.00     0.145 C 
ATOM     18  C   UNL d   1       2.772  -0.435  -3.238  0.00  0.00     0.187 C 
ATOM     19  O   UNL d   1       2.920  -1.813  -3.600  0.00  0.00    -0.388 OA
ATOM     20  C   UNL d   1       2.655  -2.656  -2.476  0.00  0.00     0.187 C 
ATOM     21  C   UNL d   1       3.584  -2.337  -1.292  0.00  0.00     0.145 C 
ENDBRANCH   1  16
TORSDOF 5
