REMARK  3 active torsions:
REMARK  status: ('A' for Active; 'I' for Inactive)
REMARK    1  A    between atoms: C_4  and  N_1 
REMARK    2  A    between atoms: C_5  and  C_4 
REMARK    3  A    between atoms: C_11  and  C_5 
ROOT
ATOM      1  C   UNL d   1      -0.130   2.245  -0.149  0.00  0.00     0.218 C 
ENDROOT
BRANCH   1   2
ATOM      2  N   UNL d   1      -0.086   0.799  -0.271  0.00  0.00    -0.281 N 
ATOM      3  C   UNL d   1       0.109  -0.037   0.787  0.00  0.00     0.227 C 
ATOM      4  C   UNL d   1       0.163  -1.453   0.298  0.00  0.00     0.112 C 
ATOM      5  O   UNL d   1       0.248   0.291   1.955  0.00  0.00    -0.273 OA
ATOM      6  C   UNL d   1       0.112  -1.330  -1.212  0.00  0.00     0.112 C 
ATOM      7  C   UNL d   1      -0.016   0.144  -1.464  0.00  0.00     0.227 C 
ATOM      8  O   UNL d   1       0.009   0.646  -2.579  0.00  0.00    -0.273 OA
ENDBRANCH   1   2
BRANCH   1   9
ATOM      9  C   UNL d   1      -1.556   2.768  -0.289  0.00  0.00     0.177 C 
ATOM     10  O   UNL d   1      -2.151   2.741  -1.367  0.00  0.00    -0.291 OA
BRANCH   9  11
ATOM     11  C   UNL d   1      -2.270   3.322   0.901  0.00  0.00     0.011 A 
ATOM     12  C   UNL d   1      -1.906   3.007   2.211  0.00  0.00     0.015 A 
ATOM     13  C   UNL d   1      -2.608   3.554   3.288  0.00  0.00     0.001 A 
ATOM     14  C   UNL d   1      -3.683   4.412   3.062  0.00  0.00     0.000 A 
ATOM     15  C   UNL d   1      -4.070   4.714   1.759  0.00  0.00     0.001 A 
ATOM     16  C   UNL d   1      -3.370   4.168   0.680  0.00  0.00     0.015 A 
ENDBRANCH   9  11
ENDBRANCH   1   9
TORSDOF 3
