REMARK  3 active torsions:
REMARK  status: ('A' for Active; 'I' for Inactive)
REMARK    1  A    between atoms: C_2  and  S_1 
REMARK    2  A    between atoms: N_5  and  S_1 
REMARK    3  A    between atoms: C_3  and  N_6 
ROOT
ATOM      1  N   UNL d   1       0.510   0.996   1.297  0.00  0.00    -0.304 N 
ATOM      2  N   UNL d   1       1.077   3.813   1.721  0.00  0.00    -0.265 NA
ATOM      3  C   UNL d   1      -0.464   2.056   0.910  0.00  0.00     0.150 C 
ATOM      4  C   UNL d   1       1.484   1.458   2.336  0.00  0.00     0.150 C 
ATOM      5  C   UNL d   1       2.135   2.812   2.000  0.00  0.00     0.117 C 
ATOM      6  C   UNL d   1       0.245   3.381   0.570  0.00  0.00     0.117 C 
ENDROOT
BRANCH   1   7
ATOM      7  S   UNL d   1       1.087   0.002   0.057  0.00  0.00     0.261 S 
ATOM      8  O   UNL d   1       1.192   0.812  -1.136  0.00  0.00    -0.200 OA
ATOM      9  O   UNL d   1       2.204  -0.779   0.547  0.00  0.00    -0.200 OA
BRANCH   7  10
ATOM     10  C   UNL d   1      -0.276  -1.150  -0.164  0.00  0.00     0.086 A 
ATOM     11  C   UNL d   1      -0.863  -1.241  -1.444  0.00  0.00     0.034 A 
ATOM     12  C   UNL d   1      -1.912  -2.142  -1.700  0.00  0.00    -0.039 A 
ATOM     13  C   UNL d   1      -2.523  -2.211  -3.072  0.00  0.00     0.050 C 
ATOM     14  C   UNL d   1      -2.372  -2.949  -0.652  0.00  0.00     0.040 A 
ATOM     15  C   UNL d   1      -1.790  -2.863   0.616  0.00  0.00     0.032 A 
ATOM     16 CL   UNL d   1      -3.661  -4.077  -0.871  0.00  0.00    -0.084 Cl
ATOM     17  C   UNL d   1      -0.737  -1.969   0.884  0.00  0.00    -0.037 A 
ATOM     18  C   UNL d   1      -0.180  -1.995   2.280  0.00  0.00     0.050 C 
ENDBRANCH   7  10
ENDBRANCH   1   7
BRANCH   2  19
ATOM     19  C   UNL d   1       1.550   5.132   1.594  0.00  0.00     0.096 C 
ATOM     20  C   UNL d   1       0.689   6.233   1.363  0.00  0.00     0.037 C 
ATOM     21  C   UNL d   1       1.294   7.438   1.043  0.00  0.00     0.088 C 
ATOM     22  C   UNL d   1      -0.742   6.389   1.393  0.00  0.00     0.025 C 
ATOM     23  S   UNL d   1       0.171   8.621   0.542  0.00  0.00    -0.083 SA
ATOM     24  N   UNL d   1       2.609   7.700   1.065  0.00  0.00    -0.346 N 
ATOM     25  C   UNL d   1      -1.155   7.599   0.887  0.00  0.00     0.053 C 
ATOM     26  C   UNL d   1       3.323   6.638   1.448  0.00  0.00     0.182 C 
ATOM     27  HN  UNL d   1       3.016   8.603   0.819  1.00  0.00     0.167 HD
ATOM     28  N   UNL d   1       2.878   5.394   1.692  0.00  0.00    -0.342 N 
ATOM     29  HN  UNL d   1       3.532   4.654   1.949  1.00  0.00     0.167 HD
ENDBRANCH   2  19
TORSDOF 3
