REMARK  8 active torsions:
REMARK  status: ('A' for Active; 'I' for Inactive)
REMARK    1  A    between atoms: C_8  and  S_11 
REMARK    2  A    between atoms: C_15  and  N_9 
REMARK    3  A    between atoms: S_11  and  C_22 
REMARK    4  A    between atoms: C_24  and  C_15 
REMARK    5  A    between atoms: O_23  and  C_26 
REMARK    6  A    between atoms: C_25  and  O_23 
REMARK    7  A    between atoms: C_26  and  C_24 
REMARK    8  A    between atoms: O_33  and  C_24 
ROOT
ATOM      1  C   UNL d   1      -3.096   0.302  -0.249  0.00  0.00     0.148 A 
ATOM      2  N   UNL d   1      -2.421  -0.589   0.445  0.00  0.00    -0.336 N 
ATOM      3  HN  UNL d   1      -2.842  -1.226   1.122  1.00  0.00     0.168 HD
ATOM      4  S   UNL d   1      -2.094   1.284  -1.262  0.00  0.00    -0.052 SA
ATOM      5  N   UNL d   1      -4.449   0.425  -0.149  0.00  0.00    -0.358 N 
ATOM      6  C   UNL d   1      -0.697   0.407  -0.783  0.00  0.00     0.036 A 
ATOM      7  C   UNL d   1      -1.073  -0.557   0.146  0.00  0.00     0.051 A 
ATOM      8  N   UNL d   1      -7.226  -0.407  -0.725  0.00  0.00     0.094 N 
ATOM      9  C   UNL d   1       0.636   0.555  -1.199  0.00  0.00     0.045 A 
ATOM     10  C   UNL d   1      -5.171  -0.432   0.798  0.00  0.00     0.155 C 
ATOM     11  C   UNL d   1      -5.279   1.255  -1.024  0.00  0.00     0.155 C 
ATOM     12  C   UNL d   1      -0.092  -1.407   0.691  0.00  0.00     0.032 A 
ATOM     13  C   UNL d   1       1.589  -0.309  -0.654  0.00  0.00     0.035 A 
ATOM     14  C   UNL d   1      -6.269  -1.237   0.063  0.00  0.00     0.292 C 
ATOM     15  C   UNL d   1      -6.421   0.418  -1.661  0.00  0.00     0.292 C 
ATOM     16  C   UNL d   1       1.238  -1.280   0.280  0.00  0.00     0.026 A 
ATOM     17 CL   UNL d   1       3.230  -0.177  -1.158  0.00  0.00    -0.084 Cl
ENDROOT
BRANCH   8  18
ATOM     18  C   UNL d   1      -8.057   0.393   0.193  0.00  0.00     0.306 C 
BRANCH  18  19
ATOM     19  C   UNL d   1      -9.151   1.293  -0.415  0.00  0.00     0.170 C 
BRANCH  19  20
ATOM     20  C   UNL d   1     -10.197   0.518  -1.230  0.00  0.00     0.209 C 
BRANCH  20  21
ATOM     21  O   UNL d   1     -11.143   1.465  -1.746  0.00  0.00    -0.349 OA
BRANCH  21  22
ATOM     22  C   UNL d   1     -12.139   0.993  -2.550  0.00  0.00     0.069 A 
ATOM     23  C   UNL d   1     -12.371  -0.345  -2.867  0.00  0.00     0.038 A 
ATOM     24  C   UNL d   1     -13.420  -0.691  -3.729  0.00  0.00     0.021 A 
ATOM     25  C   UNL d   1     -14.236   0.295  -4.290  0.00  0.00     0.009 A 
ATOM     26  C   UNL d   1     -14.023   1.632  -3.943  0.00  0.00     0.021 A 
ATOM     27  C   UNL d   1     -12.976   1.974  -3.083  0.00  0.00     0.038 A 
BRANCH  25  28
ATOM     28  S   UNL d   1     -15.564  -0.169  -5.377  0.00  0.00    -0.016 SA
BRANCH  28  29
ATOM     29  C   UNL d   1     -14.961   0.477  -6.945  0.00  0.00     0.448 C 
ATOM     30  F   UNL d   1     -13.860   1.256  -6.832  0.00  0.00    -0.160 F 
ATOM     31  F   UNL d   1     -14.651  -0.531  -7.796  0.00  0.00    -0.160 F 
ATOM     32  F   UNL d   1     -15.916   1.228  -7.549  0.00  0.00    -0.160 F 
ENDBRANCH  28  29
ENDBRANCH  25  28
ENDBRANCH  21  22
ENDBRANCH  20  21
ENDBRANCH  19  20
BRANCH  19  33
ATOM     33  O   UNL d   1      -9.781   1.986   0.681  0.00  0.00    -0.392 OA
ATOM     34  H   UNL d   1     -10.376   1.361   1.129  0.00  0.00     0.210 HD
ENDBRANCH  19  33
ENDBRANCH  18  19
ENDBRANCH   8  18
TORSDOF 8
