REMARK  4 active torsions:
REMARK  status: ('A' for Active; 'I' for Inactive)
REMARK    1  A    between atoms: C_2  and  C_1 
REMARK       I    between atoms: N_7  and  C_1 
REMARK    2  A    between atoms: C_3  and  C_5 
REMARK    3  A    between atoms: C_4  and  C_6 
REMARK    4  A    between atoms: C_8  and  N_7 
ROOT
ATOM      1  C   UNL d   1      -3.157  -0.177   0.806  0.00  0.00     0.050 A 
ATOM      2  C   UNL d   1      -3.237   2.197   0.263  0.00  0.00     0.050 A 
ATOM      3  C   UNL d   1      -1.084   1.115   0.678  0.00  0.00     0.036 A 
ATOM      4  C   UNL d   1      -3.889   0.979   0.489  0.00  0.00     0.032 A 
ATOM      5  C   UNL d   1      -1.838   2.251   0.374  0.00  0.00     0.045 A 
ATOM      6  C   UNL d   1      -1.753  -0.095   0.894  0.00  0.00     0.045 A 
ENDROOT
BRANCH   3   7
ATOM      7  N   UNL d   1       0.330   1.107   0.717  0.00  0.00    -0.323 N 
ATOM      8  C   UNL d   1       1.161   2.206   0.551  0.00  0.00     0.261 C 
ATOM      9  O   UNL d   1       0.798   3.376   0.527  0.00  0.00    -0.267 OA
ATOM     10  H   UNL d   1       0.769   0.198   0.789  0.00  0.00     0.169 HD
BRANCH   8  11
ATOM     11  C   UNL d   1       2.602   1.926   0.331  0.00  0.00     0.092 A 
ATOM     12  C   UNL d   1       2.968   0.868  -0.508  0.00  0.00     0.133 A 
ATOM     13  F   UNL d   1       2.048   0.011  -0.976  0.00  0.00    -0.205 F 
ATOM     14  C   UNL d   1       4.291   0.676  -0.903  0.00  0.00     0.043 A 
ATOM     15  C   UNL d   1       5.278   1.551  -0.459  0.00  0.00     0.005 A 
ATOM     16  C   UNL d   1       4.939   2.591   0.405  0.00  0.00     0.025 A 
ATOM     17  C   UNL d   1       3.608   2.779   0.807  0.00  0.00     0.052 A 
ATOM     18 CL   UNL d   1       3.320   4.053   1.941  0.00  0.00    -0.083 Cl
ENDBRANCH   8  11
ENDBRANCH   3   7
BRANCH   2  19
ATOM     19  C   UNL d   1      -3.996   3.447  -0.114  0.00  0.00     0.417 C 
ATOM     20  F   UNL d   1      -5.329   3.232  -0.296  0.00  0.00    -0.166 F 
ATOM     21  F   UNL d   1      -3.902   4.424   0.828  0.00  0.00    -0.166 F 
ATOM     22  F   UNL d   1      -3.549   3.997  -1.277  0.00  0.00    -0.166 F 
ENDBRANCH   2  19
BRANCH   1  23
ATOM     23  C   UNL d   1      -3.852  -1.496   1.044  0.00  0.00     0.417 C 
ATOM     24  F   UNL d   1      -5.199  -1.446   0.839  0.00  0.00    -0.166 F 
ATOM     25  F   UNL d   1      -3.387  -2.481   0.229  0.00  0.00    -0.166 F 
ATOM     26  F   UNL d   1      -3.684  -1.950   2.316  0.00  0.00    -0.166 F 
ENDBRANCH   1  23
TORSDOF 4
