REMARK  7 active torsions:
REMARK  status: ('A' for Active; 'I' for Inactive)
REMARK    1  A    between atoms: C_7  and  C_1 
REMARK    2  A    between atoms: C_22  and  C_3 
REMARK    3  A    between atoms: C_8  and  C_7 
REMARK    4  A    between atoms: C_9  and  O_11 
REMARK    5  A    between atoms: C_13  and  C_9 
REMARK    6  A    between atoms: O_11  and  C_14 
REMARK    7  A    between atoms: C_32  and  C_22 
ROOT
ATOM      1  C   UNL d   1      -1.780  -1.328  -0.074  0.00  0.00     0.029 C 
ATOM      2  C   UNL d   1      -2.001   0.143  -0.031  0.00  0.00     0.295 C 
ATOM      3  C   UNL d   1      -0.530  -1.841  -0.001  0.00  0.00    -0.033 C 
ATOM      4  O   UNL d   1      -0.970   0.925  -0.504  0.00  0.00    -0.274 OA
ATOM      5  C   UNL d   1       0.335   0.450  -0.337  0.00  0.00     0.093 A 
ATOM      6  C   UNL d   1       0.600  -0.882  -0.007  0.00  0.00     0.005 A 
ATOM      7  C   UNL d   1       1.336   1.415  -0.459  0.00  0.00     0.075 A 
ATOM      8  C   UNL d   1       1.937  -1.215   0.246  0.00  0.00     0.017 A 
ATOM      9  C   UNL d   1       2.650   1.064  -0.181  0.00  0.00     0.082 A 
ATOM     10  O   UNL d   1      -3.068   0.636   0.315  0.00  0.00    -0.259 OA
ATOM     11  C   UNL d   1       2.956  -0.245   0.180  0.00  0.00     0.038 A 
ENDROOT
BRANCH   9  12
ATOM     12  O   UNL d   1       3.570   2.139  -0.231  0.00  0.00    -0.275 OA
BRANCH  12  13
ATOM     13  C   UNL d   1       4.950   2.018  -0.189  0.00  0.00     0.298 C 
ATOM     14  O   UNL d   1       5.600   0.983  -0.151  0.00  0.00    -0.259 OA
BRANCH  13  15
ATOM     15  C   UNL d   1       5.585   3.366  -0.249  0.00  0.00     0.040 A 
ATOM     16  C   UNL d   1       6.974   3.424  -0.434  0.00  0.00     0.019 A 
ATOM     17  C   UNL d   1       7.628   4.655  -0.534  0.00  0.00     0.025 A 
ATOM     18  C   UNL d   1       6.896   5.836  -0.437  0.00  0.00     0.034 A 
ATOM     19  C   UNL d   1       5.518   5.795  -0.230  0.00  0.00     0.025 A 
ATOM     20 CL   UNL d   1       7.697   7.351  -0.590  0.00  0.00    -0.084 Cl
ATOM     21  C   UNL d   1       4.860   4.563  -0.133  0.00  0.00     0.019 A 
ENDBRANCH  13  15
ENDBRANCH  12  13
ENDBRANCH   9  12
BRANCH   3  22
ATOM     22  C   UNL d   1      -0.237  -3.331  -0.080  0.00  0.00     0.040 C 
BRANCH  22  23
ATOM     23  C   UNL d   1      -0.020  -4.050   1.260  0.00  0.00     0.000 C 
ATOM     24  C   UNL d   1      -1.258  -4.136   2.140  0.00  0.00     0.005 C 
ENDBRANCH  22  23
ENDBRANCH   3  22
BRANCH   1  25
ATOM     25  C   UNL d   1      -3.065  -2.112  -0.205  0.00  0.00     0.089 C 
BRANCH  25  26
ATOM     26  C   UNL d   1      -3.614  -2.312  -1.609  0.00  0.00     0.007 A 
ATOM     27  C   UNL d   1      -2.979  -1.829  -2.764  0.00  0.00     0.124 A 
ATOM     28  F   UNL d   1      -1.831  -1.142  -2.690  0.00  0.00    -0.205 F 
ATOM     29  C   UNL d   1      -3.498  -2.040  -4.041  0.00  0.00     0.043 A 
ATOM     30  C   UNL d   1      -4.681  -2.748  -4.202  0.00  0.00     0.005 A 
ATOM     31  C   UNL d   1      -5.338  -3.242  -3.079  0.00  0.00     0.024 A 
ATOM     32  C   UNL d   1      -4.812  -3.028  -1.798  0.00  0.00     0.043 A 
ATOM     33 CL   UNL d   1      -5.695  -3.694  -0.467  0.00  0.00    -0.084 Cl
ENDBRANCH  25  26
ENDBRANCH   1  25
TORSDOF 7
