REMARK  6 active torsions:
REMARK  status: ('A' for Active; 'I' for Inactive)
REMARK    1  A    between atoms: N_3  and  C_8 
REMARK    2  A    between atoms: C_10  and  C_4 
REMARK    3  A    between atoms: C_9  and  C_5 
REMARK    4  A    between atoms: C_11  and  C_9 
REMARK    5  A    between atoms: N_17  and  C_11 
REMARK    6  A    between atoms: O_18  and  N_15 
ROOT
ATOM      1  N   UNL d   1       3.934  -4.397  -0.001  0.00  0.00    -0.353 N 
ATOM      2  HN  UNL d   1       3.858  -3.381   0.045  1.00  0.00     0.166 HD
ATOM      3  C   UNL d   1       5.133  -5.101  -0.021  0.00  0.00     0.049 A 
ATOM      4  C   UNL d   1       2.909  -5.224  -0.048  0.00  0.00     0.057 A 
ATOM      5  S   UNL d   1       3.320  -6.891  -0.123  0.00  0.00    -0.086 SA
ATOM      6  C   UNL d   1       4.984  -6.473  -0.081  0.00  0.00     0.081 A 
ENDROOT
BRANCH   3   7
ATOM      7  C   UNL d   1       6.411  -4.389   0.007  0.00  0.00    -0.007 A 
ATOM      8  C   UNL d   1       6.406  -2.997   0.194  0.00  0.00     0.049 A 
ATOM      9  C   UNL d   1       7.607  -2.275   0.171  0.00  0.00     0.103 A 
ATOM     10  C   UNL d   1       8.828  -2.928  -0.027  0.00  0.00     0.036 A 
ATOM     11  C   UNL d   1       8.843  -4.311  -0.196  0.00  0.00     0.003 A 
ATOM     12  C   UNL d   1       7.644  -5.035  -0.179  0.00  0.00     0.014 A 
BRANCH   9  13
ATOM     13  N   UNL d   1       7.579  -0.817   0.338  0.00  0.00    -0.116 N 
ATOM     14  O   UNL d   1       6.479  -0.272   0.499  0.00  0.00    -0.532 OA
ATOM     15  O   UNL d   1       8.663  -0.214   0.303  0.00  0.00    -0.532 OA
ENDBRANCH   9  13
ENDBRANCH   3   7
BRANCH   4  16
ATOM     16  C   UNL d   1       1.479  -4.795   0.005  0.00  0.00     0.136 C 
BRANCH  16  17
ATOM     17  C   UNL d   1       1.016  -4.431  -1.395  0.00  0.00     0.081 C 
ATOM     18  N   UNL d   1       0.430  -5.350  -2.107  0.00  0.00    -0.262 N 
ATOM     19  HN  UNL d   1       0.249  -6.302  -1.789  1.00  0.00     0.195 HD
BRANCH  18  20
ATOM     20  O   UNL d   1       0.081  -4.851  -3.373  0.00  0.00    -0.289 OA
ATOM     21  H   UNL d   1      -0.407  -5.601  -3.761  0.00  0.00     0.244 HD
ENDBRANCH  18  20
BRANCH  17  22
ATOM     22  N   UNL d   1       1.233  -3.149  -1.847  0.00  0.00    -0.290 NA
ATOM     23  H   UNL d   1       2.100  -2.718  -1.541  0.00  0.00     0.125 HD
ATOM     24  H   UNL d   1       1.091  -3.094  -2.853  0.00  0.00     0.125 HD
ENDBRANCH  17  22
ENDBRANCH  16  17
ENDBRANCH   4  16
TORSDOF 6
