REMARK  6 active torsions:
REMARK  status: ('A' for Active; 'I' for Inactive)
REMARK    1  A    between atoms: N_3  and  S_1 
REMARK    2  A    between atoms: C_11  and  S_1 
REMARK    3  A    between atoms: S_2  and  N_8 
REMARK    4  A    between atoms: C_9  and  S_2 
REMARK    5  A    between atoms: C_4  and  N_3 
REMARK    6  A    between atoms: N_8  and  C_20 
ROOT
ATOM      1  C   UNL d   1       0.466   0.966   1.271  0.00  0.00     0.075 A 
ATOM      2  C   UNL d   1       0.203   0.325   2.485  0.00  0.00     0.027 A 
ATOM      3  C   UNL d   1       0.443   2.363   1.185  0.00  0.00     0.027 A 
ATOM      4  C   UNL d   1      -0.148   2.476   3.528  0.00  0.00     0.042 A 
ATOM      5  C   UNL d   1       0.129   3.118   2.321  0.00  0.00     0.031 A 
ATOM      6  C   UNL d   1      -0.098   1.085   3.616  0.00  0.00     0.031 A 
ENDROOT
BRANCH   1   7
ATOM      7  S   UNL d   1       0.980  -0.005  -0.123  0.00  0.00     0.247 S 
ATOM      8  O   UNL d   1       1.703   0.864  -1.028  0.00  0.00    -0.205 OA
ATOM      9  O   UNL d   1       1.591  -1.225   0.361  0.00  0.00    -0.205 OA
BRANCH   7  10
ATOM     10  N   UNL d   1      -0.467  -0.368  -0.912  0.00  0.00    -0.165 NA
ATOM     11  H   UNL d   1      -0.314  -0.212  -1.908  0.00  0.00     0.147 HD
BRANCH  10  12
ATOM     12  C   UNL d   1      -1.104  -1.553  -0.565  0.00  0.00     0.117 A 
ATOM     13  N   UNL d   1      -2.009  -1.606   0.414  0.00  0.00    -0.249 N 
ATOM     14  O   UNL d   1      -2.435  -2.923   0.457  0.00  0.00    -0.241 OA
ATOM     15  HN  UNL d   1      -2.322  -0.837   1.007  1.00  0.00     0.196 HD
ATOM     16  C   UNL d   1      -1.773  -3.642  -0.490  0.00  0.00     0.075 A 
ATOM     17  C   UNL d   1      -0.932  -2.807  -1.185  0.00  0.00     0.079 A 
ATOM     18  C   UNL d   1      -2.077  -5.083  -0.547  0.00  0.00     0.079 C 
ENDBRANCH  10  12
ENDBRANCH   7  10
ENDBRANCH   1   7
BRANCH   4  19
ATOM     19  N   UNL d   1      -0.417   3.225   4.694  0.00  0.00    -0.281 N 
ATOM     20  H   UNL d   1       0.338   3.580   5.274  0.00  0.00     0.179 HD
BRANCH  19  21
ATOM     21  S   UNL d   1      -1.957   3.784   5.026  0.00  0.00     0.263 S 
ATOM     22  O   UNL d   1      -1.865   4.509   6.277  0.00  0.00    -0.200 OA
ATOM     23  O   UNL d   1      -2.513   4.397   3.842  0.00  0.00    -0.200 OA
BRANCH  21  24
ATOM     24  C   UNL d   1      -2.855   2.281   5.349  0.00  0.00     0.081 A 
ATOM     25  C   UNL d   1      -2.872   1.747   6.642  0.00  0.00     0.049 A 
ATOM     26  C   UNL d   1      -3.590   0.577   6.878  0.00  0.00     0.035 A 
ATOM     27 CL   UNL d   1      -3.606  -0.111   8.455  0.00  0.00    -0.084 Cl
ATOM     28  C   UNL d   1      -4.291  -0.050   5.846  0.00  0.00     0.024 A 
ATOM     29  C   UNL d   1      -4.278   0.495   4.561  0.00  0.00     0.003 A 
ATOM     30  C   UNL d   1      -3.564   1.667   4.311  0.00  0.00     0.025 A 
ENDBRANCH  21  24
ENDBRANCH  19  21
ENDBRANCH   4  19
TORSDOF 6
