REMARK  1 active torsions:
REMARK  status: ('A' for Active; 'I' for Inactive)
REMARK       I    between atoms: C_7  and  N_1 
REMARK    1  A    between atoms: C_5  and  C_7 
ROOT
ATOM      1  N   UNL d   1      -3.083  -1.100  -0.183  0.00  0.00    -0.230 N 
ATOM      2  N   UNL d   1      -1.796  -1.534  -0.062  0.00  0.00    -0.290 N 
ATOM      3  HN  UNL d   1      -1.470  -2.497   0.012  1.00  0.00     0.187 HD
ATOM      4  C   UNL d   1      -1.049  -0.416  -0.063  0.00  0.00     0.069 A 
ATOM      5  C   UNL d   1      -1.855   0.745  -0.108  0.00  0.00    -0.002 A 
ATOM      6  C   UNL d   1      -4.188  -1.985  -0.237  0.00  0.00     0.281 C 
ATOM      7  C   UNL d   1      -3.140   0.276  -0.252  0.00  0.00     0.130 A 
ATOM      8  C   UNL d   1       0.409  -0.406  -0.007  0.00  0.00     0.012 A 
ATOM      9  S   UNL d   1       0.361   2.435  -0.254  0.00  0.00    -0.124 SA
ATOM     10  C   UNL d   1       1.110   0.818  -0.055  0.00  0.00     0.013 A 
ATOM     11  C   UNL d   1      -1.412   2.149   0.006  0.00  0.00     0.121 C 
ATOM     12  C   UNL d   1       1.131  -1.609   0.052  0.00  0.00     0.057 A 
ATOM     13  O   UNL d   1      -5.226  -1.513  -0.696  0.00  0.00    -0.265 OA
ATOM     14  C   UNL d   1       2.516   0.810  -0.017  0.00  0.00     0.022 A 
ATOM     15  C   UNL d   1       2.523  -1.587   0.074  0.00  0.00     0.117 A 
ATOM     16  C   UNL d   1       3.222  -0.391   0.048  0.00  0.00     0.043 A 
ATOM     17  F   UNL d   1       3.200  -2.742   0.111  0.00  0.00    -0.206 F 
ENDROOT
BRANCH   6  18
ATOM     18  C   UNL d   1      -4.166  -3.359   0.239  0.00  0.00     0.089 A 
ATOM     19  C   UNL d   1      -3.495  -3.884   1.326  0.00  0.00     0.090 A 
ATOM     20  O   UNL d   1      -3.820  -5.198   1.462  0.00  0.00    -0.242 OA
ATOM     21  C   UNL d   1      -2.605  -3.356   2.378  0.00  0.00     0.080 C 
ATOM     22  N   UNL d   1      -4.741  -5.553   0.502  0.00  0.00    -0.265 N 
ATOM     23  C   UNL d   1      -4.967  -4.447  -0.213  0.00  0.00     0.047 A 
ATOM     24  HN  UNL d   1      -5.164  -6.471   0.365  1.00  0.00     0.194 HD
ATOM     25  C   UNL d   1      -5.971  -4.467  -1.305  0.00  0.00     0.071 C 
ENDBRANCH   6  18
TORSDOF 1
