REMARK  7 active torsions:
REMARK  status: ('A' for Active; 'I' for Inactive)
REMARK    1  A    between atoms: C_9  and  C_1 
REMARK    2  A    between atoms: C_2  and  C_10 
REMARK    3  A    between atoms: C_3  and  C_11 
REMARK       I    between atoms: N_5  and  C_3 
REMARK    4  A    between atoms: C_4  and  O_7 
REMARK    5  A    between atoms: C_12  and  C_4 
REMARK    6  A    between atoms: C_8  and  N_5 
REMARK    7  A    between atoms: O_7  and  C_6 
ROOT
ATOM      1  C   UNL d   1      -3.577  -3.425  -0.631  0.00  0.00     0.106 A 
ATOM      2  C   UNL d   1      -3.184  -2.739   0.538  0.00  0.00     0.069 A 
ATOM      3  C   UNL d   1      -3.040  -4.675  -0.930  0.00  0.00     0.046 A 
ATOM      4  C   UNL d   1      -2.363  -3.370   1.470  0.00  0.00     0.033 A 
ATOM      5  C   UNL d   1      -2.104  -5.248  -0.052  0.00  0.00    -0.059 A 
ATOM      6  C   UNL d   1      -1.809  -4.612   1.163  0.00  0.00     0.009 A 
ATOM      7  C   UNL d   1      -1.419  -6.537  -0.401  0.00  0.00     0.048 C 
ENDROOT
BRANCH   2   8
ATOM      8  N   UNL d   1      -3.532  -1.387   0.780  0.00  0.00    -0.320 N 
ATOM      9  C   UNL d   1      -3.235  -0.440  -0.186  0.00  0.00     0.256 C 
ATOM     10  O   UNL d   1      -2.626  -0.674  -1.228  0.00  0.00    -0.267 OA
ATOM     11  H   UNL d   1      -3.473  -1.069   1.736  0.00  0.00     0.169 HD
BRANCH   9  12
ATOM     12  C   UNL d   1      -3.705   0.958   0.043  0.00  0.00     0.032 A 
ATOM     13  C   UNL d   1      -4.542   1.329   1.098  0.00  0.00     0.018 A 
ATOM     14  C   UNL d   1      -5.107   2.610   1.116  0.00  0.00     0.017 A 
ATOM     15  C   UNL d   1      -4.857   3.522   0.076  0.00  0.00     0.048 A 
ATOM     16  C   UNL d   1      -3.962   3.166  -0.938  0.00  0.00     0.017 A 
ATOM     17  C   UNL d   1      -3.389   1.898  -0.951  0.00  0.00     0.018 A 
BRANCH  15  18
ATOM     18  C   UNL d   1      -5.594   4.838   0.026  0.00  0.00     0.417 C 
ATOM     19  F   UNL d   1      -5.304   5.581  -1.081  0.00  0.00    -0.166 F 
ATOM     20  F   UNL d   1      -6.945   4.664   0.011  0.00  0.00    -0.166 F 
ATOM     21  F   UNL d   1      -5.327   5.632   1.097  0.00  0.00    -0.166 F 
ENDBRANCH  15  18
ENDBRANCH   9  12
ENDBRANCH   2   8
BRANCH   1  22
ATOM     22  O   UNL d   1      -4.533  -2.768  -1.467  0.00  0.00    -0.273 OA
BRANCH  22  23
ATOM     23  C   UNL d   1      -5.348  -3.275  -2.476  0.00  0.00     0.298 C 
ATOM     24  O   UNL d   1      -5.425  -4.428  -2.853  0.00  0.00    -0.259 OA
BRANCH  23  25
ATOM     25  C   UNL d   1      -6.227  -2.160  -2.975  0.00  0.00     0.040 A 
ATOM     26  C   UNL d   1      -7.352  -2.463  -3.752  0.00  0.00     0.018 A 
ATOM     27  C   UNL d   1      -8.238  -1.447  -4.148  0.00  0.00     0.017 A 
ATOM     28  C   UNL d   1      -8.019  -0.113  -3.768  0.00  0.00     0.048 A 
ATOM     29  C   UNL d   1      -6.865   0.191  -3.033  0.00  0.00     0.017 A 
ATOM     30  C   UNL d   1      -5.981  -0.821  -2.651  0.00  0.00     0.018 A 
BRANCH  28  31
ATOM     31  C   UNL d   1      -8.995   0.989  -4.108  0.00  0.00     0.417 C 
ATOM     32  F   UNL d   1     -10.115   0.552  -4.748  0.00  0.00    -0.166 F 
ATOM     33  F   UNL d   1      -9.435   1.647  -2.999  0.00  0.00    -0.166 F 
ATOM     34  F   UNL d   1      -8.450   1.943  -4.913  0.00  0.00    -0.166 F 
ENDBRANCH  28  31
ENDBRANCH  23  25
ENDBRANCH  22  23
ENDBRANCH   1  22
TORSDOF 7
