REMARK  2 active torsions:
REMARK  status: ('A' for Active; 'I' for Inactive)
REMARK    1  A    between atoms: C_3  and  N_2 
REMARK    2  A    between atoms: C_12  and  N_5 
ROOT
ATOM      1  C   UNL d   1       0.921   0.620   0.070  0.00  0.00     0.154 C 
ATOM      2  N   UNL d   1      -0.367   1.111  -0.017  0.00  0.00    -0.261 N 
ATOM      3  S   UNL d   1       0.869  -1.101   0.388  0.00  0.00    -0.084 SA
ATOM      4  N   UNL d   1       1.968   1.361  -0.103  0.00  0.00    -0.336 N 
ATOM      5  HN  UNL d   1       1.822   2.357  -0.271  1.00  0.00     0.168 HD
ATOM      6  C   UNL d   1      -1.401   0.186   0.005  0.00  0.00     0.240 C 
ATOM      7  C   UNL d   1      -0.881  -1.225   0.018  0.00  0.00     0.186 C 
ATOM      8  O   UNL d   1      -2.602   0.429   0.020  0.00  0.00    -0.272 OA
ENDROOT
BRANCH   2   9
ATOM      9  C   UNL d   1      -0.652   2.502  -0.086  0.00  0.00     0.046 A 
ATOM     10  C   UNL d   1      -0.105   3.384   0.857  0.00  0.00     0.057 A 
ATOM     11  C   UNL d   1      -0.421   4.743   0.806  0.00  0.00     0.074 A 
ATOM     12 CL   UNL d   1       0.221   5.803   2.002  0.00  0.00    -0.081 Cl
ATOM     13  C   UNL d   1      -1.255   5.228  -0.198  0.00  0.00     0.138 A 
ATOM     14  C   UNL d   1      -1.795   4.365  -1.146  0.00  0.00     0.046 A 
ATOM     15  F   UNL d   1      -1.557   6.533  -0.270  0.00  0.00    -0.204 F 
ATOM     16  C   UNL d   1      -1.510   2.999  -1.080  0.00  0.00     0.033 A 
ENDBRANCH   2   9
BRANCH   4  17
ATOM     17  C   UNL d   1       3.295   0.888  -0.076  0.00  0.00     0.035 A 
ATOM     18  C   UNL d   1       4.269   1.692   0.538  0.00  0.00     0.056 A 
ATOM     19  C   UNL d   1       5.603   1.270   0.593  0.00  0.00     0.074 A 
ATOM     20 CL   UNL d   1       6.786   2.284   1.323  0.00  0.00    -0.081 Cl
ATOM     21  C   UNL d   1       5.968   0.040   0.052  0.00  0.00     0.138 A 
ATOM     22  C   UNL d   1       5.028  -0.741  -0.600  0.00  0.00     0.046 A 
ATOM     23  F   UNL d   1       7.232  -0.403   0.132  0.00  0.00    -0.204 F 
ATOM     24  C   UNL d   1       3.716  -0.285  -0.707  0.00  0.00     0.032 A 
ENDBRANCH   4  17
TORSDOF 2
