REMARK  3 active torsions:
REMARK  status: ('A' for Active; 'I' for Inactive)
REMARK    1  A    between atoms: O_5  and  C_1 
REMARK    2  A    between atoms: C_6  and  O_5 
REMARK    3  A    between atoms: N_15  and  C_12 
ROOT
ATOM      1  N   UNL d   1      -4.321  -1.482   1.106  0.00  0.00    -0.345 N 
ATOM      2  HN  UNL d   1      -3.989  -1.984   1.929  1.00  0.00     0.167 HD
ATOM      3  C   UNL d   1      -3.675  -1.541  -0.077  0.00  0.00     0.148 A 
ATOM      4  C   UNL d   1      -5.440  -0.714   1.136  0.00  0.00     0.113 A 
ATOM      5  C   UNL d   1      -5.966  -0.023   0.042  0.00  0.00     0.021 A 
ATOM      6  C   UNL d   1      -4.055  -0.816  -1.197  0.00  0.00     0.058 A 
ATOM      7  C   UNL d   1      -5.204  -0.032  -1.123  0.00  0.00     0.029 A 
ENDROOT
BRANCH   3   8
ATOM      8  O   UNL d   1      -2.551  -2.346  -0.234  0.00  0.00    -0.292 OA
BRANCH   8   9
ATOM      9  C   UNL d   1      -2.293  -3.278   0.743  0.00  0.00     0.099 A 
ATOM     10  C   UNL d   1      -3.114  -4.384   1.004  0.00  0.00     0.069 A 
ATOM     11  C   UNL d   1      -2.728  -5.327   1.961  0.00  0.00     0.050 A 
ATOM     12 CL   UNL d   1      -4.570  -4.688   0.123  0.00  0.00    -0.081 Cl
ATOM     13  C   UNL d   1      -1.509  -5.184   2.623  0.00  0.00     0.035 A 
ATOM     14  C   UNL d   1      -0.671  -4.107   2.341  0.00  0.00     0.026 A 
ATOM     15 CL   UNL d   1      -1.019  -6.367   3.772  0.00  0.00    -0.084 Cl
ATOM     16  C   UNL d   1      -1.063  -3.154   1.400  0.00  0.00     0.041 A 
ENDBRANCH   8   9
ENDBRANCH   3   8
BRANCH   5  17
ATOM     17  N   UNL d   1      -7.069   0.831   0.160  0.00  0.00    -0.302 NA
ATOM     18  H   UNL d   1      -7.529   1.028  -0.725  0.00  0.00     0.124 HD
ATOM     19  H   UNL d   1      -7.733   0.548   0.874  0.00  0.00     0.124 HD
ENDBRANCH   5  17
TORSDOF 3
