REMARK  4 active torsions:
REMARK  status: ('A' for Active; 'I' for Inactive)
REMARK    1  A    between atoms: N_6  and  C_1 
REMARK    2  A    between atoms: C_5  and  N_8 
REMARK    3  A    between atoms: N_9  and  C_5 
REMARK    4  A    between atoms: C_11  and  N_9 
ROOT
ATOM      1  N   UNL d   1      -4.535   0.067  -0.023  0.00  0.00    -0.360 N 
ATOM      2  N   UNL d   1      -6.859   1.848   0.561  0.00  0.00    -0.356 N 
ATOM      3  C   UNL d   1      -5.272   0.717  -1.110  0.00  0.00     0.145 C 
ATOM      4  C   UNL d   1      -6.014   1.980  -0.643  0.00  0.00     0.145 C 
ATOM      5  C   UNL d   1      -5.708   0.261   2.152  0.00  0.00     0.040 C 
ATOM      6  C   UNL d   1      -5.351  -0.628   0.962  0.00  0.00     0.126 C 
ATOM      7  C   UNL d   1      -6.136   1.700   1.829  0.00  0.00     0.127 C 
ENDROOT
BRANCH   2   8
ATOM      8  C   UNL d   1      -8.222   1.602   0.506  0.00  0.00     0.174 C 
ATOM      9  S   UNL d   1      -8.974   0.579  -0.586  0.00  0.00    -0.041 SA
BRANCH   8  10
ATOM     10  N   UNL d   1      -8.992   2.199   1.476  0.00  0.00    -0.333 N 
ATOM     11  H   UNL d   1      -9.881   1.731   1.626  0.00  0.00     0.168 HD
BRANCH  10  12
ATOM     12  C   UNL d   1      -9.068   3.606   1.711  0.00  0.00     0.042 A 
ATOM     13  C   UNL d   1      -9.889   4.099   2.748  0.00  0.00    -0.013 A 
ATOM     14  C   UNL d   1     -10.093   5.493   2.842  0.00  0.00     0.042 A 
ATOM     15  C   UNL d   1     -10.531   3.187   3.763  0.00  0.00     0.052 C 
ATOM     16 CL   UNL d   1     -11.123   6.184   4.051  0.00  0.00    -0.084 Cl
ATOM     17  C   UNL d   1      -9.479   6.378   1.953  0.00  0.00     0.024 A 
ATOM     18  C   UNL d   1      -8.641   5.889   0.961  0.00  0.00     0.004 A 
ATOM     19  C   UNL d   1      -8.435   4.514   0.843  0.00  0.00     0.030 A 
ENDBRANCH  10  12
ENDBRANCH   8  10
ENDBRANCH   2   8
BRANCH   1  20
ATOM     20  C   UNL d   1      -3.173   0.155   0.033  0.00  0.00     0.147 A 
ATOM     21  N   UNL d   1      -2.455   0.887  -0.790  0.00  0.00    -0.336 N 
ATOM     22  C   UNL d   1      -1.100   0.748  -0.547  0.00  0.00     0.051 A 
ATOM     23  HN  UNL d   1      -2.848   1.484  -1.518  1.00  0.00     0.168 HD
ATOM     24  C   UNL d   1      -0.057   1.375  -1.259  0.00  0.00     0.032 A 
ATOM     25  C   UNL d   1      -0.771  -0.104   0.504  0.00  0.00     0.036 A 
ATOM     26  C   UNL d   1       1.278   1.129  -0.902  0.00  0.00     0.026 A 
ATOM     27  C   UNL d   1       1.573   0.269   0.149  0.00  0.00     0.035 A 
ATOM     28  C   UNL d   1       0.560  -0.364   0.872  0.00  0.00     0.045 A 
ATOM     29 CL   UNL d   1       3.216  -0.025   0.570  0.00  0.00    -0.084 Cl
ATOM     30  S   UNL d   1      -2.217  -0.711   1.193  0.00  0.00    -0.052 SA
ENDBRANCH   1  20
TORSDOF 4
