REMARK  1 active torsions:
REMARK  status: ('A' for Active; 'I' for Inactive)
REMARK    1  A    between atoms: C_8  and  C_4 
ROOT
ATOM      1  N   UNL d   1       1.271  -0.548  -0.449  0.00  0.00    -0.347 N 
ATOM      2  HN  UNL d   1       2.091  -1.032  -0.815  1.00  0.00     0.167 HD
ATOM      3  C   UNL d   1       0.060  -1.062  -0.392  0.00  0.00     0.111 A 
ATOM      4  C   UNL d   1       1.273   0.741   0.057  0.00  0.00     0.050 A 
ATOM      5  C   UNL d   1      -0.250  -2.339  -0.960  0.00  0.00     0.134 A 
ATOM      6  S   UNL d   1      -1.117  -0.085   0.380  0.00  0.00    -0.079 SA
ATOM      7  C   UNL d   1       0.062   1.140   0.598  0.00  0.00     0.082 A 
ATOM      8  N   UNL d   1      -1.480  -4.135  -1.565  0.00  0.00    -0.272 N 
ATOM      9  HN  UNL d   1      -2.261  -4.778  -1.693  1.00  0.00     0.194 HD
ATOM     10  O   UNL d   1      -1.499  -2.903  -0.932  0.00  0.00    -0.236 OA
ATOM     11  C   UNL d   1       0.590  -3.209  -1.629  0.00  0.00     0.061 A 
ATOM     12  C   UNL d   1      -0.221  -4.302  -1.972  0.00  0.00     0.117 A 
ENDROOT
BRANCH   4  13
ATOM     13  C   UNL d   1       2.464   1.592   0.007  0.00  0.00    -0.003 A 
ATOM     14  C   UNL d   1       3.392   1.544  -1.057  0.00  0.00    -0.049 A 
ATOM     15  C   UNL d   1       4.518   2.395  -1.023  0.00  0.00     0.014 A 
ATOM     16  C   UNL d   1       3.283   0.637  -2.256  0.00  0.00     0.049 C 
ATOM     17  C   UNL d   1       4.729   3.299   0.019  0.00  0.00    -0.061 A 
ATOM     18  C   UNL d   1       3.802   3.356   1.058  0.00  0.00     0.007 A 
ATOM     19  C   UNL d   1       5.935   4.189   0.012  0.00  0.00     0.048 C 
ATOM     20  C   UNL d   1       2.691   2.510   1.052  0.00  0.00     0.015 A 
ENDBRANCH   4  13
TORSDOF 1
