REMARK  6 active torsions:
REMARK  status: ('A' for Active; 'I' for Inactive)
REMARK       I    between atoms: N_2  and  C_1 
REMARK    1  A    between atoms: C_8  and  C_1 
REMARK    2  A    between atoms: C_3  and  N_2 
REMARK    3  A    between atoms: C_6  and  C_8 
REMARK    4  A    between atoms: C_10  and  C_6 
REMARK    5  A    between atoms: C_7  and  C_10 
REMARK    6  A    between atoms: O_15  and  C_7 
ROOT
ATOM      1  C   UNL d   1       0.705  -0.902   2.003  0.00  0.00     0.223 C 
ATOM      2  N   UNL d   1       2.088  -0.791   2.047  0.00  0.00    -0.325 N 
ATOM      3  O   UNL d   1       0.025  -1.723   2.596  0.00  0.00    -0.273 OA
ATOM      4  H   UNL d   1       2.474   0.079   1.704  0.00  0.00     0.169 HD
ENDROOT
BRANCH   1   5
ATOM      5  C   UNL d   1       0.086   0.196   1.141  0.00  0.00     0.113 C 
BRANCH   5   6
ATOM      6  C   UNL d   1      -1.460   0.158   0.993  0.00  0.00    -0.023 C 
ATOM      7  C   UNL d   1      -1.892  -1.112   0.218  0.00  0.00     0.010 C 
ATOM      8  C   UNL d   1      -3.029  -0.717  -0.721  0.00  0.00     0.001 C 
ATOM      9  C   UNL d   1      -3.154   0.795  -0.664  0.00  0.00     0.001 C 
ATOM     10  C   UNL d   1      -1.907   1.296   0.046  0.00  0.00     0.010 C 
BRANCH   6  11
ATOM     11  C   UNL d   1      -2.226   0.226   2.344  0.00  0.00     0.119 C 
BRANCH  11  12
ATOM     12  C   UNL d   1      -1.885   1.398   3.244  0.00  0.00     0.140 C 
ATOM     13  O   UNL d   1      -1.148   2.328   2.958  0.00  0.00    -0.650 OA
BRANCH  12  14
ATOM     14  O   UNL d   1      -2.520   1.329   4.438  0.00  0.00    -0.776 OA
ATOM     15  H   UNL d   1      -3.057   0.521   4.546  0.00  0.00     0.167 HD
ENDBRANCH  12  14
ENDBRANCH  11  12
ENDBRANCH   6  11
ENDBRANCH   5   6
ENDBRANCH   1   5
BRANCH   2  16
ATOM     16  C   UNL d   1       2.984  -1.649   2.730  0.00  0.00     0.073 A 
ATOM     17  C   UNL d   1       2.702  -2.958   3.141  0.00  0.00     0.144 A 
ATOM     18  C   UNL d   1       3.631  -3.708   3.863  0.00  0.00     0.062 A 
ATOM     19  F   UNL d   1       1.568  -3.580   2.797  0.00  0.00    -0.204 F 
ATOM     20  C   UNL d   1       4.875  -3.162   4.162  0.00  0.00     0.009 A 
ATOM     21  C   UNL d   1       5.200  -1.882   3.719  0.00  0.00     0.020 A 
ATOM     22  I   UNL d   1       6.252  -4.264   5.257  0.00  0.00    -0.044 I 
ATOM     23  C   UNL d   1       4.262  -1.133   2.998  0.00  0.00     0.034 A 
ENDBRANCH   2  16
TORSDOF 6
