REMARK  4 active torsions:
REMARK  status: ('A' for Active; 'I' for Inactive)
REMARK    1  A    between atoms: C_6  and  N_1 
REMARK    2  A    between atoms: S_7  and  C_4 
REMARK    3  A    between atoms: C_9  and  S_7 
REMARK    4  A    between atoms: N_18  and  C_14 
ROOT
ATOM      1  N   UNL d   1       0.070   0.890   0.019  0.00  0.00    -0.248 N 
ATOM      2  C   UNL d   1      -1.057   0.162   0.291  0.00  0.00     0.232 A 
ATOM      3  C   UNL d   1       1.165   0.105  -0.236  0.00  0.00     0.246 A 
ATOM      4  C   UNL d   1       0.741  -1.349  -0.203  0.00  0.00     0.154 A 
ATOM      5  C   UNL d   1      -0.721  -1.302   0.216  0.00  0.00     0.129 A 
ATOM      6  O   UNL d   1      -2.185   0.574   0.514  0.00  0.00    -0.273 OA
ATOM      7  O   UNL d   1       2.313   0.487  -0.432  0.00  0.00    -0.271 OA
ENDROOT
BRANCH   4   8
ATOM      8  S   UNL d   1       1.035  -2.026  -1.885  0.00  0.00    -0.113 SA
BRANCH   8   9
ATOM      9  C   UNL d   1       0.548  -3.741  -1.687  0.00  0.00     0.022 A 
ATOM     10  C   UNL d   1      -0.448  -4.276  -2.533  0.00  0.00     0.022 A 
ATOM     11  C   UNL d   1      -0.835  -5.610  -2.371  0.00  0.00     0.024 A 
ATOM     12  C   UNL d   1      -0.166  -6.441  -1.473  0.00  0.00     0.002 A 
ATOM     13  C   UNL d   1       0.869  -5.930  -0.692  0.00  0.00     0.001 A 
ATOM     14  C   UNL d   1       1.221  -4.582  -0.790  0.00  0.00     0.020 A 
BRANCH  10  15
ATOM     15  N   UNL d   1      -1.204  -3.443  -3.387  0.00  0.00    -0.302 NA
ATOM     16  H   UNL d   1      -0.659  -2.628  -3.670  0.00  0.00     0.124 HD
ATOM     17  H   UNL d   1      -1.593  -3.935  -4.185  0.00  0.00     0.124 HD
ENDBRANCH  10  15
ENDBRANCH   8   9
ENDBRANCH   4   8
BRANCH   1  18
ATOM     18  C   UNL d   1       0.083   2.298  -0.064  0.00  0.00     0.084 A 
ATOM     19  C   UNL d   1      -0.436   3.087   0.972  0.00  0.00     0.146 A 
ATOM     20  C   UNL d   1      -0.455   4.475   0.881  0.00  0.00     0.086 A 
ATOM     21  F   UNL d   1      -0.846   2.515   2.114  0.00  0.00    -0.204 F 
ATOM     22  C   UNL d   1       0.021   5.079  -0.275  0.00  0.00     0.119 A 
ATOM     23  C   UNL d   1       0.542   4.322  -1.319  0.00  0.00     0.045 A 
ATOM     24  F   UNL d   1      -0.016   6.413  -0.385  0.00  0.00    -0.206 F 
ATOM     25  C   UNL d   1       0.597   2.930  -1.206  0.00  0.00     0.036 A 
ENDBRANCH   1  18
TORSDOF 4
