REMARK  8 active torsions:
REMARK  status: ('A' for Active; 'I' for Inactive)
REMARK    1  A    between atoms: C_10  and  C_1 
REMARK       I    between atoms: C_5  and  N_11 
REMARK    2  A    between atoms: C_9  and  C_5 
REMARK    3  A    between atoms: C_6  and  C_9 
REMARK    4  A    between atoms: C_12  and  C_6 
REMARK    5  A    between atoms: C_15  and  C_6 
REMARK    6  A    between atoms: C_8  and  C_12 
REMARK    7  A    between atoms: O_16  and  C_8 
REMARK    8  A    between atoms: N_11  and  C_10 
ROOT
ATOM      1  C   UNL d   1      -0.553  -5.009  -0.461  0.00  0.00     0.218 C 
ATOM      2  N   UNL d   1      -1.740  -5.549  -0.914  0.00  0.00    -0.357 N 
ATOM      3  O   UNL d   1      -0.359  -3.800  -0.381  0.00  0.00    -0.274 OA
ATOM      4  H   UNL d   1      -1.834  -6.553  -0.986  0.00  0.00     0.162 HD
ENDROOT
BRANCH   1   5
ATOM      5  C   UNL d   1       0.486  -6.052  -0.045  0.00  0.00     0.112 C 
BRANCH   5   6
ATOM      6  C   UNL d   1       1.860  -5.459   0.369  0.00  0.00     0.037 C 
BRANCH   6   7
ATOM      7  C   UNL d   1       1.837  -4.521   1.599  0.00  0.00     0.119 C 
BRANCH   7   8
ATOM      8  C   UNL d   1       1.356  -5.125   2.901  0.00  0.00     0.140 C 
ATOM      9  O   UNL d   1       0.849  -6.223   3.038  0.00  0.00    -0.650 OA
BRANCH   8  10
ATOM     10  O   UNL d   1       1.513  -4.268   3.937  0.00  0.00    -0.776 OA
ATOM     11  H   UNL d   1       1.905  -3.409   3.680  0.00  0.00     0.167 HD
ENDBRANCH   8  10
ENDBRANCH   7   8
ENDBRANCH   6   7
BRANCH   6  12
ATOM     12  C   UNL d   1       3.002  -6.473   0.508  0.00  0.00    -0.053 A 
ATOM     13  C   UNL d   1       4.326  -6.032   0.311  0.00  0.00     0.007 A 
ATOM     14  C   UNL d   1       5.413  -6.897   0.464  0.00  0.00     0.001 A 
ATOM     15  C   UNL d   1       5.196  -8.226   0.809  0.00  0.00     0.000 A 
ATOM     16  C   UNL d   1       3.895  -8.684   1.006  0.00  0.00     0.001 A 
ATOM     17  C   UNL d   1       2.808  -7.813   0.864  0.00  0.00     0.007 A 
ENDBRANCH   6  12
ENDBRANCH   5   6
ENDBRANCH   1   5
BRANCH   2  18
ATOM     18  C   UNL d   1      -2.910  -4.740  -1.214  0.00  0.00     0.162 C 
BRANCH  18  19
ATOM     19  C   UNL d   1      -3.309  -4.931  -2.650  0.00  0.00    -0.022 A 
ATOM     20  C   UNL d   1      -2.801  -4.154  -3.674  0.00  0.00     0.060 A 
ATOM     21  S   UNL d   1      -3.383  -4.597  -5.209  0.00  0.00    -0.101 SA
ATOM     22  C   UNL d   1      -4.382  -5.832  -4.553  0.00  0.00     0.015 A 
ATOM     23  C   UNL d   1      -4.286  -5.885  -3.157  0.00  0.00    -0.011 A 
ATOM     24  C   UNL d   1      -5.219  -6.704  -5.282  0.00  0.00     0.019 A 
ATOM     25  C   UNL d   1      -5.116  -6.825  -2.488  0.00  0.00     0.013 A 
ATOM     26  C   UNL d   1      -5.963  -7.680  -3.208  0.00  0.00     0.001 A 
ATOM     27  C   UNL d   1      -6.000  -7.630  -4.591  0.00  0.00     0.001 A 
ENDBRANCH  18  19
ENDBRANCH   2  18
TORSDOF 8
