REMARK  2 active torsions:
REMARK  status: ('A' for Active; 'I' for Inactive)
REMARK    1  A    between atoms: C_8  and  C_3 
REMARK    2  A    between atoms: C_10  and  C_7 
ROOT
ATOM      1  N   UNL d   1       1.562  -0.083  -0.022  0.00  0.00    -0.331 N 
ATOM      2  HN  UNL d   1       2.508  -0.463  -0.067  1.00  0.00     0.168 HD
ATOM      3  C   UNL d   1       1.191   1.157   0.015  0.00  0.00     0.162 A 
ATOM      4  C   UNL d   1       0.369  -0.759   0.013  0.00  0.00     0.111 A 
ATOM      5  O   UNL d   1      -0.135   1.415   0.073  0.00  0.00    -0.256 OA
ATOM      6  C   UNL d   1      -0.767   0.208   0.076  0.00  0.00     0.316 A 
ATOM      7  C   UNL d   1       0.272  -2.095  -0.010  0.00  0.00     0.047 C 
ATOM      8  O   UNL d   1      -1.964   0.017   0.125  0.00  0.00    -0.257 OA
ENDROOT
BRANCH   7   9
ATOM      9  C   UNL d   1      -0.983  -2.847   0.009  0.00  0.00    -0.032 A 
ATOM     10  C   UNL d   1      -1.609  -3.191  -1.194  0.00  0.00     0.037 A 
ATOM     11  C   UNL d   1      -2.820  -3.892  -1.183  0.00  0.00     0.056 A 
ATOM     12 CL   UNL d   1      -3.532  -4.285  -2.708  0.00  0.00    -0.083 Cl
ATOM     13  C   UNL d   1      -3.407  -4.253   0.034  0.00  0.00     0.055 A 
ATOM     14  C   UNL d   1      -2.780  -3.912   1.236  0.00  0.00     0.026 A 
ATOM     15 CL   UNL d   1      -4.898  -5.122   0.123  0.00  0.00    -0.083 Cl
ATOM     16  C   UNL d   1      -1.571  -3.211   1.224  0.00  0.00     0.013 A 
ENDBRANCH   7   9
BRANCH   3  17
ATOM     17  C   UNL d   1       2.062   2.343   0.004  0.00  0.00     0.017 A 
ATOM     18  C   UNL d   1       1.530   3.633   0.120  0.00  0.00     0.039 A 
ATOM     19  C   UNL d   1       2.386   4.733   0.122  0.00  0.00     0.035 A 
ATOM     20 CL   UNL d   1       1.734   6.318   0.275  0.00  0.00    -0.084 Cl
ATOM     21  C   UNL d   1       3.765   4.562   0.006  0.00  0.00     0.024 A 
ATOM     22  C   UNL d   1       4.296   3.278  -0.115  0.00  0.00     0.003 A 
ATOM     23  C   UNL d   1       3.447   2.169  -0.115  0.00  0.00     0.016 A 
ENDBRANCH   3  17
TORSDOF 2
