REMARK  6 active torsions:
REMARK  status: ('A' for Active; 'I' for Inactive)
REMARK    1  A    between atoms: O_3  and  C_1 
REMARK    2  A    between atoms: C_2  and  C_8 
REMARK    3  A    between atoms: C_5  and  O_3 
REMARK    4  A    between atoms: C_7  and  C_4 
REMARK    5  A    between atoms: C_15  and  C_5 
REMARK    6  A    between atoms: C_20  and  N_10 
ROOT
ATOM      1  C   UNL d   1      -1.283  -1.184   0.091  0.00  0.00     0.113 A 
ATOM      2  C   UNL d   1      -0.167  -2.030  -0.008  0.00  0.00     0.017 A 
ATOM      3  C   UNL d   1      -1.099   0.202   0.161  0.00  0.00     0.070 A 
ATOM      4  C   UNL d   1       0.196   0.734   0.078  0.00  0.00     0.050 A 
ATOM      5  C   UNL d   1       1.128  -1.497  -0.054  0.00  0.00     0.039 A 
ATOM      6  C   UNL d   1       1.293  -0.116  -0.024  0.00  0.00     0.036 A 
ATOM      7 CL   UNL d   1      -2.398   1.296   0.455  0.00  0.00    -0.081 Cl
ATOM      8 CL   UNL d   1       2.883   0.549  -0.076  0.00  0.00    -0.084 Cl
ENDROOT
BRANCH   2   9
ATOM      9  C   UNL d   1      -0.335  -3.494  -0.050  0.00  0.00     0.102 C 
ATOM     10  N   UNL d   1       0.591  -4.287   0.382  0.00  0.00    -0.365 N 
ATOM     11  HN  UNL d   1       1.448  -3.898   0.775  1.00  0.00     0.165 HD
BRANCH  10  12
ATOM     12  C   UNL d   1       0.425  -5.682   0.316  0.00  0.00     0.032 A 
ATOM     13  C   UNL d   1      -0.810  -6.336   0.408  0.00  0.00     0.045 A 
ATOM     14  C   UNL d   1      -0.903  -7.736   0.320  0.00  0.00     0.050 A 
ATOM     15  C   UNL d   1       0.271  -8.489   0.177  0.00  0.00     0.016 A 
ATOM     16  C   UNL d   1       1.508  -7.854   0.121  0.00  0.00     0.003 A 
ATOM     17  C   UNL d   1       1.580  -6.461   0.190  0.00  0.00     0.029 A 
BRANCH  14  18
ATOM     18  C   UNL d   1      -2.244  -8.424   0.370  0.00  0.00     0.417 C 
ATOM     19  F   UNL d   1      -3.291  -7.566   0.531  0.00  0.00    -0.166 F 
ATOM     20  F   UNL d   1      -2.511  -9.125  -0.767  0.00  0.00    -0.166 F 
ATOM     21  F   UNL d   1      -2.337  -9.318   1.393  0.00  0.00    -0.166 F 
ENDBRANCH  14  18
ENDBRANCH  10  12
ENDBRANCH   2   9
BRANCH   1  22
ATOM     22  O   UNL d   1      -2.538  -1.792   0.302  0.00  0.00    -0.272 OA
BRANCH  22  23
ATOM     23  C   UNL d   1      -3.548  -1.611  -0.632  0.00  0.00     0.298 C 
ATOM     24  O   UNL d   1      -3.535  -0.844  -1.580  0.00  0.00    -0.259 OA
BRANCH  23  25
ATOM     25  C   UNL d   1      -4.627  -2.612  -0.381  0.00  0.00     0.039 A 
ATOM     26  C   UNL d   1      -5.725  -2.643  -1.253  0.00  0.00     0.017 A 
ATOM     27  C   UNL d   1      -6.684  -3.654  -1.142  0.00  0.00     0.001 A 
ATOM     28  C   UNL d   1      -6.555  -4.637  -0.161  0.00  0.00     0.000 A 
ATOM     29  C   UNL d   1      -5.486  -4.593   0.732  0.00  0.00     0.001 A 
ATOM     30  C   UNL d   1      -4.529  -3.581   0.630  0.00  0.00     0.017 A 
ENDBRANCH  23  25
ENDBRANCH  22  23
ENDBRANCH   1  22
TORSDOF 6
