REMARK  3 active torsions:
REMARK  status: ('A' for Active; 'I' for Inactive)
REMARK    1  A    between atoms: C_2  and  C_1 
REMARK       I    between atoms: N_3  and  C_1 
REMARK    2  A    between atoms: C_6  and  N_3 
REMARK    3  A    between atoms: S_13  and  C_11 
ROOT
ATOM      1  C   UNL d   1       1.106  -0.584  -0.248  0.00  0.00     0.274 C 
ATOM      2  N   UNL d   1       0.275  -0.600   0.862  0.00  0.00    -0.322 N 
ATOM      3  O   UNL d   1       0.768  -0.681  -1.424  0.00  0.00    -0.266 OA
ATOM      4  H   UNL d   1       0.741  -0.457   1.754  0.00  0.00     0.169 HD
ENDROOT
BRANCH   1   5
ATOM      5  C   UNL d   1       2.554  -0.430   0.053  0.00  0.00     0.116 A 
ATOM      6  N   UNL d   1       2.933  -0.313   1.358  0.00  0.00    -0.359 N 
ATOM      7  C   UNL d   1       4.272  -0.199   1.543  0.00  0.00     0.105 A 
ATOM      8  HN  UNL d   1       2.266  -0.311   2.130  1.00  0.00     0.165 HD
ATOM      9  C   UNL d   1       5.182  -0.200   0.494  0.00  0.00     0.104 A 
ATOM     10  N   UNL d   1       4.802  -0.312  -0.797  0.00  0.00    -0.372 N 
ATOM     11  C   UNL d   1       3.466  -0.426  -0.997  0.00  0.00     0.122 A 
ATOM     12  HN  UNL d   1       5.471  -0.310  -1.567  1.00  0.00     0.164 HD
ENDBRANCH   1   5
BRANCH   2  13
ATOM     13  C   UNL d   1      -1.128  -0.770   0.863  0.00  0.00     0.036 A 
ATOM     14  C   UNL d   1      -1.863  -1.041  -0.298  0.00  0.00     0.048 A 
ATOM     15  C   UNL d   1      -3.252  -1.197  -0.274  0.00  0.00     0.002 A 
ATOM     16  C   UNL d   1      -3.912  -1.084   0.954  0.00  0.00     0.018 A 
ATOM     17  C   UNL d   1      -3.195  -0.829   2.125  0.00  0.00     0.004 A 
ATOM     18  C   UNL d   1      -1.807  -0.676   2.081  0.00  0.00     0.029 A 
BRANCH  15  19
ATOM     19  S   UNL d   1      -4.249  -1.535  -1.724  0.00  0.00    -0.134 SA
ATOM     20  C   UNL d   1      -3.026  -1.593  -3.068  0.00  0.00     0.095 C 
ENDBRANCH  15  19
ENDBRANCH   2  13
TORSDOF 3
