REMARK  7 active torsions:
REMARK  status: ('A' for Active; 'I' for Inactive)
REMARK    1  A    between atoms: N_3  and  C_7 
REMARK    2  A    between atoms: S_9  and  C_4 
REMARK    3  A    between atoms: C_5  and  S_9 
REMARK    4  A    between atoms: N_19  and  C_6 
REMARK    5  A    between atoms: C_12  and  C_8 
REMARK    6  A    between atoms: O_20  and  C_12 
REMARK    7  A    between atoms: C_23  and  O_20 
ROOT
ATOM      1  N   UNL d   1       0.392  -1.119   0.051  0.00  0.00    -0.327 N 
ATOM      2  HN  UNL d   1       0.951  -1.972   0.022  1.00  0.00     0.169 HD
ATOM      3  C   UNL d   1      -0.952  -1.165   0.080  0.00  0.00     0.151 A 
ATOM      4  C   UNL d   1       0.970   0.097   0.063  0.00  0.00     0.097 A 
ATOM      5  C   UNL d   1       0.229   1.266   0.087  0.00  0.00     0.092 A 
ATOM      6  N   UNL d   1      -1.754  -0.088   0.074  0.00  0.00    -0.345 N 
ATOM      7  HN  UNL d   1      -2.770  -0.174   0.070  1.00  0.00     0.167 HD
ATOM      8  C   UNL d   1      -1.140   1.113   0.072  0.00  0.00     0.111 A 
ENDROOT
BRANCH   3   9
ATOM      9  S   UNL d   1      -1.691  -2.755   0.310  0.00  0.00    -0.034 SA
BRANCH   9  10
ATOM     10  C   UNL d   1      -1.941  -3.228  -1.379  0.00  0.00     0.110 A 
ATOM     11  C   UNL d   1      -1.032  -3.918  -2.170  0.00  0.00     0.136 A 
ATOM     12  C   UNL d   1      -1.360  -4.274  -3.485  0.00  0.00     0.040 A 
ATOM     13  C   UNL d   1      -2.616  -3.936  -3.975  0.00  0.00     0.020 A 
ATOM     14  C   UNL d   1      -3.479  -3.256  -3.136  0.00  0.00     0.089 A 
ATOM     15  N   UNL d   1      -3.170  -2.901  -1.867  0.00  0.00    -0.358 N 
ATOM     16  HN  UNL d   1      -3.843  -2.400  -1.288  1.00  0.00     0.166 HD
BRANCH  11  17
ATOM     17  N   UNL d   1       0.259  -4.313  -1.668  0.00  0.00    -0.113 N 
ATOM     18  O   UNL d   1       0.284  -5.106  -0.717  0.00  0.00    -0.532 OA
ATOM     19  O   UNL d   1       1.249  -3.895  -2.283  0.00  0.00    -0.532 OA
ENDBRANCH  11  17
ENDBRANCH   9  10
ENDBRANCH   3   9
BRANCH   4  20
ATOM     20  N   UNL d   1       2.356   0.081   0.198  0.00  0.00    -0.288 NA
ATOM     21  H   UNL d   1       2.715  -0.859   0.065  0.00  0.00     0.125 HD
ATOM     22  H   UNL d   1       2.828   0.792  -0.359  0.00  0.00     0.125 HD
ENDBRANCH   4  20
BRANCH   5  23
ATOM     23  C   UNL d   1       0.869   2.586   0.163  0.00  0.00     0.298 C 
ATOM     24  O   UNL d   1       1.984   2.833  -0.269  0.00  0.00    -0.259 OA
BRANCH  23  25
ATOM     25  O   UNL d   1       0.074   3.420   0.877  0.00  0.00    -0.318 OA
BRANCH  25  26
ATOM     26  C   UNL d   1       0.723   4.580   1.419  0.00  0.00     0.174 C 
ATOM     27  C   UNL d   1       1.272   4.216   2.787  0.00  0.00     0.034 C 
ENDBRANCH  25  26
ENDBRANCH  23  25
ENDBRANCH   5  23
TORSDOF 7
