REMARK  3 active torsions:
REMARK  status: ('A' for Active; 'I' for Inactive)
REMARK    1  A    between atoms: C_2  and  C_1 
REMARK       I    between atoms: N_3  and  C_1 
REMARK    2  A    between atoms: C_11  and  N_3 
REMARK    3  A    between atoms: C_6  and  C_7 
ROOT
ATOM      1  C   UNL d   1       1.166   2.019  -1.029  0.00  0.00     0.274 C 
ATOM      2  N   UNL d   1       0.321   1.263  -0.234  0.00  0.00    -0.322 N 
ATOM      3  O   UNL d   1       0.868   3.043  -1.638  0.00  0.00    -0.266 OA
ATOM      4  H   UNL d   1       0.765   0.532   0.315  0.00  0.00     0.169 HD
ENDROOT
BRANCH   2   5
ATOM      5  C   UNL d   1      -1.081   1.404  -0.143  0.00  0.00     0.035 A 
ATOM      6  C   UNL d   1      -1.825   2.166  -1.042  0.00  0.00     0.030 A 
ATOM      7  C   UNL d   1      -3.222   2.213  -0.963  0.00  0.00     0.010 A 
ATOM      8  C   UNL d   1      -3.929   1.509   0.025  0.00  0.00    -0.051 A 
ATOM      9  C   UNL d   1      -3.165   0.774   0.947  0.00  0.00     0.010 A 
ATOM     10  C   UNL d   1      -1.763   0.711   0.857  0.00  0.00     0.030 A 
BRANCH   8  11
ATOM     11  C   UNL d   1      -5.468   1.545   0.038  0.00  0.00    -0.024 C 
ATOM     12  C   UNL d   1      -6.095   0.713   1.178  0.00  0.00     0.019 C 
ATOM     13  C   UNL d   1      -5.967   2.998   0.197  0.00  0.00     0.019 C 
ATOM     14  C   UNL d   1      -6.012   0.977  -1.293  0.00  0.00     0.019 C 
ENDBRANCH   8  11
ENDBRANCH   2   5
BRANCH   1  15
ATOM     15  C   UNL d   1       2.564   1.522  -1.127  0.00  0.00     0.116 A 
ATOM     16  N   UNL d   1       2.878   0.341  -0.521  0.00  0.00    -0.359 N 
ATOM     17  C   UNL d   1       4.152  -0.076  -0.733  0.00  0.00     0.105 A 
ATOM     18  HN  UNL d   1       2.211  -0.185   0.045  1.00  0.00     0.165 HD
ATOM     19  C   UNL d   1       5.067   0.643  -1.492  0.00  0.00     0.104 A 
ATOM     20  N   UNL d   1       4.758   1.822  -2.076  0.00  0.00    -0.372 N 
ATOM     21  C   UNL d   1       3.483   2.243  -1.881  0.00  0.00     0.122 A 
ATOM     22  HN  UNL d   1       5.433   2.356  -2.622  1.00  0.00     0.164 HD
ENDBRANCH   1  15
TORSDOF 3
