REMARK  3 active torsions:
REMARK  status: ('A' for Active; 'I' for Inactive)
REMARK    1  A    between atoms: N_3  and  C_11 
REMARK    2  A    between atoms: C_12  and  N_4 
REMARK    3  A    between atoms: C_11  and  C_12 
ROOT
ATOM      1  C   UNL d   1       3.602  -2.563  -0.004  0.00  0.00     0.151 C 
ENDROOT
BRANCH   1   2
ATOM      2  N   UNL d   1       3.921  -3.995   0.052  0.00  0.00    -0.329 N 
ATOM      3  C   UNL d   1       4.090  -4.819  -1.068  0.00  0.00     0.146 A 
ATOM      4  S   UNL d   1       4.488  -6.471  -0.555  0.00  0.00    -0.058 SA
ATOM      5  S   UNL d   1       3.950  -4.403  -2.678  0.00  0.00    -0.052 SA
ATOM      6  C   UNL d   1       4.393  -6.022   1.148  0.00  0.00     0.034 A 
ATOM      7  C   UNL d   1       4.070  -4.672   1.295  0.00  0.00     0.053 A 
ATOM      8  C   UNL d   1       4.599  -6.850   2.243  0.00  0.00     0.021 A 
ATOM      9  C   UNL d   1       3.933  -4.132   2.567  0.00  0.00     0.031 A 
ATOM     10  C   UNL d   1       4.134  -4.956   3.681  0.00  0.00     0.002 A 
ATOM     11  C   UNL d   1       4.470  -6.307   3.520  0.00  0.00     0.002 A 
ENDBRANCH   1   2
BRANCH   1  12
ATOM     12  C   UNL d   1       2.090  -2.288   0.000  0.00  0.00     0.151 C 
BRANCH  12  13
ATOM     13  N   UNL d   1       1.772  -0.856  -0.055  0.00  0.00    -0.329 N 
ATOM     14  C   UNL d   1       1.603  -0.032   1.065  0.00  0.00     0.146 A 
ATOM     15  S   UNL d   1       1.203   1.620   0.553  0.00  0.00    -0.058 SA
ATOM     16  S   UNL d   1       1.746  -0.448   2.675  0.00  0.00    -0.052 SA
ATOM     17  C   UNL d   1       1.295   1.170  -1.151  0.00  0.00     0.034 A 
ATOM     18  C   UNL d   1       1.082   1.997  -2.245  0.00  0.00     0.021 A 
ATOM     19  C   UNL d   1       1.619  -0.179  -1.298  0.00  0.00     0.053 A 
ATOM     20  C   UNL d   1       1.207   1.454  -3.523  0.00  0.00     0.002 A 
ATOM     21  C   UNL d   1       1.544   0.103  -3.683  0.00  0.00     0.002 A 
ATOM     22  C   UNL d   1       1.752  -0.720  -2.571  0.00  0.00     0.031 A 
ENDBRANCH  12  13
ENDBRANCH   1  12
TORSDOF 3
