REMARK  5 active torsions:
REMARK  status: ('A' for Active; 'I' for Inactive)
REMARK    1  A    between atoms: C_2  and  C_1 
REMARK       I    between atoms: N_8  and  C_1 
REMARK    2  A    between atoms: C_3  and  C_4 
REMARK    3  A    between atoms: O_12  and  C_3 
REMARK    4  A    between atoms: C_5  and  C_11 
REMARK    5  A    between atoms: C_11  and  N_8 
ROOT
ATOM      1  C   UNL d   1       0.891   0.015   0.077  0.00  0.00     0.241 C 
ATOM      2  N   UNL d   1       0.191   1.104  -0.374  0.00  0.00    -0.357 N 
ATOM      3  O   UNL d   1       0.387  -1.016   0.503  0.00  0.00    -0.269 OA
ATOM      4  H   UNL d   1       0.679   1.904  -0.753  0.00  0.00     0.162 HD
ENDROOT
BRANCH   1   5
ATOM      5  C   UNL d   1       2.359   0.181  -0.013  0.00  0.00     0.080 C 
ATOM      6  C   UNL d   1       3.148  -0.809   0.430  0.00  0.00     0.086 C 
BRANCH   6   7
ATOM      7  C   UNL d   1       4.607  -0.654   0.324  0.00  0.00     0.165 C 
ATOM      8  O   UNL d   1       5.159   0.316  -0.162  0.00  0.00    -0.647 OA
BRANCH   7   9
ATOM      9  O   UNL d   1       5.271  -1.713   0.827  0.00  0.00    -0.773 OA
ATOM     10  H   UNL d   1       4.714  -2.425   1.190  0.00  0.00     0.167 HD
ENDBRANCH   7   9
ENDBRANCH   6   7
ENDBRANCH   1   5
BRANCH   2  11
ATOM     11  C   UNL d   1      -1.248   1.070  -0.502  0.00  0.00     0.127 C 
BRANCH  11  12
ATOM     12  C   UNL d   1      -1.869   2.270   0.142  0.00  0.00     0.003 A 
ATOM     13  C   UNL d   1      -1.730   2.565   1.617  0.00  0.00     0.007 A 
ATOM     14  C   UNL d   1      -3.038   2.063   1.077  0.00  0.00     0.007 A 
ENDBRANCH  11  12
ENDBRANCH   2  11
TORSDOF 5
