REMARK  5 active torsions:
REMARK  status: ('A' for Active; 'I' for Inactive)
REMARK    1  A    between atoms: C_8  and  C_1 
REMARK    2  A    between atoms: N_11  and  C_1 
REMARK    3  A    between atoms: O_13  and  N_4 
REMARK    4  A    between atoms: C_6  and  O_7 
REMARK    5  A    between atoms: O_7  and  C_8 
ROOT
ATOM      1  O   UNL d   1      -1.100   0.514   1.144  0.00  0.00    -0.343 OA
ENDROOT
BRANCH   1   2
ATOM      2  C   UNL d   1      -2.073   0.787   2.072  0.00  0.00     0.091 A 
ATOM      3  C   UNL d   1      -1.944   1.973   2.814  0.00  0.00     0.069 A 
ATOM      4  C   UNL d   1      -2.883   2.308   3.793  0.00  0.00     0.050 A 
ATOM      5 CL   UNL d   1      -0.612   3.047   2.562  0.00  0.00    -0.081 Cl
ATOM      6  C   UNL d   1      -3.966   1.465   4.022  0.00  0.00     0.035 A 
ATOM      7  C   UNL d   1      -4.125   0.301   3.273  0.00  0.00     0.026 A 
ATOM      8 CL   UNL d   1      -5.118   1.859   5.237  0.00  0.00    -0.084 Cl
ATOM      9  C   UNL d   1      -3.185  -0.034   2.294  0.00  0.00     0.040 A 
ENDBRANCH   1   2
BRANCH   1  10
ATOM     10  C   UNL d   1      -0.939  -0.861   0.804  0.00  0.00     0.247 C 
BRANCH  10  11
ATOM     11  C   UNL d   1       0.408  -1.081   0.111  0.00  0.00     0.099 C 
ATOM     12  N   UNL d   1       0.513  -2.108  -0.683  0.00  0.00    -0.260 N 
ATOM     13  HN  UNL d   1      -0.237  -2.771  -0.876  1.00  0.00     0.195 HD
BRANCH  12  14
ATOM     14  O   UNL d   1       1.802  -2.177  -1.236  0.00  0.00    -0.289 OA
ATOM     15  H   UNL d   1       1.768  -3.018  -1.728  0.00  0.00     0.244 HD
ENDBRANCH  12  14
BRANCH  11  16
ATOM     16  N   UNL d   1       1.435  -0.210   0.380  0.00  0.00    -0.289 NA
ATOM     17  H   UNL d   1       2.174  -0.275  -0.313  0.00  0.00     0.125 HD
ATOM     18  H   UNL d   1       1.146   0.738   0.603  0.00  0.00     0.125 HD
ENDBRANCH  11  16
ENDBRANCH  10  11
ENDBRANCH   1  10
TORSDOF 5
