REMARK  4 active torsions:
REMARK  status: ('A' for Active; 'I' for Inactive)
REMARK    1  A    between atoms: C_6  and  C_1 
REMARK    2  A    between atoms: N_11  and  C_4 
REMARK       I    between atoms: C_5  and  N_10 
REMARK       I    between atoms: N_7  and  C_5 
REMARK    3  A    between atoms: C_13  and  N_7 
REMARK    4  A    between atoms: N_10  and  N_11 
ROOT
ATOM      1  N   UNL d   1      -2.244  -3.278  -2.153  0.00  0.00    -0.171 NA
ATOM      2  H   UNL d   1      -2.926  -2.518  -2.243  0.00  0.00     0.156 HD
ENDROOT
BRANCH   1   3
ATOM      3  N   UNL d   1      -2.172  -4.080  -3.318  0.00  0.00    -0.266 N 
ATOM      4  C   UNL d   1      -3.256  -4.006  -4.179  0.00  0.00     0.335 C 
ATOM      5  N   UNL d   1      -3.144  -4.906  -5.215  0.00  0.00    -0.308 N 
ATOM      6  O   UNL d   1      -4.159  -3.193  -3.999  0.00  0.00    -0.246 OA
ATOM      7  H   UNL d   1      -2.252  -5.374  -5.294  0.00  0.00     0.170 HD
ATOM      8  H   UNL d   1      -1.688  -4.959  -3.173  0.00  0.00     0.186 HD
BRANCH   5   9
ATOM      9  C   UNL d   1      -4.108  -5.197  -6.202  0.00  0.00     0.038 A 
ATOM     10  C   UNL d   1      -5.382  -4.625  -6.230  0.00  0.00     0.053 A 
ATOM     11  C   UNL d   1      -6.308  -5.022  -7.196  0.00  0.00     0.036 A 
ATOM     12 CL   UNL d   1      -7.884  -4.327  -7.204  0.00  0.00    -0.084 Cl
ATOM     13  C   UNL d   1      -5.978  -5.986  -8.144  0.00  0.00     0.024 A 
ATOM     14  C   UNL d   1      -4.700  -6.543  -8.141  0.00  0.00     0.004 A 
ATOM     15  C   UNL d   1      -3.769  -6.147  -7.176  0.00  0.00     0.029 A 
ENDBRANCH   5   9
ENDBRANCH   1   3
BRANCH   1  16
ATOM     16  C   UNL d   1      -1.008  -2.693  -1.844  0.00  0.00     0.176 A 
ATOM     17  N   UNL d   1       0.115  -3.402  -2.053  0.00  0.00    -0.328 N 
ATOM     18  C   UNL d   1       1.303  -2.814  -1.758  0.00  0.00     0.120 A 
ATOM     19  HN  UNL d   1       0.076  -4.352  -2.421  1.00  0.00     0.168 HD
ATOM     20  C   UNL d   1       1.371  -1.531  -1.252  0.00  0.00     0.051 A 
ATOM     21  C   UNL d   1       0.171  -0.890  -1.067  0.00  0.00     0.093 A 
ATOM     22  N   UNL d   1      -1.019  -1.448  -1.353  0.00  0.00    -0.341 N 
ATOM     23  HN  UNL d   1      -1.893  -0.943  -1.202  1.00  0.00     0.167 HD
BRANCH  18  24
ATOM     24  C   UNL d   1       2.584  -3.588  -2.004  0.00  0.00     0.432 C 
ATOM     25  F   UNL d   1       2.391  -4.848  -2.490  0.00  0.00    -0.165 F 
ATOM     26  F   UNL d   1       3.330  -3.736  -0.872  0.00  0.00    -0.165 F 
ATOM     27  F   UNL d   1       3.401  -2.966  -2.902  0.00  0.00    -0.165 F 
ENDBRANCH  18  24
ENDBRANCH   1  16
TORSDOF 4
