REMARK  3 active torsions:
REMARK  status: ('A' for Active; 'I' for Inactive)
REMARK    1  A    between atoms: N_3  and  C_1 
REMARK    2  A    between atoms: N_10  and  C_2 
REMARK    3  A    between atoms: C_11  and  C_9 
ROOT
ATOM      1  C   UNL d   1       1.003   0.001  -0.127  0.00  0.00     0.145 C 
ATOM      2  C   UNL d   1       1.637   0.344   1.021  0.00  0.00     0.125 C 
ATOM      3  C   UNL d   1       1.133   0.882  -1.257  0.00  0.00     0.120 C 
ATOM      4  C   UNL d   1       1.556  -0.534   2.159  0.00  0.00     0.114 C 
ATOM      5  N   UNL d   1       1.228   1.599  -2.166  0.00  0.00    -0.190 NA
ATOM      6  N   UNL d   1       1.546  -1.202   3.109  0.00  0.00    -0.190 NA
ENDROOT
BRANCH   1   7
ATOM      7  N   UNL d   1       0.320  -1.201  -0.245  0.00  0.00    -0.355 N 
ATOM      8  C   UNL d   1      -0.764  -1.210  -0.957  0.00  0.00     0.100 C 
ATOM      9  HN  UNL d   1       0.658  -2.047   0.213  1.00  0.00     0.166 HD
BRANCH   8  10
ATOM     10  C   UNL d   1      -1.558  -2.439  -1.163  0.00  0.00    -0.021 A 
ATOM     11  C   UNL d   1      -1.210  -3.641  -0.541  0.00  0.00     0.013 A 
ATOM     12  C   UNL d   1      -1.985  -4.782  -0.760  0.00  0.00     0.001 A 
ATOM     13  C   UNL d   1      -3.101  -4.721  -1.597  0.00  0.00     0.000 A 
ATOM     14  C   UNL d   1      -3.447  -3.519  -2.216  0.00  0.00     0.001 A 
ATOM     15  C   UNL d   1      -2.677  -2.376  -2.001  0.00  0.00     0.013 A 
ENDBRANCH   8  10
ENDBRANCH   1   7
BRANCH   2  16
ATOM     16  N   UNL d   1       2.398   1.488   1.268  0.00  0.00    -0.291 NA
ATOM     17  H   UNL d   1       2.776   1.946   0.441  0.00  0.00     0.125 HD
ATOM     18  H   UNL d   1       3.100   1.367   1.999  0.00  0.00     0.125 HD
ENDBRANCH   2  16
TORSDOF 3
