REMARK  1 active torsions:
REMARK  status: ('A' for Active; 'I' for Inactive)
REMARK    1  A    between atoms: C_7  and  C_4 
ROOT
ATOM      1  C   UNL d   1      -2.485   0.521  -0.332  0.00  0.00     0.004 C 
ATOM      2  C   UNL d   1      -1.266   1.353  -0.156  0.00  0.00     0.190 C 
ATOM      3  C   UNL d   1       0.037   0.638  -0.038  0.00  0.00     0.034 A 
ATOM      4  C   UNL d   1      -3.393   0.954  -1.227  0.00  0.00     0.030 C 
ATOM      5  S   UNL d   1      -1.271  -1.867  -0.088  0.00  0.00    -0.124 SA
ATOM      6  C   UNL d   1       0.133  -0.766  -0.056  0.00  0.00     0.015 A 
ATOM      7  C   UNL d   1      -2.537  -0.716   0.498  0.00  0.00     0.122 C 
ATOM      8  C   UNL d   1       1.201   1.416   0.033  0.00  0.00     0.059 A 
ATOM      9  O   UNL d   1      -1.325   2.576  -0.131  0.00  0.00    -0.287 OA
ATOM     10  C   UNL d   1       1.400  -1.368  -0.049  0.00  0.00     0.022 A 
ATOM     11  C   UNL d   1       2.443   0.795   0.057  0.00  0.00     0.117 A 
ATOM     12  C   UNL d   1       2.554  -0.588   0.006  0.00  0.00     0.043 A 
ATOM     13  F   UNL d   1       3.553   1.542   0.117  0.00  0.00    -0.206 F 
ENDROOT
BRANCH   4  14
ATOM     14  C   UNL d   1      -4.528   0.164  -1.545  0.00  0.00     0.005 A 
ATOM     15  S   UNL d   1      -4.439  -0.985  -2.822  0.00  0.00    -0.102 SA
ATOM     16  C   UNL d   1      -6.011  -1.569  -2.498  0.00  0.00     0.050 A 
ATOM     17  C   UNL d   1      -6.621  -0.871  -1.481  0.00  0.00     0.008 A 
ATOM     18  C   UNL d   1      -5.773   0.142  -0.945  0.00  0.00     0.019 A 
ENDBRANCH   4  14
TORSDOF 1
