REMARK  7 active torsions:
REMARK  status: ('A' for Active; 'I' for Inactive)
REMARK    1  A    between atoms: N_19  and  C_2 
REMARK    2  A    between atoms: C_5  and  C_3 
REMARK    3  A    between atoms: C_13  and  C_22 
REMARK    4  A    between atoms: C_25  and  N_19 
REMARK    5  A    between atoms: S_21  and  C_26 
REMARK    6  A    between atoms: C_22  and  S_21 
REMARK    7  A    between atoms: C_26  and  C_25 
ROOT
ATOM      1  C   UNL d   1       0.258  -1.298   0.326  0.00  0.00     0.074 C 
ATOM      2  C   UNL d   1      -1.081  -1.316   0.226  0.00  0.00     0.009 C 
ATOM      3  C   UNL d   1      -1.079   1.161  -0.451  0.00  0.00     0.031 C 
ATOM      4  C   UNL d   1       1.002  -0.018   0.342  0.00  0.00     0.151 C 
ATOM      5  C   UNL d   1      -1.880  -0.034   0.101  0.00  0.00     0.066 C 
ATOM      6  C   UNL d   1       0.223   1.277   0.351  0.00  0.00     0.092 C 
ATOM      7  O   UNL d   1       2.233  -0.037   0.410  0.00  0.00    -0.293 OA
ENDROOT
BRANCH   2   8
ATOM      8  N   UNL d   1      -1.854  -2.456   0.250  0.00  0.00    -0.392 N 
ATOM      9  H   UNL d   1      -2.413  -2.613  -0.594  0.00  0.00     0.159 HD
BRANCH   8  10
ATOM     10  C   UNL d   1      -1.666  -3.622   1.095  0.00  0.00     0.130 C 
BRANCH  10  11
ATOM     11  C   UNL d   1      -2.874  -4.561   0.981  0.00  0.00     0.093 C 
BRANCH  11  12
ATOM     12  S   UNL d   1      -3.140  -5.206  -0.713  0.00  0.00    -0.163 SA
BRANCH  12  13
ATOM     13  C   UNL d   1      -1.633  -6.211  -0.883  0.00  0.00     0.114 C 
BRANCH  13  14
ATOM     14  C   UNL d   1      -1.476  -6.764  -2.275  0.00  0.00    -0.027 A 
ATOM     15  C   UNL d   1      -1.909  -8.046  -2.645  0.00  0.00     0.041 A 
ATOM     16 CL   UNL d   1      -2.698  -9.104  -1.531  0.00  0.00    -0.084 Cl
ATOM     17  C   UNL d   1      -1.702  -8.515  -3.946  0.00  0.00     0.024 A 
ATOM     18  C   UNL d   1      -1.073  -7.708  -4.895  0.00  0.00     0.002 A 
ATOM     19  C   UNL d   1      -0.658  -6.426  -4.549  0.00  0.00     0.001 A 
ATOM     20  C   UNL d   1      -0.861  -5.956  -3.252  0.00  0.00     0.009 A 
ENDBRANCH  13  14
ENDBRANCH  12  13
ENDBRANCH  11  12
ENDBRANCH  10  11
ENDBRANCH   8  10
ENDBRANCH   2   8
BRANCH   3  21
ATOM     21  C   UNL d   1      -0.944   1.123  -1.976  0.00  0.00    -0.050 A 
ATOM     22  C   UNL d   1      -2.118   1.070  -2.758  0.00  0.00     0.047 A 
ATOM     23  C   UNL d   1      -2.003   1.048  -4.133  0.00  0.00     0.105 A 
ATOM     24  O   UNL d   1      -3.037   0.985  -5.015  0.00  0.00    -0.323 OA
ATOM     25  C   UNL d   1      -0.783   1.093  -4.756  0.00  0.00     0.105 A 
ATOM     26  C   UNL d   1      -2.323   1.017  -6.268  0.00  0.00     0.352 A 
ATOM     27  O   UNL d   1      -0.889   1.069  -6.111  0.00  0.00    -0.323 OA
ATOM     28  C   UNL d   1       0.387   1.166  -4.040  0.00  0.00     0.040 A 
ATOM     29  C   UNL d   1       0.302   1.184  -2.642  0.00  0.00     0.010 A 
ENDBRANCH   3  21
TORSDOF 7
