REMARK  5 active torsions:
REMARK  status: ('A' for Active; 'I' for Inactive)
REMARK    1  A    between atoms: N_6  and  C_1 
REMARK    2  A    between atoms: O_11  and  C_7 
REMARK    3  A    between atoms: C_18  and  O_11 
REMARK    4  A    between atoms: O_14  and  C_19 
REMARK    5  A    between atoms: C_19  and  C_18 
ROOT
ATOM      1  C   UNL d   1       0.987   1.188  -0.051  0.00  0.00     0.682 A 
ATOM      2  N   UNL d   1       1.763   0.097  -0.121  0.00  0.00    -0.170 N 
ATOM      3  HN  UNL d   1       2.777   0.169  -0.208  1.00  0.00     0.186 HD
ATOM      4  N   UNL d   1      -0.351   1.134   0.001  0.00  0.00    -0.196 N 
ATOM      5  HN  UNL d   1      -0.908   1.986   0.062  1.00  0.00     0.184 HD
ATOM      6  C   UNL d   1       1.148  -1.091  -0.073  0.00  0.00     0.159 A 
ATOM      7  C   UNL d   1      -0.214  -1.249  -0.060  0.00  0.00     0.081 A 
ATOM      8  C   UNL d   1      -0.943  -0.080  -0.031  0.00  0.00     0.026 A 
ATOM      9  C   UNL d   1      -2.439  -0.092  -0.011  0.00  0.00     0.069 C 
ENDROOT
BRANCH   1  10
ATOM     10  N   UNL d   1       1.633   2.380   0.127  0.00  0.00    -0.213 N 
ATOM     11  C   UNL d   1       0.930   3.484   0.764  0.00  0.00     0.167 C 
ATOM     12  C   UNL d   1       2.003   4.385   1.399  0.00  0.00     0.188 C 
ATOM     13  O   UNL d   1       2.937   4.862   0.410  0.00  0.00    -0.388 OA
ATOM     14  C   UNL d   1       3.597   3.757  -0.242  0.00  0.00     0.188 C 
ATOM     15  C   UNL d   1       2.591   2.792  -0.895  0.00  0.00     0.167 C 
ENDBRANCH   1  10
BRANCH   6  16
ATOM     16  O   UNL d   1       1.915  -2.242  -0.040  0.00  0.00    -0.333 OA
BRANCH  16  17
ATOM     17  C   UNL d   1       3.209  -2.001   0.529  0.00  0.00     0.203 C 
BRANCH  17  18
ATOM     18  C   UNL d   1       4.006  -3.303   0.528  0.00  0.00     0.193 C 
BRANCH  18  19
ATOM     19  O   UNL d   1       5.280  -3.081   1.134  0.00  0.00    -0.394 OA
ATOM     20  C   UNL d   1       6.079  -4.256   1.128  0.00  0.00     0.201 C 
ENDBRANCH  18  19
ENDBRANCH  17  18
ENDBRANCH  16  17
ENDBRANCH   6  16
TORSDOF 5
