REMARK  3 active torsions:
REMARK  status: ('A' for Active; 'I' for Inactive)
REMARK    1  A    between atoms: C_3  and  C_1 
REMARK       I    between atoms: N_7  and  C_3 
REMARK    2  A    between atoms: C_6  and  C_9 
REMARK    3  A    between atoms: C_8  and  N_7 
ROOT
ATOM      1  C   UNL d   1      -2.922  -2.205  -0.358  0.00  0.00     0.262 C 
ATOM      2  N   UNL d   1      -2.604  -3.533  -0.180  0.00  0.00    -0.321 N 
ATOM      3  O   UNL d   1      -4.049  -1.786  -0.617  0.00  0.00    -0.267 OA
ATOM      4  H   UNL d   1      -1.686  -3.757   0.216  0.00  0.00     0.169 HD
ENDROOT
BRANCH   1   5
ATOM      5  C   UNL d   1      -1.784  -1.238  -0.245  0.00  0.00     0.108 A 
ATOM      6  C   UNL d   1      -0.450  -1.601   0.272  0.00  0.00     0.304 A 
ATOM      7  O   UNL d   1       0.525  -0.606   0.290  0.00  0.00    -0.274 OA
ATOM      8  O   UNL d   1      -0.206  -2.736   0.672  0.00  0.00    -0.259 OA
ATOM      9  C   UNL d   1       0.274   0.679  -0.225  0.00  0.00     0.089 A 
ATOM     10  C   UNL d   1      -0.981   1.006  -0.725  0.00  0.00    -0.001 A 
ATOM     11  C   UNL d   1       1.320   1.596  -0.233  0.00  0.00     0.038 A 
ATOM     12  C   UNL d   1      -2.027   0.002  -0.703  0.00  0.00     0.037 A 
ATOM     13  C   UNL d   1      -1.193   2.279  -1.257  0.00  0.00     0.014 A 
ATOM     14  C   UNL d   1      -0.150   3.207  -1.279  0.00  0.00     0.001 A 
ATOM     15  C   UNL d   1       1.104   2.866  -0.766  0.00  0.00     0.003 A 
ENDBRANCH   1   5
BRANCH   2  16
ATOM     16  C   UNL d   1      -3.423  -4.651  -0.487  0.00  0.00     0.057 A 
ATOM     17  C   UNL d   1      -4.615  -4.531  -1.214  0.00  0.00     0.047 A 
ATOM     18  C   UNL d   1      -5.385  -5.656  -1.558  0.00  0.00     0.050 A 
ATOM     19  C   UNL d   1      -4.948  -6.925  -1.155  0.00  0.00     0.018 A 
ATOM     20  C   UNL d   1      -3.763  -7.064  -0.431  0.00  0.00     0.027 A 
ATOM     21  C   UNL d   1      -3.003  -5.936  -0.105  0.00  0.00     0.060 A 
ATOM     22 CL   UNL d   1      -1.537  -6.176   0.781  0.00  0.00    -0.082 Cl
BRANCH  18  23
ATOM     23  C   UNL d   1      -6.647  -5.508  -2.375  0.00  0.00     0.417 C 
ATOM     24  F   UNL d   1      -6.991  -4.216  -2.632  0.00  0.00    -0.166 F 
ATOM     25  F   UNL d   1      -6.545  -6.114  -3.591  0.00  0.00    -0.166 F 
ATOM     26  F   UNL d   1      -7.729  -6.070  -1.768  0.00  0.00    -0.166 F 
ENDBRANCH  18  23
ENDBRANCH   2  16
TORSDOF 3
