REMARK  5 active torsions:
REMARK  status: ('A' for Active; 'I' for Inactive)
REMARK    1  A    between atoms: C_15  and  C_1 
REMARK    2  A    between atoms: C_9  and  C_3 
REMARK    3  A    between atoms: N_13  and  C_7 
REMARK       I    between atoms: C_11  and  N_14 
REMARK    4  A    between atoms: C_16  and  C_11 
REMARK    5  A    between atoms: O_30  and  C_15 
ROOT
ATOM      1  C   UNL d   1      -0.175  -0.297  -2.314  0.00  0.00     0.074 A 
ATOM      2  C   UNL d   1       0.637  -0.100  -1.139  0.00  0.00     0.068 A 
ATOM      3  C   UNL d   1       0.544  -0.148   1.291  0.00  0.00     0.070 A 
ATOM      4  C   UNL d   1      -0.086  -0.298   0.046  0.00  0.00     0.047 A 
ATOM      5  N   UNL d   1       1.957   0.240  -1.134  0.00  0.00    -0.341 N 
ATOM      6  HN  UNL d   1       2.468   0.358  -2.009  1.00  0.00     0.167 HD
ATOM      7  C   UNL d   1       2.567   0.417   0.042  0.00  0.00     0.104 A 
ATOM      8  S   UNL d   1      -1.713  -0.731  -0.293  0.00  0.00    -0.098 SA
ATOM      9  C   UNL d   1      -1.468  -0.645  -1.966  0.00  0.00     0.070 A 
ATOM     10  C   UNL d   1       1.895   0.213   1.242  0.00  0.00     0.066 A 
ENDROOT
BRANCH   7  11
ATOM     11  N   UNL d   1       3.906   0.736   0.082  0.00  0.00    -0.364 N 
ATOM     12  C   UNL d   1       4.794   0.495  -1.062  0.00  0.00     0.144 C 
ATOM     13  C   UNL d   1       6.168   0.029  -0.510  0.00  0.00     0.146 C 
ATOM     14  N   UNL d   1       6.694   0.936   0.533  0.00  0.00    -0.343 N 
ATOM     15  C   UNL d   1       7.995   1.438   0.420  0.00  0.00     0.277 C 
ATOM     16  C   UNL d   1       5.729   1.269   1.595  0.00  0.00     0.146 C 
ATOM     17  O   UNL d   1       8.679   1.170  -0.568  0.00  0.00    -0.265 OA
ATOM     18  C   UNL d   1       4.401   1.759   1.006  0.00  0.00     0.144 C 
BRANCH  15  19
ATOM     19  C   UNL d   1       8.500   2.342   1.443  0.00  0.00     0.142 A 
ATOM     20  O   UNL d   1       8.145   2.200   2.760  0.00  0.00    -0.317 OA
ATOM     21  C   UNL d   1       8.701   3.229   3.448  0.00  0.00     0.143 A 
ATOM     22  C   UNL d   1       9.476   3.998   2.614  0.00  0.00     0.027 A 
ATOM     23  C   UNL d   1       9.379   3.404   1.333  0.00  0.00     0.045 A 
ENDBRANCH  15  19
ENDBRANCH   7  11
BRANCH   3  24
ATOM     24  C   UNL d   1      -0.081  -0.352   2.642  0.00  0.00     0.418 C 
ATOM     25  F   UNL d   1      -1.398  -0.675   2.636  0.00  0.00    -0.166 F 
ATOM     26  F   UNL d   1       0.541  -1.340   3.346  0.00  0.00    -0.166 F 
ATOM     27  F   UNL d   1       0.022   0.765   3.419  0.00  0.00    -0.166 F 
ENDBRANCH   3  24
BRANCH   1  28
ATOM     28  C   UNL d   1       0.203  -0.177  -3.719  0.00  0.00     0.295 C 
ATOM     29  O   UNL d   1      -0.592  -0.379  -4.630  0.00  0.00    -0.259 OA
BRANCH  28  30
ATOM     30  O   UNL d   1       1.502   0.178  -3.920  0.00  0.00    -0.322 OA
ATOM     31  C   UNL d   1       1.863   0.294  -5.295  0.00  0.00     0.213 C 
ENDBRANCH  28  30
ENDBRANCH   1  28
TORSDOF 5
