REMARK  2 active torsions:
REMARK  status: ('A' for Active; 'I' for Inactive)
REMARK    1  A    between atoms: C_2  and  C_1 
REMARK       I    between atoms: N_4  and  C_2 
REMARK    2  A    between atoms: C_10  and  N_4 
ROOT
ATOM      1  C   UNL d   1       2.381  -4.306   0.889  0.00  0.00    -0.078 C 
ATOM      2  C   UNL d   1       3.453  -3.831   1.154  0.00  0.00     0.018 C 
ATOM      3  C   UNL d   1      -1.259  -4.431   0.108  0.00  0.00     0.036 A 
ATOM      4  C   UNL d   1       1.099  -4.823   0.529  0.00  0.00     0.019 A 
ATOM      5  C   UNL d   1      -0.010  -3.972   0.532  0.00  0.00     0.050 A 
ATOM      6  C   UNL d   1      -0.294  -6.632  -0.247  0.00  0.00     0.004 A 
ATOM      7  C   UNL d   1      -1.398  -5.776  -0.252  0.00  0.00     0.029 A 
ATOM      8  C   UNL d   1       0.958  -6.151   0.133  0.00  0.00     0.021 A 
ENDROOT
BRANCH   3   9
ATOM      9  N   UNL d   1      -2.395  -3.600  -0.003  0.00  0.00    -0.323 N 
ATOM     10  C   UNL d   1      -2.399  -2.217  -0.019  0.00  0.00     0.257 C 
ATOM     11  O   UNL d   1      -1.405  -1.502   0.078  0.00  0.00    -0.267 OA
ATOM     12  H   UNL d   1      -3.263  -4.070  -0.231  0.00  0.00     0.169 HD
BRANCH  10  13
ATOM     13  C   UNL d   1      -3.721  -1.531  -0.150  0.00  0.00     0.054 A 
ATOM     14  C   UNL d   1      -4.879  -2.067  -0.734  0.00  0.00     0.051 A 
ATOM     15  C   UNL d   1      -6.066  -1.320  -0.761  0.00  0.00     0.048 A 
ATOM     16 CL   UNL d   1      -4.946  -3.622  -1.489  0.00  0.00    -0.083 Cl
ATOM     17  C   UNL d   1      -6.100  -0.035  -0.224  0.00  0.00     0.035 A 
ATOM     18  C   UNL d   1      -4.955   0.526   0.326  0.00  0.00     0.025 A 
ATOM     19 CL   UNL d   1      -7.566   0.863  -0.246  0.00  0.00    -0.084 Cl
ATOM     20  C   UNL d   1      -3.775  -0.217   0.360  0.00  0.00     0.020 A 
ENDBRANCH  10  13
ENDBRANCH   3   9
TORSDOF 2
