REMARK  6 active torsions:
REMARK  status: ('A' for Active; 'I' for Inactive)
REMARK    1  A    between atoms: C_9  and  C_1 
REMARK    2  A    between atoms: C_11  and  N_4 
REMARK    3  A    between atoms: C_8  and  C_10 
REMARK    4  A    between atoms: C_12  and  C_11 
REMARK       I    between atoms: N_15  and  C_12 
REMARK       I    between atoms: C_13  and  N_14 
REMARK    5  A    between atoms: C_16  and  C_13 
REMARK    6  A    between atoms: N_14  and  N_15 
ROOT
ATOM      1  C   UNL d   1      -0.899  -0.594   0.672  0.00  0.00     0.145 A 
ATOM      2  N   UNL d   1       0.448  -0.535   0.610  0.00  0.00    -0.268 N 
ATOM      3  HN  UNL d   1       1.145  -1.144   1.039  1.00  0.00     0.190 HD
ATOM      4  N   UNL d   1       0.621   0.550  -0.176  0.00  0.00    -0.207 N 
ATOM      5  N   UNL d   1      -1.496   0.412  -0.041  0.00  0.00    -0.266 N 
ATOM      6  HN  UNL d   1      -2.498   0.581  -0.129  1.00  0.00     0.186 HD
ATOM      7  N   UNL d   1      -0.526   1.123  -0.596  0.00  0.00    -0.002 NA
ENDROOT
BRANCH   4   8
ATOM      8  C   UNL d   1       1.823   1.360  -0.099  0.00  0.00     0.271 C 
BRANCH   8   9
ATOM      9  C   UNL d   1       3.143   0.646  -0.214  0.00  0.00     0.257 C 
ATOM     10  N   UNL d   1       3.284  -0.598   0.353  0.00  0.00    -0.266 N 
ATOM     11  H   UNL d   1       2.522  -1.103   0.822  0.00  0.00     0.190 HD
ATOM     12  O   UNL d   1       4.126   1.223  -0.703  0.00  0.00    -0.270 OA
BRANCH  10  13
ATOM     13  N   UNL d   1       4.577  -1.165   0.427  0.00  0.00    -0.267 N 
ATOM     14  C   UNL d   1       4.814  -2.108   1.411  0.00  0.00     0.243 C 
ATOM     15  O   UNL d   1       3.895  -2.508   2.135  0.00  0.00    -0.271 OA
ATOM     16  H   UNL d   1       5.330  -0.604   0.028  0.00  0.00     0.190 HD
BRANCH  14  17
ATOM     17  C   UNL d   1       6.250  -2.669   1.501  0.00  0.00     0.032 C 
ATOM     18  C   UNL d   1       7.285  -1.558   1.721  0.00  0.00     0.025 C 
ATOM     19  C   UNL d   1       6.330  -3.646   2.692  0.00  0.00     0.025 C 
ATOM     20  C   UNL d   1       6.587  -3.437   0.215  0.00  0.00     0.025 C 
ENDBRANCH  14  17
ENDBRANCH  10  13
ENDBRANCH   8   9
ENDBRANCH   4   8
BRANCH   1  21
ATOM     21  C   UNL d   1      -1.621  -1.459   1.603  0.00  0.00     0.025 A 
ATOM     22  C   UNL d   1      -2.918  -1.971   1.401  0.00  0.00     0.061 A 
ATOM     23  C   UNL d   1      -3.519  -2.719   2.446  0.00  0.00     0.017 A 
ATOM     24  C   UNL d   1      -2.858  -2.966   3.649  0.00  0.00     0.001 A 
ATOM     25  C   UNL d   1      -1.575  -2.482   3.835  0.00  0.00     0.001 A 
ATOM     26  C   UNL d   1      -0.965  -1.742   2.823  0.00  0.00     0.016 A 
BRANCH  22  27
ATOM     27  C   UNL d   1      -3.746  -1.822   0.146  0.00  0.00     0.418 C 
ATOM     28  F   UNL d   1      -3.160  -1.202  -0.906  0.00  0.00    -0.166 F 
ATOM     29  F   UNL d   1      -4.134  -3.040  -0.339  0.00  0.00    -0.166 F 
ATOM     30  F   UNL d   1      -4.910  -1.149   0.383  0.00  0.00    -0.166 F 
ENDBRANCH  22  27
ENDBRANCH   1  21
TORSDOF 6
