REMARK  6 active torsions:
REMARK  status: ('A' for Active; 'I' for Inactive)
REMARK    1  A    between atoms: C_9  and  C_1 
REMARK    2  A    between atoms: S_8  and  C_2 
REMARK    3  A    between atoms: C_12  and  C_7 
REMARK    4  A    between atoms: C_13  and  S_8 
REMARK    5  A    between atoms: O_18  and  C_9 
REMARK    6  A    between atoms: C_24  and  O_18 
ROOT
ATOM      1  C   UNL d   1      -0.807   1.438   0.071  0.00  0.00     0.086 A 
ATOM      2  C   UNL d   1      -0.799  -0.951  -0.008  0.00  0.00     0.098 A 
ATOM      3  C   UNL d   1      -1.516   0.226   0.148  0.00  0.00     0.096 A 
ATOM      4  N   UNL d   1       0.558  -0.946  -0.110  0.00  0.00    -0.351 N 
ATOM      5  HN  UNL d   1       1.053  -1.835  -0.187  1.00  0.00     0.166 HD
ATOM      6  C   UNL d   1       0.599   1.444  -0.074  0.00  0.00     0.075 A 
ATOM      7  C   UNL d   1       1.270   0.214  -0.112  0.00  0.00     0.040 A 
ATOM      8  C   UNL d   1      -2.909   0.190   0.491  0.00  0.00     0.103 C 
ATOM      9  N   UNL d   1      -4.021   0.170   0.815  0.00  0.00    -0.191 NA
ATOM     10 CL   UNL d   1       1.448   2.949  -0.223  0.00  0.00    -0.081 Cl
ENDROOT
BRANCH   2  11
ATOM     11  S   UNL d   1      -1.479  -2.593   0.103  0.00  0.00    -0.053 SA
BRANCH  11  12
ATOM     12  C   UNL d   1      -2.627  -2.704  -1.261  0.00  0.00     0.075 A 
ATOM     13  N   UNL d   1      -2.841  -1.623  -2.046  0.00  0.00    -0.360 N 
ATOM     14  C   UNL d   1      -3.775  -1.747  -3.021  0.00  0.00     0.089 A 
ATOM     15  HN  UNL d   1      -2.324  -0.754  -1.910  1.00  0.00     0.166 HD
ATOM     16  C   UNL d   1      -4.495  -2.906  -3.262  0.00  0.00     0.017 A 
ATOM     17  C   UNL d   1      -4.248  -4.013  -2.462  0.00  0.00     0.004 A 
ATOM     18  C   UNL d   1      -3.300  -3.912  -1.445  0.00  0.00     0.037 A 
ENDBRANCH  11  12
ENDBRANCH   2  11
BRANCH   1  19
ATOM     19  C   UNL d   1      -1.520   2.729   0.253  0.00  0.00     0.296 C 
ATOM     20  O   UNL d   1      -1.123   3.623   0.976  0.00  0.00    -0.259 OA
BRANCH  19  21
ATOM     21  O   UNL d   1      -2.641   2.754  -0.507  0.00  0.00    -0.318 OA
BRANCH  21  22
ATOM     22  C   UNL d   1      -3.419   3.962  -0.443  0.00  0.00     0.174 C 
ATOM     23  C   UNL d   1      -4.075   4.182   0.911  0.00  0.00     0.034 C 
ENDBRANCH  21  22
ENDBRANCH  19  21
ENDBRANCH   1  19
BRANCH   7  24
ATOM     24  C   UNL d   1       2.805   0.026  -0.071  0.00  0.00    -0.007 C 
ATOM     25  C   UNL d   1       3.178  -1.485  -0.092  0.00  0.00     0.021 C 
ATOM     26  C   UNL d   1       3.515   0.646  -1.292  0.00  0.00     0.021 C 
ATOM     27  C   UNL d   1       3.396   0.584   1.244  0.00  0.00     0.021 C 
ENDBRANCH   7  24
TORSDOF 6
