REMARK  2 active torsions:
REMARK  status: ('A' for Active; 'I' for Inactive)
REMARK    1  A    between atoms: C_8  and  N_1 
REMARK    2  A    between atoms: C_4  and  C_10 
ROOT
ATOM      1  C   UNL d   1       0.176   0.969  -0.664  0.00  0.00     0.102 A 
ATOM      2  C   UNL d   1      -1.227   2.949  -2.075  0.00  0.00    -0.009 A 
ATOM      3  C   UNL d   1       0.543   1.278  -1.980  0.00  0.00     0.037 A 
ATOM      4  C   UNL d   1      -0.891   1.636  -0.049  0.00  0.00     0.037 A 
ATOM      5  C   UNL d   1      -0.160   2.265  -2.678  0.00  0.00     0.016 A 
ATOM      6  C   UNL d   1      -1.583   2.625  -0.757  0.00  0.00     0.016 A 
ENDROOT
BRANCH   2   7
ATOM      7  C   UNL d   1      -1.940   4.009  -2.779  0.00  0.00     0.049 A 
ATOM      8  N   UNL d   1      -2.456   5.101  -2.097  0.00  0.00    -0.353 N 
ATOM      9  C   UNL d   1      -3.007   5.942  -2.946  0.00  0.00     0.047 A 
ATOM     10  HN  UNL d   1      -2.415   5.232  -1.087  1.00  0.00     0.166 HD
ATOM     11  C   UNL d   1      -3.617   7.246  -2.570  0.00  0.00     0.076 C 
ATOM     12  S   UNL d   1      -2.989   5.451  -4.593  0.00  0.00    -0.087 SA
ATOM     13  C   UNL d   1      -2.159   4.022  -4.143  0.00  0.00     0.081 A 
ENDBRANCH   2   7
BRANCH   1  14
ATOM     14  N   UNL d   1       0.927  -0.052   0.077  0.00  0.00    -0.116 N 
ATOM     15  O   UNL d   1       1.881  -0.596  -0.497  0.00  0.00    -0.532 OA
ATOM     16  O   UNL d   1       0.562  -0.311   1.233  0.00  0.00    -0.532 OA
ENDBRANCH   1  14
TORSDOF 2
