REMARK  6 active torsions:
REMARK  status: ('A' for Active; 'I' for Inactive)
REMARK    1  A    between atoms: N_7  and  C_1 
REMARK       I    between atoms: C_8  and  N_7 
REMARK    2  A    between atoms: C_18  and  C_8 
REMARK    3  A    between atoms: C_10  and  C_19 
REMARK    4  A    between atoms: O_16  and  C_10 
REMARK    5  A    between atoms: O_15  and  C_18 
REMARK    6  A    between atoms: C_19  and  O_15 
ROOT
ATOM      1  C   UNL d   1       1.420   1.160   0.171  0.00  0.00     0.138 A 
ATOM      2  N   UNL d   1       2.280   0.146   0.085  0.00  0.00    -0.282 N 
ATOM      3  HN  UNL d   1       3.299   0.196   0.084  1.00  0.00     0.189 HD
ATOM      4  C   UNL d   1       0.077   0.696   0.087  0.00  0.00     0.076 A 
ATOM      5  N   UNL d   1       1.522  -0.949   0.001  0.00  0.00    -0.294 N 
ATOM      6  C   UNL d   1       0.177  -0.695  -0.007  0.00  0.00     0.067 A 
ATOM      7  C   UNL d   1      -1.204   1.268   0.108  0.00  0.00     0.132 A 
ATOM      8  C   UNL d   1       2.165  -2.242  -0.029  0.00  0.00     0.178 C 
ATOM      9  F   UNL d   1      -1.353   2.597   0.202  0.00  0.00    -0.205 F 
ATOM     10  C   UNL d   1      -0.943  -1.538  -0.071  0.00  0.00     0.032 A 
ATOM     11  C   UNL d   1      -2.205  -0.935  -0.040  0.00  0.00     0.005 A 
ATOM     12  C   UNL d   1      -2.338   0.450   0.046  0.00  0.00     0.043 A 
ENDROOT
BRANCH   1  13
ATOM     13  N   UNL d   1       1.808   2.472   0.328  0.00  0.00    -0.309 N 
ATOM     14  C   UNL d   1       3.113   2.866   0.581  0.00  0.00     0.246 C 
ATOM     15  O   UNL d   1       4.103   2.150   0.709  0.00  0.00    -0.271 OA
ATOM     16  H   UNL d   1       1.077   3.168   0.369  0.00  0.00     0.170 HD
BRANCH  14  17
ATOM     17  C   UNL d   1       3.268   4.382   0.658  0.00  0.00     0.271 C 
BRANCH  17  18
ATOM     18  O   UNL d   1       2.246   5.001   1.445  0.00  0.00    -0.372 OA
BRANCH  18  19
ATOM     19  C   UNL d   1       2.621   6.338   1.795  0.00  0.00     0.277 C 
BRANCH  19  20
ATOM     20  C   UNL d   1       2.392   7.279   0.623  0.00  0.00     0.164 C 
ATOM     21  O   UNL d   1       3.167   8.149   0.263  0.00  0.00    -0.648 OA
BRANCH  20  22
ATOM     22  O   UNL d   1       1.209   7.034   0.005  0.00  0.00    -0.775 OA
ATOM     23  H   UNL d   1       0.752   6.278   0.431  0.00  0.00     0.167 HD
ENDBRANCH  20  22
ENDBRANCH  19  20
ENDBRANCH  18  19
ENDBRANCH  17  18
ENDBRANCH  14  17
ENDBRANCH   1  13
TORSDOF 6
