REMARK  4 active torsions:
REMARK  status: ('A' for Active; 'I' for Inactive)
REMARK    1  A    between atoms: N_3  and  C_1 
REMARK       I    between atoms: C_2  and  N_3 
REMARK       I    between atoms: N_8  and  C_2 
REMARK    2  A    between atoms: C_7  and  C_17 
REMARK    3  A    between atoms: O_18  and  C_7 
REMARK    4  A    between atoms: C_17  and  N_8 
ROOT
ATOM      1  C   UNL d   1       1.346   1.629   3.460  0.00  0.00     0.317 C 
ATOM      2  N   UNL d   1       1.513   1.605   2.108  0.00  0.00    -0.334 N 
ATOM      3  N   UNL d   1       1.901   2.679   4.120  0.00  0.00    -0.334 N 
ATOM      4  O   UNL d   1       0.729   0.778   4.093  0.00  0.00    -0.247 OA
ATOM      5  H   UNL d   1       1.815   2.479   1.710  0.00  0.00     0.165 HD
ATOM      6  H   UNL d   1       1.723   2.648   5.120  0.00  0.00     0.164 HD
ENDROOT
BRANCH   2   7
ATOM      7  C   UNL d   1       0.814   0.699   1.170  0.00  0.00     0.035 C 
ATOM      8  C   UNL d   1      -0.723   0.892   1.251  0.00  0.00     0.035 C 
ATOM      9  C   UNL d   1      -1.440   0.073   0.163  0.00  0.00    -0.012 C 
ATOM     10  C   UNL d   1      -0.930   0.517  -1.217  0.00  0.00     0.009 C 
ATOM     11  C   UNL d   1      -1.137  -1.421   0.366  0.00  0.00     0.009 C 
ATOM     12  C   UNL d   1       0.578   0.243  -1.332  0.00  0.00    -0.012 C 
ATOM     13  C   UNL d   1       1.310   1.056  -0.259  0.00  0.00     0.035 C 
ATOM     14  C   UNL d   1       0.861  -1.249  -1.103  0.00  0.00     0.009 C 
ATOM     15  C   UNL d   1       0.383  -1.660   0.299  0.00  0.00    -0.012 C 
ATOM     16  C   UNL d   1       1.103  -0.812   1.382  0.00  0.00     0.035 C 
ENDBRANCH   2   7
BRANCH   3  17
ATOM     17  C   UNL d   1       2.653   3.831   3.630  0.00  0.00     0.235 C 
BRANCH  17  18
ATOM     18  C   UNL d   1       3.167   4.786   4.717  0.00  0.00     0.276 C 
ATOM     19  O   UNL d   1       3.827   5.788   4.480  0.00  0.00    -0.263 OA
BRANCH  18  20
ATOM     20  O   UNL d   1       2.779   4.388   5.966  0.00  0.00    -0.325 OA
ATOM     21  C   UNL d   1       3.228   5.240   7.024  0.00  0.00     0.213 C 
ENDBRANCH  18  20
ENDBRANCH  17  18
ENDBRANCH   3  17
TORSDOF 4
