REMARK  9 active torsions:
REMARK  status: ('A' for Active; 'I' for Inactive)
REMARK    1  A    between atoms: C_12  and  C_3 
REMARK    2  A    between atoms: C_18  and  C_6 
REMARK    3  A    between atoms: C_7  and  N_9 
REMARK    4  A    between atoms: N_10  and  C_7 
REMARK    5  A    between atoms: N_9  and  C_11 
REMARK    6  A    between atoms: C_16  and  N_10 
REMARK    7  A    between atoms: S_14  and  C_18 
REMARK    8  A    between atoms: C_15  and  S_14 
REMARK    9  A    between atoms: S_23  and  C_21 
ROOT
ATOM      1  C   UNL d   1       2.110  -5.675   0.656  0.00  0.00     0.051 C 
ATOM      2  C   UNL d   1       2.394  -4.710  -0.327  0.00  0.00     0.027 C 
ATOM      3  C   UNL d   1       2.937  -6.802   0.717  0.00  0.00     0.031 C 
ATOM      4  C   UNL d   1       3.627  -4.739  -0.997  0.00  0.00     0.021 C 
ATOM      5  C   UNL d   1       4.147  -6.851   0.023  0.00  0.00     0.002 C 
ATOM      6  C   UNL d   1       4.521  -5.789  -0.788  0.00  0.00     0.002 C 
ENDROOT
BRANCH   2   7
ATOM      7  S   UNL d   1       1.206  -3.446  -0.785  0.00  0.00    -0.119 SA
BRANCH   7   8
ATOM      8  C   UNL d   1       0.159  -4.447  -1.920  0.00  0.00     0.166 C 
BRANCH   8   9
ATOM      9  C   UNL d   1      -0.779  -5.330  -1.184  0.00  0.00     0.158 A 
ATOM     10  N   UNL d   1      -1.856  -5.036  -0.489  0.00  0.00    -0.322 N 
ATOM     11  C   UNL d   1      -2.242  -6.267   0.001  0.00  0.00     0.137 A 
ATOM     12  HN  UNL d   1      -2.295  -4.126  -0.347  1.00  0.00     0.169 HD
ATOM     13  N   UNL d   1      -1.457  -7.280  -0.402  0.00  0.00    -0.242 N 
ATOM     14  O   UNL d   1      -0.493  -6.663  -1.192  0.00  0.00    -0.222 OA
ATOM     15  HN  UNL d   1      -1.547  -8.271  -0.180  1.00  0.00     0.196 HD
BRANCH  11  16
ATOM     16  C   UNL d   1      -3.400  -6.446   0.866  0.00  0.00     0.010 A 
ATOM     17  C   UNL d   1      -4.461  -5.527   0.838  0.00  0.00     0.017 A 
ATOM     18  C   UNL d   1      -5.590  -5.721   1.641  0.00  0.00     0.025 A 
ATOM     19  C   UNL d   1      -5.659  -6.826   2.486  0.00  0.00     0.034 A 
ATOM     20  C   UNL d   1      -4.606  -7.735   2.545  0.00  0.00     0.025 A 
ATOM     21 CL   UNL d   1      -7.052  -7.070   3.467  0.00  0.00    -0.084 Cl
ATOM     22  C   UNL d   1      -3.482  -7.547   1.734  0.00  0.00     0.017 A 
ENDBRANCH  11  16
ENDBRANCH   8   9
ENDBRANCH   7   8
ENDBRANCH   2   7
BRANCH   1  23
ATOM     23  N   UNL d   1       1.030  -5.428   1.564  0.00  0.00    -0.332 N 
ATOM     24  H   UNL d   1       0.482  -4.620   1.330  0.00  0.00     0.168 HD
BRANCH  23  25
ATOM     25  C   UNL d   1       0.888  -5.868   2.851  0.00  0.00     0.176 C 
ATOM     26  S   UNL d   1       1.891  -6.901   3.730  0.00  0.00    -0.041 SA
BRANCH  25  27
ATOM     27  N   UNL d   1      -0.143  -5.445   3.616  0.00  0.00    -0.333 N 
ATOM     28  H   UNL d   1      -0.052  -5.940   4.500  0.00  0.00     0.168 HD
BRANCH  27  29
ATOM     29  C   UNL d   1      -1.191  -4.507   3.641  0.00  0.00     0.035 A 
ATOM     30  C   UNL d   1      -1.558  -3.572   2.666  0.00  0.00     0.048 A 
ATOM     31  C   UNL d   1      -2.605  -2.658   2.922  0.00  0.00     0.002 A 
ATOM     32  C   UNL d   1      -3.273  -2.697   4.157  0.00  0.00     0.018 A 
ATOM     33  C   UNL d   1      -2.928  -3.626   5.124  0.00  0.00     0.004 A 
ATOM     34  C   UNL d   1      -1.900  -4.521   4.859  0.00  0.00     0.029 A 
BRANCH  31  35
ATOM     35  S   UNL d   1      -3.219  -1.383   1.819  0.00  0.00    -0.134 SA
ATOM     36  C   UNL d   1      -2.098  -1.427   0.407  0.00  0.00     0.095 C 
ENDBRANCH  31  35
ENDBRANCH  27  29
ENDBRANCH  25  27
ENDBRANCH  23  25
ENDBRANCH   1  23
TORSDOF 9
