REMARK  2 active torsions:
REMARK  status: ('A' for Active; 'I' for Inactive)
REMARK       I    between atoms: N_2  and  C_1 
REMARK    1  A    between atoms: C_7  and  C_1 
REMARK    2  A    between atoms: C_4  and  N_2 
ROOT
ATOM      1  C   UNL d   1       0.957  -0.097  -0.492  0.00  0.00     0.256 C 
ATOM      2  N   UNL d   1       0.349  -1.147   0.166  0.00  0.00    -0.321 N 
ATOM      3  O   UNL d   1       0.388   0.778  -1.139  0.00  0.00    -0.267 OA
ATOM      4  H   UNL d   1       0.840  -1.547   0.962  0.00  0.00     0.169 HD
ENDROOT
BRANCH   2   5
ATOM      5  C   UNL d   1      -0.995  -1.552  -0.021  0.00  0.00     0.058 A 
ATOM      6  C   UNL d   1      -1.669  -2.257   0.993  0.00  0.00     0.082 A 
ATOM      7  C   UNL d   1      -2.993  -2.679   0.787  0.00  0.00     0.058 A 
ATOM      8 CL   UNL d   1      -0.857  -2.560   2.500  0.00  0.00    -0.080 Cl
ATOM      9 CL   UNL d   1      -3.907  -3.504   2.002  0.00  0.00    -0.082 Cl
ATOM     10  C   UNL d   1      -3.628  -2.434  -0.435  0.00  0.00     0.026 A 
ATOM     11  C   UNL d   1      -2.954  -1.759  -1.447  0.00  0.00     0.004 A 
ATOM     12  C   UNL d   1      -1.650  -1.312  -1.236  0.00  0.00     0.031 A 
ENDBRANCH   2   5
BRANCH   1  13
ATOM     13  C   UNL d   1       2.426  -0.041  -0.371  0.00  0.00     0.032 A 
ATOM     14  C   UNL d   1       3.192  -1.156  -0.728  0.00  0.00     0.017 A 
ATOM     15  C   UNL d   1       4.583  -1.055  -0.759  0.00  0.00     0.001 A 
ATOM     16  C   UNL d   1       5.203   0.149  -0.422  0.00  0.00     0.000 A 
ATOM     17  C   UNL d   1       4.437   1.256  -0.050  0.00  0.00     0.001 A 
ATOM     18  C   UNL d   1       3.045   1.167  -0.034  0.00  0.00     0.017 A 
ENDBRANCH   1  13
TORSDOF 2
