REMARK  9 active torsions:
REMARK  status: ('A' for Active; 'I' for Inactive)
REMARK    1  A    between atoms: S_2  and  C_1 
REMARK    2  A    between atoms: N_7  and  S_2 
REMARK    3  A    between atoms: C_13  and  C_3 
REMARK    4  A    between atoms: C_22  and  N_4 
REMARK    5  A    between atoms: C_23  and  C_5 
REMARK    6  A    between atoms: C_8  and  N_14 
REMARK    7  A    between atoms: C_9  and  C_10 
REMARK    8  A    between atoms: O_32  and  C_13 
REMARK    9  A    between atoms: C_37  and  O_32 
ROOT
ATOM      1  C   UNL d   1      -0.382  -1.034  -0.170  0.00  0.00     0.125 A 
ATOM      2  C   UNL d   1       0.998  -0.591  -0.102  0.00  0.00     0.087 A 
ATOM      3  N   UNL d   1      -0.357   1.236  -0.102  0.00  0.00    -0.312 N 
ATOM      4  C   UNL d   1      -1.207   0.116  -0.145  0.00  0.00     0.074 A 
ATOM      5  C   UNL d   1       0.964   0.806  -0.053  0.00  0.00     0.031 A 
ATOM      6  C   UNL d   1       2.125   1.762  -0.044  0.00  0.00     0.070 C 
ENDROOT
BRANCH   1   7
ATOM      7  S   UNL d   1      -0.908  -2.713  -0.258  0.00  0.00     0.264 S 
ATOM      8  O   UNL d   1      -0.048  -3.431   0.661  0.00  0.00    -0.200 OA
ATOM      9  O   UNL d   1      -2.334  -2.676  -0.012  0.00  0.00    -0.200 OA
BRANCH   7  10
ATOM     10  N   UNL d   1      -0.706  -3.372  -1.802  0.00  0.00    -0.304 N 
ATOM     11  C   UNL d   1       0.612  -3.868  -2.255  0.00  0.00     0.150 C 
ATOM     12  C   UNL d   1       1.369  -2.818  -3.091  0.00  0.00     0.117 C 
ATOM     13  N   UNL d   1       0.524  -2.267  -4.178  0.00  0.00    -0.265 NA
ATOM     14  C   UNL d   1      -0.777  -1.755  -3.683  0.00  0.00     0.117 C 
ATOM     15  C   UNL d   1      -1.514  -2.890  -2.948  0.00  0.00     0.150 C 
BRANCH  13  16
ATOM     16  C   UNL d   1       1.250  -1.302  -4.916  0.00  0.00     0.104 A 
ATOM     17  N   UNL d   1       1.004   0.013  -4.687  0.00  0.00    -0.354 N 
ATOM     18  C   UNL d   1       1.702   0.939  -5.390  0.00  0.00     0.105 A 
ATOM     19  HN  UNL d   1       0.306   0.300  -4.000  1.00  0.00     0.166 HD
ATOM     20  C   UNL d   1       2.653   0.631  -6.349  0.00  0.00     0.065 A 
ATOM     21  C   UNL d   1       2.912  -0.720  -6.582  0.00  0.00     0.044 A 
ATOM     22  C   UNL d   1       2.208  -1.694  -5.871  0.00  0.00     0.073 A 
ATOM     23 CL   UNL d   1       2.517  -3.349  -6.267  0.00  0.00    -0.081 Cl
BRANCH  20  24
ATOM     24  C   UNL d   1       3.339   1.724  -7.106  0.00  0.00     0.418 C 
ATOM     25  F   UNL d   1       4.188   1.265  -8.067  0.00  0.00    -0.166 F 
ATOM     26  F   UNL d   1       2.459   2.540  -7.750  0.00  0.00    -0.166 F 
ATOM     27  F   UNL d   1       4.083   2.533  -6.305  0.00  0.00    -0.166 F 
ENDBRANCH  20  24
ENDBRANCH  13  16
ENDBRANCH   7  10
ENDBRANCH   1   7
BRANCH   2  28
ATOM     28  C   UNL d   1       2.273  -1.322  -0.147  0.00  0.00     0.296 C 
ATOM     29  O   UNL d   1       3.241  -0.901  -0.777  0.00  0.00    -0.259 OA
BRANCH  28  30
ATOM     30  O   UNL d   1       2.320  -2.477   0.560  0.00  0.00    -0.318 OA
BRANCH  30  31
ATOM     31  C   UNL d   1       3.615  -3.095   0.659  0.00  0.00     0.174 C 
ATOM     32  C   UNL d   1       4.003  -3.847  -0.607  0.00  0.00     0.034 C 
ENDBRANCH  30  31
ENDBRANCH  28  30
ENDBRANCH   2  28
BRANCH   4  33
ATOM     33  C   UNL d   1      -2.689   0.265  -0.115  0.00  0.00    -0.007 A 
ATOM     34  C   UNL d   1      -3.488  -0.275  -1.128  0.00  0.00     0.014 A 
ATOM     35  C   UNL d   1      -4.872  -0.080  -1.165  0.00  0.00     0.001 A 
ATOM     36  C   UNL d   1      -5.479   0.734  -0.219  0.00  0.00     0.000 A 
ATOM     37  C   UNL d   1      -4.706   1.311   0.785  0.00  0.00     0.001 A 
ATOM     38  C   UNL d   1      -3.330   1.052   0.856  0.00  0.00     0.014 A 
ENDBRANCH   4  33
BRANCH   3  39
ATOM     39  C   UNL d   1      -0.762   2.614  -0.156  0.00  0.00     0.040 A 
ATOM     40  C   UNL d   1      -0.209   3.552   0.727  0.00  0.00     0.030 A 
ATOM     41  C   UNL d   1      -0.604   4.891   0.670  0.00  0.00     0.002 A 
ATOM     42  C   UNL d   1      -1.571   5.296  -0.247  0.00  0.00     0.000 A 
ATOM     43  C   UNL d   1      -2.136   4.366  -1.117  0.00  0.00     0.002 A 
ATOM     44  C   UNL d   1      -1.726   3.031  -1.083  0.00  0.00     0.030 A 
ENDBRANCH   3  39
TORSDOF 9
