REMARK  4 active torsions:
REMARK  status: ('A' for Active; 'I' for Inactive)
REMARK    1  A    between atoms: C_5  and  C_1 
REMARK    2  A    between atoms: C_8  and  C_2 
REMARK    3  A    between atoms: O_14  and  C_8 
REMARK    4  A    between atoms: C_17  and  O_14 
ROOT
ATOM      1  C   UNL d   1       3.069  -3.889  -1.397  0.00  0.00    -0.091 C 
ATOM      2  C   UNL d   1       3.715  -3.627  -2.376  0.00  0.00     0.014 C 
ATOM      3  C   UNL d   1       2.251  -4.139  -0.209  0.00  0.00     0.271 C 
ENDROOT
BRANCH   3   4
ATOM      4  O   UNL d   1       1.644  -2.906   0.187  0.00  0.00    -0.305 OA
BRANCH   4   5
ATOM      5  C   UNL d   1       0.442  -2.623  -0.379  0.00  0.00     0.299 C 
ATOM      6  O   UNL d   1      -0.208  -3.392  -1.075  0.00  0.00    -0.259 OA
BRANCH   5   7
ATOM      7  C   UNL d   1      -0.009  -1.294  -0.030  0.00  0.00     0.100 A 
ATOM      8  C   UNL d   1      -1.336  -0.818   0.208  0.00  0.00     0.087 A 
ATOM      9  N   UNL d   1      -1.302   0.482   0.543  0.00  0.00    -0.259 N 
ATOM     10  O   UNL d   1       0.011   0.878   0.471  0.00  0.00    -0.241 OA
ATOM     11  HN  UNL d   1      -2.099   1.064   0.801  1.00  0.00     0.195 HD
ATOM     12  C   UNL d   1       0.789  -0.180   0.138  0.00  0.00     0.091 A 
ATOM     13  C   UNL d   1       2.232   0.116   0.008  0.00  0.00     0.080 C 
BRANCH   8  14
ATOM     14  C   UNL d   1      -2.618  -1.534   0.190  0.00  0.00     0.037 A 
ATOM     15  C   UNL d   1      -2.824  -2.702   0.952  0.00  0.00     0.048 A 
ATOM     16 CL   UNL d   1      -1.623  -3.371   2.011  0.00  0.00    -0.083 Cl
ATOM     17  C   UNL d   1      -4.062  -3.363   0.944  0.00  0.00     0.025 A 
ATOM     18  C   UNL d   1      -5.132  -2.850   0.219  0.00  0.00     0.003 A 
ATOM     19  C   UNL d   1      -4.961  -1.684  -0.517  0.00  0.00     0.025 A 
ATOM     20  C   UNL d   1      -3.716  -1.039  -0.549  0.00  0.00     0.048 A 
ATOM     21 CL   UNL d   1      -3.623   0.367  -1.563  0.00  0.00    -0.083 Cl
ENDBRANCH   8  14
ENDBRANCH   5   7
ENDBRANCH   4   5
ENDBRANCH   3   4
TORSDOF 4
