REMARK  6 active torsions:
REMARK  status: ('A' for Active; 'I' for Inactive)
REMARK    1  A    between atoms: C_2  and  S_1 
REMARK    2  A    between atoms: N_5  and  S_1 
REMARK    3  A    between atoms: C_14  and  C_4 
REMARK    4  A    between atoms: C_7  and  C_10 
REMARK    5  A    between atoms: C_11  and  N_9 
REMARK    6  A    between atoms: O_29  and  C_14 
ROOT
ATOM      1  N   UNL d   1       0.546   0.637   1.165  0.00  0.00    -0.302 N 
ATOM      2  N   UNL d   1       1.593   3.200   1.895  0.00  0.00    -0.364 N 
ATOM      3  C   UNL d   1      -0.250   1.894   0.971  0.00  0.00     0.155 C 
ATOM      4  C   UNL d   1       1.607   0.793   2.213  0.00  0.00     0.155 C 
ATOM      5  C   UNL d   1       2.489   2.038   1.973  0.00  0.00     0.145 C 
ATOM      6  C   UNL d   1       0.659   3.121   0.758  0.00  0.00     0.145 C 
ENDROOT
BRANCH   1   7
ATOM      7  S   UNL d   1       0.982  -0.181  -0.243  0.00  0.00     0.276 S 
ATOM      8  O   UNL d   1       1.175   0.766  -1.316  0.00  0.00    -0.199 OA
ATOM      9  O   UNL d   1       1.957  -1.205   0.077  0.00  0.00    -0.199 OA
BRANCH   7  10
ATOM     10  C   UNL d   1      -0.466  -1.109  -0.715  0.00  0.00     0.151 A 
ATOM     11  N   UNL d   1      -0.543  -1.896  -1.852  0.00  0.00    -0.336 N 
ATOM     12  C   UNL d   1      -1.807  -2.467  -1.956  0.00  0.00     0.111 A 
ATOM     13  C   UNL d   1       0.527  -2.115  -2.807  0.00  0.00     0.157 C 
ATOM     14  C   UNL d   1      -2.515  -2.061  -0.836  0.00  0.00     0.039 A 
ATOM     15  C   UNL d   1      -1.684  -1.230  -0.066  0.00  0.00     0.046 A 
BRANCH  12  16
ATOM     16  C   UNL d   1      -2.264  -3.325  -3.035  0.00  0.00     0.309 C 
ATOM     17  O   UNL d   1      -1.610  -3.663  -4.013  0.00  0.00    -0.258 OA
BRANCH  16  18
ATOM     18  O   UNL d   1      -3.555  -3.699  -2.799  0.00  0.00    -0.321 OA
ATOM     19  C   UNL d   1      -4.124  -4.540  -3.799  0.00  0.00     0.213 C 
ENDBRANCH  16  18
ENDBRANCH  12  16
ENDBRANCH   7  10
ENDBRANCH   1   7
BRANCH   2  20
ATOM     20  C   UNL d   1       2.121   4.456   2.159  0.00  0.00     0.103 A 
ATOM     21  N   UNL d   1       3.450   4.673   2.115  0.00  0.00    -0.352 N 
ATOM     22  C   UNL d   1       3.905   5.914   2.427  0.00  0.00     0.106 A 
ATOM     23  HN  UNL d   1       4.096   3.927   1.856  1.00  0.00     0.166 HD
ATOM     24  C   UNL d   1       3.095   6.969   2.818  0.00  0.00     0.063 A 
ATOM     25  C   UNL d   1       1.727   6.726   2.886  0.00  0.00     0.021 A 
ATOM     26  C   UNL d   1       1.242   5.468   2.551  0.00  0.00     0.049 A 
BRANCH  24  27
ATOM     27  C   UNL d   1       3.656   8.309   3.170  0.00  0.00     0.418 C 
ATOM     28  F   UNL d   1       5.004   8.403   3.007  0.00  0.00    -0.166 F 
ATOM     29  F   UNL d   1       3.118   9.310   2.418  0.00  0.00    -0.166 F 
ATOM     30  F   UNL d   1       3.411   8.649   4.466  0.00  0.00    -0.166 F 
ENDBRANCH  24  27
ENDBRANCH   2  20
TORSDOF 6
