REMARK  1 active torsions:
REMARK  status: ('A' for Active; 'I' for Inactive)
REMARK    1  A    between atoms: C_10  and  C_1 
ROOT
ATOM      1  C   UNL d   1      -2.028   1.057  -0.012  0.00  0.00     0.089 C 
ATOM      2  N   UNL d   1      -2.859   2.571  -2.011  0.00  0.00    -0.196 NA
ATOM      3  C   UNL d   1      -2.477   1.896  -1.148  0.00  0.00     0.075 C 
ATOM      4  C   UNL d   1      -0.543   0.781  -0.083  0.00  0.00    -0.028 A 
ATOM      5  C   UNL d   1      -0.275  -0.588  -0.076  0.00  0.00    -0.050 A 
ATOM      6  C   UNL d   1      -2.641  -0.369  -0.156  0.00  0.00     0.035 C 
ATOM      7  C   UNL d   1      -1.519  -1.409  -0.005  0.00  0.00     0.041 C 
ATOM      8  C   UNL d   1       0.498   1.705  -0.092  0.00  0.00     0.009 A 
ATOM      9  C   UNL d   1       1.027  -1.064  -0.074  0.00  0.00     0.007 A 
ATOM     10  C   UNL d   1       1.812   1.233  -0.089  0.00  0.00     0.001 A 
ATOM     11  C   UNL d   1       2.074  -0.143  -0.079  0.00  0.00     0.001 A 
ENDROOT
BRANCH   1  12
ATOM     12  C   UNL d   1      -2.440   1.763   1.294  0.00  0.00     0.153 C 
ATOM     13  C   UNL d   1      -2.046   1.031   2.505  0.00  0.00     0.061 C 
ATOM     14  N   UNL d   1      -1.755   0.449   3.465  0.00  0.00    -0.197 NA
ENDBRANCH   1  12
TORSDOF 1
