REMARK  7 active torsions:
REMARK  status: ('A' for Active; 'I' for Inactive)
REMARK    1  A    between atoms: C_3  and  O_1 
REMARK    2  A    between atoms: C_5  and  O_1 
REMARK    3  A    between atoms: N_2  and  C_6 
REMARK       I    between atoms: C_7  and  N_2 
REMARK    4  A    between atoms: C_15  and  C_7 
REMARK    5  A    between atoms: C_9  and  C_16 
REMARK    6  A    between atoms: O_17  and  C_9 
REMARK    7  A    between atoms: C_16  and  C_15 
ROOT
ATOM      1  C   UNL d   1       2.405   0.362   0.612  0.00  0.00     0.102 A 
ATOM      2  C   UNL d   1       3.001   1.579   0.247  0.00  0.00     0.069 A 
ATOM      3  C   UNL d   1       3.146  -0.823   0.596  0.00  0.00     0.039 A 
ATOM      4  C   UNL d   1       4.336   1.585  -0.168  0.00  0.00     0.032 A 
ATOM      5  C   UNL d   1       5.078   0.402  -0.177  0.00  0.00     0.002 A 
ATOM      6  C   UNL d   1       4.484  -0.801   0.203  0.00  0.00     0.003 A 
ENDROOT
BRANCH   2   7
ATOM      7  N   UNL d   1       2.264   2.777   0.341  0.00  0.00    -0.325 N 
ATOM      8  C   UNL d   1       2.338   3.797  -0.584  0.00  0.00     0.222 C 
ATOM      9  O   UNL d   1       2.974   3.748  -1.634  0.00  0.00    -0.273 OA
ATOM     10  H   UNL d   1       1.506   2.778   1.024  0.00  0.00     0.169 HD
BRANCH   8  11
ATOM     11  C   UNL d   1       1.567   5.059  -0.226  0.00  0.00     0.113 C 
BRANCH  11  12
ATOM     12  C   UNL d   1       0.078   4.850   0.022  0.00  0.00     0.119 C 
BRANCH  12  13
ATOM     13  C   UNL d   1      -0.190   4.584   1.479  0.00  0.00     0.139 C 
ATOM     14  O   UNL d   1       0.518   3.861   2.167  0.00  0.00    -0.650 OA
BRANCH  13  15
ATOM     15  O   UNL d   1      -1.310   5.158   1.955  0.00  0.00    -0.776 OA
ATOM     16  H   UNL d   1      -1.814   5.689   1.305  0.00  0.00     0.167 HD
ENDBRANCH  13  15
ENDBRANCH  12  13
ENDBRANCH  11  12
ENDBRANCH   8  11
ENDBRANCH   2   7
BRANCH   1  17
ATOM     17  O   UNL d   1       1.105   0.286   1.050  0.00  0.00    -0.307 OA
BRANCH  17  18
ATOM     18  C   UNL d   1       0.072   0.304   0.131  0.00  0.00     0.098 A 
ATOM     19  C   UNL d   1      -1.192  -0.091   0.603  0.00  0.00     0.069 A 
ATOM     20  C   UNL d   1      -2.322  -0.014  -0.216  0.00  0.00     0.050 A 
ATOM     21 CL   UNL d   1      -1.402  -0.695   2.210  0.00  0.00    -0.081 Cl
ATOM     22  C   UNL d   1      -2.195   0.463  -1.516  0.00  0.00     0.035 A 
ATOM     23  C   UNL d   1      -0.948   0.832  -2.012  0.00  0.00     0.026 A 
ATOM     24 CL   UNL d   1      -3.588   0.612  -2.513  0.00  0.00    -0.084 Cl
ATOM     25  C   UNL d   1       0.186   0.739  -1.197  0.00  0.00     0.041 A 
ENDBRANCH  17  18
ENDBRANCH   1  17
TORSDOF 7
