REMARK  2 active torsions:
REMARK  status: ('A' for Active; 'I' for Inactive)
REMARK    1  A    between atoms: C_7  and  N_1 
REMARK    2  A    between atoms: C_15  and  C_10 
ROOT
ATOM      1  N   UNL d   1       2.359  -0.685   0.192  0.00  0.00    -0.220 N 
ATOM      2  C   UNL d   1       2.163   0.569   0.799  0.00  0.00     0.278 A 
ATOM      3  N   UNL d   1       1.319  -1.492  -0.239  0.00  0.00    -0.301 N 
ATOM      4  HN  UNL d   1       1.505  -2.351  -0.755  1.00  0.00     0.186 HD
ATOM      5  C   UNL d   1       0.771   0.949   1.088  0.00  0.00     0.045 A 
ATOM      6  C   UNL d   1       0.103  -1.130   0.028  0.00  0.00     0.120 A 
ATOM      7  O   UNL d   1       3.036   1.381   1.100  0.00  0.00    -0.265 OA
ATOM      8  C   UNL d   1      -0.253   0.088   0.737  0.00  0.00    -0.004 A 
ATOM      9  C   UNL d   1       0.474   2.157   1.730  0.00  0.00     0.018 A 
ATOM     10  C   UNL d   1      -1.582   0.392   1.042  0.00  0.00     0.014 A 
ATOM     11  C   UNL d   1      -0.851   2.477   2.032  0.00  0.00     0.001 A 
ATOM     12  C   UNL d   1      -1.876   1.591   1.696  0.00  0.00     0.001 A 
ENDROOT
BRANCH   1  13
ATOM     13  C   UNL d   1       3.662  -1.243  -0.021  0.00  0.00     0.060 A 
ATOM     14  C   UNL d   1       4.751  -0.869   0.773  0.00  0.00     0.032 A 
ATOM     15  C   UNL d   1       6.025  -1.403   0.561  0.00  0.00     0.010 A 
ATOM     16  C   UNL d   1       6.258  -2.317  -0.472  0.00  0.00    -0.055 A 
ATOM     17  C   UNL d   1       5.168  -2.722  -1.254  0.00  0.00     0.010 A 
ATOM     18  C   UNL d   1       3.885  -2.204  -1.021  0.00  0.00     0.032 A 
BRANCH  16  19
ATOM     19  C   UNL d   1       7.652  -2.850  -0.748  0.00  0.00     0.010 C 
ATOM     20  C   UNL d   1       8.640  -1.711  -1.022  0.00  0.00     0.015 C 
ATOM     21  C   UNL d   1       8.150  -3.733   0.399  0.00  0.00     0.015 C 
ENDBRANCH  16  19
ENDBRANCH   1  13
TORSDOF 2
