REMARK  8 active torsions:
REMARK  status: ('A' for Active; 'I' for Inactive)
REMARK       I    between atoms: C_9  and  N_1 
REMARK    1  A    between atoms: S_7  and  C_2 
REMARK    2  A    between atoms: C_12  and  C_6 
REMARK    3  A    between atoms: C_10  and  S_7 
REMARK    4  A    between atoms: N_8  and  C_11 
REMARK    5  A    between atoms: O_18  and  C_9 
REMARK    6  A    between atoms: O_19  and  C_10 
REMARK    7  A    between atoms: C_23  and  O_18 
REMARK    8  A    between atoms: C_24  and  O_19 
ROOT
ATOM      1  N   UNL d   1      -0.402  -1.231   0.157  0.00  0.00    -0.245 N 
ATOM      2  C   UNL d   1       0.902  -0.764   0.124  0.00  0.00     0.165 A 
ATOM      3  N   UNL d   1       0.952   0.550   0.013  0.00  0.00    -0.334 N 
ATOM      4  HN  UNL d   1       1.790   1.130  -0.018  1.00  0.00     0.168 HD
ATOM      5  C   UNL d   1      -1.195  -0.099  -0.007  0.00  0.00     0.135 A 
ATOM      6  C   UNL d   1      -0.348   0.980  -0.050  0.00  0.00     0.060 A 
ATOM      7  C   UNL d   1      -0.883  -2.534   0.351  0.00  0.00     0.373 C 
ATOM      8  O   UNL d   1      -0.152  -3.486   0.564  0.00  0.00    -0.237 OA
ENDROOT
BRANCH   6   9
ATOM      9  C   UNL d   1      -0.744   2.382  -0.098  0.00  0.00    -0.006 A 
ATOM     10  C   UNL d   1      -2.093   2.769  -0.078  0.00  0.00     0.049 A 
ATOM     11  C   UNL d   1      -2.437   4.130  -0.088  0.00  0.00     0.103 A 
ATOM     12  C   UNL d   1      -1.447   5.118  -0.119  0.00  0.00     0.036 A 
ATOM     13  C   UNL d   1      -0.106   4.737  -0.140  0.00  0.00     0.003 A 
ATOM     14  C   UNL d   1       0.240   3.381  -0.130  0.00  0.00     0.014 A 
BRANCH  11  15
ATOM     15  N   UNL d   1      -3.853   4.518  -0.055  0.00  0.00    -0.116 N 
ATOM     16  O   UNL d   1      -4.698   3.611  -0.018  0.00  0.00    -0.532 OA
ATOM     17  O   UNL d   1      -4.121   5.728  -0.066  0.00  0.00    -0.532 OA
ENDBRANCH  11  15
ENDBRANCH   6   9
BRANCH   2  18
ATOM     18  S   UNL d   1       2.333  -1.702   0.417  0.00  0.00     0.015 SA
BRANCH  18  19
ATOM     19  C   UNL d   1       2.323  -2.833  -0.938  0.00  0.00     0.330 C 
ATOM     20  O   UNL d   1       1.432  -2.860  -1.779  0.00  0.00    -0.251 OA
BRANCH  19  21
ATOM     21  O   UNL d   1       3.407  -3.665  -0.941  0.00  0.00    -0.313 OA
BRANCH  21  22
ATOM     22  C   UNL d   1       3.446  -4.714  -1.919  0.00  0.00     0.175 C 
ATOM     23  C   UNL d   1       3.994  -4.214  -3.241  0.00  0.00     0.034 C 
ENDBRANCH  21  22
ENDBRANCH  19  21
ENDBRANCH  18  19
ENDBRANCH   2  18
BRANCH   7  24
ATOM     24  O   UNL d   1      -2.238  -2.540   0.218  0.00  0.00    -0.304 OA
BRANCH  24  25
ATOM     25  C   UNL d   1      -2.831  -3.830   0.038  0.00  0.00     0.176 C 
ATOM     26  C   UNL d   1      -2.828  -4.143  -1.447  0.00  0.00     0.034 C 
ENDBRANCH  24  25
ENDBRANCH   7  24
TORSDOF 8
