REMARK  2 active torsions:
REMARK  status: ('A' for Active; 'I' for Inactive)
REMARK    1  A    between atoms: C_13  and  N_8 
REMARK    2  A    between atoms: C_18  and  C_13 
ROOT
ATOM      1  C   UNL d   1       0.076  -0.719   0.045  0.00  0.00     0.101 A 
ATOM      2  C   UNL d   1       0.038   0.627   0.051  0.00  0.00     0.077 A 
ATOM      3  N   UNL d   1       1.286  -1.378  -0.061  0.00  0.00    -0.293 N 
ATOM      4  N   UNL d   1       2.462   0.666  -0.011  0.00  0.00    -0.270 N 
ATOM      5  C   UNL d   1       2.512  -0.716  -0.088  0.00  0.00     0.332 A 
ATOM      6  C   UNL d   1       1.293   1.396   0.035  0.00  0.00     0.262 A 
ATOM      7  N   UNL d   1      -1.122  -1.410   0.166  0.00  0.00    -0.252 NA
ATOM      8  N   UNL d   1      -2.438   0.617  -0.354  0.00  0.00     0.110 N 
ATOM      9  C   UNL d   1      -1.255   1.400   0.066  0.00  0.00     0.322 C 
ATOM     10  C   UNL d   1      -2.368  -0.682   0.313  0.00  0.00     0.369 C 
ATOM     11  O   UNL d   1       3.580  -1.338  -0.156  0.00  0.00    -0.246 OA
ATOM     12  O   UNL d   1       1.257   2.629   0.084  0.00  0.00    -0.267 OA
ATOM     13  C   UNL d   1       1.354  -2.836  -0.102  0.00  0.00     0.162 C 
ATOM     14  C   UNL d   1       3.704   1.410   0.029  0.00  0.00     0.164 C 
ATOM     15  H   UNL d   1      -1.192  -2.159  -0.521  0.00  0.00     0.130 HD
ENDROOT
BRANCH   8  16
ATOM     16  C   UNL d   1      -3.688   1.315  -0.031  0.00  0.00     0.314 C 
BRANCH  16  17
ATOM     17  C   UNL d   1      -3.858   2.644  -0.734  0.00  0.00    -0.015 A 
ATOM     18  C   UNL d   1      -4.045   3.813   0.002  0.00  0.00     0.096 A 
ATOM     19  N   UNL d   1      -4.295   5.029  -0.538  0.00  0.00    -0.375 N 
ATOM     20  C   UNL d   1      -4.332   5.096  -1.884  0.00  0.00     0.087 A 
ATOM     21  HN  UNL d   1      -4.446   5.852   0.044  1.00  0.00     0.164 HD
ATOM     22  C   UNL d   1      -4.099   4.010  -2.712  0.00  0.00     0.018 A 
ATOM     23  C   UNL d   1      -3.866   2.767  -2.126  0.00  0.00     0.011 A 
ENDBRANCH  16  17
ENDBRANCH   8  16
TORSDOF 2
