REMARK  4 active torsions:
REMARK  status: ('A' for Active; 'I' for Inactive)
REMARK    1  A    between atoms: C_5  and  C_1 
REMARK    2  A    between atoms: N_3  and  C_2 
REMARK       I    between atoms: C_4  and  N_3 
REMARK    3  A    between atoms: C_9  and  C_4 
REMARK    4  A    between atoms: O_14  and  C_5 
ROOT
ATOM      1  N   UNL d   1       2.261   1.644   0.196  0.00  0.00    -0.321 N 
ATOM      2  C   UNL d   1       2.552   2.985   0.355  0.00  0.00     0.256 C 
ATOM      3  O   UNL d   1       3.681   3.441   0.487  0.00  0.00    -0.267 OA
ATOM      4  H   UNL d   1       1.293   1.388   0.053  0.00  0.00     0.169 HD
ENDROOT
BRANCH   1   5
ATOM      5  C   UNL d   1       3.182   0.614  -0.044  0.00  0.00     0.059 C 
ATOM      6  C   UNL d   1       4.559   0.559   0.158  0.00  0.00     0.105 C 
ATOM      7  S   UNL d   1       5.229  -0.884  -0.527  0.00  0.00    -0.093 SA
ATOM      8  C   UNL d   1       3.697  -1.519  -0.888  0.00  0.00     0.053 C 
ATOM      9  C   UNL d   1       2.696  -0.629  -0.581  0.00  0.00     0.038 C 
BRANCH   6  10
ATOM     10  C   UNL d   1       5.522   1.393   0.865  0.00  0.00     0.185 C 
ATOM     11  O   UNL d   1       6.696   1.561   0.557  0.00  0.00    -0.646 OA
BRANCH  10  12
ATOM     12  O   UNL d   1       5.046   1.821   2.065  0.00  0.00    -0.772 OA
ATOM     13  H   UNL d   1       4.073   1.776   2.085  0.00  0.00     0.167 HD
ENDBRANCH  10  12
ENDBRANCH   6  10
ENDBRANCH   1   5
BRANCH   2  14
ATOM     14  C   UNL d   1       1.401   3.929   0.379  0.00  0.00     0.032 A 
ATOM     15  C   UNL d   1       1.552   5.126   1.096  0.00  0.00     0.018 A 
ATOM     16  C   UNL d   1       0.543   6.094   1.088  0.00  0.00     0.025 A 
ATOM     17  C   UNL d   1      -0.621   5.870   0.357  0.00  0.00     0.034 A 
ATOM     18  C   UNL d   1      -0.790   4.680  -0.351  0.00  0.00     0.025 A 
ATOM     19 CL   UNL d   1      -1.841   7.080   0.299  0.00  0.00    -0.084 Cl
ATOM     20  C   UNL d   1       0.220   3.708  -0.345  0.00  0.00     0.018 A 
ENDBRANCH   2  14
TORSDOF 4
