REMARK  3 active torsions:
REMARK  status: ('A' for Active; 'I' for Inactive)
REMARK    1  A    between atoms: C_4  and  C_1 
REMARK    2  A    between atoms: C_12  and  C_5 
REMARK    3  A    between atoms: C_7  and  C_10 
ROOT
ATOM      1  C   UNL d   1       0.131  -1.142   0.074  0.00  0.00     0.088 C 
ATOM      2  N   UNL d   1       1.323  -0.596  -0.057  0.00  0.00    -0.349 N 
ATOM      3  HN  UNL d   1       2.183  -1.128  -0.188  1.00  0.00     0.166 HD
ATOM      4  C   UNL d   1       1.269   0.788   0.004  0.00  0.00     0.050 C 
ATOM      5  S   UNL d   1      -1.115   0.007   0.406  0.00  0.00    -0.081 SA
ATOM      6  C   UNL d   1      -0.012   1.286   0.145  0.00  0.00     0.082 C 
ENDROOT
BRANCH   1   7
ATOM      7  C   UNL d   1      -0.131  -2.600   0.039  0.00  0.00     0.041 A 
ATOM      8  C   UNL d   1       0.787  -3.504   0.625  0.00  0.00     0.049 A 
ATOM      9  C   UNL d   1       0.569  -4.894   0.608  0.00  0.00     0.041 A 
ATOM     10 CL   UNL d   1       2.240  -3.008   1.437  0.00  0.00    -0.083 Cl
ATOM     11  C   UNL d   1      -0.579  -5.436   0.025  0.00  0.00     0.051 A 
ATOM     12  C   UNL d   1      -1.483  -4.561  -0.579  0.00  0.00     0.041 A 
ATOM     13  C   UNL d   1      -1.255  -3.173  -0.598  0.00  0.00     0.049 A 
ATOM     14 CL   UNL d   1      -2.414  -2.276  -1.527  0.00  0.00    -0.083 Cl
BRANCH  11  15
ATOM     15  C   UNL d   1      -0.814  -6.926   0.040  0.00  0.00     0.417 C 
ATOM     16  F   UNL d   1      -2.000  -7.290  -0.520  0.00  0.00    -0.166 F 
ATOM     17  F   UNL d   1       0.147  -7.609  -0.636  0.00  0.00    -0.166 F 
ATOM     18  F   UNL d   1      -0.824  -7.433   1.302  0.00  0.00    -0.166 F 
ENDBRANCH  11  15
ENDBRANCH   1   7
BRANCH   4  19
ATOM     19  C   UNL d   1       2.468   1.630  -0.052  0.00  0.00    -0.003 A 
ATOM     20  C   UNL d   1       3.646   1.255  -0.729  0.00  0.00    -0.049 A 
ATOM     21  C   UNL d   1       4.765   2.125  -0.694  0.00  0.00     0.014 A 
ATOM     22  C   UNL d   1       3.842  -0.027  -1.489  0.00  0.00     0.049 C 
ATOM     23  C   UNL d   1       4.729   3.354  -0.015  0.00  0.00    -0.061 A 
ATOM     24  C   UNL d   1       3.566   3.716   0.647  0.00  0.00     0.007 A 
ATOM     25  C   UNL d   1       5.937   4.241  -0.014  0.00  0.00     0.048 C 
ATOM     26  C   UNL d   1       2.456   2.867   0.637  0.00  0.00     0.015 A 
ENDBRANCH   4  19
TORSDOF 3
