REMARK  8 active torsions:
REMARK  status: ('A' for Active; 'I' for Inactive)
REMARK    1  A    between atoms: N_7  and  S_1 
REMARK    2  A    between atoms: C_16  and  S_1 
REMARK    3  A    between atoms: N_12  and  N_7 
REMARK    4  A    between atoms: C_8  and  S_17 
REMARK    5  A    between atoms: C_11  and  O_21 
REMARK       I    between atoms: C_15  and  N_12 
REMARK    6  A    between atoms: C_23  and  C_15 
REMARK    7  A    between atoms: S_17  and  C_23 
REMARK    8  A    between atoms: O_21  and  C_29 
ROOT
ATOM      1  N   UNL d   1       1.352  -1.540   2.446  0.00  0.00    -0.260 N 
ATOM      2  C   UNL d   1       0.481  -2.166   3.327  0.00  0.00     0.246 C 
ATOM      3  O   UNL d   1      -0.612  -1.676   3.603  0.00  0.00    -0.271 OA
ATOM      4  H   UNL d   1       2.276  -1.898   2.213  0.00  0.00     0.190 HD
ENDROOT
BRANCH   2   5
ATOM      5  C   UNL d   1       0.992  -3.511   3.856  0.00  0.00     0.185 C 
BRANCH   5   6
ATOM      6  S   UNL d   1       0.362  -3.838   5.543  0.00  0.00    -0.102 SA
BRANCH   6   7
ATOM      7  C   UNL d   1       1.057  -5.436   5.882  0.00  0.00     0.084 A 
ATOM      8  C   UNL d   1       0.847  -6.089   7.116  0.00  0.00     0.039 A 
ATOM      9  C   UNL d   1       1.359  -7.381   7.179  0.00  0.00     0.089 A 
ATOM     10  C   UNL d   1       0.178  -5.767   8.366  0.00  0.00    -0.029 A 
ATOM     11  S   UNL d   1       1.077  -8.160   8.669  0.00  0.00    -0.075 SA
ATOM     12  N   UNL d   1       2.003  -8.043   6.203  0.00  0.00    -0.346 N 
ATOM     13  C   UNL d   1       0.232  -6.818   9.271  0.00  0.00    -0.008 A 
ATOM     14  C   UNL d   1      -0.355  -6.816  10.651  0.00  0.00     0.047 C 
ATOM     15  C   UNL d   1      -1.388  -5.689  10.791  0.00  0.00     0.005 C 
ATOM     16  C   UNL d   1      -0.861  -4.376  10.203  0.00  0.00     0.005 C 
ATOM     17  C   UNL d   1      -0.559  -4.502   8.703  0.00  0.00     0.040 C 
ATOM     18  C   UNL d   1       2.135  -7.319   5.094  0.00  0.00     0.182 A 
ATOM     19  HN  UNL d   1       2.352  -8.996   6.301  1.00  0.00     0.167 HD
ATOM     20  N   UNL d   1       1.723  -6.061   4.886  0.00  0.00    -0.346 N 
ATOM     21  HN  UNL d   1       1.907  -5.589   4.001  1.00  0.00     0.167 HD
ENDBRANCH   6   7
ENDBRANCH   5   6
ENDBRANCH   2   5
BRANCH   1  22
ATOM     22  N   UNL d   1       0.963  -0.261   1.858  0.00  0.00    -0.220 N 
ATOM     23  H   UNL d   1       0.029   0.116   2.060  0.00  0.00     0.200 HD
BRANCH  22  24
ATOM     24  S   UNL d   1       2.025   0.526   0.806  0.00  0.00     0.276 S 
ATOM     25  O   UNL d   1       2.116  -0.302  -0.392  0.00  0.00    -0.199 OA
ATOM     26  O   UNL d   1       3.197   0.881   1.546  0.00  0.00    -0.199 OA
BRANCH  24  27
ATOM     27  C   UNL d   1       1.135   2.006   0.375  0.00  0.00     0.081 A 
ATOM     28  C   UNL d   1       1.364   3.173   1.101  0.00  0.00     0.028 A 
ATOM     29  C   UNL d   1       0.611   4.321   0.830  0.00  0.00     0.038 A 
ATOM     30  C   UNL d   1      -0.338   4.326  -0.196  0.00  0.00     0.078 A 
ATOM     31  C   UNL d   1      -0.546   3.154  -0.930  0.00  0.00     0.038 A 
ATOM     32  C   UNL d   1       0.196   1.998  -0.661  0.00  0.00     0.028 A 
BRANCH  30  33
ATOM     33  O   UNL d   1      -1.145   5.370  -0.535  0.00  0.00    -0.255 OA
BRANCH  33  34
ATOM     34  C   UNL d   1      -0.677   6.696  -0.325  0.00  0.00     0.530 C 
ATOM     35  F   UNL d   1       0.583   6.767   0.150  0.00  0.00    -0.144 F 
ATOM     36  F   UNL d   1      -0.700   7.362  -1.499  0.00  0.00    -0.144 F 
ATOM     37  F   UNL d   1      -1.498   7.328   0.541  0.00  0.00    -0.144 F 
ENDBRANCH  33  34
ENDBRANCH  30  33
ENDBRANCH  24  27
ENDBRANCH  22  24
ENDBRANCH   1  22
TORSDOF 8
