REMARK  6 active torsions:
REMARK  status: ('A' for Active; 'I' for Inactive)
REMARK    1  A    between atoms: C_3  and  N_1 
REMARK    2  A    between atoms: C_6  and  O_7 
REMARK    3  A    between atoms: C_16  and  C_6 
REMARK    4  A    between atoms: O_7  and  C_13 
REMARK    5  A    between atoms: N_11  and  N_8 
REMARK    6  A    between atoms: C_15  and  C_19 
ROOT
ATOM      1  N   UNL d   1       3.566   0.566   2.228  0.00  0.00    -0.309 N 
ATOM      2  HN  UNL d   1       3.908   1.390   2.723  1.00  0.00     0.186 HD
ATOM      3  C   UNL d   1       4.000   0.178   1.069  0.00  0.00     0.121 C 
ENDROOT
BRANCH   1   4
ATOM      4  N   UNL d   1       2.571  -0.288   2.712  0.00  0.00    -0.280 N 
ATOM      5  C   UNL d   1       1.932   0.117   3.765  0.00  0.00     0.169 A 
ATOM      6  N   UNL d   1       1.154  -0.699   4.570  0.00  0.00    -0.260 N 
ATOM      7  S   UNL d   1       1.998   1.746   4.410  0.00  0.00    -0.083 SA
ATOM      8  C   UNL d   1       0.602  -0.103   5.695  0.00  0.00     0.240 A 
ATOM      9  C   UNL d   1       0.954   1.352   5.810  0.00  0.00     0.186 A 
ATOM     10  O   UNL d   1      -0.135  -0.635   6.529  0.00  0.00    -0.272 OA
ATOM     11  HN  UNL d   1       2.360  -1.179   2.263  1.00  0.00     0.189 HD
BRANCH   6  12
ATOM     12  C   UNL d   1       1.035  -2.112   4.363  0.00  0.00     0.047 A 
ATOM     13  C   UNL d   1       1.070  -3.000   5.451  0.00  0.00     0.072 A 
ATOM     14  C   UNL d   1       0.962  -4.373   5.250  0.00  0.00     0.118 A 
ATOM     15  F   UNL d   1       1.026  -5.199   6.303  0.00  0.00    -0.206 F 
ATOM     16  C   UNL d   1       0.799  -4.900   3.978  0.00  0.00     0.042 A 
ATOM     17  C   UNL d   1       0.760  -4.038   2.886  0.00  0.00     0.005 A 
ATOM     18  C   UNL d   1       0.890  -2.656   3.077  0.00  0.00     0.030 A 
ENDBRANCH   6  12
ENDBRANCH   1   4
BRANCH   3  19
ATOM     19  C   UNL d   1       5.310   0.617   0.529  0.00  0.00     0.015 C 
ATOM     20  C   UNL d   1       5.706   0.273  -0.772  0.00  0.00     0.091 C 
ATOM     21  C   UNL d   1       7.070   0.282  -1.088  0.00  0.00     0.038 C 
ATOM     22  C   UNL d   1       8.012   0.730  -0.159  0.00  0.00     0.003 C 
ATOM     23  C   UNL d   1       7.599   1.208   1.079  0.00  0.00     0.001 C 
ATOM     24  C   UNL d   1       6.251   1.138   1.432  0.00  0.00     0.015 C 
BRANCH  20  25
ATOM     25  O   UNL d   1       4.686   0.049  -1.746  0.00  0.00    -0.274 OA
BRANCH  25  26
ATOM     26  C   UNL d   1       4.952  -0.118  -3.104  0.00  0.00     0.298 C 
ATOM     27  O   UNL d   1       6.019  -0.435  -3.609  0.00  0.00    -0.259 OA
BRANCH  26  28
ATOM     28  C   UNL d   1       3.766   0.160  -3.961  0.00  0.00     0.040 A 
ATOM     29  C   UNL d   1       3.926  -0.014  -5.349  0.00  0.00     0.019 A 
ATOM     30  C   UNL d   1       2.878   0.247  -6.233  0.00  0.00     0.025 A 
ATOM     31  C   UNL d   1       1.658   0.693  -5.734  0.00  0.00     0.034 A 
ATOM     32  C   UNL d   1       1.486   0.883  -4.362  0.00  0.00     0.025 A 
ATOM     33 CL   UNL d   1       0.363   1.013  -6.819  0.00  0.00    -0.084 Cl
ATOM     34  C   UNL d   1       2.538   0.620  -3.471  0.00  0.00     0.019 A 
ENDBRANCH  26  28
ENDBRANCH  25  26
ENDBRANCH  20  25
ENDBRANCH   3  19
TORSDOF 6
