REMARK  5 active torsions:
REMARK  status: ('A' for Active; 'I' for Inactive)
REMARK    1  A    between atoms: C_7  and  C_3 
REMARK    2  A    between atoms: C_19  and  C_4 
REMARK    3  A    between atoms: C_8  and  C_13 
REMARK    4  A    between atoms: O_20  and  C_19 
REMARK    5  A    between atoms: C_22  and  O_20 
ROOT
ATOM      1  N   UNL d   1       0.526  -0.397  -0.972  0.00  0.00    -0.351 N 
ATOM      2  HN  UNL d   1       0.538  -0.701  -1.946  1.00  0.00     0.166 HD
ATOM      3  C   UNL d   1       0.759   0.901  -0.543  0.00  0.00     0.049 A 
ATOM      4  C   UNL d   1       0.288  -1.181   0.062  0.00  0.00     0.075 A 
ATOM      5  S   UNL d   1       0.257  -0.388   1.591  0.00  0.00    -0.084 SA
ATOM      6  C   UNL d   1       0.619   1.095   0.817  0.00  0.00     0.082 A 
ENDROOT
BRANCH   4   7
ATOM      7  C   UNL d   1       0.015  -2.655  -0.012  0.00  0.00     0.240 C 
BRANCH   7   8
ATOM      8  O   UNL d   1       1.268  -3.326   0.149  0.00  0.00    -0.345 OA
BRANCH   8   9
ATOM      9  C   UNL d   1       1.219  -4.689   0.017  0.00  0.00     0.069 A 
ATOM     10  C   UNL d   1       2.374  -5.292  -0.476  0.00  0.00     0.037 A 
ATOM     11  C   UNL d   1       2.426  -6.678  -0.669  0.00  0.00     0.012 A 
ATOM     12  C   UNL d   1       1.323  -7.488  -0.355  0.00  0.00    -0.035 A 
ATOM     13  C   UNL d   1       0.187  -6.871   0.193  0.00  0.00     0.012 A 
ATOM     14  C   UNL d   1       0.132  -5.486   0.376  0.00  0.00     0.037 A 
BRANCH  12  15
ATOM     15  C   UNL d   1       1.366  -8.976  -0.642  0.00  0.00     0.141 C 
ATOM     16  S   UNL d   1       0.071  -9.472  -1.827  0.00  0.00    -0.148 SA
ATOM     17  C   UNL d   1      -0.200 -11.119  -1.143  0.00  0.00     0.085 C 
ATOM     18  C   UNL d   1      -0.165 -11.007   0.367  0.00  0.00     0.085 C 
ATOM     19  S   UNL d   1       1.259  -9.999   0.864  0.00  0.00    -0.148 SA
ENDBRANCH  12  15
ENDBRANCH   8   9
ENDBRANCH   7   8
ENDBRANCH   4   7
BRANCH   3  20
ATOM     20  C   UNL d   1       1.104   1.960  -1.485  0.00  0.00    -0.007 A 
ATOM     21  C   UNL d   1       0.636   1.895  -2.805  0.00  0.00     0.039 A 
ATOM     22  C   UNL d   1       0.962   2.897  -3.728  0.00  0.00     0.056 A 
ATOM     23 CL   UNL d   1       0.331   2.753  -5.330  0.00  0.00    -0.083 Cl
ATOM     24  C   UNL d   1       1.769   3.970  -3.338  0.00  0.00     0.055 A 
ATOM     25  C   UNL d   1       2.248   4.036  -2.027  0.00  0.00     0.026 A 
ATOM     26 CL   UNL d   1       2.218   5.240  -4.419  0.00  0.00    -0.083 Cl
ATOM     27  C   UNL d   1       1.917   3.037  -1.107  0.00  0.00     0.015 A 
ENDBRANCH   3  20
TORSDOF 5
