REMARK  6 active torsions:
REMARK  status: ('A' for Active; 'I' for Inactive)
REMARK    1  A    between atoms: C_2  and  S_1 
REMARK    2  A    between atoms: N_10  and  S_1 
REMARK    3  A    between atoms: C_18  and  N_10 
REMARK    4  A    between atoms: N_11  and  C_19 
REMARK    5  A    between atoms: C_17  and  C_18 
REMARK    6  A    between atoms: C_19  and  C_17 
ROOT
ATOM      1  C   UNL d   1       0.330  -0.895   1.335  0.00  0.00     0.092 A 
ATOM      2  C   UNL d   1      -0.113  -0.266   2.545  0.00  0.00    -0.032 A 
ATOM      3  C   UNL d   1       0.451  -2.315   1.261  0.00  0.00    -0.032 A 
ATOM      4  C   UNL d   1       0.242  -3.091   2.446  0.00  0.00    -0.048 A 
ATOM      5  C   UNL d   1      -0.345  -1.063   3.702  0.00  0.00    -0.048 A 
ATOM      6  C   UNL d   1      -0.136  -2.464   3.656  0.00  0.00    -0.049 A 
ATOM      7  C   UNL d   1      -0.329   1.225   2.689  0.00  0.00     0.050 C 
ATOM      8  C   UNL d   1       0.813  -3.074   0.007  0.00  0.00     0.050 C 
ATOM      9  C   UNL d   1      -0.796  -0.447   5.015  0.00  0.00     0.049 C 
ATOM     10  C   UNL d   1       0.443  -4.595   2.443  0.00  0.00     0.049 C 
ATOM     11  C   UNL d   1      -0.318  -3.266   4.934  0.00  0.00     0.049 C 
ENDROOT
BRANCH   1  12
ATOM     12  S   UNL d   1       0.915   0.174  -0.018  0.00  0.00     0.259 S 
ATOM     13  O   UNL d   1      -0.136   1.119  -0.344  0.00  0.00    -0.201 OA
ATOM     14  O   UNL d   1       1.567  -0.580  -1.064  0.00  0.00    -0.201 OA
BRANCH  12  15
ATOM     15  N   UNL d   1       2.171   1.018   0.741  0.00  0.00    -0.315 N 
ATOM     16  H   UNL d   1       1.884   1.877   1.201  0.00  0.00     0.172 HD
BRANCH  15  17
ATOM     17  C   UNL d   1       3.225   0.188   1.343  0.00  0.00     0.134 C 
BRANCH  17  18
ATOM     18  C   UNL d   1       4.340   1.067   1.887  0.00  0.00     0.050 C 
BRANCH  18  19
ATOM     19  C   UNL d   1       5.408   0.226   2.601  0.00  0.00     0.273 C 
BRANCH  19  20
ATOM     20  N   UNL d   1       6.014  -0.823   1.765  0.00  0.00     0.080 N 
ATOM     21  C   UNL d   1       6.739  -0.269   0.620  0.00  0.00     0.309 C 
ATOM     22  C   UNL d   1       6.911  -1.658   2.567  0.00  0.00     0.309 C 
ENDBRANCH  19  20
ENDBRANCH  18  19
ENDBRANCH  17  18
ENDBRANCH  15  17
ENDBRANCH  12  15
ENDBRANCH   1  12
TORSDOF 6
