REMARK  4 active torsions:
REMARK  status: ('A' for Active; 'I' for Inactive)
REMARK    1  A    between atoms: C_5  and  C_3 
REMARK    2  A    between atoms: C_13  and  C_4 
REMARK    3  A    between atoms: C_8  and  C_10 
REMARK    4  A    between atoms: O_26  and  C_23 
ROOT
ATOM      1  N   UNL d   1       1.277   0.187  -0.069  0.00  0.00    -0.317 N 
ATOM      2  HN  UNL d   1       2.282   0.342  -0.138  1.00  0.00     0.169 HD
ATOM      3  C   UNL d   1       0.630  -0.952   0.002  0.00  0.00     0.183 A 
ATOM      4  C   UNL d   1       0.266   1.126  -0.029  0.00  0.00     0.154 A 
ATOM      5  N   UNL d   1      -0.966   0.588   0.022  0.00  0.00    -0.241 N 
ATOM      6  HN  UNL d   1      -1.864   1.071   0.041  1.00  0.00     0.196 HD
ATOM      7  O   UNL d   1      -0.725  -0.788   0.042  0.00  0.00    -0.217 OA
ENDROOT
BRANCH   4   8
ATOM      8  C   UNL d   1       0.568   2.560  -0.022  0.00  0.00     0.078 A 
ATOM      9  N   UNL d   1      -0.466   3.437   0.068  0.00  0.00    -0.362 N 
ATOM     10  C   UNL d   1      -0.166   4.758   0.107  0.00  0.00     0.104 A 
ATOM     11  HN  UNL d   1      -1.432   3.114   0.105  1.00  0.00     0.165 HD
ATOM     12  C   UNL d   1       1.125   5.264   0.057  0.00  0.00     0.063 A 
ATOM     13  C   UNL d   1       2.174   4.348  -0.044  0.00  0.00     0.020 A 
ATOM     14  C   UNL d   1       1.895   2.984  -0.083  0.00  0.00     0.034 A 
BRANCH  12  15
ATOM     15  C   UNL d   1       1.383   6.738   0.116  0.00  0.00     0.418 C 
ATOM     16  F   UNL d   1       0.254   7.488   0.227  0.00  0.00    -0.166 F 
ATOM     17  F   UNL d   1       2.167   7.085   1.174  0.00  0.00    -0.166 F 
ATOM     18  F   UNL d   1       2.029   7.196  -0.991  0.00  0.00    -0.166 F 
ENDBRANCH  12  15
ENDBRANCH   4   8
BRANCH   3  19
ATOM     19  C   UNL d   1       1.141  -2.317   0.033  0.00  0.00     0.037 A 
ATOM     20  C   UNL d   1       2.372  -2.646   0.630  0.00  0.00     0.025 A 
ATOM     21  C   UNL d   1       2.849  -3.959   0.591  0.00  0.00     0.023 A 
ATOM     22 BR   UNL d   1       3.459  -1.391   1.564  0.00  0.00    -0.050 Br
ATOM     23  C   UNL d   1       2.105  -4.956  -0.036  0.00  0.00     0.038 A 
ATOM     24  C   UNL d   1       0.876  -4.658  -0.624  0.00  0.00     0.069 A 
ATOM     25  C   UNL d   1       0.399  -3.346  -0.587  0.00  0.00     0.054 A 
BRANCH  24  26
ATOM     26  O   UNL d   1       0.253  -5.728  -1.202  0.00  0.00    -0.356 OA
ATOM     27  C   UNL d   1      -1.004  -5.492  -1.822  0.00  0.00     0.210 C 
ENDBRANCH  24  26
ENDBRANCH   3  19
TORSDOF 4
