REMARK  3 active torsions:
REMARK  status: ('A' for Active; 'I' for Inactive)
REMARK    1  A    between atoms: C_9  and  C_3 
REMARK    2  A    between atoms: N_4  and  C_8 
REMARK    3  A    between atoms: C_11  and  C_5 
ROOT
ATOM      1  N   UNL d   1       1.402  -0.572  -0.012  0.00  0.00    -0.349 N 
ATOM      2  HN  UNL d   1       2.286  -1.080   0.006  1.00  0.00     0.166 HD
ATOM      3  C   UNL d   1       0.209  -1.139  -0.029  0.00  0.00     0.084 A 
ATOM      4  C   UNL d   1       1.286   0.811  -0.024  0.00  0.00     0.050 A 
ATOM      5  S   UNL d   1      -1.112  -0.030   0.037  0.00  0.00    -0.081 SA
ATOM      6  C   UNL d   1      -0.012   1.279   0.030  0.00  0.00     0.082 A 
ENDROOT
BRANCH   4   7
ATOM      7  C   UNL d   1       2.461   1.678  -0.068  0.00  0.00    -0.009 A 
ATOM      8  C   UNL d   1       2.400   2.967  -0.623  0.00  0.00     0.016 A 
ATOM      9  C   UNL d   1       3.534   3.785  -0.665  0.00  0.00     0.037 A 
ATOM     10  C   UNL d   1       4.746   3.312  -0.150  0.00  0.00     0.102 A 
ATOM     11  C   UNL d   1       4.829   2.027   0.401  0.00  0.00     0.037 A 
ATOM     12  C   UNL d   1       3.688   1.216   0.435  0.00  0.00     0.016 A 
BRANCH  10  13
ATOM     13  N   UNL d   1       5.938   4.170  -0.195  0.00  0.00    -0.116 N 
ATOM     14  O   UNL d   1       5.819   5.294  -0.702  0.00  0.00    -0.532 OA
ATOM     15  O   UNL d   1       6.991   3.719   0.280  0.00  0.00    -0.532 OA
ENDBRANCH  10  13
ENDBRANCH   4   7
BRANCH   3  16
ATOM     16  C   UNL d   1      -0.030  -2.593  -0.043  0.00  0.00    -0.002 A 
ATOM     17  C   UNL d   1       0.902  -3.453   0.561  0.00  0.00     0.016 A 
ATOM     18  C   UNL d   1       0.696  -4.837   0.586  0.00  0.00     0.024 A 
ATOM     19  C   UNL d   1      -0.441  -5.378  -0.008  0.00  0.00     0.034 A 
ATOM     20  C   UNL d   1      -1.368  -4.549  -0.632  0.00  0.00     0.024 A 
ATOM     21 CL   UNL d   1      -0.703  -7.078   0.029  0.00  0.00    -0.084 Cl
ATOM     22  C   UNL d   1      -1.162  -3.166  -0.652  0.00  0.00     0.016 A 
ENDBRANCH   3  16
TORSDOF 3
