REMARK  5 active torsions:
REMARK  status: ('A' for Active; 'I' for Inactive)
REMARK    1  A    between atoms: C_2  and  S_1 
REMARK    2  A    between atoms: C_10  and  S_1 
REMARK    3  A    between atoms: C_11  and  C_2 
REMARK    4  A    between atoms: N_15  and  C_3 
REMARK    5  A    between atoms: C_6  and  N_15 
ROOT
ATOM      1  C   UNL d   1       0.357  -1.155  -1.357  0.00  0.00     0.124 C 
ATOM      2  C   UNL d   1      -0.414  -2.220  -1.060  0.00  0.00     0.117 C 
ENDROOT
BRANCH   1   3
ATOM      3  S   UNL d   1       0.811  -0.806  -2.988  0.00  0.00     0.211 S 
ATOM      4  O   UNL d   1       2.250  -0.964  -3.115  0.00  0.00    -0.217 OA
ATOM      5  O   UNL d   1       0.192   0.445  -3.391  0.00  0.00    -0.217 OA
BRANCH   3   6
ATOM      6  C   UNL d   1       0.075  -2.044  -4.042  0.00  0.00     0.064 A 
ATOM      7  C   UNL d   1      -1.188  -1.799  -4.595  0.00  0.00     0.025 A 
ATOM      8  C   UNL d   1      -1.759  -2.740  -5.451  0.00  0.00     0.025 A 
ATOM      9  C   UNL d   1      -1.064  -3.909  -5.756  0.00  0.00     0.034 A 
ATOM     10  C   UNL d   1       0.204  -4.144  -5.218  0.00  0.00     0.025 A 
ATOM     11 CL   UNL d   1      -1.769  -5.065  -6.816  0.00  0.00    -0.084 Cl
ATOM     12  C   UNL d   1       0.785  -3.206  -4.362  0.00  0.00     0.025 A 
ENDBRANCH   3   6
ENDBRANCH   1   3
BRANCH   1  13
ATOM     13  C   UNL d   1       0.829  -0.250  -0.263  0.00  0.00     0.168 C 
ATOM     14  O   UNL d   1       0.779  -0.631   0.912  0.00  0.00    -0.292 OA
ATOM     15  C   UNL d   1       1.314   1.154  -0.552  0.00  0.00     0.097 C 
ENDBRANCH   1  13
BRANCH   2  16
ATOM     16  N   UNL d   1      -0.889  -2.626   0.172  0.00  0.00    -0.351 N 
ATOM     17  H   UNL d   1      -0.424  -2.187   0.972  0.00  0.00     0.166 HD
BRANCH  16  18
ATOM     18  C   UNL d   1      -1.543  -3.845   0.445  0.00  0.00     0.108 A 
ATOM     19  N   UNL d   1      -1.699  -4.767  -0.527  0.00  0.00    -0.332 N 
ATOM     20  C   UNL d   1      -2.395  -5.879  -0.220  0.00  0.00     0.078 A 
ATOM     21  HN  UNL d   1      -1.306  -4.627  -1.458  1.00  0.00     0.168 HD
ATOM     22  C   UNL d   1      -2.556  -6.929  -1.274  0.00  0.00     0.089 C 
ATOM     23  N   UNL d   1      -2.960  -6.126   0.974  0.00  0.00    -0.350 N 
ATOM     24  C   UNL d   1      -2.809  -5.186   1.923  0.00  0.00     0.010 A 
ATOM     25  HN  UNL d   1      -3.479  -6.986   1.151  1.00  0.00     0.167 HD
ATOM     26  C   UNL d   1      -2.106  -4.019   1.697  0.00  0.00     0.073 A 
ATOM     27  C   UNL d   1      -3.440  -5.448   3.257  0.00  0.00     0.068 C 
ENDBRANCH  16  18
ENDBRANCH   2  16
TORSDOF 5
