REMARK  2 active torsions:
REMARK  status: ('A' for Active; 'I' for Inactive)
REMARK       I    between atoms: N_2  and  C_1 
REMARK    1  A    between atoms: C_5  and  C_1 
REMARK       I    between atoms: C_4  and  N_3 
REMARK    2  A    between atoms: C_12  and  C_4 
ROOT
ATOM      1  C   UNL d   1       0.929  -0.402   0.212  0.00  0.00     0.253 C 
ATOM      2  N   UNL d   1       0.483   0.370   1.288  0.00  0.00    -0.345 N 
ATOM      3  N   UNL d   1      -0.128   1.901   3.678  0.00  0.00    -0.349 N 
ATOM      4  C   UNL d   1      -0.925   3.039   3.675  0.00  0.00     0.224 C 
ATOM      5  C   UNL d   1      -0.819   0.637   3.367  0.00  0.00     0.145 C 
ATOM      6  C   UNL d   1       1.220   1.935   3.093  0.00  0.00     0.145 C 
ATOM      7  C   UNL d   1       1.220   1.604   1.585  0.00  0.00     0.146 C 
ATOM      8  C   UNL d   1      -0.877   0.356   1.853  0.00  0.00     0.146 C 
ATOM      9  O   UNL d   1       1.912  -0.082  -0.460  0.00  0.00    -0.267 OA
ATOM     10  O   UNL d   1      -2.033   3.017   3.122  0.00  0.00    -0.273 OA
ENDROOT
BRANCH   1  11
ATOM     11  C   UNL d   1       0.250  -1.672  -0.162  0.00  0.00     0.032 A 
ATOM     12  C   UNL d   1       0.153  -1.994  -1.525  0.00  0.00     0.018 A 
ATOM     13  C   UNL d   1      -0.418  -3.202  -1.930  0.00  0.00     0.025 A 
ATOM     14  C   UNL d   1      -0.893  -4.096  -0.976  0.00  0.00     0.034 A 
ATOM     15  C   UNL d   1      -0.776  -3.803   0.385  0.00  0.00     0.025 A 
ATOM     16 CL   UNL d   1      -1.608  -5.580  -1.471  0.00  0.00    -0.084 Cl
ATOM     17  C   UNL d   1      -0.182  -2.602   0.790  0.00  0.00     0.018 A 
ENDBRANCH   1  11
BRANCH   4  18
ATOM     18  C   UNL d   1      -0.593   4.245   4.582  0.00  0.00     0.078 C 
ATOM     19  C   UNL d   1       0.830   4.787   4.740  0.00  0.00     0.014 C 
ATOM     20  C   UNL d   1       1.673   4.111   5.823  0.00  0.00     0.001 C 
ATOM     21  C   UNL d   1       0.928   3.968   7.145  0.00  0.00     0.000 C 
ATOM     22  C   UNL d   1      -0.420   3.289   6.946  0.00  0.00     0.001 C 
ATOM     23  C   UNL d   1      -1.275   4.063   5.950  0.00  0.00     0.014 C 
ENDBRANCH   4  18
TORSDOF 2
