REMARK  3 active torsions:
REMARK  status: ('A' for Active; 'I' for Inactive)
REMARK    1  A    between atoms: C_2  and  O_1 
REMARK    2  A    between atoms: C_3  and  O_1 
REMARK    3  A    between atoms: O_7  and  C_4 
ROOT
ATOM      1  C   UNL d   1       0.294   1.161   0.103  0.00  0.00     0.109 A 
ATOM      2  C   UNL d   1       0.376   1.917  -1.075  0.00  0.00     0.102 A 
ATOM      3  C   UNL d   1      -0.439   1.668   1.195  0.00  0.00     0.040 A 
ATOM      4  C   UNL d   1      -0.356   3.113  -1.164  0.00  0.00     0.039 A 
ATOM      5  C   UNL d   1      -1.173   2.850   1.085  0.00  0.00     0.003 A 
ATOM      6  C   UNL d   1      -1.138   3.569  -0.101  0.00  0.00     0.003 A 
ENDROOT
BRANCH   1   7
ATOM      7  O   UNL d   1       0.944  -0.057   0.185  0.00  0.00    -0.308 OA
BRANCH   7   8
ATOM      8  C   UNL d   1       0.411  -1.036   0.995  0.00  0.00     0.076 A 
ATOM      9  C   UNL d   1      -0.953  -1.347   1.007  0.00  0.00     0.044 A 
ATOM     10  C   UNL d   1      -1.458  -2.250   1.949  0.00  0.00    -0.059 A 
ATOM     11  C   UNL d   1      -2.936  -2.481   2.071  0.00  0.00     0.048 C 
ATOM     12  C   UNL d   1      -0.567  -2.918   2.800  0.00  0.00     0.007 A 
ATOM     13  C   UNL d   1       0.805  -2.668   2.725  0.00  0.00     0.003 A 
ATOM     14  C   UNL d   1       1.294  -1.722   1.825  0.00  0.00     0.037 A 
ENDBRANCH   7   8
ENDBRANCH   1   7
BRANCH   2  15
ATOM     15  O   UNL d   1       1.067   1.641  -2.224  0.00  0.00    -0.353 OA
ATOM     16  C   UNL d   1       2.106   0.674  -2.171  0.00  0.00     0.210 C 
ENDBRANCH   2  15
TORSDOF 3
