REMARK  5 active torsions:
REMARK  status: ('A' for Active; 'I' for Inactive)
REMARK    1  A    between atoms: C_3  and  C_1 
REMARK    2  A    between atoms: C_12  and  C_2 
REMARK    3  A    between atoms: C_15  and  C_6 
REMARK    4  A    between atoms: C_16  and  C_9 
REMARK    5  A    between atoms: C_14  and  C_17 
ROOT
ATOM      1  C   UNL d   1       2.398   1.501  -0.075  0.00  0.00     0.185 A 
ATOM      2  N   UNL d   1       2.409   2.795   0.140  0.00  0.00    -0.318 N 
ATOM      3  HN  UNL d   1       1.615   3.422   0.263  1.00  0.00     0.169 HD
ATOM      4  C   UNL d   1       3.752   3.101   0.159  0.00  0.00     0.138 A 
ATOM      5  N   UNL d   1       4.550   2.048  -0.072  0.00  0.00    -0.242 N 
ATOM      6  HN  UNL d   1       5.568   2.029  -0.129  1.00  0.00     0.196 HD
ATOM      7  O   UNL d   1       3.661   0.988  -0.217  0.00  0.00    -0.217 OA
ENDROOT
BRANCH   1   8
ATOM      8  C   UNL d   1       1.178   0.662  -0.097  0.00  0.00     0.059 A 
ATOM      9  C   UNL d   1      -0.137   1.076  -0.034  0.00  0.00     0.174 A 
ATOM     10  O   UNL d   1      -0.947  -0.039  -0.011  0.00  0.00    -0.304 OA
ATOM     11  C   UNL d   1      -0.149  -1.147  -0.062  0.00  0.00     0.089 A 
ATOM     12  C   UNL d   1       1.167  -0.752  -0.171  0.00  0.00     0.056 A 
BRANCH   9  13
ATOM     13  C   UNL d   1      -0.838   2.384   0.015  0.00  0.00     0.440 C 
ATOM     14  F   UNL d   1      -0.038   3.459  -0.193  0.00  0.00    -0.164 F 
ATOM     15  F   UNL d   1      -1.811   2.459  -0.935  0.00  0.00    -0.164 F 
ATOM     16  F   UNL d   1      -1.452   2.583   1.211  0.00  0.00    -0.164 F 
ENDBRANCH   9  13
BRANCH  11  17
ATOM     17  C   UNL d   1      -0.825  -2.442  -0.007  0.00  0.00     0.019 A 
ATOM     18  C   UNL d   1      -0.266  -3.579   0.610  0.00  0.00     0.047 A 
ATOM     19 CL   UNL d   1       1.225  -3.543   1.491  0.00  0.00    -0.083 Cl
ATOM     20  C   UNL d   1      -0.928  -4.814   0.569  0.00  0.00     0.025 A 
ATOM     21  C   UNL d   1      -2.160  -4.932  -0.068  0.00  0.00     0.002 A 
ATOM     22  C   UNL d   1      -2.744  -3.813  -0.654  0.00  0.00     0.001 A 
ATOM     23  C   UNL d   1      -2.083  -2.581  -0.622  0.00  0.00     0.016 A 
ENDBRANCH  11  17
ENDBRANCH   1   8
BRANCH   4  24
ATOM     24  C   UNL d   1       4.232   4.440   0.473  0.00  0.00     0.010 A 
ATOM     25  C   UNL d   1       3.317   5.470   0.735  0.00  0.00     0.016 A 
ATOM     26  C   UNL d   1       3.761   6.742   1.106  0.00  0.00     0.017 A 
ATOM     27  C   UNL d   1       5.131   7.012   1.221  0.00  0.00     0.048 A 
ATOM     28  C   UNL d   1       6.048   5.989   0.934  0.00  0.00     0.017 A 
ATOM     29  C   UNL d   1       5.603   4.717   0.563  0.00  0.00     0.016 A 
BRANCH  27  30
ATOM     30  C   UNL d   1       5.628   8.367   1.664  0.00  0.00     0.417 C 
ATOM     31  F   UNL d   1       4.630   9.261   1.909  0.00  0.00    -0.166 F 
ATOM     32  F   UNL d   1       6.358   8.299   2.812  0.00  0.00    -0.166 F 
ATOM     33  F   UNL d   1       6.437   8.954   0.740  0.00  0.00    -0.166 F 
ENDBRANCH  27  30
ENDBRANCH   4  24
TORSDOF 5
