REMARK  3 active torsions:
REMARK  status: ('A' for Active; 'I' for Inactive)
REMARK    1  A    between atoms: C_5  and  C_1 
REMARK    2  A    between atoms: C_2  and  N_3 
REMARK    3  A    between atoms: N_13  and  C_6 
ROOT
ATOM      1  C   UNL d   1      -0.724   4.740   0.131  0.00  0.00     0.145 C 
ATOM      2  C   UNL d   1      -0.533   3.599  -0.576  0.00  0.00     0.125 C 
ATOM      3  C   UNL d   1       0.341   5.168   1.001  0.00  0.00     0.120 C 
ATOM      4  C   UNL d   1      -1.595   3.086  -1.403  0.00  0.00     0.114 C 
ATOM      5  N   UNL d   1       1.203   5.514   1.698  0.00  0.00    -0.190 NA
ATOM      6  N   UNL d   1      -2.403   2.601  -2.081  0.00  0.00    -0.190 NA
ENDROOT
BRANCH   1   7
ATOM      7  N   UNL d   1      -1.920   5.442   0.081  0.00  0.00    -0.354 N 
ATOM      8  C   UNL d   1      -1.869   6.736   0.161  0.00  0.00     0.105 C 
ATOM      9  HN  UNL d   1      -2.811   4.956  -0.015  1.00  0.00     0.166 HD
BRANCH   8  10
ATOM     10  C   UNL d   1      -3.056   7.624   0.122  0.00  0.00     0.040 A 
ATOM     11  C   UNL d   1      -4.386   7.217  -0.035  0.00  0.00     0.048 A 
ATOM     12 CL   UNL d   1      -4.883   5.573  -0.208  0.00  0.00    -0.083 Cl
ATOM     13  C   UNL d   1      -5.412   8.177  -0.057  0.00  0.00     0.025 A 
ATOM     14  C   UNL d   1      -5.127   9.536   0.080  0.00  0.00     0.005 A 
ATOM     15  C   UNL d   1      -3.809   9.945   0.237  0.00  0.00     0.043 A 
ATOM     16  C   UNL d   1      -2.791   8.994   0.255  0.00  0.00     0.129 A 
ATOM     17  F   UNL d   1      -1.531   9.431   0.407  0.00  0.00    -0.205 F 
ENDBRANCH   8  10
ENDBRANCH   1   7
BRANCH   2  18
ATOM     18  N   UNL d   1       0.617   2.809  -0.618  0.00  0.00    -0.291 NA
ATOM     19  H   UNL d   1       1.262   2.914   0.163  0.00  0.00     0.125 HD
ATOM     20  H   UNL d   1       0.455   1.833  -0.874  0.00  0.00     0.125 HD
ENDBRANCH   2  18
TORSDOF 3
