REMARK  2 active torsions:
REMARK  status: ('A' for Active; 'I' for Inactive)
REMARK    1  A    between atoms: C_4  and  N_1 
REMARK    2  A    between atoms: C_6  and  C_5 
ROOT
ATOM      1  N   UNL d   1       0.005  -0.962  -0.139  0.00  0.00    -0.252 N 
ATOM      2  C   UNL d   1      -1.227  -0.326   0.068  0.00  0.00     0.231 C 
ATOM      3  C   UNL d   1       1.244  -0.309  -0.195  0.00  0.00     0.231 C 
ATOM      4  C   UNL d   1      -0.050   1.865  -0.237  0.00  0.00     0.038 C 
ATOM      5  C   UNL d   1      -1.183   1.128   0.456  0.00  0.00     0.113 C 
ATOM      6  C   UNL d   1       1.262   1.174   0.091  0.00  0.00     0.113 C 
ATOM      7  O   UNL d   1      -2.325  -0.881  -0.019  0.00  0.00    -0.273 OA
ATOM      8  O   UNL d   1       2.329  -0.880  -0.342  0.00  0.00    -0.273 OA
ENDROOT
BRANCH   1   9
ATOM      9  C   UNL d   1      -0.009  -2.394  -0.305  0.00  0.00     0.048 A 
ATOM     10  C   UNL d   1       0.729  -3.014  -1.324  0.00  0.00     0.054 A 
ATOM     11  C   UNL d   1       0.714  -4.404  -1.459  0.00  0.00     0.037 A 
ATOM     12 CL   UNL d   1       1.587  -5.142  -2.746  0.00  0.00    -0.084 Cl
ATOM     13  C   UNL d   1      -0.003  -5.199  -0.571  0.00  0.00     0.048 A 
ATOM     14  C   UNL d   1      -0.724  -4.590   0.450  0.00  0.00     0.037 A 
ATOM     15  C   UNL d   1      -0.745  -3.201   0.578  0.00  0.00     0.054 A 
ATOM     16 CL   UNL d   1      -1.583  -5.562   1.582  0.00  0.00    -0.084 Cl
ENDBRANCH   1   9
BRANCH   4  17
ATOM     17  C   UNL d   1      -0.023   3.334   0.180  0.00  0.00    -0.031 A 
ATOM     18  C   UNL d   1      -0.199   4.394  -0.733  0.00  0.00     0.042 A 
ATOM     19  C   UNL d   1      -0.180   5.725  -0.300  0.00  0.00     0.048 A 
ATOM     20 CL   UNL d   1      -0.443   4.125  -2.422  0.00  0.00    -0.084 Cl
ATOM     21  C   UNL d   1       0.010   6.017   1.046  0.00  0.00     0.035 A 
ATOM     22  C   UNL d   1       0.184   4.993   1.968  0.00  0.00     0.024 A 
ATOM     23 CL   UNL d   1       0.027   7.653   1.577  0.00  0.00    -0.084 Cl
ATOM     24  C   UNL d   1       0.168   3.666   1.538  0.00  0.00     0.011 A 
ENDBRANCH   4  17
TORSDOF 2
