REMARK  4 active torsions:
REMARK  status: ('A' for Active; 'I' for Inactive)
REMARK    1  A    between atoms: C_4  and  C_1 
REMARK    2  A    between atoms: C_7  and  N_5 
REMARK    3  A    between atoms: C_8  and  C_7 
REMARK       I    between atoms: N_10  and  C_8 
REMARK    4  A    between atoms: C_15  and  N_10 
ROOT
ATOM      1  C   UNL d   1       2.003   1.514   0.185  0.00  0.00     0.251 C 
ENDROOT
BRANCH   1   2
ATOM      2  N   UNL d   1       0.673   0.937   0.069  0.00  0.00    -0.294 N 
ATOM      3  N   UNL d   1       0.419  -0.274  -0.470  0.00  0.00    -0.294 N 
ATOM      4  C   UNL d   1      -0.940  -0.319  -0.543  0.00  0.00     0.133 A 
ATOM      5  HN  UNL d   1       1.088  -0.989  -0.755  1.00  0.00     0.187 HD
ATOM      6  C   UNL d   1      -1.518   0.889  -0.070  0.00  0.00     0.054 A 
ATOM      7  C   UNL d   1      -0.461   1.668   0.314  0.00  0.00     0.113 A 
BRANCH   4   8
ATOM      8  C   UNL d   1      -1.736  -1.479  -1.087  0.00  0.00     0.433 C 
ATOM      9  F   UNL d   1      -1.005  -2.610  -1.259  0.00  0.00    -0.165 F 
ATOM     10  F   UNL d   1      -2.770  -1.802  -0.261  0.00  0.00    -0.165 F 
ATOM     11  F   UNL d   1      -2.294  -1.179  -2.292  0.00  0.00    -0.165 F 
ENDBRANCH   4   8
ENDBRANCH   1   2
BRANCH   1  12
ATOM     12  C   UNL d   1       3.254   0.679   0.238  0.00  0.00     0.241 C 
ATOM     13  N   UNL d   1       3.197  -0.673  -0.011  0.00  0.00    -0.326 N 
ATOM     14  H   UNL d   1       2.304  -1.041  -0.345  0.00  0.00     0.169 HD
ATOM     15  O   UNL d   1       4.302   1.297   0.467  0.00  0.00    -0.271 OA
BRANCH  13  16
ATOM     16  C   UNL d   1       4.311  -1.559   0.014  0.00  0.00     0.034 A 
ATOM     17  C   UNL d   1       5.552  -1.216   0.572  0.00  0.00     0.031 A 
ATOM     18  C   UNL d   1       6.637  -2.099   0.532  0.00  0.00     0.026 A 
ATOM     19  C   UNL d   1       6.489  -3.343  -0.061  0.00  0.00     0.034 A 
ATOM     20  C   UNL d   1       5.258  -3.719  -0.595  0.00  0.00     0.026 A 
ATOM     21 CL   UNL d   1       7.829  -4.420  -0.135  0.00  0.00    -0.084 Cl
ATOM     22  C   UNL d   1       4.169  -2.832  -0.549  0.00  0.00     0.031 A 
ENDBRANCH  13  16
ENDBRANCH   1  12
TORSDOF 4
