REMARK  3 active torsions:
REMARK  status: ('A' for Active; 'I' for Inactive)
REMARK    1  A    between atoms: S_3  and  C_1 
REMARK    2  A    between atoms: C_14  and  S_3 
REMARK    3  A    between atoms: C_13  and  C_9 
ROOT
ATOM      1  C   UNL d   1       2.102  -0.849  -0.025  0.00  0.00     0.103 A 
ATOM      2  N   UNL d   1      -0.259  -0.692   0.031  0.00  0.00    -0.243 N 
ATOM      3  C   UNL d   1      -0.190   0.709   0.029  0.00  0.00     0.129 A 
ATOM      4  C   UNL d   1       0.908  -1.483  -0.011  0.00  0.00     0.055 A 
ATOM      5  N   UNL d   1      -1.548  -1.115   0.056  0.00  0.00    -0.296 N 
ATOM      6  HN  UNL d   1      -1.886  -2.077   0.086  1.00  0.00     0.187 HD
ATOM      7  C   UNL d   1      -1.489   1.161   0.021  0.00  0.00     0.077 A 
ATOM      8  C   UNL d   1      -2.276   0.001   0.035  0.00  0.00     0.034 A 
ATOM      9  N   UNL d   1       0.997   1.382   0.023  0.00  0.00    -0.349 N 
ATOM     10  HN  UNL d   1       1.044   2.401   0.028  1.00  0.00     0.167 HD
ATOM     11  C   UNL d   1       2.062   0.639   0.010  0.00  0.00     0.115 A 
ATOM     12  C   UNL d   1       0.690  -2.971  -0.050  0.00  0.00     0.072 C 
ENDROOT
BRANCH   1  13
ATOM     13  S   UNL d   1       3.645  -1.621  -0.050  0.00  0.00     0.210 S 
ATOM     14  O   UNL d   1       4.640  -0.724   0.514  0.00  0.00    -0.217 OA
ATOM     15  O   UNL d   1       3.567  -2.984   0.434  0.00  0.00    -0.217 OA
BRANCH  13  16
ATOM     16  C   UNL d   1       3.998  -1.708  -1.802  0.00  0.00     0.064 A 
ATOM     17  C   UNL d   1       4.638  -0.634  -2.431  0.00  0.00     0.025 A 
ATOM     18  C   UNL d   1       4.885  -0.689  -3.805  0.00  0.00     0.025 A 
ATOM     19  C   UNL d   1       4.507  -1.816  -4.535  0.00  0.00     0.034 A 
ATOM     20  C   UNL d   1       3.912  -2.905  -3.898  0.00  0.00     0.025 A 
ATOM     21 CL   UNL d   1       4.776  -1.863  -6.233  0.00  0.00    -0.084 Cl
ATOM     22  C   UNL d   1       3.668  -2.860  -2.524  0.00  0.00     0.025 A 
ENDBRANCH  13  16
ENDBRANCH   1  13
BRANCH   8  23
ATOM     23  C   UNL d   1      -3.797   0.018   0.013  0.00  0.00     0.037 A 
ATOM     24  C   UNL d   1      -4.558  -1.062   0.756  0.00  0.00     0.011 A 
ATOM     25  C   UNL d   1      -4.516  -1.091  -0.733  0.00  0.00     0.011 A 
ENDBRANCH   8  23
TORSDOF 3
