REMARK  6 active torsions:
REMARK  status: ('A' for Active; 'I' for Inactive)
REMARK    1  A    between atoms: C_3  and  C_1 
REMARK    2  A    between atoms: C_5  and  CA_2 
REMARK       I    between atoms: N_4  and  C_3 
REMARK    3  A    between atoms: C_6  and  N_4 
REMARK    4  A    between atoms: OXT_15  and  C_5 
REMARK    5  A    between atoms: C_13  and  C_6 
REMARK    6  A    between atoms: C_14  and  C_6 
ROOT
ATOM      1  C   UNL d   1      -1.333  -2.506  -0.630  0.00  0.00     0.271 C 
ATOM      2  N   UNL d   1      -0.978  -3.548   0.200  0.00  0.00    -0.343 N 
ATOM      3  O   UNL d   1      -0.468  -1.816  -1.172  0.00  0.00    -0.266 OA
ATOM      4  H   UNL d   1      -1.651  -3.981   0.825  0.00  0.00     0.163 HD
ENDROOT
BRANCH   2   5
ATOM      5  C   UNL d   1       0.410  -3.901   0.480  0.00  0.00     0.151 C 
BRANCH   5   6
ATOM      6  C   UNL d   1       0.784  -3.341   1.851  0.00  0.00    -0.031 A 
ATOM      7  C   UNL d   1       0.431  -3.992   3.046  0.00  0.00     0.009 A 
ATOM      8  C   UNL d   1       0.789  -3.453   4.283  0.00  0.00     0.001 A 
ATOM      9  C   UNL d   1       1.484  -2.246   4.348  0.00  0.00     0.000 A 
ATOM     10  C   UNL d   1       1.815  -1.573   3.175  0.00  0.00     0.001 A 
ATOM     11  C   UNL d   1       1.463  -2.113   1.936  0.00  0.00     0.009 A 
ENDBRANCH   5   6
BRANCH   5  12
ATOM     12  C   UNL d   1       0.671  -5.405   0.292  0.00  0.00    -0.031 A 
ATOM     13  C   UNL d   1      -0.223  -6.228  -0.418  0.00  0.00     0.009 A 
ATOM     14  C   UNL d   1       0.068  -7.574  -0.662  0.00  0.00     0.001 A 
ATOM     15  C   UNL d   1       1.262  -8.124  -0.209  0.00  0.00     0.000 A 
ATOM     16  C   UNL d   1       2.165  -7.331   0.493  0.00  0.00     0.001 A 
ATOM     17  C   UNL d   1       1.877  -5.983   0.734  0.00  0.00     0.009 A 
ENDBRANCH   5  12
ENDBRANCH   2   5
BRANCH   1  18
ATOM     18  C   UNL d   1      -2.792  -2.226  -0.944  0.00  0.00     0.134 A 
ATOM     19  CA  UNL d   1      -3.940  -2.804  -0.412  0.00  0.00     0.139 A 
ATOM     20  N   UNL d   1      -5.216  -2.512  -0.880  0.00  0.00    -0.357 N 
ATOM     21  C   UNL d   1      -5.295  -1.605  -1.876  0.00  0.00     0.105 A 
ATOM     22  HN  UNL d   1      -6.047  -2.959  -0.493  1.00  0.00     0.165 HD
ATOM     23  C   UNL d   1      -4.172  -1.008  -2.401  0.00  0.00     0.105 A 
ATOM     24  N   UNL d   1      -2.931  -1.304  -1.957  0.00  0.00    -0.358 N 
ATOM     25  HN  UNL d   1      -2.112  -0.853  -2.365  1.00  0.00     0.165 HD
BRANCH  19  26
ATOM     26  C   UNL d   1      -4.002  -3.791   0.705  0.00  0.00     0.196 C 
ATOM     27  O   UNL d   1      -3.086  -4.153   1.416  0.00  0.00    -0.645 OA
BRANCH  26  28
ATOM     28  OXT UNL d   1      -5.268  -4.265   0.846  0.00  0.00    -0.772 OA
ATOM     29  HXT UNL d   1      -5.862  -3.804   0.205  0.00  0.00     0.167 HD
ENDBRANCH  26  28
ENDBRANCH  19  26
ENDBRANCH   1  18
TORSDOF 6
