REMARK  3 active torsions:
REMARK  status: ('A' for Active; 'I' for Inactive)
REMARK    1  A    between atoms: N_3  and  C_1 
REMARK    2  A    between atoms: C_9  and  N_2 
REMARK       I    between atoms: C_7  and  N_3 
REMARK       I    between atoms: N_10  and  C_7 
REMARK    3  A    between atoms: C_12  and  N_10 
ROOT
ATOM      1  N   UNL d   1      -0.787  -2.273   0.102  0.00  0.00    -0.293 N 
ATOM      2  C   UNL d   1      -0.925  -2.962  -1.087  0.00  0.00     0.326 C 
ATOM      3  N   UNL d   1      -0.686  -2.227  -2.229  0.00  0.00    -0.309 N 
ATOM      4  O   UNL d   1      -1.359  -4.113  -1.070  0.00  0.00    -0.247 OA
ATOM      5  H   UNL d   1      -1.528  -2.500   0.754  0.00  0.00     0.172 HD
ATOM      6  H   UNL d   1      -0.835  -1.232  -2.108  0.00  0.00     0.170 HD
ENDROOT
BRANCH   1   7
ATOM      7  C   UNL d   1      -0.145  -1.056   0.214  0.00  0.00     0.128 C 
ATOM      8  N   UNL d   1       1.174  -0.789  -0.109  0.00  0.00    -0.267 N 
ATOM      9  N   UNL d   1       1.400   0.549  -0.156  0.00  0.00    -0.301 N 
ATOM     10  C   UNL d   1       0.323   1.095   0.415  0.00  0.00     0.025 C 
ATOM     11  HN  UNL d   1       2.212   1.030  -0.543  1.00  0.00     0.187 HD
ATOM     12  C   UNL d   1      -0.643   0.117   0.738  0.00  0.00     0.076 C 
ATOM     13  C   UNL d   1       0.248   2.562   0.612  0.00  0.00     0.070 C 
BRANCH   8  14
ATOM     14  C   UNL d   1       2.349  -1.687  -0.187  0.00  0.00     0.044 C 
ATOM     15  C   UNL d   1       2.076  -3.140   0.259  0.00  0.00     0.039 C 
ATOM     16  C   UNL d   1       2.888  -1.700  -1.627  0.00  0.00     0.039 C 
ATOM     17  C   UNL d   1       3.462  -1.162   0.758  0.00  0.00     0.039 C 
ENDBRANCH   8  14
ENDBRANCH   1   7
BRANCH   3  18
ATOM     18  C   UNL d   1      -0.846  -2.724  -3.536  0.00  0.00     0.036 A 
ATOM     19  C   UNL d   1      -1.438  -1.888  -4.490  0.00  0.00     0.031 A 
ATOM     20  C   UNL d   1      -1.610  -2.326  -5.806  0.00  0.00     0.026 A 
ATOM     21  C   UNL d   1      -1.142  -3.583  -6.180  0.00  0.00     0.034 A 
ATOM     22  C   UNL d   1      -0.533  -4.416  -5.243  0.00  0.00     0.026 A 
ATOM     23 CL   UNL d   1      -1.311  -4.104  -7.812  0.00  0.00    -0.084 Cl
ATOM     24  C   UNL d   1      -0.401  -3.993  -3.914  0.00  0.00     0.031 A 
ENDBRANCH   3  18
TORSDOF 3
