REMARK  3 active torsions:
REMARK  status: ('A' for Active; 'I' for Inactive)
REMARK    1  A    between atoms: O_12  and  C_3 
REMARK    2  A    between atoms: O_11  and  C_4 
REMARK    3  A    between atoms: O_13  and  C_7 
ROOT
ATOM      1  C   UNL d   1      -0.345  -0.914  -0.002  0.00  0.00     0.019 A 
ATOM      2  C   UNL d   1       0.064   0.405  -0.017  0.00  0.00     0.053 A 
ATOM      3  C   UNL d   1      -1.703  -1.202   0.013  0.00  0.00     0.113 A 
ATOM      4  C   UNL d   1      -2.633  -0.113   0.011  0.00  0.00     0.135 A 
ATOM      5  C   UNL d   1       1.518   0.473  -0.029  0.00  0.00     0.294 A 
ATOM      6  C   UNL d   1      -0.804   1.485  -0.022  0.00  0.00     0.058 A 
ATOM      7  C   UNL d   1      -2.174   1.234  -0.010  0.00  0.00     0.105 A 
ATOM      8  O   UNL d   1       1.965  -0.813  -0.023  0.00  0.00    -0.313 OA
ATOM      9  C   UNL d   1       0.873  -1.754  -0.007  0.00  0.00     0.222 A 
ATOM     10  O   UNL d   1       2.194   1.480  -0.042  0.00  0.00    -0.259 OA
ENDROOT
BRANCH   3  11
ATOM     11  O   UNL d   1      -2.276  -2.447   0.033  0.00  0.00    -0.352 OA
ATOM     12  C   UNL d   1      -1.464  -3.610   0.032  0.00  0.00     0.210 C 
ENDBRANCH   3  11
BRANCH   4  13
ATOM     13  O   UNL d   1      -3.951  -0.521   0.030  0.00  0.00    -0.351 OA
ATOM     14  C   UNL d   1      -4.994   0.441   0.031  0.00  0.00     0.210 C 
ENDBRANCH   4  13
BRANCH   7  15
ATOM     15  O   UNL d   1      -3.099   2.242  -0.020  0.00  0.00    -0.353 OA
ATOM     16  C   UNL d   1      -2.651   3.591  -0.042  0.00  0.00     0.210 C 
ENDBRANCH   7  15
TORSDOF 3
