REMARK  1 active torsions:
REMARK  status: ('A' for Active; 'I' for Inactive)
REMARK    1  A    between atoms: C_2  and  N_1 
ROOT
ATOM      1  C   UNL d   1       1.334   2.275  -1.061  0.00  0.00     0.087 A 
ATOM      2  C   UNL d   1       0.716   2.915  -2.153  0.00  0.00     0.185 A 
ATOM      3  C   UNL d   1       1.312   3.992  -2.795  0.00  0.00     0.195 A 
ATOM      4  C   UNL d   1       2.580   2.763  -0.631  0.00  0.00     0.036 A 
ATOM      5  C   UNL d   1       2.536   4.461  -2.351  0.00  0.00     0.158 A 
ATOM      6  C   UNL d   1       3.172   3.858  -1.269  0.00  0.00     0.048 A 
ATOM      7  F   UNL d   1      -0.427   2.416  -2.655  0.00  0.00    -0.200 F 
ATOM      8  F   UNL d   1       0.721   4.546  -3.865  0.00  0.00    -0.199 F 
ATOM      9  F   UNL d   1       3.130   5.489  -2.971  0.00  0.00    -0.203 F 
ENDROOT
BRANCH   1  10
ATOM     10  N   UNL d   1       0.688   1.117  -0.504  0.00  0.00    -0.248 N 
ATOM     11  C   UNL d   1       1.457   0.021  -0.083  0.00  0.00     0.240 C 
ATOM     12  O   UNL d   1       2.666   0.054   0.156  0.00  0.00    -0.272 OA
ATOM     13  C   UNL d   1       0.747  -1.319  -0.058  0.00  0.00     0.178 C 
ATOM     14  S   UNL d   1      -0.799  -1.255   0.851  0.00  0.00    -0.150 SA
ATOM     15  C   UNL d   1      -1.539   0.067  -0.114  0.00  0.00     0.178 C 
ATOM     16  C   UNL d   1      -0.661   1.296  -0.149  0.00  0.00     0.240 C 
ATOM     17  O   UNL d   1      -1.145   2.401   0.116  0.00  0.00    -0.272 OA
ENDBRANCH   1  10
TORSDOF 1
