REMARK  6 active torsions:
REMARK  status: ('A' for Active; 'I' for Inactive)
REMARK    1  A    between atoms: O_5  and  S_1 
REMARK    2  A    between atoms: C_6  and  S_1 
REMARK    3  A    between atoms: N_2  and  C_3 
REMARK    4  A    between atoms: C_4  and  O_7 
REMARK    5  A    between atoms: C_15  and  O_5 
REMARK    6  A    between atoms: O_7  and  C_16 
ROOT
ATOM      1  C   UNL d   1       0.369  -0.423  -1.615  0.00  0.00     0.087 A 
ATOM      2  C   UNL d   1       0.306  -1.748  -2.059  0.00  0.00     0.028 A 
ATOM      3  C   UNL d   1      -0.057   0.623  -2.440  0.00  0.00     0.028 A 
ATOM      4  C   UNL d   1      -0.505  -0.975  -4.207  0.00  0.00     0.076 A 
ATOM      5  C   UNL d   1      -0.150  -2.025  -3.355  0.00  0.00     0.039 A 
ATOM      6  C   UNL d   1      -0.495   0.341  -3.734  0.00  0.00     0.039 A 
ENDROOT
BRANCH   1   7
ATOM      7  S   UNL d   1       0.875  -0.059   0.059  0.00  0.00     0.303 S 
ATOM      8  O   UNL d   1       0.139   1.131   0.450  0.00  0.00    -0.193 OA
ATOM      9  O   UNL d   1       0.750  -1.289   0.815  0.00  0.00    -0.193 OA
BRANCH   7  10
ATOM     10  O   UNL d   1       2.462   0.314  -0.086  0.00  0.00    -0.229 OA
BRANCH  10  11
ATOM     11  C   UNL d   1       3.233   0.589   1.019  0.00  0.00     0.089 A 
ATOM     12  C   UNL d   1       4.600   0.314   0.901  0.00  0.00     0.040 A 
ATOM     13  C   UNL d   1       5.468   0.572   1.968  0.00  0.00     0.026 A 
ATOM     14  C   UNL d   1       4.970   1.118   3.149  0.00  0.00     0.034 A 
ATOM     15  C   UNL d   1       3.614   1.412   3.267  0.00  0.00     0.026 A 
ATOM     16 CL   UNL d   1       6.031   1.438   4.463  0.00  0.00    -0.084 Cl
ATOM     17  C   UNL d   1       2.746   1.152   2.201  0.00  0.00     0.040 A 
ENDBRANCH  10  11
ENDBRANCH   7  10
ENDBRANCH   1   7
BRANCH   4  18
ATOM     18  O   UNL d   1      -0.905  -1.118  -5.516  0.00  0.00    -0.307 OA
BRANCH  18  19
ATOM     19  C   UNL d   1      -0.397  -2.127  -6.300  0.00  0.00     0.130 A 
ATOM     20  C   UNL d   1      -1.296  -2.814  -7.130  0.00  0.00     0.138 A 
ATOM     21  C   UNL d   1      -0.892  -3.862  -7.972  0.00  0.00     0.039 A 
ATOM     22  C   UNL d   1       0.450  -4.224  -8.006  0.00  0.00     0.004 A 
ATOM     23  C   UNL d   1       1.373  -3.515  -7.236  0.00  0.00     0.027 A 
ATOM     24  C   UNL d   1       0.963  -2.455  -6.412  0.00  0.00     0.070 A 
ATOM     25 CL   UNL d   1       2.229  -1.557  -5.644  0.00  0.00    -0.081 Cl
BRANCH  20  26
ATOM     26  N   UNL d   1      -2.692  -2.424  -7.176  0.00  0.00    -0.113 N 
ATOM     27  O   UNL d   1      -2.949  -1.251  -7.474  0.00  0.00    -0.532 OA
ATOM     28  O   UNL d   1      -3.529  -3.315  -6.973  0.00  0.00    -0.532 OA
ENDBRANCH  20  26
ENDBRANCH  18  19
ENDBRANCH   4  18
TORSDOF 6
