REMARK  2 active torsions:
REMARK  status: ('A' for Active; 'I' for Inactive)
REMARK    1  A    between atoms: C_11  and  C_4 
REMARK    2  A    between atoms: N_5  and  C_10 
ROOT
ATOM      1  N   UNL d   1       0.701   0.214  -1.005  0.00  0.00    -0.318 N 
ATOM      2  HN  UNL d   1       1.286   0.424  -1.813  1.00  0.00     0.169 HD
ATOM      3  C   UNL d   1       0.185  -0.945  -0.648  0.00  0.00     0.189 A 
ATOM      4  C   UNL d   1       0.260   1.073  -0.025  0.00  0.00     0.138 A 
ATOM      5  N   UNL d   1      -0.507   0.486   0.907  0.00  0.00    -0.242 N 
ATOM      6  HN  UNL d   1      -0.947   0.914   1.721  1.00  0.00     0.196 HD
ATOM      7  O   UNL d   1      -0.560  -0.844   0.499  0.00  0.00    -0.217 OA
ATOM      8  C   UNL d   1       0.394  -2.164  -1.376  0.00  0.00     0.058 A 
ATOM      9  S   UNL d   1      -0.319  -3.643  -0.888  0.00  0.00    -0.098 SA
ATOM     10  C   UNL d   1       1.162  -2.328  -2.514  0.00  0.00     0.024 A 
ATOM     11  C   UNL d   1       0.397  -4.495  -2.187  0.00  0.00     0.050 A 
ATOM     12  C   UNL d   1       1.165  -3.675  -2.982  0.00  0.00     0.009 A 
ENDROOT
BRANCH   4  13
ATOM     13  C   UNL d   1       0.623   2.486  -0.019  0.00  0.00     0.012 A 
ATOM     14  C   UNL d   1       1.404   3.013  -1.059  0.00  0.00     0.051 A 
ATOM     15  C   UNL d   1       1.768   4.366  -1.045  0.00  0.00     0.103 A 
ATOM     16  C   UNL d   1       1.358   5.207  -0.002  0.00  0.00     0.036 A 
ATOM     17  C   UNL d   1       0.579   4.686   1.031  0.00  0.00     0.003 A 
ATOM     18  C   UNL d   1       0.215   3.336   1.022  0.00  0.00     0.015 A 
BRANCH  15  19
ATOM     19  N   UNL d   1       2.595   4.907  -2.131  0.00  0.00    -0.116 N 
ATOM     20  O   UNL d   1       2.959   4.127  -3.022  0.00  0.00    -0.532 OA
ATOM     21  O   UNL d   1       2.882   6.112  -2.091  0.00  0.00    -0.532 OA
ENDBRANCH  15  19
ENDBRANCH   4  13
TORSDOF 2
