REMARK  5 active torsions:
REMARK  status: ('A' for Active; 'I' for Inactive)
REMARK    1  A    between atoms: O_6  and  C_1 
REMARK    2  A    between atoms: N_4  and  C_2 
REMARK    3  A    between atoms: N_5  and  C_3 
REMARK    4  A    between atoms: C_11  and  O_6 
REMARK    5  A    between atoms: C_7  and  C_8 
ROOT
ATOM      1  C   UNL d   1       1.309  -0.386   0.129  0.00  0.00     0.142 A 
ATOM      2  C   UNL d   1       0.317  -1.364   0.289  0.00  0.00     0.140 A 
ATOM      3  C   UNL d   1       0.851   0.934  -0.023  0.00  0.00     0.140 A 
ATOM      4  C   UNL d   1      -1.483   0.264  -0.032  0.00  0.00     0.052 A 
ATOM      5  C   UNL d   1      -0.513   1.269  -0.108  0.00  0.00     0.055 A 
ATOM      6  C   UNL d   1      -1.057  -1.056   0.178  0.00  0.00     0.055 A 
ENDROOT
BRANCH   1   7
ATOM      7  O   UNL d   1       2.675  -0.540   0.125  0.00  0.00    -0.304 OA
BRANCH   7   8
ATOM      8  C   UNL d   1       3.310  -1.663  -0.344  0.00  0.00     0.098 C 
ATOM      9  C   UNL d   1       2.972  -2.426  -1.471  0.00  0.00     0.070 C 
ATOM     10  C   UNL d   1       3.646  -3.622  -1.727  0.00  0.00     0.069 C 
ATOM     11 CL   UNL d   1       1.777  -1.929  -2.617  0.00  0.00    -0.081 Cl
ATOM     12  C   UNL d   1       4.729  -3.985  -0.935  0.00  0.00     0.118 C 
ATOM     13  C   UNL d   1       5.167  -3.165   0.096  0.00  0.00     0.045 C 
ATOM     14  F   UNL d   1       5.377  -5.128  -1.189  0.00  0.00    -0.206 F 
ATOM     15  C   UNL d   1       4.452  -2.008   0.396  0.00  0.00     0.042 C 
ENDBRANCH   7   8
ENDBRANCH   1   7
BRANCH   2  16
ATOM     16  N   UNL d   1       0.628  -2.741   0.625  0.00  0.00    -0.113 N 
ATOM     17  O   UNL d   1       1.326  -2.934   1.631  0.00  0.00    -0.532 OA
ATOM     18  O   UNL d   1       0.134  -3.621  -0.085  0.00  0.00    -0.532 OA
ENDBRANCH   2  16
BRANCH   3  19
ATOM     19  N   UNL d   1       1.807   2.029  -0.092  0.00  0.00    -0.113 N 
ATOM     20  O   UNL d   1       2.568   2.178   0.872  0.00  0.00    -0.532 OA
ATOM     21  O   UNL d   1       1.747   2.759  -1.089  0.00  0.00    -0.532 OA
ENDBRANCH   3  19
BRANCH   4  22
ATOM     22  C   UNL d   1      -2.958   0.573  -0.161  0.00  0.00     0.417 C 
ATOM     23  F   UNL d   1      -3.219   1.902  -0.284  0.00  0.00    -0.166 F 
ATOM     24  F   UNL d   1      -3.513  -0.027  -1.246  0.00  0.00    -0.166 F 
ATOM     25  F   UNL d   1      -3.666   0.145   0.917  0.00  0.00    -0.166 F 
ENDBRANCH   4  22
TORSDOF 5
