REMARK  5 active torsions:
REMARK  status: ('A' for Active; 'I' for Inactive)
REMARK    1  A    between atoms: C_2  and  C_1 
REMARK       I    between atoms: N_6  and  C_2 
REMARK    2  A    between atoms: C_3  and  C_8 
REMARK    3  A    between atoms: N_20  and  C_4 
REMARK       I    between atoms: C_5  and  N_7 
REMARK    4  A    between atoms: C_9  and  C_5 
REMARK    5  A    between atoms: N_7  and  N_6 
ROOT
ATOM      1  C   UNL d   1      -0.501  -2.605   0.098  0.00  0.00     0.289 C 
ATOM      2  N   UNL d   1       0.269  -3.755   0.161  0.00  0.00    -0.262 N 
ATOM      3  O   UNL d   1      -0.000  -1.506  -0.144  0.00  0.00    -0.264 OA
ATOM      4  H   UNL d   1      -0.117  -4.671   0.392  0.00  0.00     0.190 HD
ENDROOT
BRANCH   2   5
ATOM      5  N   UNL d   1       1.637  -3.640  -0.110  0.00  0.00    -0.263 N 
ATOM      6  C   UNL d   1       2.465  -4.739  -0.018  0.00  0.00     0.270 C 
ATOM      7  O   UNL d   1       2.087  -5.854   0.330  0.00  0.00    -0.266 OA
ATOM      8  H   UNL d   1       1.983  -2.688  -0.221  0.00  0.00     0.190 HD
BRANCH   6   9
ATOM      9  C   UNL d   1       3.899  -4.488  -0.349  0.00  0.00     0.034 A 
ATOM     10  C   UNL d   1       4.897  -5.217   0.315  0.00  0.00     0.033 A 
ATOM     11  C   UNL d   1       6.257  -4.983   0.040  0.00  0.00     0.048 A 
ATOM     12  C   UNL d   1       6.599  -4.034  -0.937  0.00  0.00     0.016 A 
ATOM     13  C   UNL d   1       5.609  -3.329  -1.621  0.00  0.00     0.002 A 
ATOM     14  C   UNL d   1       4.263  -3.552  -1.327  0.00  0.00     0.017 A 
BRANCH  11  15
ATOM     15  C   UNL d   1       7.352  -5.712   0.783  0.00  0.00     0.417 C 
ATOM     16  F   UNL d   1       6.892  -6.595   1.711  0.00  0.00    -0.166 F 
ATOM     17  F   UNL d   1       8.162  -6.426  -0.047  0.00  0.00    -0.166 F 
ATOM     18  F   UNL d   1       8.172  -4.857   1.457  0.00  0.00    -0.166 F 
ENDBRANCH  11  15
ENDBRANCH   6   9
ENDBRANCH   2   5
BRANCH   1  19
ATOM     19  C   UNL d   1      -1.960  -2.777   0.387  0.00  0.00     0.140 A 
ATOM     20  C   UNL d   1      -2.851  -1.694   0.259  0.00  0.00     0.110 A 
ATOM     21  N   UNL d   1      -4.151  -1.826   0.609  0.00  0.00    -0.354 N 
ATOM     22  C   UNL d   1      -4.531  -3.038   1.073  0.00  0.00     0.106 A 
ATOM     23  HN  UNL d   1      -4.810  -1.052   0.526  1.00  0.00     0.166 HD
ATOM     24  C   UNL d   1      -3.652  -4.103   1.184  0.00  0.00     0.105 A 
ATOM     25  N   UNL d   1      -2.344  -4.006   0.853  0.00  0.00    -0.357 N 
ATOM     26  HN  UNL d   1      -1.695  -4.787   0.942  1.00  0.00     0.165 HD
BRANCH  20  27
ATOM     27  N   UNL d   1      -2.531  -0.475  -0.327  0.00  0.00    -0.287 NA
ATOM     28  H   UNL d   1      -1.603  -0.141  -0.073  0.00  0.00     0.125 HD
ATOM     29  H   UNL d   1      -3.284   0.189  -0.180  0.00  0.00     0.125 HD
ENDBRANCH  20  27
ENDBRANCH   1  19
TORSDOF 5
