REMARK  5 active torsions:
REMARK  status: ('A' for Active; 'I' for Inactive)
REMARK    1  A    between atoms: C_10  and  C_3 
REMARK    2  A    between atoms: C_13  and  C_6 
REMARK    3  A    between atoms: C_7  and  S_9 
REMARK    4  A    between atoms: N_12  and  C_7 
REMARK    5  A    between atoms: S_9  and  C_13 
ROOT
ATOM      1  N   UNL d   1       1.395   0.200  -0.096  0.00  0.00    -0.322 N 
ATOM      2  HN  UNL d   1       2.387   0.381  -0.252  1.00  0.00     0.169 HD
ATOM      3  C   UNL d   1       0.355   1.103  -0.019  0.00  0.00     0.137 A 
ATOM      4  N   UNL d   1      -0.849   0.531   0.149  0.00  0.00    -0.242 N 
ATOM      5  HN  UNL d   1      -1.760   0.986   0.212  1.00  0.00     0.196 HD
ATOM      6  C   UNL d   1       0.788  -0.955   0.081  0.00  0.00     0.158 A 
ATOM      7  O   UNL d   1      -0.563  -0.831   0.219  0.00  0.00    -0.222 OA
ENDROOT
BRANCH   3   8
ATOM      8  C   UNL d   1       0.575   2.544  -0.094  0.00  0.00     0.010 A 
ATOM      9  C   UNL d   1       1.882   3.049  -0.193  0.00  0.00     0.017 A 
ATOM     10  C   UNL d   1       2.113   4.427  -0.239  0.00  0.00     0.025 A 
ATOM     11  C   UNL d   1       1.039   5.311  -0.189  0.00  0.00     0.034 A 
ATOM     12  C   UNL d   1      -0.266   4.830  -0.097  0.00  0.00     0.025 A 
ATOM     13 CL   UNL d   1       1.324   7.007  -0.235  0.00  0.00    -0.084 Cl
ATOM     14  C   UNL d   1      -0.497   3.450  -0.050  0.00  0.00     0.017 A 
ENDBRANCH   3   8
BRANCH   6  15
ATOM     15  C   UNL d   1       1.338  -2.333   0.122  0.00  0.00     0.168 C 
BRANCH  15  16
ATOM     16  S   UNL d   1       2.733  -2.457   1.286  0.00  0.00    -0.092 SA
BRANCH  16  17
ATOM     17  C   UNL d   1       3.381  -4.055   0.883  0.00  0.00     0.136 C 
ATOM     18  S   UNL d   1       2.353  -5.393   0.903  0.00  0.00    -0.053 SA
BRANCH  17  19
ATOM     19  N   UNL d   1       4.766  -4.112   0.639  0.00  0.00    -0.375 N 
ATOM     20  C   UNL d   1       5.647  -2.941   0.577  0.00  0.00     0.150 C 
ATOM     21  C   UNL d   1       5.500  -5.380   0.589  0.00  0.00     0.150 C 
ENDBRANCH  17  19
ENDBRANCH  16  17
ENDBRANCH  15  16
ENDBRANCH   6  15
TORSDOF 5
