REMARK  3 active torsions:
REMARK  status: ('A' for Active; 'I' for Inactive)
REMARK    1  A    between atoms: N_14  and  C_3 
REMARK    2  A    between atoms: N_9  and  N_14 
REMARK    3  A    between atoms: C_16  and  C_15 
ROOT
ATOM      1  N   UNL d   1       2.045   2.719  -0.049  0.00  0.00    -0.285 N 
ATOM      2  H   UNL d   1       1.260   3.352   0.076  0.00  0.00     0.188 HD
ENDROOT
BRANCH   1   3
ATOM      3  N   UNL d   1       3.298   3.122  -0.334  0.00  0.00    -0.309 N 
ATOM      4  C   UNL d   1       3.618   4.307   0.071  0.00  0.00     0.118 C 
ATOM      5  HN  UNL d   1       3.955   2.527  -0.838  1.00  0.00     0.186 HD
BRANCH   4   6
ATOM      6  C   UNL d   1       4.996   4.805  -0.112  0.00  0.00    -0.019 A 
ATOM      7  C   UNL d   1       5.884   4.139  -0.967  0.00  0.00     0.014 A 
ATOM      8  C   UNL d   1       7.205   4.575  -1.079  0.00  0.00     0.024 A 
ATOM      9  C   UNL d   1       7.633   5.673  -0.334  0.00  0.00     0.034 A 
ATOM     10  C   UNL d   1       6.749   6.344   0.513  0.00  0.00     0.024 A 
ATOM     11 CL   UNL d   1       9.266   6.199  -0.455  0.00  0.00    -0.084 Cl
ATOM     12  C   UNL d   1       5.423   5.914   0.623  0.00  0.00     0.014 A 
ENDBRANCH   4   6
ENDBRANCH   1   3
BRANCH   1  13
ATOM     13  C   UNL d   1       1.644   1.397  -0.296  0.00  0.00     0.134 A 
ATOM     14  C   UNL d   1       2.510   0.331  -0.634  0.00  0.00     0.044 A 
ATOM     15  C   UNL d   1       1.910  -0.907  -0.818  0.00  0.00     0.088 A 
ATOM     16  C   UNL d   1       3.931   0.223  -0.832  0.00  0.00     0.025 A 
ATOM     17  N   UNL d   1       0.604  -1.189  -0.699  0.00  0.00    -0.346 N 
ATOM     18  S   UNL d   1       3.023  -2.133  -1.231  0.00  0.00    -0.083 SA
ATOM     19  C   UNL d   1      -0.117  -0.116  -0.371  0.00  0.00     0.182 A 
ATOM     20  HN  UNL d   1       0.207  -2.118  -0.843  1.00  0.00     0.167 HD
ATOM     21  N   UNL d   1       0.319   1.138  -0.170  0.00  0.00    -0.337 N 
ATOM     22  HN  UNL d   1      -0.335   1.882   0.074  1.00  0.00     0.168 HD
ATOM     23  C   UNL d   1       4.340  -1.047  -1.167  0.00  0.00     0.053 A 
ENDBRANCH   1  13
TORSDOF 3
