REMARK  2 active torsions:
REMARK  status: ('A' for Active; 'I' for Inactive)
REMARK    1  A    between atoms: N_13  and  C_5 
REMARK    2  A    between atoms: C_12  and  N_13 
ROOT
ATOM      1  C   UNL d   1       3.552   3.613  -0.274  0.00  0.00     0.140 C 
ATOM      2  C   UNL d   1       4.880   3.112  -0.345  0.00  0.00     0.112 C 
ATOM      3  C   UNL d   1       3.344   5.019  -0.305  0.00  0.00     0.112 C 
ATOM      4  N   UNL d   1       5.951   2.670  -0.405  0.00  0.00    -0.191 NA
ATOM      5  N   UNL d   1       3.170   6.167  -0.317  0.00  0.00    -0.191 NA
ATOM      6  C   UNL d   1       2.496   2.785  -0.172  0.00  0.00     0.123 C 
ENDROOT
BRANCH   6   7
ATOM      7  N   UNL d   1       2.451   1.405  -0.084  0.00  0.00    -0.349 N 
ATOM      8  H   UNL d   1       3.351   0.933  -0.063  0.00  0.00     0.167 HD
BRANCH   7   9
ATOM      9  C   UNL d   1       1.329   0.649  -0.013  0.00  0.00     0.121 A 
ATOM     10  C   UNL d   1       1.374  -0.757   0.140  0.00  0.00     0.068 A 
ATOM     11  C   UNL d   1       0.060  -1.165   0.143  0.00  0.00     0.113 A 
ATOM     12  N   UNL d   1      -0.677  -0.026   0.008  0.00  0.00    -0.306 N 
ATOM     13  N   UNL d   1       0.070   1.087  -0.081  0.00  0.00    -0.284 N 
ATOM     14  C   UNL d   1      -2.115   0.056  -0.067  0.00  0.00     0.177 C 
ATOM     15  HN  UNL d   1      -0.253   2.050  -0.177  1.00  0.00     0.188 HD
ENDBRANCH   7   9
ENDBRANCH   6   7
TORSDOF 2
