REMARK  4 active torsions:
REMARK  status: ('A' for Active; 'I' for Inactive)
REMARK    1  A    between atoms: C_2  and  S_1 
REMARK    2  A    between atoms: C_7  and  S_1 
REMARK    3  A    between atoms: N_5  and  C_3 
REMARK       I    between atoms: C_4  and  N_5 
REMARK    4  A    between atoms: C_6  and  C_4 
ROOT
ATOM      1  C   UNL d   1       0.231   1.864  -0.130  0.00  0.00     0.098 A 
ATOM      2  C   UNL d   1      -0.848   1.885   0.831  0.00  0.00     0.064 A 
ATOM      3  S   UNL d   1       0.029   4.322   0.636  0.00  0.00    -0.110 SA
ATOM      4  C   UNL d   1       0.807   3.116  -0.273  0.00  0.00     0.075 A 
ATOM      5  C   UNL d   1      -1.092   3.190   1.236  0.00  0.00     0.080 A 
ENDROOT
BRANCH   2   6
ATOM      6  N   UNL d   1      -1.657   0.896   1.401  0.00  0.00    -0.321 N 
ATOM      7  C   UNL d   1      -1.286  -0.401   1.662  0.00  0.00     0.257 C 
ATOM      8  O   UNL d   1      -0.237  -0.910   1.285  0.00  0.00    -0.267 OA
ATOM      9  H   UNL d   1      -2.452   1.240   1.927  0.00  0.00     0.169 HD
BRANCH   7  10
ATOM     10  C   UNL d   1      -2.157  -1.218   2.572  0.00  0.00     0.054 A 
ATOM     11  C   UNL d   1      -2.991  -0.709   3.581  0.00  0.00     0.049 A 
ATOM     12 CL   UNL d   1      -3.309   0.974   3.826  0.00  0.00    -0.083 Cl
ATOM     13  C   UNL d   1      -3.601  -1.580   4.499  0.00  0.00     0.025 A 
ATOM     14  C   UNL d   1      -3.400  -2.957   4.416  0.00  0.00     0.002 A 
ATOM     15  C   UNL d   1      -2.617  -3.477   3.393  0.00  0.00     0.001 A 
ATOM     16  C   UNL d   1      -2.005  -2.615   2.478  0.00  0.00     0.019 A 
ENDBRANCH   7  10
ENDBRANCH   2   6
BRANCH   1  17
ATOM     17  S   UNL d   1       0.775   0.565  -1.159  0.00  0.00     0.209 S 
ATOM     18  O   UNL d   1       1.467   1.246  -2.244  0.00  0.00    -0.217 OA
ATOM     19  O   UNL d   1      -0.396  -0.239  -1.429  0.00  0.00    -0.217 OA
BRANCH  17  20
ATOM     20  C   UNL d   1       2.017  -0.394  -0.335  0.00  0.00     0.064 A 
ATOM     21  C   UNL d   1       2.653   0.062   0.824  0.00  0.00     0.025 A 
ATOM     22  C   UNL d   1       3.594  -0.755   1.458  0.00  0.00     0.025 A 
ATOM     23  C   UNL d   1       3.902  -2.008   0.924  0.00  0.00     0.034 A 
ATOM     24  C   UNL d   1       3.289  -2.450  -0.248  0.00  0.00     0.025 A 
ATOM     25 CL   UNL d   1       5.040  -3.018   1.726  0.00  0.00    -0.084 Cl
ATOM     26  C   UNL d   1       2.342  -1.642  -0.881  0.00  0.00     0.025 A 
ENDBRANCH  17  20
ENDBRANCH   1  17
TORSDOF 4
