REMARK  8 active torsions:
REMARK  status: ('A' for Active; 'I' for Inactive)
REMARK    1  A    between atoms: N_2  and  C_1 
REMARK    2  A    between atoms: C_3  and  C_1 
REMARK    3  A    between atoms: C_4  and  C_1 
REMARK    4  A    between atoms: N_6  and  C_1 
REMARK       I    between atoms: C_5  and  N_2 
REMARK    5  A    between atoms: C_10  and  C_5 
REMARK    6  A    between atoms: C_7  and  N_6 
REMARK    7  A    between atoms: O_23  and  C_15 
REMARK    8  A    between atoms: C_26  and  O_23 
ROOT
ATOM      1  C   UNL d   1       1.128  -0.319   0.325  0.00  0.00     0.291 C 
ENDROOT
BRANCH   1   2
ATOM      2  N   UNL d   1       0.037   0.674   0.114  0.00  0.00    -0.320 N 
ATOM      3  C   UNL d   1       0.193   1.981   0.537  0.00  0.00     0.256 C 
ATOM      4  O   UNL d   1       1.253   2.314   1.071  0.00  0.00    -0.268 OA
ATOM      5  H   UNL d   1      -0.699   0.394  -0.507  0.00  0.00     0.165 HD
BRANCH   3   6
ATOM      6  C   UNL d   1      -0.947   2.934   0.365  0.00  0.00     0.065 A 
ATOM      7  C   UNL d   1      -0.737   4.328   0.505  0.00  0.00     0.084 A 
ATOM      8  C   UNL d   1      -1.835   5.190   0.551  0.00  0.00     0.038 A 
ATOM      9  C   UNL d   1      -3.135   4.679   0.404  0.00  0.00     0.003 A 
ATOM     10  C   UNL d   1      -3.339   3.318   0.194  0.00  0.00     0.001 A 
ATOM     11  C   UNL d   1      -2.255   2.450   0.189  0.00  0.00     0.020 A 
BRANCH   7  12
ATOM     12  O   UNL d   1       0.564   4.751   0.543  0.00  0.00    -0.350 OA
BRANCH  12  13
ATOM     13  C   UNL d   1       0.920   6.104   0.797  0.00  0.00     0.171 C 
ATOM     14  C   UNL d   1       1.073   6.354   2.287  0.00  0.00     0.034 C 
ENDBRANCH  12  13
ENDBRANCH   7  12
ENDBRANCH   3   6
ENDBRANCH   1   2
BRANCH   1  15
ATOM     15  C   UNL d   1       1.473  -0.550   1.862  0.00  0.00     0.435 C 
ATOM     16  F   UNL d   1       1.212   0.520   2.652  0.00  0.00    -0.167 F 
ATOM     17  F   UNL d   1       0.721  -1.527   2.428  0.00  0.00    -0.167 F 
ATOM     18  F   UNL d   1       2.750  -0.912   2.106  0.00  0.00    -0.167 F 
ENDBRANCH   1  15
BRANCH   1  19
ATOM     19  C   UNL d   1       2.482   0.118  -0.392  0.00  0.00     0.435 C 
ATOM     20  F   UNL d   1       2.431   1.353  -0.948  0.00  0.00    -0.167 F 
ATOM     21  F   UNL d   1       3.609   0.046   0.333  0.00  0.00    -0.167 F 
ATOM     22  F   UNL d   1       2.678  -0.711  -1.470  0.00  0.00    -0.167 F 
ENDBRANCH   1  19
BRANCH   1  23
ATOM     23  N   UNL d   1       0.465  -1.452  -0.468  0.00  0.00    -0.235 NA
ATOM     24  H   UNL d   1       0.884  -1.411  -1.405  0.00  0.00     0.132 HD
BRANCH  23  25
ATOM     25  C   UNL d   1       0.473  -2.752  -0.075  0.00  0.00     0.105 C 
ATOM     26  N   UNL d   1       1.081  -3.712  -0.774  0.00  0.00    -0.250 N 
ATOM     27  O   UNL d   1       0.919  -4.877  -0.042  0.00  0.00    -0.241 OA
ATOM     28  HN  UNL d   1       1.566  -3.610  -1.665  1.00  0.00     0.196 HD
ATOM     29  C   UNL d   1       0.178  -4.607   1.064  0.00  0.00     0.075 C 
ATOM     30  C   UNL d   1      -0.248  -3.304   1.004  0.00  0.00     0.078 C 
ATOM     31  C   UNL d   1       0.049  -5.681   2.063  0.00  0.00     0.079 C 
ENDBRANCH  23  25
ENDBRANCH   1  23
TORSDOF 8
