REMARK  2 active torsions:
REMARK  status: ('A' for Active; 'I' for Inactive)
REMARK    1  A    between atoms: C_14  and  C_6 
REMARK    2  A    between atoms: S_15  and  C_7 
ROOT
ATOM      1  N   UNL d   1      -2.115  -1.577   0.230  0.00  0.00    -0.236 N 
ATOM      2  C   UNL d   1      -1.144  -0.730   0.675  0.00  0.00     0.145 A 
ATOM      3  N   UNL d   1       0.051  -1.231   0.831  0.00  0.00    -0.347 N 
ATOM      4  HN  UNL d   1       0.865  -0.838   1.302  1.00  0.00     0.163 HD
ATOM      5  N   UNL d   1      -1.559  -2.843   0.011  0.00  0.00    -0.197 NA
ATOM      6  C   UNL d   1      -0.104  -2.549   0.123  0.00  0.00     0.127 C 
ATOM      7  C   UNL d   1      -3.380  -1.161  -0.117  0.00  0.00     0.162 A 
ATOM      8  C   UNL d   1      -1.516   0.684   0.881  0.00  0.00     0.105 A 
ATOM      9  N   UNL d   1      -3.736   0.095   0.007  0.00  0.00    -0.344 N 
ATOM     10  HN  UNL d   1      -4.671   0.412  -0.246  1.00  0.00     0.167 HD
ATOM     11  C   UNL d   1      -2.778   0.975   0.500  0.00  0.00     0.116 A 
ATOM     12  C   UNL d   1      -0.578   1.654   1.291  0.00  0.00     0.104 C 
ATOM     13  N   UNL d   1       0.170   2.489   1.600  0.00  0.00    -0.191 NA
ATOM     14  C   UNL d   1       0.585  -3.619   0.975  0.00  0.00     0.064 C 
ATOM     15  H   UNL d   1      -1.777  -3.156  -0.934  0.00  0.00     0.150 HD
ENDROOT
BRANCH   7  16
ATOM     16  S   UNL d   1      -4.532  -2.323  -0.760  0.00  0.00    -0.097 SA
ATOM     17  C   UNL d   1      -5.941  -1.245  -1.102  0.00  0.00     0.099 C 
ENDBRANCH   7  16
BRANCH   6  18
ATOM     18  C   UNL d   1       0.532  -2.458  -1.283  0.00  0.00    -0.014 A 
ATOM     19  C   UNL d   1       1.151  -1.269  -1.722  0.00  0.00     0.012 A 
ATOM     20  C   UNL d   1       1.642  -1.141  -3.021  0.00  0.00     0.020 A 
ATOM     21  C   UNL d   1       1.536  -2.209  -3.903  0.00  0.00     0.011 A 
ATOM     22  C   UNL d   1       0.957  -3.407  -3.490  0.00  0.00     0.020 A 
ATOM     23 BR   UNL d   1       2.178  -2.027  -5.670  0.00  0.00    -0.051 Br
ATOM     24  C   UNL d   1       0.462  -3.533  -2.188  0.00  0.00     0.012 A 
ENDBRANCH   6  18
TORSDOF 2
