REMARK  5 active torsions:
REMARK  status: ('A' for Active; 'I' for Inactive)
REMARK    1  A    between atoms: N_3  and  C_1 
REMARK    2  A    between atoms: C_6  and  C_2 
REMARK       I    between atoms: C_5  and  N_3 
REMARK    3  A    between atoms: C_4  and  C_9 
REMARK    4  A    between atoms: C_11  and  C_5 
REMARK    5  A    between atoms: O_21  and  C_6 
ROOT
ATOM      1  N   UNL d   1       0.008   2.551   0.095  0.00  0.00    -0.316 N 
ATOM      2  C   UNL d   1       0.680   3.726  -0.178  0.00  0.00     0.256 C 
ATOM      3  O   UNL d   1       0.159   4.810  -0.419  0.00  0.00    -0.267 OA
ATOM      4  H   UNL d   1       0.496   1.794   0.545  0.00  0.00     0.169 HD
ENDROOT
BRANCH   2   5
ATOM      5  C   UNL d   1       2.178   3.654  -0.103  0.00  0.00     0.032 A 
ATOM      6  C   UNL d   1       2.916   4.621  -0.800  0.00  0.00     0.018 A 
ATOM      7  C   UNL d   1       4.314   4.626  -0.753  0.00  0.00     0.017 A 
ATOM      8  C   UNL d   1       5.005   3.668   0.001  0.00  0.00     0.048 A 
ATOM      9  C   UNL d   1       4.267   2.702   0.701  0.00  0.00     0.017 A 
ATOM     10  C   UNL d   1       2.867   2.697   0.657  0.00  0.00     0.018 A 
BRANCH   8  11
ATOM     11  C   UNL d   1       6.515   3.668   0.081  0.00  0.00     0.417 C 
ATOM     12  F   UNL d   1       7.099   4.679  -0.619  0.00  0.00    -0.166 F 
ATOM     13  F   UNL d   1       6.965   3.790   1.361  0.00  0.00    -0.166 F 
ATOM     14  F   UNL d   1       7.060   2.516  -0.398  0.00  0.00    -0.166 F 
ENDBRANCH   8  11
ENDBRANCH   2   5
BRANCH   1  15
ATOM     15  C   UNL d   1      -1.365   2.486   0.211  0.00  0.00     0.093 C 
ATOM     16  C   UNL d   1      -2.454   3.060  -0.421  0.00  0.00     0.073 C 
ATOM     17  C   UNL d   1      -3.661   2.716   0.298  0.00  0.00     0.028 C 
ATOM     18  C   UNL d   1      -3.445   1.864   1.357  0.00  0.00     0.053 C 
ATOM     19  S   UNL d   1      -1.808   1.411   1.466  0.00  0.00    -0.083 SA
BRANCH  16  20
ATOM     20  C   UNL d   1      -2.478   3.866  -1.645  0.00  0.00     0.295 C 
ATOM     21  O   UNL d   1      -3.468   4.502  -1.984  0.00  0.00    -0.259 OA
BRANCH  20  22
ATOM     22  O   UNL d   1      -1.355   3.747  -2.410  0.00  0.00    -0.322 OA
ATOM     23  C   UNL d   1      -1.338   4.617  -3.542  0.00  0.00     0.213 C 
ENDBRANCH  20  22
ENDBRANCH  16  20
ENDBRANCH   1  15
TORSDOF 5
