REMARK  6 active torsions:
REMARK  status: ('A' for Active; 'I' for Inactive)
REMARK    1  A    between atoms: N_12  and  C_3 
REMARK    2  A    between atoms: C_8  and  C_5 
REMARK    3  A    between atoms: O_15  and  C_8 
REMARK    4  A    between atoms: C_9  and  N_12 
REMARK    5  A    between atoms: O_16  and  C_13 
REMARK    6  A    between atoms: C_20  and  O_15 
ROOT
ATOM      1  C   UNL d   1      -5.825  -1.008  -0.073  0.00  0.00     0.135 C 
ATOM      2  C   UNL d   1      -4.587  -0.482  -0.038  0.00  0.00     0.119 C 
ATOM      3  C   UNL d   1      -6.978  -0.179  -0.090  0.00  0.00     0.107 C 
ATOM      4  N   UNL d   1      -7.883   0.548  -0.114  0.00  0.00    -0.191 NA
ENDROOT
BRANCH   1   5
ATOM      5  C   UNL d   1      -5.970  -2.479  -0.185  0.00  0.00     0.305 C 
ATOM      6  O   UNL d   1      -5.039  -3.269  -0.223  0.00  0.00    -0.258 OA
BRANCH   5   7
ATOM      7  O   UNL d   1      -7.281  -2.800  -0.340  0.00  0.00    -0.317 OA
BRANCH   7   8
ATOM      8  C   UNL d   1      -7.552  -4.104  -0.875  0.00  0.00     0.174 C 
ATOM      9  C   UNL d   1      -7.586  -3.989  -2.389  0.00  0.00     0.034 C 
ENDBRANCH   7   8
ENDBRANCH   5   7
ENDBRANCH   1   5
BRANCH   2  10
ATOM     10  N   UNL d   1      -4.217   0.848  -0.013  0.00  0.00    -0.345 N 
ATOM     11  H   UNL d   1      -4.971   1.529  -0.041  0.00  0.00     0.167 HD
BRANCH  10  12
ATOM     12  C   UNL d   1      -2.958   1.350   0.001  0.00  0.00     0.149 A 
ATOM     13  N   UNL d   1      -1.848   0.652   0.023  0.00  0.00    -0.333 N 
ATOM     14  C   UNL d   1      -0.734   1.491   0.040  0.00  0.00     0.085 A 
ATOM     15  HN  UNL d   1      -1.805  -0.367   0.027  1.00  0.00     0.168 HD
ATOM     16  C   UNL d   1      -1.035   2.854   0.024  0.00  0.00     0.038 A 
ATOM     17  C   UNL d   1       0.631   1.090   0.072  0.00  0.00     0.096 A 
ATOM     18  C   UNL d   1      -0.044   3.845   0.037  0.00  0.00     0.021 A 
ATOM     19  S   UNL d   1      -2.743   3.056  -0.012  0.00  0.00    -0.052 SA
ATOM     20  C   UNL d   1       1.289   3.438   0.069  0.00  0.00     0.004 A 
ATOM     21  C   UNL d   1       1.623   2.087   0.086  0.00  0.00     0.039 A 
BRANCH  17  22
ATOM     22  O   UNL d   1       0.890  -0.257   0.088  0.00  0.00    -0.354 OA
ATOM     23  C   UNL d   1       2.250  -0.665   0.126  0.00  0.00     0.210 C 
ENDBRANCH  17  22
ENDBRANCH  10  12
ENDBRANCH   2  10
TORSDOF 6
