REMARK  6 active torsions:
REMARK  status: ('A' for Active; 'I' for Inactive)
REMARK    1  A    between atoms: N_4  and  C_1 
REMARK    2  A    between atoms: C_7  and  C_2 
REMARK    3  A    between atoms: O_12  and  C_3 
REMARK    4  A    between atoms: O_13  and  C_5 
REMARK    5  A    between atoms: O_14  and  C_7 
REMARK    6  A    between atoms: O_15  and  C_8 
ROOT
ATOM      1  C   UNL d   1       1.442  -0.318   0.213  0.00  0.00     0.155 A 
ATOM      2  C   UNL d   1       0.564  -1.372  -0.061  0.00  0.00     0.076 A 
ATOM      3  C   UNL d   1       1.009   1.019   0.234  0.00  0.00     0.138 A 
ATOM      4  C   UNL d   1      -0.366   1.276   0.037  0.00  0.00     0.137 A 
ATOM      5  C   UNL d   1      -0.798  -1.103  -0.238  0.00  0.00     0.060 A 
ATOM      6  C   UNL d   1      -1.272   0.208  -0.171  0.00  0.00     0.105 A 
ENDROOT
BRANCH   2   7
ATOM      7  C   UNL d   1       1.024  -2.773  -0.130  0.00  0.00     0.178 C 
ATOM      8  O   UNL d   1       1.899  -3.282   0.533  0.00  0.00    -0.646 OA
BRANCH   7   9
ATOM      9  O   UNL d   1       0.360  -3.452  -1.083  0.00  0.00    -0.773 OA
ATOM     10  H   UNL d   1       0.777  -4.340  -1.089  0.00  0.00     0.167 HD
ENDBRANCH   7   9
ENDBRANCH   2   7
BRANCH   1  11
ATOM     11  N   UNL d   1       2.820  -0.630   0.501  0.00  0.00    -0.112 N 
ATOM     12  O   UNL d   1       3.536  -0.915  -0.470  0.00  0.00    -0.532 OA
ATOM     13  O   UNL d   1       3.190  -0.532   1.677  0.00  0.00    -0.532 OA
ENDBRANCH   1  11
BRANCH   3  14
ATOM     14  O   UNL d   1       1.815   2.075   0.572  0.00  0.00    -0.351 OA
ATOM     15  C   UNL d   1       2.996   2.246  -0.216  0.00  0.00     0.210 C 
ENDBRANCH   3  14
BRANCH   6  16
ATOM     16  O   UNL d   1      -2.595   0.546  -0.315  0.00  0.00    -0.353 OA
ATOM     17  C   UNL d   1      -3.547  -0.513  -0.370  0.00  0.00     0.210 C 
ENDBRANCH   6  16
BRANCH   4  18
ATOM     18  O   UNL d   1      -0.948   2.521   0.111  0.00  0.00    -0.351 OA
ATOM     19  C   UNL d   1      -0.233   3.600  -0.478  0.00  0.00     0.210 C 
ENDBRANCH   4  18
TORSDOF 6
