REMARK  0 active torsions:
REMARK  status: ('A' for Active; 'I' for Inactive)
ROOT
ATOM      1  C   UNL d   1      -0.842   1.924   0.028  0.00  0.00     0.244 C 
ATOM      2  N   UNL d   1      -2.049   1.484  -0.689  0.00  0.00     0.125 N 
ATOM      3  N   UNL d   1      -0.383   3.015  -0.794  0.00  0.00    -0.222 NA
ATOM      4  C   UNL d   1       0.282   0.883   0.111  0.00  0.00     0.002 A 
ATOM      5  C   UNL d   1      -0.663   2.722  -2.119  0.00  0.00     0.228 C 
ATOM      6  C   UNL d   1      -1.814   1.745  -2.118  0.00  0.00     0.371 C 
ATOM      7  C   UNL d   1      -2.421   0.099  -0.400  0.00  0.00     0.281 C 
ATOM      8  C   UNL d   1       0.045  -0.467  -0.187  0.00  0.00    -0.046 A 
ATOM      9  O   UNL d   1      -0.143   3.240  -3.092  0.00  0.00    -0.278 OA
ATOM     10  C   UNL d   1      -1.317  -0.946  -0.609  0.00  0.00     0.069 C 
ATOM     11  C   UNL d   1      -1.217   2.407   1.436  0.00  0.00     0.073 C 
ATOM     12  C   UNL d   1       1.587   1.285   0.452  0.00  0.00     0.012 A 
ATOM     13  C   UNL d   1       1.119  -1.384  -0.166  0.00  0.00     0.008 A 
ATOM     14  C   UNL d   1       2.644   0.369   0.462  0.00  0.00     0.001 A 
ATOM     15  C   UNL d   1       2.404  -0.961   0.148  0.00  0.00     0.001 A 
ATOM     16  H   UNL d   1      -0.785   3.909  -0.547  0.00  0.00     0.133 HD
ENDROOT
TORSDOF 0
