REMARK  9 active torsions:
REMARK  status: ('A' for Active; 'I' for Inactive)
REMARK    1  A    between atoms: C_3  and  S_1 
REMARK    2  A    between atoms: C_9  and  S_1 
REMARK    3  A    between atoms: S_2  and  C_4 
REMARK    4  A    between atoms: C_10  and  S_2 
REMARK    5  A    between atoms: N_22  and  C_15 
REMARK    6  A    between atoms: C_16  and  N_21 
REMARK    7  A    between atoms: N_21  and  C_32 
REMARK    8  A    between atoms: C_31  and  N_22 
REMARK    9  A    between atoms: C_32  and  C_31 
ROOT
ATOM      1  C   UNL d   1      -0.833  -1.853 -10.362  0.00  0.00     0.159 C 
ATOM      2  C   UNL d   1      -0.067  -2.689 -11.204  0.00  0.00     0.113 C 
ATOM      3  N   UNL d   1       0.550  -3.404 -11.877  0.00  0.00    -0.191 NA
ATOM      4  C   UNL d   1      -1.244  -2.240  -9.142  0.00  0.00     0.118 C 
ENDROOT
BRANCH   1   5
ATOM      5  S   UNL d   1      -1.206  -0.255 -10.916  0.00  0.00     0.218 S 
ATOM      6  O   UNL d   1      -2.510   0.149 -10.409  0.00  0.00    -0.216 OA
ATOM      7  O   UNL d   1      -0.056   0.602 -10.701  0.00  0.00    -0.216 OA
BRANCH   5   8
ATOM      8  C   UNL d   1      -1.399  -0.423 -12.687  0.00  0.00     0.065 A 
ATOM      9  C   UNL d   1      -2.661  -0.706 -13.220  0.00  0.00     0.025 A 
ATOM     10  C   UNL d   1      -2.815  -0.811 -14.605  0.00  0.00     0.025 A 
ATOM     11  C   UNL d   1      -1.715  -0.628 -15.444  0.00  0.00     0.034 A 
ATOM     12  C   UNL d   1      -0.460  -0.328 -14.913  0.00  0.00     0.025 A 
ATOM     13 CL   UNL d   1      -1.912  -0.761 -17.148  0.00  0.00    -0.084 Cl
ATOM     14  C   UNL d   1      -0.299  -0.214 -13.530  0.00  0.00     0.025 A 
ENDBRANCH   5   8
ENDBRANCH   1   5
BRANCH   4  15
ATOM     15  N   UNL d   1      -1.030  -3.457  -8.531  0.00  0.00    -0.395 N 
ATOM     16  H   UNL d   1      -0.398  -4.103  -9.004  0.00  0.00     0.159 HD
BRANCH  15  17
ATOM     17  C   UNL d   1      -1.452  -3.866  -7.192  0.00  0.00     0.138 C 
BRANCH  17  18
ATOM     18  C   UNL d   1      -2.278  -5.170  -7.259  0.00  0.00     0.138 C 
BRANCH  18  19
ATOM     19  N   UNL d   1      -1.480  -6.245  -7.851  0.00  0.00    -0.395 N 
ATOM     20  H   UNL d   1      -0.932  -5.970  -8.665  0.00  0.00     0.159 HD
BRANCH  19  21
ATOM     21  C   UNL d   1      -1.660  -7.599  -7.669  0.00  0.00     0.118 C 
ATOM     22  C   UNL d   1      -0.998  -8.610  -8.265  0.00  0.00     0.159 C 
ATOM     23  C   UNL d   1      -0.002  -8.402  -9.243  0.00  0.00     0.113 C 
ATOM     24  N   UNL d   1       0.820  -8.197 -10.037  0.00  0.00    -0.191 NA
BRANCH  22  25
ATOM     25  S   UNL d   1      -1.425 -10.235  -7.854  0.00  0.00     0.218 S 
ATOM     26  O   UNL d   1      -2.378 -10.732  -8.830  0.00  0.00    -0.216 OA
ATOM     27  O   UNL d   1      -1.745 -10.316  -6.438  0.00  0.00    -0.216 OA
BRANCH  25  28
ATOM     28  C   UNL d   1       0.072 -11.194  -8.068  0.00  0.00     0.065 A 
ATOM     29  C   UNL d   1       0.963 -11.334  -6.998  0.00  0.00     0.025 A 
ATOM     30  C   UNL d   1       2.088 -12.152  -7.141  0.00  0.00     0.025 A 
ATOM     31  C   UNL d   1       2.309 -12.830  -8.341  0.00  0.00     0.034 A 
ATOM     32  C   UNL d   1       1.414 -12.698  -9.403  0.00  0.00     0.025 A 
ATOM     33 CL   UNL d   1       3.683 -13.852  -8.504  0.00  0.00    -0.084 Cl
ATOM     34  C   UNL d   1       0.287 -11.884  -9.268  0.00  0.00     0.025 A 
ENDBRANCH  25  28
ENDBRANCH  22  25
ENDBRANCH  19  21
ENDBRANCH  18  19
ENDBRANCH  17  18
ENDBRANCH  15  17
ENDBRANCH   4  15
TORSDOF 9
