REMARK  6 active torsions:
REMARK  status: ('A' for Active; 'I' for Inactive)
REMARK    1  A    between atoms: N_4  and  C_1 
REMARK    2  A    between atoms: C_7  and  N_4 
REMARK    3  A    between atoms: N_5  and  C_15 
REMARK    4  A    between atoms: C_19  and  N_9 
REMARK    5  A    between atoms: C_15  and  C_16 
REMARK    6  A    between atoms: C_16  and  C_19 
ROOT
ATOM      1  C   UNL d   1       1.704   0.885   2.563  0.00  0.00     0.172 C 
ATOM      2  S   UNL d   1       1.868   2.189   3.596  0.00  0.00    -0.041 SA
ATOM      3  N   UNL d   1       2.869   0.387   2.064  0.00  0.00    -0.367 N 
ATOM      4  H   UNL d   1       3.673   0.834   2.482  0.00  0.00     0.161 HD
ENDROOT
BRANCH   1   5
ATOM      5  N   UNL d   1       0.549   0.286   2.131  0.00  0.00    -0.333 N 
ATOM      6  H   UNL d   1       0.585  -0.075   1.189  0.00  0.00     0.168 HD
BRANCH   5   7
ATOM      7  C   UNL d   1      -0.739   0.337   2.723  0.00  0.00     0.036 A 
ATOM      8  C   UNL d   1      -1.854   0.183   1.891  0.00  0.00     0.056 A 
ATOM      9  C   UNL d   1      -3.140   0.166   2.440  0.00  0.00     0.074 A 
ATOM     10 CL   UNL d   1      -4.503   0.008   1.400  0.00  0.00    -0.081 Cl
ATOM     11  C   UNL d   1      -3.311   0.274   3.820  0.00  0.00     0.138 A 
ATOM     12  C   UNL d   1      -2.211   0.415   4.653  0.00  0.00     0.046 A 
ATOM     13  F   UNL d   1      -4.536   0.225   4.366  0.00  0.00    -0.204 F 
ATOM     14  C   UNL d   1      -0.928   0.445   4.104  0.00  0.00     0.032 A 
ENDBRANCH   5   7
ENDBRANCH   1   5
BRANCH   3  15
ATOM     15  C   UNL d   1       3.113  -0.736   1.166  0.00  0.00     0.123 C 
BRANCH  15  16
ATOM     16  C   UNL d   1       4.575  -0.764   0.712  0.00  0.00     0.050 C 
BRANCH  16  17
ATOM     17  C   UNL d   1       5.540  -1.141   1.849  0.00  0.00     0.274 C 
BRANCH  17  18
ATOM     18  N   UNL d   1       6.943  -1.276   1.418  0.00  0.00     0.092 N 
ATOM     19  C   UNL d   1       7.802  -1.724   2.545  0.00  0.00     0.298 C 
ATOM     20  C   UNL d   1       8.139  -0.621   3.566  0.00  0.00     0.198 C 
ATOM     21  O   UNL d   1       8.721   0.525   2.933  0.00  0.00    -0.388 OA
ATOM     22  C   UNL d   1       7.853   1.037   1.916  0.00  0.00     0.198 C 
ATOM     23  C   UNL d   1       7.539  -0.040   0.865  0.00  0.00     0.298 C 
ENDBRANCH  17  18
ENDBRANCH  16  17
ENDBRANCH  15  16
ENDBRANCH   3  15
TORSDOF 6
