REMARK  5 active torsions:
REMARK  status: ('A' for Active; 'I' for Inactive)
REMARK    1  A    between atoms: C_10  and  C_3 
REMARK    2  A    between atoms: N_7  and  C_9 
REMARK    3  A    between atoms: C_14  and  C_8 
REMARK    4  A    between atoms: O_24  and  C_12 
REMARK    5  A    between atoms: O_25  and  C_17 
ROOT
ATOM      1  N   UNL d   1       1.587  -0.062  -0.013  0.00  0.00    -0.331 N 
ATOM      2  HN  UNL d   1       2.531  -0.446  -0.063  1.00  0.00     0.168 HD
ATOM      3  C   UNL d   1       1.220   1.177   0.033  0.00  0.00     0.162 A 
ATOM      4  C   UNL d   1       0.388  -0.731   0.023  0.00  0.00     0.111 A 
ATOM      5  O   UNL d   1      -0.106   1.446   0.094  0.00  0.00    -0.256 OA
ATOM      6  C   UNL d   1      -0.743   0.242   0.092  0.00  0.00     0.316 A 
ATOM      7  C   UNL d   1       0.292  -2.064  -0.001  0.00  0.00     0.047 C 
ATOM      8  O   UNL d   1      -1.940   0.062   0.151  0.00  0.00    -0.257 OA
ENDROOT
BRANCH   7   9
ATOM      9  C   UNL d   1      -0.957  -2.821   0.025  0.00  0.00    -0.031 A 
ATOM     10  C   UNL d   1      -1.548  -3.167   1.247  0.00  0.00     0.051 A 
ATOM     11  C   UNL d   1      -2.720  -3.938   1.292  0.00  0.00     0.102 A 
ATOM     12  C   UNL d   1      -3.319  -4.329   0.080  0.00  0.00     0.101 A 
ATOM     13  C   UNL d   1      -2.723  -3.972  -1.138  0.00  0.00     0.040 A 
ATOM     14  C   UNL d   1      -1.550  -3.221  -1.170  0.00  0.00     0.014 A 
BRANCH  11  15
ATOM     15  O   UNL d   1      -3.290  -4.368   2.461  0.00  0.00    -0.353 OA
ATOM     16  C   UNL d   1      -2.662  -4.008   3.684  0.00  0.00     0.210 C 
ENDBRANCH  11  15
BRANCH  12  17
ATOM     17  O   UNL d   1      -4.434  -5.111  -0.083  0.00  0.00    -0.353 OA
ATOM     18  C   UNL d   1      -5.451  -4.994   0.902  0.00  0.00     0.210 C 
ENDBRANCH  12  17
ENDBRANCH   7   9
BRANCH   3  19
ATOM     19  C   UNL d   1       2.099   2.358   0.042  0.00  0.00     0.015 A 
ATOM     20  C   UNL d   1       3.483   2.172  -0.081  0.00  0.00     0.018 A 
ATOM     21  C   UNL d   1       4.349   3.269  -0.027  0.00  0.00     0.037 A 
ATOM     22  C   UNL d   1       3.822   4.555   0.152  0.00  0.00     0.102 A 
ATOM     23  C   UNL d   1       2.439   4.750   0.260  0.00  0.00     0.037 A 
ATOM     24  C   UNL d   1       1.579   3.649   0.202  0.00  0.00     0.018 A 
BRANCH  22  25
ATOM     25  N   UNL d   1       4.729   5.707   0.241  0.00  0.00    -0.116 N 
ATOM     26  O   UNL d   1       5.945   5.491   0.153  0.00  0.00    -0.532 OA
ATOM     27  O   UNL d   1       4.223   6.827   0.405  0.00  0.00    -0.532 OA
ENDBRANCH  22  25
ENDBRANCH   3  19
TORSDOF 5
