REMARK  3 active torsions:
REMARK  status: ('A' for Active; 'I' for Inactive)
REMARK    1  A    between atoms: C_4  and  N_1 
REMARK    2  A    between atoms: N_2  and  C_3 
REMARK    3  A    between atoms: C_8  and  C_12 
ROOT
ATOM      1  C   UNL d   1       0.178  -0.540   1.158  0.00  0.00     0.102 A 
ATOM      2  C   UNL d   1       0.661  -0.224   2.433  0.00  0.00     0.037 A 
ATOM      3  C   UNL d   1      -1.025  -1.240   1.012  0.00  0.00     0.037 A 
ATOM      4  C   UNL d   1      -1.264  -1.329   3.438  0.00  0.00    -0.035 A 
ATOM      5  C   UNL d   1      -0.064  -0.613   3.565  0.00  0.00     0.014 A 
ATOM      6  C   UNL d   1      -1.742  -1.624   2.151  0.00  0.00     0.014 A 
ENDROOT
BRANCH   4   7
ATOM      7  C   UNL d   1      -2.069  -1.742   4.598  0.00  0.00     0.035 C 
ATOM      8  C   UNL d   1      -1.543  -2.043   5.792  0.00  0.00     0.168 C 
BRANCH   8   9
ATOM      9  N   UNL d   1      -2.403  -2.468   6.873  0.00  0.00    -0.127 N 
ATOM     10  O   UNL d   1      -3.621  -2.554   6.673  0.00  0.00    -0.532 OA
ATOM     11  O   UNL d   1      -1.834  -2.720   7.941  0.00  0.00    -0.532 OA
ENDBRANCH   8   9
ENDBRANCH   4   7
BRANCH   1  12
ATOM     12  N   UNL d   1       0.932  -0.127  -0.032  0.00  0.00    -0.116 N 
ATOM     13  O   UNL d   1       1.984   0.505   0.144  0.00  0.00    -0.532 OA
ATOM     14  O   UNL d   1       0.474  -0.435  -1.141  0.00  0.00    -0.532 OA
ENDBRANCH   1  12
TORSDOF 3
