REMARK  5 active torsions:
REMARK  status: ('A' for Active; 'I' for Inactive)
REMARK    1  A    between atoms: C_2  and  C_1 
REMARK       I    between atoms: N_4  and  C_1 
REMARK    2  A    between atoms: C_3  and  N_6 
REMARK    3  A    between atoms: N_7  and  C_3 
REMARK    4  A    between atoms: N_6  and  N_4 
REMARK    5  A    between atoms: C_13  and  N_7 
ROOT
ATOM      1  N   UNL d   1      -1.109   1.065   0.537  0.00  0.00    -0.273 N 
ATOM      2  H   UNL d   1      -0.089   1.060   0.477  0.00  0.00     0.189 HD
ENDROOT
BRANCH   1   3
ATOM      3  C   UNL d   1      -1.727   2.272   0.752  0.00  0.00     0.191 C 
ATOM      4  S   UNL d   1      -3.311   2.621   0.320  0.00  0.00    -0.039 SA
BRANCH   3   5
ATOM      5  N   UNL d   1      -0.980   3.278   1.295  0.00  0.00    -0.332 N 
ATOM      6  H   UNL d   1      -1.388   4.195   1.147  0.00  0.00     0.168 HD
BRANCH   5   7
ATOM      7  C   UNL d   1       0.171   3.246   2.101  0.00  0.00     0.034 A 
ATOM      8  C   UNL d   1       0.900   4.438   2.212  0.00  0.00     0.032 A 
ATOM      9  C   UNL d   1       2.016   4.511   3.048  0.00  0.00     0.044 A 
ATOM     10  C   UNL d   1       2.381   3.399   3.795  0.00  0.00     0.116 A 
ATOM     11  C   UNL d   1       1.658   2.215   3.709  0.00  0.00     0.044 A 
ATOM     12  F   UNL d   1       3.434   3.475   4.619  0.00  0.00    -0.206 F 
ATOM     13  C   UNL d   1       0.553   2.134   2.857  0.00  0.00     0.032 A 
ENDBRANCH   5   7
ENDBRANCH   3   5
ENDBRANCH   1   3
BRANCH   1  14
ATOM     14  N   UNL d   1      -1.730   0.130  -0.323  0.00  0.00    -0.262 N 
ATOM     15  C   UNL d   1      -0.961  -0.573  -1.232  0.00  0.00     0.286 C 
ATOM     16  O   UNL d   1       0.265  -0.628  -1.144  0.00  0.00    -0.264 OA
ATOM     17  H   UNL d   1      -2.731   0.241  -0.455  0.00  0.00     0.190 HD
BRANCH  15  18
ATOM     18  C   UNL d   1      -1.711  -1.247  -2.267  0.00  0.00     0.102 A 
ATOM     19  N   UNL d   1      -1.170  -2.274  -3.012  0.00  0.00    -0.361 N 
ATOM     20  C   UNL d   1      -2.096  -2.760  -3.895  0.00  0.00     0.088 A 
ATOM     21  H   UNL d   1      -0.226  -2.620  -2.890  0.00  0.00     0.165 HD
ATOM     22  C   UNL d   1      -3.237  -2.003  -3.769  0.00  0.00     0.019 A 
ATOM     23  C   UNL d   1      -2.996  -1.047  -2.752  0.00  0.00     0.036 A 
ENDBRANCH  15  18
ENDBRANCH   1  14
TORSDOF 5
