REMARK  11 active torsions:
REMARK  status: ('A' for Active; 'I' for Inactive)
REMARK    1  A    between atoms: N_3  and  C_1 
REMARK    2  A    between atoms: C_5  and  C_1 
REMARK    3  A    between atoms: C_6  and  C_1 
REMARK    4  A    between atoms: N_7  and  C_1 
REMARK    5  A    between atoms: S_2  and  C_14 
REMARK    6  A    between atoms: N_4  and  S_2 
REMARK       I    between atoms: C_8  and  N_3 
REMARK    7  A    between atoms: C_9  and  N_4 
REMARK    8  A    between atoms: C_27  and  N_7 
REMARK    9  A    between atoms: O_29  and  C_8 
REMARK   10  A    between atoms: O_33  and  C_17 
REMARK   11  A    between atoms: C_34  and  O_29 
ROOT
ATOM      1  C   UNL d   1       4.804  -2.106  -2.943  0.00  0.00     0.075 A 
ATOM      2  C   UNL d   1       5.215  -2.045  -1.616  0.00  0.00     0.027 A 
ATOM      3  C   UNL d   1       3.606  -1.506  -3.332  0.00  0.00     0.027 A 
ATOM      4  C   UNL d   1       3.257  -0.686  -1.061  0.00  0.00     0.030 A 
ATOM      5  C   UNL d   1       4.436  -1.351  -0.684  0.00  0.00     0.031 A 
ATOM      6  C   UNL d   1       2.841  -0.802  -2.391  0.00  0.00     0.031 A 
ENDROOT
BRANCH   4   7
ATOM      7  N   UNL d   1       2.702   0.181  -0.138  0.00  0.00    -0.349 N 
ATOM      8  H   UNL d   1       2.680  -0.195   0.813  0.00  0.00     0.162 HD
BRANCH   7   9
ATOM      9  C   UNL d   1       1.687   1.288  -0.353  0.00  0.00     0.308 C 
BRANCH   9  10
ATOM     10  N   UNL d   1       2.297   2.030  -1.457  0.00  0.00    -0.295 N 
ATOM     11  C   UNL d   1       1.670   3.048  -2.062  0.00  0.00     0.362 C 
ATOM     12  O   UNL d   1       0.584   3.477  -1.717  0.00  0.00    -0.238 OA
ATOM     13  H   UNL d   1       3.212   1.750  -1.789  0.00  0.00     0.168 HD
BRANCH  11  14
ATOM     14  O   UNL d   1       2.400   3.446  -3.134  0.00  0.00    -0.304 OA
BRANCH  14  15
ATOM     15  C   UNL d   1       1.719   4.305  -4.053  0.00  0.00     0.176 C 
ATOM     16  C   UNL d   1       0.903   3.454  -5.010  0.00  0.00     0.034 C 
ENDBRANCH  14  15
ENDBRANCH  11  14
ENDBRANCH   9  10
BRANCH   9  17
ATOM     17  C   UNL d   1       0.247   0.720  -0.630  0.00  0.00     0.441 C 
ATOM     18  F   UNL d   1      -0.032   0.706  -1.964  0.00  0.00    -0.166 F 
ATOM     19  F   UNL d   1       0.148  -0.576  -0.226  0.00  0.00    -0.166 F 
ATOM     20  F   UNL d   1      -0.773   1.371  -0.039  0.00  0.00    -0.166 F 
ENDBRANCH   9  17
BRANCH   9  21
ATOM     21  C   UNL d   1       1.613   2.164   0.953  0.00  0.00     0.441 C 
ATOM     22  F   UNL d   1       2.412   3.264   0.851  0.00  0.00    -0.166 F 
ATOM     23  F   UNL d   1       0.403   2.607   1.328  0.00  0.00    -0.166 F 
ATOM     24  F   UNL d   1       2.109   1.459   2.015  0.00  0.00    -0.166 F 
ENDBRANCH   9  21
ENDBRANCH   7   9
ENDBRANCH   4   7
BRANCH   1  25
ATOM     25  S   UNL d   1       5.904  -2.744  -4.174  0.00  0.00     0.247 S 
ATOM     26  O   UNL d   1       5.501  -2.185  -5.450  0.00  0.00    -0.205 OA
ATOM     27  O   UNL d   1       7.266  -2.592  -3.716  0.00  0.00    -0.205 OA
BRANCH  25  28
ATOM     28  N   UNL d   1       5.518  -4.376  -4.276  0.00  0.00    -0.165 NA
ATOM     29  H   UNL d   1       5.462  -4.670  -5.246  0.00  0.00     0.147 HD
BRANCH  28  30
ATOM     30  C   UNL d   1       6.219  -5.213  -3.388  0.00  0.00     0.108 A 
ATOM     31  N   UNL d   1       5.692  -5.338  -2.155  0.00  0.00    -0.287 N 
ATOM     32  N   UNL d   1       6.347  -6.091  -1.222  0.00  0.00    -0.279 N 
ATOM     33  HN  UNL d   1       4.814  -4.876  -1.921  1.00  0.00     0.188 HD
ATOM     34  C   UNL d   1       7.525  -6.673  -1.540  0.00  0.00     0.156 A 
ATOM     35  HN  UNL d   1       5.950  -6.214  -0.291  1.00  0.00     0.189 HD
ATOM     36  C   UNL d   1       8.104  -6.534  -2.788  0.00  0.00     0.060 A 
ATOM     37  C   UNL d   1       7.430  -5.779  -3.743  0.00  0.00     0.049 A 
BRANCH  34  38
ATOM     38  O   UNL d   1       8.210  -7.435  -0.617  0.00  0.00    -0.340 OA
ATOM     39  C   UNL d   1       7.528  -7.541   0.629  0.00  0.00     0.211 C 
ENDBRANCH  34  38
ENDBRANCH  28  30
ENDBRANCH  25  28
ENDBRANCH   1  25
TORSDOF 11
