REMARK  8 active torsions:
REMARK  status: ('A' for Active; 'I' for Inactive)
REMARK    1  A    between atoms: C_5  and  C_1 
REMARK    2  A    between atoms: C_7  and  C_2 
REMARK    3  A    between atoms: O_14  and  C_7 
REMARK    4  A    between atoms: C_16  and  C_9 
REMARK    5  A    between atoms: N_10  and  O_14 
REMARK    6  A    between atoms: C_13  and  C_17 
REMARK    7  A    between atoms: N_15  and  C_16 
REMARK    8  A    between atoms: O_25  and  C_18 
ROOT
ATOM      1  N   UNL d   1      -2.680  -3.385   1.137  0.00  0.00    -0.261 N 
ATOM      2  HN  UNL d   1      -2.032  -3.691   1.863  1.00  0.00     0.194 HD
ATOM      3  C   UNL d   1      -3.318  -4.210   0.352  0.00  0.00     0.039 C 
ATOM      4  C   UNL d   1      -4.327  -3.711  -0.663  0.00  0.00     0.071 C 
ENDROOT
BRANCH   1   5
ATOM      5  O   UNL d   1      -2.977  -2.016   0.879  0.00  0.00    -0.195 OA
BRANCH   5   6
ATOM      6  C   UNL d   1      -2.413  -1.229   1.871  0.00  0.00     0.320 C 
ATOM      7  O   UNL d   1      -1.996  -1.657   2.936  0.00  0.00    -0.257 OA
BRANCH   6   8
ATOM      8  C   UNL d   1      -2.265   0.178   1.504  0.00  0.00     0.102 A 
ATOM      9  C   UNL d   1      -1.308   1.112   2.028  0.00  0.00     0.085 A 
ATOM     10  N   UNL d   1      -1.440   2.308   1.431  0.00  0.00    -0.259 N 
ATOM     11  O   UNL d   1      -2.500   2.201   0.577  0.00  0.00    -0.241 OA
ATOM     12  HN  UNL d   1      -0.861   3.134   1.586  1.00  0.00     0.195 HD
ATOM     13  C   UNL d   1      -3.004   0.939   0.615  0.00  0.00     0.091 A 
ATOM     14  C   UNL d   1      -4.190   0.755  -0.243  0.00  0.00     0.080 C 
BRANCH   9  15
ATOM     15  C   UNL d   1      -0.234   0.914   3.007  0.00  0.00     0.015 A 
ATOM     16  C   UNL d   1      -0.040   1.762   4.111  0.00  0.00     0.046 A 
ATOM     17 CL   UNL d   1      -1.124   3.055   4.510  0.00  0.00    -0.083 Cl
ATOM     18  C   UNL d   1       1.048   1.569   4.973  0.00  0.00     0.025 A 
ATOM     19  C   UNL d   1       1.942   0.523   4.755  0.00  0.00     0.002 A 
ATOM     20  C   UNL d   1       1.752  -0.336   3.676  0.00  0.00     0.001 A 
ATOM     21  C   UNL d   1       0.678  -0.138   2.805  0.00  0.00     0.015 A 
ENDBRANCH   9  15
ENDBRANCH   6   8
ENDBRANCH   5   6
ENDBRANCH   1   5
BRANCH   3  22
ATOM     22  C   UNL d   1      -2.972  -5.691   0.409  0.00  0.00    -0.011 A 
ATOM     23  C   UNL d   1      -1.901  -6.113   1.219  0.00  0.00     0.025 A 
ATOM     24  C   UNL d   1      -1.355  -7.423   1.134  0.00  0.00     0.004 A 
ATOM     25  C   UNL d   1      -1.986  -8.355   0.299  0.00  0.00     0.076 A 
ATOM     26  C   UNL d   1      -3.089  -7.959  -0.463  0.00  0.00     0.038 A 
ATOM     27  C   UNL d   1      -3.570  -6.641  -0.422  0.00  0.00     0.016 A 
BRANCH  24  28
ATOM     28  C   UNL d   1       0.025  -7.651   1.721  0.00  0.00     0.314 C 
BRANCH  28  29
ATOM     29  N   UNL d   1       0.112  -8.259   3.062  0.00  0.00     0.096 N 
ATOM     30  C   UNL d   1      -0.377  -7.381   4.150  0.00  0.00     0.299 C 
ATOM     31  C   UNL d   1       0.488  -6.127   4.384  0.00  0.00     0.198 C 
ATOM     32  O   UNL d   1       1.862  -6.465   4.621  0.00  0.00    -0.388 OA
ATOM     33  C   UNL d   1       2.394  -7.284   3.573  0.00  0.00     0.198 C 
ATOM     34  C   UNL d   1       1.541  -8.551   3.369  0.00  0.00     0.299 C 
ENDBRANCH  28  29
ENDBRANCH  24  28
BRANCH  25  35
ATOM     35  O   UNL d   1      -1.503  -9.596  -0.022  0.00  0.00    -0.355 OA
ATOM     36  C   UNL d   1      -1.259 -10.466   1.080  0.00  0.00     0.210 C 
ENDBRANCH  25  35
ENDBRANCH   3  22
TORSDOF 8
