REMARK  4 active torsions:
REMARK  status: ('A' for Active; 'I' for Inactive)
REMARK    1  A    between atoms: C_16  and  N_1 
REMARK    2  A    between atoms: N_6  and  C_8 
REMARK    3  A    between atoms: C_20  and  C_16 
REMARK    4  A    between atoms: C_21  and  C_20 
ROOT
ATOM      1  N   UNL d   1       2.261  -0.115   0.156  0.00  0.00    -0.280 N 
ATOM      2  C   UNL d   1       1.567  -1.319   0.050  0.00  0.00     0.261 C 
ATOM      3  C   UNL d   1       1.669   1.143   0.029  0.00  0.00     0.261 C 
ATOM      4  C   UNL d   1       0.087  -1.248   0.040  0.00  0.00     0.047 A 
ATOM      5  C   UNL d   1       0.190   1.190  -0.004  0.00  0.00     0.044 A 
ATOM      6  C   UNL d   1      -0.545   0.000   0.019  0.00  0.00     0.006 A 
ATOM      7  C   UNL d   1      -2.055  -2.365   0.066  0.00  0.00     0.104 A 
ATOM      8  C   UNL d   1      -0.660  -2.434   0.058  0.00  0.00     0.054 A 
ATOM      9  C   UNL d   1      -1.961   0.064   0.012  0.00  0.00    -0.021 A 
ATOM     10  C   UNL d   1      -2.708  -1.126   0.042  0.00  0.00     0.048 A 
ATOM     11  O   UNL d   1       2.099  -2.421  -0.049  0.00  0.00    -0.267 OA
ATOM     12  O   UNL d   1       2.300   2.192  -0.065  0.00  0.00    -0.267 OA
ATOM     13  C   UNL d   1      -0.458   2.431  -0.045  0.00  0.00     0.018 A 
ATOM     14  C   UNL d   1      -2.596   1.314  -0.027  0.00  0.00     0.012 A 
ATOM     15  C   UNL d   1      -1.849   2.491  -0.059  0.00  0.00     0.002 A 
ENDROOT
BRANCH   1  16
ATOM     16  C   UNL d   1       3.723  -0.171   0.221  0.00  0.00     0.135 C 
BRANCH  16  17
ATOM     17  C   UNL d   1       4.314   0.432   1.504  0.00  0.00     0.020 C 
BRANCH  17  18
ATOM     18  C   UNL d   1       3.859  -0.274   2.781  0.00  0.00    -0.003 C 
ATOM     19  C   UNL d   1       4.491   0.368   4.010  0.00  0.00     0.005 C 
ENDBRANCH  17  18
ENDBRANCH  16  17
ENDBRANCH   1  16
BRANCH   7  20
ATOM     20  N   UNL d   1      -2.847  -3.601   0.115  0.00  0.00    -0.116 N 
ATOM     21  O   UNL d   1      -2.236  -4.676   0.133  0.00  0.00    -0.532 OA
ATOM     22  O   UNL d   1      -4.082  -3.491   0.139  0.00  0.00    -0.532 OA
ENDBRANCH   7  20
TORSDOF 4
