REMARK  4 active torsions:
REMARK  status: ('A' for Active; 'I' for Inactive)
REMARK    1  A    between atoms: N_10  and  C_1 
REMARK    2  A    between atoms: C_11  and  C_3 
REMARK    3  A    between atoms: C_8  and  C_13 
REMARK    4  A    between atoms: C_9  and  C_12 
ROOT
ATOM      1  C   UNL d   1      -0.773   2.357   0.091  0.00  0.00     0.018 A 
ATOM      2  C   UNL d   1      -0.383   4.737   0.512  0.00  0.00     0.049 A 
ATOM      3  C   UNL d   1      -2.659   3.920   0.168  0.00  0.00     0.049 A 
ATOM      4  C   UNL d   1      -1.762   4.972   0.422  0.00  0.00     0.032 A 
ATOM      5  C   UNL d   1      -2.149   2.622  -0.003  0.00  0.00     0.032 A 
ATOM      6  C   UNL d   1       0.098   3.428   0.340  0.00  0.00     0.032 A 
ENDROOT
BRANCH   1   7
ATOM      7  C   UNL d   1      -0.246   1.002  -0.008  0.00  0.00     0.176 A 
ATOM      8  O   UNL d   1      -1.151  -0.007  -0.193  0.00  0.00    -0.259 OA
ATOM      9  C   UNL d   1      -0.363  -1.120  -0.098  0.00  0.00     0.243 A 
ATOM     10  N   UNL d   1       0.906  -0.819   0.084  0.00  0.00    -0.263 N 
ATOM     11  N   UNL d   1       0.986   0.559   0.128  0.00  0.00    -0.276 N 
ATOM     12  HN  UNL d   1       1.680  -1.477   0.176  1.00  0.00     0.190 HD
ATOM     13  HN  UNL d   1       1.830   1.121   0.243  1.00  0.00     0.189 HD
BRANCH   9  14
ATOM     14  N   UNL d   1      -0.977  -2.312  -0.137  0.00  0.00    -0.346 N 
ATOM     15  C   UNL d   1      -2.322  -2.515  -0.621  0.00  0.00     0.126 C 
ATOM     16  C   UNL d   1      -2.643  -3.921  -0.132  0.00  0.00     0.021 C 
ATOM     17  C   UNL d   1      -1.300  -4.640  -0.203  0.00  0.00     0.021 C 
ATOM     18  C   UNL d   1      -0.260  -3.552   0.080  0.00  0.00     0.126 C 
ENDBRANCH   9  14
ENDBRANCH   1   7
BRANCH   3  19
ATOM     19  C   UNL d   1      -4.149   4.154   0.094  0.00  0.00     0.417 C 
ATOM     20  F   UNL d   1      -4.511   5.442   0.348  0.00  0.00    -0.166 F 
ATOM     21  F   UNL d   1      -4.661   3.854  -1.131  0.00  0.00    -0.166 F 
ATOM     22  F   UNL d   1      -4.836   3.389   0.987  0.00  0.00    -0.166 F 
ENDBRANCH   3  19
BRANCH   2  23
ATOM     23  C   UNL d   1       0.586   5.859   0.809  0.00  0.00     0.417 C 
ATOM     24  F   UNL d   1      -0.024   7.057   1.025  0.00  0.00    -0.166 F 
ATOM     25  F   UNL d   1       1.336   5.617   1.919  0.00  0.00    -0.166 F 
ATOM     26  F   UNL d   1       1.468   6.065  -0.206  0.00  0.00    -0.166 F 
ENDBRANCH   2  23
TORSDOF 4
