REMARK  10 active torsions:
REMARK  status: ('A' for Active; 'I' for Inactive)
REMARK    1  A    between atoms: C_12  and  N_7 
REMARK    2  A    between atoms: N_11  and  C_10 
REMARK    3  A    between atoms: C_26  and  N_11 
REMARK    4  A    between atoms: C_17  and  C_12 
REMARK    5  A    between atoms: N_13  and  C_18 
REMARK    6  A    between atoms: C_21  and  N_14 
REMARK    7  A    between atoms: C_18  and  C_17 
REMARK    8  A    between atoms: O_27  and  C_17 
REMARK    9  A    between atoms: C_28  and  C_21 
REMARK   10  A    between atoms: C_29  and  C_26 
ROOT
ATOM      1  C   UNL d   1      -0.772  -0.541  -1.939  0.00  0.00     0.146 A 
ATOM      2  C   UNL d   1      -1.771   0.382  -1.925  0.00  0.00     0.150 A 
ATOM      3  N   UNL d   1      -0.356  -0.847  -0.687  0.00  0.00    -0.316 N 
ATOM      4  HN  UNL d   1       0.370  -1.514  -0.425  1.00  0.00     0.170 HD
ATOM      5  N   UNL d   1      -0.272  -1.050  -3.114  0.00  0.00    -0.287 N 
ATOM      6  N   UNL d   1      -2.005   0.128  -4.258  0.00  0.00    -0.269 N 
ATOM      7  N   UNL d   1      -1.924   0.728  -0.600  0.00  0.00    -0.313 N 
ATOM      8  C   UNL d   1      -0.896  -0.728  -4.323  0.00  0.00     0.332 C 
ATOM      9  C   UNL d   1      -2.426   0.815  -3.116  0.00  0.00     0.282 C 
ATOM     10  C   UNL d   1      -1.084  -0.102   0.121  0.00  0.00     0.162 A 
ATOM     11  O   UNL d   1      -0.475  -1.172  -5.395  0.00  0.00    -0.246 OA
ATOM     12  O   UNL d   1      -3.280   1.700  -3.126  0.00  0.00    -0.265 OA
ATOM     13  C   UNL d   1       0.903  -1.895  -3.144  0.00  0.00     0.163 C 
ATOM     14  C   UNL d   1      -2.731   0.407  -5.481  0.00  0.00     0.164 C 
ENDROOT
BRANCH   7  15
ATOM     15  C   UNL d   1      -2.719   1.842  -0.102  0.00  0.00     0.165 C 
BRANCH  15  16
ATOM     16  C   UNL d   1      -4.224   1.560   0.087  0.00  0.00     0.164 C 
BRANCH  16  17
ATOM     17  C   UNL d   1      -4.987   2.902   0.375  0.00  0.00     0.305 C 
BRANCH  17  18
ATOM     18  N   UNL d   1      -6.394   2.740   0.774  0.00  0.00     0.094 N 
ATOM     19  C   UNL d   1      -7.298   2.287  -0.297  0.00  0.00     0.302 C 
ATOM     20  C   UNL d   1      -8.230   3.347  -0.919  0.00  0.00     0.303 C 
ATOM     21  N   UNL d   1      -8.993   4.137   0.061  0.00  0.00     0.096 N 
ATOM     22  C   UNL d   1      -8.001   4.787   0.940  0.00  0.00     0.303 C 
ATOM     23  C   UNL d   1      -6.947   3.843   1.584  0.00  0.00     0.302 C 
BRANCH  21  24
ATOM     24  C   UNL d   1      -9.937   3.318   0.848  0.00  0.00     0.311 C 
BRANCH  24  25
ATOM     25  C   UNL d   1     -10.988   2.594   0.025  0.00  0.00    -0.030 A 
ATOM     26  C   UNL d   1     -10.990   1.191  -0.050  0.00  0.00     0.009 A 
ATOM     27  C   UNL d   1     -11.963   0.518  -0.791  0.00  0.00     0.001 A 
ATOM     28  C   UNL d   1     -12.950   1.238  -1.464  0.00  0.00     0.000 A 
ATOM     29  C   UNL d   1     -12.958   2.630  -1.397  0.00  0.00     0.001 A 
ATOM     30  C   UNL d   1     -11.981   3.305  -0.662  0.00  0.00     0.009 A 
ENDBRANCH  24  25
ENDBRANCH  21  24
ENDBRANCH  17  18
ENDBRANCH  16  17
BRANCH  16  31
ATOM     31  O   UNL d   1      -4.751   0.908  -1.072  0.00  0.00    -0.392 OA
ATOM     32  H   UNL d   1      -4.565   1.476  -1.849  0.00  0.00     0.210 HD
ENDBRANCH  16  31
ENDBRANCH  15  16
ENDBRANCH   7  15
BRANCH  10  33
ATOM     33  N   UNL d   1      -1.041  -0.113   1.480  0.00  0.00    -0.260 NA
ATOM     34  H   UNL d   1      -0.579   0.702   1.881  0.00  0.00     0.130 HD
BRANCH  33  35
ATOM     35  C   UNL d   1      -0.437  -1.334   2.042  0.00  0.00     0.133 C 
BRANCH  35  36
ATOM     36  C   UNL d   1      -0.230  -1.288   3.543  0.00  0.00    -0.045 A 
ATOM     37  C   UNL d   1      -1.040  -0.546   4.411  0.00  0.00     0.008 A 
ATOM     38  C   UNL d   1      -0.834  -0.599   5.794  0.00  0.00     0.001 A 
ATOM     39  C   UNL d   1       0.167  -1.408   6.330  0.00  0.00     0.000 A 
ATOM     40  C   UNL d   1       0.969  -2.167   5.483  0.00  0.00     0.001 A 
ATOM     41  C   UNL d   1       0.769  -2.108   4.101  0.00  0.00     0.008 A 
ENDBRANCH  35  36
ENDBRANCH  33  35
ENDBRANCH  10  33
TORSDOF 10
