REMARK  2 active torsions:
REMARK  status: ('A' for Active; 'I' for Inactive)
REMARK    1  A    between atoms: C_8  and  C_1 
REMARK    2  A    between atoms: C_7  and  N_3 
ROOT
ATOM      1  C   UNL d   1      -0.703   2.506  -0.059  0.00  0.00     0.056 A 
ATOM      2  N   UNL d   1       1.175   6.402  -2.268  0.00  0.00    -0.191 NA
ATOM      3  C   UNL d   1       0.558   5.672  -1.609  0.00  0.00     0.099 C 
ATOM      4  C   UNL d   1       0.084   3.402  -0.802  0.00  0.00     0.053 A 
ATOM      5  C   UNL d   1      -0.210   4.769  -0.804  0.00  0.00     0.046 A 
ATOM      6  C   UNL d   1      -1.753   2.997   0.725  0.00  0.00     0.031 A 
ATOM      7  C   UNL d   1      -2.030   4.366   0.739  0.00  0.00     0.004 A 
ATOM      8  C   UNL d   1      -1.270   5.250  -0.029  0.00  0.00     0.023 A 
ENDROOT
BRANCH   1   9
ATOM      9  N   UNL d   1      -0.378   1.127  -0.100  0.00  0.00    -0.242 N 
ATOM     10  C   UNL d   1      -1.167  -0.007   0.035  0.00  0.00     0.060 A 
ATOM     11  C   UNL d   1      -0.257  -1.058  -0.013  0.00  0.00     0.115 A 
ATOM     12  C   UNL d   1      -2.650  -0.063   0.061  0.00  0.00     0.072 C 
ATOM     13  N   UNL d   1       0.999  -0.557  -0.204  0.00  0.00    -0.278 N 
ATOM     14  N   UNL d   1       0.907   0.755  -0.319  0.00  0.00    -0.014 NA
ATOM     15  HN  UNL d   1       1.859  -1.103  -0.251  1.00  0.00     0.184 HD
BRANCH  11  16
ATOM     16  C   UNL d   1      -0.530  -2.490   0.052  0.00  0.00     0.175 C 
ATOM     17  O   UNL d   1      -1.678  -2.926   0.164  0.00  0.00    -0.291 OA
ATOM     18  C   UNL d   1       0.631  -3.451  -0.036  0.00  0.00     0.098 C 
ENDBRANCH  11  16
ENDBRANCH   1   9
TORSDOF 2
