REMARK  4 active torsions:
REMARK  status: ('A' for Active; 'I' for Inactive)
REMARK    1  A    between atoms: C_6  and  C_1 
REMARK    2  A    between atoms: C_3  and  C_2 
REMARK       I    between atoms: N_10  and  C_3 
REMARK    3  A    between atoms: C_7  and  N_10 
REMARK    4  A    between atoms: N_8  and  C_17 
ROOT
ATOM      1  C   UNL d   1       0.347  -2.713   0.366  0.00  0.00     0.261 C 
ATOM      2  N   UNL d   1      -0.571  -3.731   0.523  0.00  0.00    -0.318 N 
ATOM      3  O   UNL d   1       1.558  -2.882   0.478  0.00  0.00    -0.267 OA
ATOM      4  H   UNL d   1      -1.556  -3.504   0.417  0.00  0.00     0.169 HD
ENDROOT
BRANCH   1   5
ATOM      5  C   UNL d   1      -0.191  -1.391   0.049  0.00  0.00     0.093 A 
ATOM      6  C   UNL d   1       0.492  -0.375  -0.717  0.00  0.00     0.086 A 
ATOM      7  N   UNL d   1      -0.236   0.745  -0.790  0.00  0.00    -0.259 N 
ATOM      8  O   UNL d   1      -1.385   0.497  -0.070  0.00  0.00    -0.241 OA
ATOM      9  HN  UNL d   1       0.009   1.607  -1.278  1.00  0.00     0.195 HD
ATOM     10  C   UNL d   1      -1.365  -0.770   0.428  0.00  0.00     0.090 A 
ATOM     11  C   UNL d   1      -2.540  -1.099   1.262  0.00  0.00     0.080 C 
BRANCH   6  12
ATOM     12  C   UNL d   1       1.796  -0.524  -1.349  0.00  0.00     0.037 C 
ATOM     13  C   UNL d   1       1.984  -1.548  -2.296  0.00  0.00     0.048 C 
ATOM     14 CL   UNL d   1       0.654  -2.315  -3.106  0.00  0.00    -0.083 Cl
ATOM     15  C   UNL d   1       3.266  -2.010  -2.596  0.00  0.00     0.025 C 
ATOM     16  C   UNL d   1       4.377  -1.413  -2.008  0.00  0.00     0.003 C 
ATOM     17  C   UNL d   1       4.209  -0.301  -1.184  0.00  0.00     0.025 C 
ATOM     18  C   UNL d   1       2.925   0.150  -0.857  0.00  0.00     0.048 C 
ATOM     19 CL   UNL d   1       2.819   1.517   0.200  0.00  0.00    -0.083 Cl
ENDBRANCH   6  12
ENDBRANCH   1   5
BRANCH   2  20
ATOM     20  C   UNL d   1      -0.343  -5.025   0.984  0.00  0.00     0.112 C 
ATOM     21  C   UNL d   1      -1.583  -5.720   1.447  0.00  0.00     0.315 C 
ATOM     22  O   UNL d   1      -1.436  -6.874   2.196  0.00  0.00    -0.273 OA
ATOM     23  O   UNL d   1      -2.685  -5.225   1.216  0.00  0.00    -0.257 OA
ATOM     24  C   UNL d   1      -0.174  -7.461   2.382  0.00  0.00     0.090 A 
ATOM     25  C   UNL d   1       0.960  -6.937   1.764  0.00  0.00     0.003 A 
ATOM     26  C   UNL d   1      -0.122  -8.585   3.206  0.00  0.00     0.041 A 
ATOM     27  C   UNL d   1       0.843  -5.651   1.074  0.00  0.00     0.050 C 
ATOM     28  C   UNL d   1       2.179  -7.612   1.925  0.00  0.00     0.050 A 
ATOM     29  C   UNL d   1       2.240  -8.759   2.745  0.00  0.00     0.103 A 
ATOM     30  C   UNL d   1       1.095  -9.233   3.402  0.00  0.00     0.039 A 
BRANCH  29  31
ATOM     31  N   UNL d   1       3.515  -9.464   2.941  0.00  0.00    -0.116 N 
ATOM     32  O   UNL d   1       4.509  -9.034   2.326  0.00  0.00    -0.532 OA
ATOM     33  O   UNL d   1       3.526 -10.441   3.702  0.00  0.00    -0.532 OA
ENDBRANCH  29  31
ENDBRANCH   2  20
TORSDOF 4
