REMARK  5 active torsions:
REMARK  status: ('A' for Active; 'I' for Inactive)
REMARK    1  A    between atoms: C_9  and  C_3 
REMARK    2  A    between atoms: C_4  and  C_8 
REMARK    3  A    between atoms: C_20  and  C_5 
REMARK    4  A    between atoms: O_10  and  C_20 
REMARK    5  A    between atoms: C_11  and  O_10 
ROOT
ATOM      1  N   UNL d   1       1.435  -0.533   0.039  0.00  0.00    -0.351 N 
ATOM      2  HN  UNL d   1       2.333  -1.011  -0.031  1.00  0.00     0.166 HD
ATOM      3  C   UNL d   1       1.274   0.841   0.073  0.00  0.00     0.049 A 
ATOM      4  C   UNL d   1       0.265  -1.139   0.110  0.00  0.00     0.075 A 
ATOM      5  S   UNL d   1      -1.094  -0.091   0.205  0.00  0.00    -0.084 SA
ATOM      6  C   UNL d   1      -0.041   1.263   0.132  0.00  0.00     0.082 A 
ENDROOT
BRANCH   3   7
ATOM      7  C   UNL d   1       2.429   1.733   0.009  0.00  0.00    -0.009 A 
ATOM      8  C   UNL d   1       3.596   1.308  -0.642  0.00  0.00     0.014 A 
ATOM      9  C   UNL d   1       4.719   2.140  -0.714  0.00  0.00     0.017 A 
ATOM     10  C   UNL d   1       4.699   3.413  -0.129  0.00  0.00     0.048 A 
ATOM     11  C   UNL d   1       3.534   3.833   0.531  0.00  0.00     0.017 A 
ATOM     12  C   UNL d   1       2.411   3.004   0.600  0.00  0.00     0.014 A 
BRANCH  10  13
ATOM     13  C   UNL d   1       5.898   4.327  -0.190  0.00  0.00     0.417 C 
ATOM     14  F   UNL d   1       6.956   3.802  -0.867  0.00  0.00    -0.166 F 
ATOM     15  F   UNL d   1       5.616   5.512  -0.800  0.00  0.00    -0.166 F 
ATOM     16  F   UNL d   1       6.369   4.650   1.047  0.00  0.00    -0.166 F 
ENDBRANCH  10  13
ENDBRANCH   3   7
BRANCH   4  17
ATOM     17  C   UNL d   1       0.092  -2.629   0.020  0.00  0.00     0.240 C 
BRANCH  17  18
ATOM     18  O   UNL d   1       0.073  -3.154   1.344  0.00  0.00    -0.343 OA
BRANCH  18  19
ATOM     19  C   UNL d   1      -0.127  -4.498   1.525  0.00  0.00     0.090 A 
ATOM     20  C   UNL d   1       0.130  -5.575   0.661  0.00  0.00     0.067 A 
ATOM     21 CL   UNL d   1       0.784  -5.455  -0.933  0.00  0.00    -0.081 Cl
ATOM     22  C   UNL d   1      -0.113  -6.892   1.089  0.00  0.00     0.026 A 
ATOM     23  C   UNL d   1      -0.607  -7.154   2.365  0.00  0.00     0.002 A 
ATOM     24  C   UNL d   1      -0.861  -6.097   3.228  0.00  0.00     0.003 A 
ATOM     25  C   UNL d   1      -0.617  -4.785   2.812  0.00  0.00     0.038 A 
ENDBRANCH  18  19
ENDBRANCH  17  18
ENDBRANCH   4  17
TORSDOF 5
