REMARK  4 active torsions:
REMARK  status: ('A' for Active; 'I' for Inactive)
REMARK    1  A    between atoms: C_5  and  C_1 
REMARK    2  A    between atoms: C_8  and  C_2 
REMARK    3  A    between atoms: C_6  and  N_10 
REMARK       I    between atoms: N_13  and  C_8 
REMARK    4  A    between atoms: N_10  and  N_13 
ROOT
ATOM      1  C   UNL d   1      -1.393  -0.729   0.067  0.00  0.00     0.086 A 
ATOM      2  C   UNL d   1      -0.093  -1.334   0.022  0.00  0.00     0.094 A 
ATOM      3  N   UNL d   1      -1.280   0.599  -0.112  0.00  0.00    -0.259 N 
ATOM      4  HN  UNL d   1      -2.046   1.270  -0.175  1.00  0.00     0.195 HD
ATOM      5  O   UNL d   1       0.059   0.882  -0.193  0.00  0.00    -0.241 OA
ATOM      6  C   UNL d   1       0.770  -0.266  -0.115  0.00  0.00     0.090 A 
ATOM      7  C   UNL d   1       2.237  -0.111  -0.167  0.00  0.00     0.080 C 
ENDROOT
BRANCH   2   8
ATOM      8  C   UNL d   1       0.337  -2.712   0.047  0.00  0.00     0.271 C 
ATOM      9  N   UNL d   1      -0.280  -3.522   0.992  0.00  0.00    -0.282 N 
ATOM     10  H   UNL d   1      -0.688  -3.086   1.815  0.00  0.00     0.184 HD
ATOM     11  O   UNL d   1       1.215  -3.127  -0.712  0.00  0.00    -0.266 OA
BRANCH   9  12
ATOM     12  N   UNL d   1       0.336  -4.781   1.180  0.00  0.00    -0.200 NA
ATOM     13  H   UNL d   1       0.408  -5.284   0.286  0.00  0.00     0.153 HD
BRANCH  12  14
ATOM     14  C   UNL d   1      -0.176  -5.602   2.219  0.00  0.00     0.071 A 
ATOM     15  C   UNL d   1      -0.328  -6.989   1.983  0.00  0.00     0.060 A 
ATOM     16  C   UNL d   1      -0.705  -7.876   2.995  0.00  0.00     0.049 A 
ATOM     17 CL   UNL d   1      -0.058  -7.649   0.402  0.00  0.00    -0.082 Cl
ATOM     18  C   UNL d   1      -0.921  -7.392   4.278  0.00  0.00     0.037 A 
ATOM     19  C   UNL d   1      -0.775  -6.036   4.554  0.00  0.00     0.049 A 
ATOM     20 CL   UNL d   1      -1.351  -8.478   5.540  0.00  0.00    -0.084 Cl
ATOM     21  C   UNL d   1      -0.404  -5.149   3.536  0.00  0.00     0.060 A 
ATOM     22 CL   UNL d   1      -0.181  -3.494   4.002  0.00  0.00    -0.082 Cl
ENDBRANCH  12  14
ENDBRANCH   9  12
ENDBRANCH   2   8
BRANCH   1  23
ATOM     23  C   UNL d   1      -2.733  -1.310   0.226  0.00  0.00     0.037 A 
ATOM     24  C   UNL d   1      -3.640  -0.772   1.170  0.00  0.00     0.048 A 
ATOM     25 CL   UNL d   1      -3.220   0.493   2.283  0.00  0.00    -0.083 Cl
ATOM     26  C   UNL d   1      -4.948  -1.264   1.287  0.00  0.00     0.025 A 
ATOM     27  C   UNL d   1      -5.372  -2.327   0.499  0.00  0.00     0.003 A 
ATOM     28  C   UNL d   1      -4.493  -2.884  -0.424  0.00  0.00     0.025 A 
ATOM     29  C   UNL d   1      -3.196  -2.368  -0.580  0.00  0.00     0.048 A 
ATOM     30 CL   UNL d   1      -2.262  -3.075  -1.855  0.00  0.00    -0.083 Cl
ENDBRANCH   1  23
TORSDOF 4
