REMARK  6 active torsions:
REMARK  status: ('A' for Active; 'I' for Inactive)
REMARK    1  A    between atoms: N_3  and  C_1 
REMARK    2  A    between atoms: C_6  and  C_2 
REMARK       I    between atoms: C_5  and  N_13 
REMARK    3  A    between atoms: C_10  and  C_5 
REMARK       I    between atoms: N_15  and  C_6 
REMARK    4  A    between atoms: N_13  and  N_15 
REMARK    5  A    between atoms: O_23  and  C_14 
REMARK    6  A    between atoms: O_24  and  C_16 
ROOT
ATOM      1  C   UNL d   1       1.267  -0.371   0.114  0.00  0.00     0.058 A 
ATOM      2  C   UNL d   1       0.339  -1.435   0.086  0.00  0.00     0.063 A 
ATOM      3  C   UNL d   1       0.757   0.940   0.172  0.00  0.00     0.070 A 
ATOM      4  C   UNL d   1      -1.044  -1.151   0.091  0.00  0.00     0.059 A 
ATOM      5  C   UNL d   1      -0.620   1.217   0.155  0.00  0.00     0.103 A 
ATOM      6  C   UNL d   1      -1.533   0.161   0.092  0.00  0.00     0.102 A 
ENDROOT
BRANCH   2   7
ATOM      7  C   UNL d   1       0.699  -2.881  -0.077  0.00  0.00     0.272 C 
ATOM      8  N   UNL d   1      -0.019  -3.767   0.715  0.00  0.00    -0.263 N 
ATOM      9  H   UNL d   1      -0.742  -3.498   1.376  0.00  0.00     0.190 HD
ATOM     10  O   UNL d   1       1.571  -3.230  -0.855  0.00  0.00    -0.266 OA
BRANCH   8  11
ATOM     11  N   UNL d   1       0.367  -5.116   0.735  0.00  0.00    -0.261 N 
ATOM     12  C   UNL d   1      -0.420  -6.046   1.398  0.00  0.00     0.293 C 
ATOM     13  O   UNL d   1      -1.452  -5.715   1.978  0.00  0.00    -0.264 OA
ATOM     14  H   UNL d   1       1.242  -5.372   0.282  0.00  0.00     0.190 HD
BRANCH  12  15
ATOM     15  C   UNL d   1       0.088  -7.403   1.348  0.00  0.00     0.144 A 
ATOM     16  O   UNL d   1       1.234  -7.670   0.641  0.00  0.00    -0.317 OA
ATOM     17  C   UNL d   1       1.466  -9.005   0.737  0.00  0.00     0.143 A 
ATOM     18  C   UNL d   1       0.499  -9.609   1.505  0.00  0.00     0.027 A 
ATOM     19  C   UNL d   1      -0.387  -8.578   1.904  0.00  0.00     0.045 A 
ENDBRANCH  12  15
ENDBRANCH   8  11
ENDBRANCH   2   7
BRANCH   1  20
ATOM     20  N   UNL d   1       2.697  -0.536   0.150  0.00  0.00    -0.319 N 
ATOM     21  C   UNL d   1       3.414  -1.470   0.911  0.00  0.00     0.013 C 
ATOM     22  C   UNL d   1       4.760  -1.331   0.635  0.00  0.00     0.027 C 
ATOM     23  C   UNL d   1       2.858  -2.422   1.914  0.00  0.00     0.068 C 
ATOM     24  C   UNL d   1       4.913  -0.226  -0.203  0.00  0.00     0.027 C 
ATOM     25  C   UNL d   1       3.657   0.284  -0.477  0.00  0.00     0.013 C 
ATOM     26  C   UNL d   1       3.428   1.461  -1.371  0.00  0.00     0.068 C 
ENDBRANCH   1  20
BRANCH   6  27
ATOM     27  O   UNL d   1      -2.872   0.442   0.043  0.00  0.00    -0.353 OA
ATOM     28  C   UNL d   1      -3.702  -0.523  -0.596  0.00  0.00     0.210 C 
ENDBRANCH   6  27
BRANCH   5  29
ATOM     29  O   UNL d   1      -0.895   2.559   0.138  0.00  0.00    -0.353 OA
ATOM     30  C   UNL d   1      -2.125   2.980   0.713  0.00  0.00     0.210 C 
ENDBRANCH   5  29
TORSDOF 6
