REMARK  2 active torsions:
REMARK  status: ('A' for Active; 'I' for Inactive)
REMARK    1  A    between atoms: N_9  and  N_5 
REMARK    2  A    between atoms: C_10  and  N_9 
ROOT
ATOM      1  C   UNL d   1       0.023   0.768   0.144  0.00  0.00     0.141 A 
ATOM      2  C   UNL d   1      -1.196  -0.089   0.287  0.00  0.00     0.290 A 
ATOM      3  N   UNL d   1       0.738  -1.415   0.255  0.00  0.00    -0.300 N 
ATOM      4  HN  UNL d   1       1.312  -2.258   0.279  1.00  0.00     0.186 HD
ATOM      5  N   UNL d   1       0.157   2.047   0.024  0.00  0.00    -0.293 N 
ATOM      6  HN  UNL d   1       1.076   2.480  -0.067  1.00  0.00     0.187 HD
ATOM      7  N   UNL d   1      -0.651  -1.356   0.334  0.00  0.00    -0.264 N 
ATOM      8  C   UNL d   1       1.165  -0.188   0.146  0.00  0.00     0.055 A 
ATOM      9  O   UNL d   1      -2.341   0.293   0.349  0.00  0.00    -0.264 OA
ATOM     10  C   UNL d   1       2.570   0.271   0.036  0.00  0.00     0.072 C 
ATOM     11  H   UNL d   1      -1.194  -2.207   0.431  0.00  0.00     0.190 HD
ENDROOT
BRANCH   5  12
ATOM     12  N   UNL d   1      -0.975   2.790   0.025  0.00  0.00    -0.299 N 
ATOM     13  H   UNL d   1      -1.909   2.402   0.203  0.00  0.00     0.187 HD
BRANCH  12  14
ATOM     14  C   UNL d   1      -0.890   4.189  -0.130  0.00  0.00     0.069 A 
ATOM     15  C   UNL d   1      -2.041   4.999  -0.119  0.00  0.00     0.062 A 
ATOM     16 CL   UNL d   1      -3.611   4.309   0.113  0.00  0.00    -0.082 Cl
ATOM     17  C   UNL d   1      -1.950   6.385  -0.295  0.00  0.00     0.026 A 
ATOM     18  C   UNL d   1      -0.707   6.986  -0.486  0.00  0.00     0.002 A 
ATOM     19  C   UNL d   1       0.443   6.203  -0.501  0.00  0.00     0.002 A 
ATOM     20  C   UNL d   1       0.349   4.820  -0.327  0.00  0.00     0.033 A 
ENDBRANCH  12  14
ENDBRANCH   5  12
TORSDOF 2
