REMARK  6 active torsions:
REMARK  status: ('A' for Active; 'I' for Inactive)
REMARK    1  A    between atoms: C_7  and  C_1 
REMARK    2  A    between atoms: O_16  and  C_8 
REMARK    3  A    between atoms: C_15  and  C_9 
REMARK    4  A    between atoms: O_17  and  C_10 
REMARK    5  A    between atoms: O_18  and  C_11 
REMARK    6  A    between atoms: O_24  and  C_19 
ROOT
ATOM      1  C   UNL d   1       1.196   1.185  -0.072  0.00  0.00     0.162 A 
ATOM      2  N   UNL d   1       0.265   0.910   0.785  0.00  0.00    -0.331 N 
ATOM      3  HN  UNL d   1      -0.000   1.427   1.623  1.00  0.00     0.168 HD
ATOM      4  C   UNL d   1      -0.276  -0.250   0.287  0.00  0.00     0.111 A 
ATOM      5  O   UNL d   1       1.350   0.349  -1.123  0.00  0.00    -0.255 OA
ATOM      6  C   UNL d   1       0.418  -0.636  -0.978  0.00  0.00     0.316 A 
ATOM      7  C   UNL d   1      -1.260  -0.918   0.901  0.00  0.00     0.047 C 
ATOM      8  O   UNL d   1       0.240  -1.578  -1.723  0.00  0.00    -0.257 OA
ENDROOT
BRANCH   1   9
ATOM      9  C   UNL d   1       2.133   2.318  -0.012  0.00  0.00     0.021 A 
ATOM     10  C   UNL d   1       2.041   3.215   1.058  0.00  0.00     0.055 A 
ATOM     11  C   UNL d   1       2.933   4.292   1.180  0.00  0.00     0.105 A 
ATOM     12  C   UNL d   1       3.932   4.486   0.197  0.00  0.00     0.135 A 
ATOM     13  C   UNL d   1       4.029   3.559  -0.867  0.00  0.00     0.105 A 
ATOM     14  C   UNL d   1       3.123   2.497  -0.974  0.00  0.00     0.055 A 
BRANCH  11  15
ATOM     15  O   UNL d   1       2.879   5.169   2.232  0.00  0.00    -0.353 OA
ATOM     16  C   UNL d   1       1.886   4.989   3.234  0.00  0.00     0.210 C 
ENDBRANCH  11  15
BRANCH  12  17
ATOM     17  O   UNL d   1       4.829   5.521   0.145  0.00  0.00    -0.351 OA
ATOM     18  C   UNL d   1       4.820   6.543   1.127  0.00  0.00     0.210 C 
ENDBRANCH  12  17
BRANCH  13  19
ATOM     19  O   UNL d   1       4.923   3.593  -1.911  0.00  0.00    -0.353 OA
ATOM     20  C   UNL d   1       6.235   4.061  -1.620  0.00  0.00     0.210 C 
ENDBRANCH  13  19
ENDBRANCH   1   9
BRANCH   7  21
ATOM     21  C   UNL d   1      -1.839  -2.186   0.461  0.00  0.00    -0.034 A 
ATOM     22  C   UNL d   1      -1.307  -3.391   0.929  0.00  0.00     0.014 A 
ATOM     23  C   UNL d   1      -1.858  -4.614   0.530  0.00  0.00     0.037 A 
ATOM     24  C   UNL d   1      -2.945  -4.641  -0.344  0.00  0.00     0.068 A 
ATOM     25  C   UNL d   1      -3.479  -3.436  -0.806  0.00  0.00     0.037 A 
ATOM     26  C   UNL d   1      -2.932  -2.212  -0.409  0.00  0.00     0.014 A 
BRANCH  24  27
ATOM     27  O   UNL d   1      -3.566  -5.765  -0.815  0.00  0.00    -0.356 OA
ATOM     28  C   UNL d   1      -3.034  -7.015  -0.394  0.00  0.00     0.210 C 
ENDBRANCH  24  27
ENDBRANCH   7  21
TORSDOF 6
