REMARK  6 active torsions:
REMARK  status: ('A' for Active; 'I' for Inactive)
REMARK    1  A    between atoms: N_5  and  C_1 
REMARK    2  A    between atoms: C_9  and  C_4 
REMARK       I    between atoms: C_8  and  N_5 
REMARK    3  A    between atoms: C_11  and  C_8 
REMARK    4  A    between atoms: C_10  and  C_9 
REMARK    5  A    between atoms: O_17  and  C_10 
REMARK    6  A    between atoms: O_21  and  C_16 
ROOT
ATOM      1  C   UNL d   1      -1.543   0.238  -0.140  0.00  0.00     0.152 A 
ATOM      2  N   UNL d   1      -1.254  -0.992   0.185  0.00  0.00    -0.339 N 
ATOM      3  HN  UNL d   1      -1.935  -1.700   0.459  1.00  0.00     0.168 HD
ATOM      4  C   UNL d   1       0.120  -1.195   0.104  0.00  0.00     0.033 A 
ATOM      5  S   UNL d   1      -0.231   1.232  -0.578  0.00  0.00    -0.057 SA
ATOM      6  C   UNL d   1       0.836  -0.096  -0.357  0.00  0.00     0.005 A 
ATOM      7  C   UNL d   1       2.291   0.059  -0.630  0.00  0.00     0.058 C 
ENDROOT
BRANCH   1   8
ATOM      8  N   UNL d   1      -2.748   0.879  -0.174  0.00  0.00    -0.303 N 
ATOM      9  C   UNL d   1      -3.947   0.222  -0.033  0.00  0.00     0.257 C 
ATOM     10  O   UNL d   1      -4.131  -0.986   0.035  0.00  0.00    -0.267 OA
ATOM     11  H   UNL d   1      -2.717   1.860  -0.405  0.00  0.00     0.171 HD
BRANCH   9  12
ATOM     12  C   UNL d   1      -5.136   1.122  -0.044  0.00  0.00     0.032 A 
ATOM     13  C   UNL d   1      -6.312   0.678  -0.660  0.00  0.00     0.020 A 
ATOM     14  C   UNL d   1      -7.435   1.512  -0.726  0.00  0.00     0.038 A 
ATOM     15  C   UNL d   1      -7.391   2.791  -0.169  0.00  0.00     0.068 A 
ATOM     16  C   UNL d   1      -6.228   3.217   0.478  0.00  0.00     0.038 A 
ATOM     17  C   UNL d   1      -5.103   2.390   0.547  0.00  0.00     0.020 A 
BRANCH  15  18
ATOM     18  O   UNL d   1      -8.404   3.710  -0.183  0.00  0.00    -0.356 OA
ATOM     19  C   UNL d   1      -9.580   3.361  -0.902  0.00  0.00     0.210 C 
ENDBRANCH  15  18
ENDBRANCH   9  12
ENDBRANCH   1   8
BRANCH   4  20
ATOM     20  C   UNL d   1       0.635  -2.553   0.469  0.00  0.00     0.169 C 
BRANCH  20  21
ATOM     21  C   UNL d   1       1.526  -2.545   1.691  0.00  0.00     0.264 C 
ATOM     22  O   UNL d   1       2.017  -1.560   2.228  0.00  0.00    -0.265 OA
BRANCH  21  23
ATOM     23  O   UNL d   1       1.764  -3.831   2.091  0.00  0.00    -0.326 OA
ATOM     24  C   UNL d   1       2.607  -3.934   3.240  0.00  0.00     0.213 C 
ENDBRANCH  21  23
ENDBRANCH  20  21
ENDBRANCH   4  20
TORSDOF 6
