REMARK  2 active torsions:
REMARK  status: ('A' for Active; 'I' for Inactive)
REMARK       I    between atoms: C_5  and  N_1 
REMARK       I    between atoms: C_6  and  N_2 
REMARK    1  A    between atoms: C_13  and  C_5 
REMARK    2  A    between atoms: C_14  and  C_6 
ROOT
ATOM      1  N   UNL d   1      -0.762  -1.092   0.190  0.00  0.00    -0.274 N 
ATOM      2  N   UNL d   1       0.782   1.104   0.146  0.00  0.00    -0.274 N 
ATOM      3  C   UNL d   1      -1.453   0.078  -0.138  0.00  0.00     0.245 C 
ATOM      4  C   UNL d   1       1.460  -0.076  -0.182  0.00  0.00     0.245 C 
ATOM      5  C   UNL d   1      -1.359  -2.261   0.684  0.00  0.00     0.260 C 
ATOM      6  C   UNL d   1       1.395   2.286   0.594  0.00  0.00     0.260 C 
ATOM      7  C   UNL d   1       0.529  -1.248  -0.477  0.00  0.00     0.238 C 
ATOM      8  C   UNL d   1      -0.535   1.250  -0.471  0.00  0.00     0.238 C 
ATOM      9  O   UNL d   1       2.669  -0.165  -0.367  0.00  0.00    -0.271 OA
ATOM     10  O   UNL d   1      -2.668   0.158  -0.293  0.00  0.00    -0.271 OA
ATOM     11  O   UNL d   1      -0.880  -3.374   0.457  0.00  0.00    -0.267 OA
ATOM     12  O   UNL d   1       0.889   3.390   0.385  0.00  0.00    -0.267 OA
ENDROOT
BRANCH   5  13
ATOM     13  C   UNL d   1      -2.620  -2.200   1.483  0.00  0.00     0.032 A 
ATOM     14  C   UNL d   1      -3.489  -3.300   1.412  0.00  0.00     0.017 A 
ATOM     15  C   UNL d   1      -4.683  -3.310   2.136  0.00  0.00     0.001 A 
ATOM     16  C   UNL d   1      -5.014  -2.223   2.942  0.00  0.00     0.000 A 
ATOM     17  C   UNL d   1      -4.142  -1.140   3.045  0.00  0.00     0.001 A 
ATOM     18  C   UNL d   1      -2.937  -1.135   2.334  0.00  0.00     0.017 A 
ENDBRANCH   5  13
BRANCH   6  19
ATOM     19  C   UNL d   1       2.707   2.255   1.303  0.00  0.00     0.032 A 
ATOM     20  C   UNL d   1       3.568   3.350   1.124  0.00  0.00     0.017 A 
ATOM     21  C   UNL d   1       4.809   3.389   1.762  0.00  0.00     0.001 A 
ATOM     22  C   UNL d   1       5.197   2.339   2.589  0.00  0.00     0.000 A 
ATOM     23  C   UNL d   1       4.334   1.262   2.801  0.00  0.00     0.001 A 
ATOM     24  C   UNL d   1       3.084   1.227   2.176  0.00  0.00     0.017 A 
ENDBRANCH   6  19
TORSDOF 2
