REMARK  9 active torsions:
REMARK  status: ('A' for Active; 'I' for Inactive)
REMARK    1  A    between atoms: C_10  and  C_1 
REMARK    2  A    between atoms: C_13  and  N_4 
REMARK    3  A    between atoms: C_8  and  C_11 
REMARK    4  A    between atoms: C_9  and  C_12 
REMARK    5  A    between atoms: C_15  and  C_13 
REMARK    6  A    between atoms: C_14  and  N_22 
REMARK    7  A    between atoms: N_21  and  C_14 
REMARK       I    between atoms: N_23  and  C_15 
REMARK    8  A    between atoms: C_25  and  N_21 
REMARK    9  A    between atoms: N_22  and  N_23 
ROOT
ATOM      1  C   UNL d   1      -1.274   0.147  -0.517  0.00  0.00     0.144 A 
ATOM      2  N   UNL d   1      -0.055   0.485  -0.973  0.00  0.00    -0.268 N 
ATOM      3  HN  UNL d   1       0.289   0.549  -1.932  1.00  0.00     0.190 HD
ATOM      4  N   UNL d   1       0.588   0.718   0.193  0.00  0.00    -0.207 N 
ATOM      5  N   UNL d   1      -1.357   0.196   0.854  0.00  0.00    -0.266 N 
ATOM      6  HN  UNL d   1      -2.175  -0.026   1.422  1.00  0.00     0.186 HD
ATOM      7  N   UNL d   1      -0.171   0.587   1.297  0.00  0.00    -0.002 NA
ENDROOT
BRANCH   4   8
ATOM      8  C   UNL d   1       1.820   1.476   0.216  0.00  0.00     0.271 C 
BRANCH   8   9
ATOM      9  C   UNL d   1       3.014   0.586   0.001  0.00  0.00     0.257 C 
ATOM     10  N   UNL d   1       4.081   1.088  -0.708  0.00  0.00    -0.266 N 
ATOM     11  H   UNL d   1       4.902   0.492  -0.798  0.00  0.00     0.190 HD
ATOM     12  O   UNL d   1       3.097  -0.549   0.474  0.00  0.00    -0.270 OA
BRANCH  10  13
ATOM     13  N   UNL d   1       4.046   2.263  -1.463  0.00  0.00    -0.273 N 
ATOM     14  H   UNL d   1       3.345   2.307  -2.199  0.00  0.00     0.189 HD
BRANCH  13  15
ATOM     15  C   UNL d   1       5.184   3.030  -1.614  0.00  0.00     0.191 C 
ATOM     16  S   UNL d   1       6.399   3.169  -0.478  0.00  0.00    -0.039 SA
BRANCH  15  17
ATOM     17  N   UNL d   1       5.241   3.796  -2.753  0.00  0.00    -0.332 N 
ATOM     18  H   UNL d   1       5.871   4.591  -2.690  0.00  0.00     0.168 HD
BRANCH  17  19
ATOM     19  C   UNL d   1       4.789   3.466  -4.049  0.00  0.00     0.036 A 
ATOM     20  C   UNL d   1       4.492   2.154  -4.435  0.00  0.00     0.055 A 
ATOM     21  C   UNL d   1       4.083   1.868  -5.742  0.00  0.00     0.058 A 
ATOM     22 CL   UNL d   1       3.741   0.219  -6.128  0.00  0.00    -0.082 Cl
ATOM     23  C   UNL d   1       3.978   2.897  -6.680  0.00  0.00     0.055 A 
ATOM     24  C   UNL d   1       4.299   4.205  -6.306  0.00  0.00     0.028 A 
ATOM     25 CL   UNL d   1       3.476   2.620  -8.308  0.00  0.00    -0.083 Cl
ATOM     26  C   UNL d   1       4.716   4.486  -5.001  0.00  0.00     0.031 A 
ENDBRANCH  17  19
ENDBRANCH  15  17
ENDBRANCH  13  15
ENDBRANCH  10  13
ENDBRANCH   8   9
ENDBRANCH   4   8
BRANCH   1  27
ATOM     27  C   UNL d   1      -2.423  -0.113  -1.377  0.00  0.00     0.012 A 
ATOM     28  C   UNL d   1      -2.241  -0.302  -2.756  0.00  0.00     0.031 A 
ATOM     29  C   UNL d   1      -3.336  -0.450  -3.622  0.00  0.00     0.049 A 
ATOM     30  C   UNL d   1      -4.632  -0.416  -3.084  0.00  0.00     0.032 A 
ATOM     31  C   UNL d   1      -4.842  -0.247  -1.705  0.00  0.00     0.049 A 
ATOM     32  C   UNL d   1      -3.727  -0.104  -0.859  0.00  0.00     0.031 A 
BRANCH  29  33
ATOM     33  C   UNL d   1      -3.132  -0.594  -5.111  0.00  0.00     0.417 C 
ATOM     34  F   UNL d   1      -1.826  -0.727  -5.473  0.00  0.00    -0.166 F 
ATOM     35  F   UNL d   1      -3.777  -1.677  -5.624  0.00  0.00    -0.166 F 
ATOM     36  F   UNL d   1      -3.601   0.484  -5.797  0.00  0.00    -0.166 F 
ENDBRANCH  29  33
BRANCH  31  37
ATOM     37  C   UNL d   1      -6.250  -0.174  -1.163  0.00  0.00     0.417 C 
ATOM     38  F   UNL d   1      -6.315  -0.107   0.193  0.00  0.00    -0.166 F 
ATOM     39  F   UNL d   1      -6.918   0.923  -1.624  0.00  0.00    -0.166 F 
ATOM     40  F   UNL d   1      -7.005  -1.248  -1.526  0.00  0.00    -0.166 F 
ENDBRANCH  31  37
ENDBRANCH   1  27
TORSDOF 9
