REMARK  6 active torsions:
REMARK  status: ('A' for Active; 'I' for Inactive)
REMARK    1  A    between atoms: N_3  and  S_1 
REMARK    2  A    between atoms: C_9  and  S_1 
REMARK    3  A    between atoms: C_2  and  N_3 
REMARK    4  A    between atoms: N_10  and  C_4 
REMARK    5  A    between atoms: C_20  and  N_10 
REMARK       I    between atoms: C_15  and  N_16 
REMARK    6  A    between atoms: N_16  and  C_21 
ROOT
ATOM      1  C   UNL d   1       1.003  -2.167   1.742  0.00  0.00     0.134 A 
ATOM      2  C   UNL d   1       2.333  -2.573   1.515  0.00  0.00     0.125 A 
ATOM      3  N   UNL d   1      -0.002  -3.006   2.059  0.00  0.00    -0.342 N 
ATOM      4  HN  UNL d   1      -0.959  -2.681   2.196  1.00  0.00     0.167 HD
ATOM      5  N   UNL d   1       2.655  -3.882   1.647  0.00  0.00    -0.342 N 
ATOM      6  HN  UNL d   1       3.611  -4.206   1.500  1.00  0.00     0.167 HD
ATOM      7  C   UNL d   1       0.340  -4.303   2.183  0.00  0.00     0.060 A 
ATOM      8  C   UNL d   1       1.674  -4.741   1.978  0.00  0.00     0.060 A 
ATOM      9  C   UNL d   1       1.979  -6.086   2.141  0.00  0.00     0.032 A 
ATOM     10  C   UNL d   1      -0.626  -5.240   2.530  0.00  0.00     0.032 A 
ATOM     11  C   UNL d   1       1.003  -7.013   2.507  0.00  0.00     0.002 A 
ATOM     12  C   UNL d   1      -0.305  -6.589   2.699  0.00  0.00     0.002 A 
ENDROOT
BRANCH   1  13
ATOM     13  N   UNL d   1       0.546  -0.830   1.584  0.00  0.00    -0.163 NA
ATOM     14  H   UNL d   1      -0.300  -0.693   2.137  0.00  0.00     0.147 HD
BRANCH  13  15
ATOM     15  S   UNL d   1       0.286  -0.349  -0.011  0.00  0.00     0.247 S 
ATOM     16  O   UNL d   1       1.466  -0.682  -0.783  0.00  0.00    -0.205 OA
ATOM     17  O   UNL d   1      -0.203   1.012   0.046  0.00  0.00    -0.205 OA
BRANCH  15  18
ATOM     18  C   UNL d   1      -1.070  -1.368  -0.552  0.00  0.00     0.075 A 
ATOM     19  C   UNL d   1      -2.383  -0.935  -0.353  0.00  0.00     0.027 A 
ATOM     20  C   UNL d   1      -3.447  -1.751  -0.754  0.00  0.00     0.031 A 
ATOM     21  C   UNL d   1      -3.207  -2.998  -1.355  0.00  0.00     0.034 A 
ATOM     22  C   UNL d   1      -1.885  -3.391  -1.586  0.00  0.00     0.031 A 
ATOM     23  C   UNL d   1      -0.816  -2.577  -1.197  0.00  0.00     0.027 A 
BRANCH  21  24
ATOM     24  N   UNL d   1      -4.333  -3.786  -1.688  0.00  0.00    -0.328 N 
ATOM     25  C   UNL d   1      -4.325  -5.062  -2.218  0.00  0.00     0.218 C 
ATOM     26  O   UNL d   1      -3.338  -5.734  -2.507  0.00  0.00    -0.274 OA
ATOM     27  C   UNL d   1      -5.706  -5.637  -2.426  0.00  0.00     0.117 C 
ATOM     28  H   UNL d   1      -5.236  -3.377  -1.484  0.00  0.00     0.169 HD
ENDBRANCH  21  24
ENDBRANCH  15  18
ENDBRANCH  13  15
ENDBRANCH   1  13
BRANCH   2  29
ATOM     29  N   UNL d   1       3.356  -1.605   1.311  0.00  0.00    -0.243 NA
ATOM     30  H   UNL d   1       2.952  -0.853   0.746  0.00  0.00     0.135 HD
BRANCH  29  31
ATOM     31  C   UNL d   1       4.629  -1.899   0.761  0.00  0.00     0.014 A 
ATOM     32  C   UNL d   1       4.772  -2.721  -0.364  0.00  0.00     0.025 A 
ATOM     33  C   UNL d   1       6.017  -2.883  -0.977  0.00  0.00     0.025 A 
ATOM     34  C   UNL d   1       7.125  -2.206  -0.476  0.00  0.00     0.034 A 
ATOM     35  C   UNL d   1       6.998  -1.365   0.627  0.00  0.00     0.025 A 
ATOM     36 CL   UNL d   1       8.657  -2.394  -1.238  0.00  0.00    -0.084 Cl
ATOM     37  C   UNL d   1       5.747  -1.200   1.231  0.00  0.00     0.025 A 
ENDBRANCH  29  31
ENDBRANCH   2  29
TORSDOF 6
