REMARK  5 active torsions:
REMARK  status: ('A' for Active; 'I' for Inactive)
REMARK    1  A    between atoms: C_4  and  C_1 
REMARK       I    between atoms: N_11  and  C_4 
REMARK    2  A    between atoms: N_7  and  N_11 
REMARK    3  A    between atoms: N_16  and  N_9 
REMARK    4  A    between atoms: C_12  and  C_13 
REMARK    5  A    between atoms: C_17  and  N_16 
ROOT
ATOM      1  N   UNL d   1       4.105  -2.503   0.101  0.00  0.00    -0.308 N 
ATOM      2  HN  UNL d   1       3.085  -2.492   0.103  1.00  0.00     0.186 HD
ATOM      3  C   UNL d   1       4.765  -3.618   0.113  0.00  0.00     0.125 C 
ENDROOT
BRANCH   1   4
ATOM      4  N   UNL d   1       4.836  -1.328   0.086  0.00  0.00    -0.266 N 
ATOM      5  C   UNL d   1       6.017  -1.132  -0.641  0.00  0.00     0.278 C 
ATOM      6  O   UNL d   1       6.534  -2.054  -1.270  0.00  0.00    -0.265 OA
ATOM      7  H   UNL d   1       4.308  -0.509   0.375  0.00  0.00     0.190 HD
BRANCH   5   8
ATOM      8  C   UNL d   1       6.586   0.217  -0.618  0.00  0.00     0.097 A 
ATOM      9  S   UNL d   1       8.120   0.406  -1.376  0.00  0.00    -0.082 SA
ATOM     10  C   UNL d   1       8.209   2.079  -1.028  0.00  0.00     0.017 A 
ATOM     11  C   UNL d   1       9.264   2.945  -1.376  0.00  0.00     0.020 A 
ATOM     12  C   UNL d   1       7.081   2.519  -0.335  0.00  0.00     0.004 A 
ATOM     13  C   UNL d   1       9.182   4.291  -1.021  0.00  0.00     0.001 A 
ATOM     14  C   UNL d   1       8.077   4.766  -0.333  0.00  0.00     0.001 A 
ATOM     15  C   UNL d   1       7.032   3.898   0.012  0.00  0.00     0.014 A 
ATOM     16  C   UNL d   1       6.154   1.426  -0.106  0.00  0.00     0.068 A 
ATOM     17 CL   UNL d   1       4.667   1.694   0.724  0.00  0.00    -0.082 Cl
ENDBRANCH   5   8
ENDBRANCH   1   4
BRANCH   3  18
ATOM     18  C   UNL d   1       4.016  -4.912   0.069  0.00  0.00     0.125 C 
ATOM     19  N   UNL d   1       4.538  -5.938   0.649  0.00  0.00    -0.310 N 
ATOM     20  HN  UNL d   1       5.423  -5.886   1.154  1.00  0.00     0.186 HD
BRANCH  19  21
ATOM     21  N   UNL d   1       3.825  -7.100   0.542  0.00  0.00    -0.301 N 
ATOM     22  H   UNL d   1       3.365  -7.300  -0.346  0.00  0.00     0.187 HD
BRANCH  21  23
ATOM     23  C   UNL d   1       4.431  -8.250   1.107  0.00  0.00     0.048 A 
ATOM     24  C   UNL d   1       5.266  -8.158   2.229  0.00  0.00     0.031 A 
ATOM     25  C   UNL d   1       5.855  -9.295   2.788  0.00  0.00     0.002 A 
ATOM     26  C   UNL d   1       5.604 -10.549   2.238  0.00  0.00     0.000 A 
ATOM     27  C   UNL d   1       4.748 -10.665   1.144  0.00  0.00     0.002 A 
ATOM     28  C   UNL d   1       4.152  -9.524   0.593  0.00  0.00     0.031 A 
ENDBRANCH  21  23
ENDBRANCH  19  21
ENDBRANCH   3  18
TORSDOF 5
