REMARK  9 active torsions:
REMARK  status: ('A' for Active; 'I' for Inactive)
REMARK    1  A    between atoms: C_7  and  C_1 
REMARK    2  A    between atoms: C_2  and  C_4 
REMARK    3  A    between atoms: C_3  and  C_5 
REMARK    4  A    between atoms: C_18  and  C_9 
REMARK    5  A    between atoms: C_10  and  C_33 
REMARK    6  A    between atoms: C_17  and  C_14 
REMARK    7  A    between atoms: O_32  and  C_19 
REMARK    8  A    between atoms: O_31  and  N_20 
REMARK    9  A    between atoms: C_33  and  O_31 
ROOT
ATOM      1  C   UNL d   1       1.464   0.582   0.205  0.00  0.00     0.086 A 
ATOM      2  O   UNL d   1       1.366  -0.736  -0.163  0.00  0.00    -0.309 OA
ATOM      3  C   UNL d   1       0.280   0.978   0.798  0.00  0.00     0.041 A 
ATOM      4  C   UNL d   1       0.100  -1.156   0.147  0.00  0.00     0.093 A 
ATOM      5  C   UNL d   1      -0.603  -0.122   0.728  0.00  0.00     0.041 A 
ENDROOT
BRANCH   4   6
ATOM      6  C   UNL d   1      -0.334  -2.497  -0.148  0.00  0.00     0.151 C 
ATOM      7  N   UNL d   1       0.485  -3.471  -0.382  0.00  0.00    -0.275 N 
ATOM      8  HN  UNL d   1       1.502  -3.400  -0.427  1.00  0.00     0.193 HD
BRANCH   7   9
ATOM      9  O   UNL d   1      -0.268  -4.650  -0.563  0.00  0.00    -0.276 OA
BRANCH   9  10
ATOM     10  C   UNL d   1       0.622  -5.762  -0.645  0.00  0.00     0.242 C 
BRANCH  10  11
ATOM     11  C   UNL d   1      -0.120  -7.030  -1.011  0.00  0.00     0.002 A 
ATOM     12  C   UNL d   1      -0.133  -8.055  -0.018  0.00  0.00     0.027 A 
ATOM     13  C   UNL d   1      -0.739  -9.301  -0.230  0.00  0.00     0.010 A 
ATOM     14  C   UNL d   1      -1.371  -9.525  -1.450  0.00  0.00     0.018 A 
ATOM     15  C   UNL d   1      -1.375  -8.534  -2.431  0.00  0.00     0.038 A 
ATOM     16  C   UNL d   1      -0.749  -7.289  -2.240  0.00  0.00     0.076 A 
BRANCH  13  17
ATOM     17  C   UNL d   1      -0.747 -10.423   0.764  0.00  0.00     0.155 C 
ATOM     18  O   UNL d   1      -1.355 -11.460   0.495  0.00  0.00    -0.293 OA
ATOM     19  C   UNL d   1      -0.029 -10.309   2.085  0.00  0.00     0.096 C 
ENDBRANCH  13  17
BRANCH  16  20
ATOM     20  O   UNL d   1      -0.862  -6.537  -3.371  0.00  0.00    -0.355 OA
ATOM     21  C   UNL d   1      -0.359  -5.222  -3.472  0.00  0.00     0.210 C 
ENDBRANCH  16  20
ENDBRANCH  10  11
ENDBRANCH   9  10
ENDBRANCH   7   9
ENDBRANCH   4   6
BRANCH   1  22
ATOM     22  C   UNL d   1       2.698   1.293  -0.135  0.00  0.00    -0.001 A 
ATOM     23  C   UNL d   1       3.776   0.663  -0.772  0.00  0.00     0.030 A 
ATOM     24  C   UNL d   1       4.906   1.395  -1.192  0.00  0.00     0.049 A 
ATOM     25  C   UNL d   1       4.958   2.777  -0.946  0.00  0.00     0.032 A 
ATOM     26  C   UNL d   1       3.900   3.430  -0.303  0.00  0.00     0.049 A 
ATOM     27  C   UNL d   1       2.788   2.675   0.107  0.00  0.00     0.030 A 
BRANCH  24  28
ATOM     28  C   UNL d   1       6.025   0.702  -1.936  0.00  0.00     0.417 C 
ATOM     29  F   UNL d   1       6.984   1.559  -2.386  0.00  0.00    -0.166 F 
ATOM     30  F   UNL d   1       6.676  -0.216  -1.171  0.00  0.00    -0.166 F 
ATOM     31  F   UNL d   1       5.582   0.033  -3.036  0.00  0.00    -0.166 F 
ENDBRANCH  24  28
BRANCH  26  32
ATOM     32  C   UNL d   1       3.903   4.925  -0.087  0.00  0.00     0.417 C 
ATOM     33  F   UNL d   1       5.005   5.546  -0.588  0.00  0.00    -0.166 F 
ATOM     34  F   UNL d   1       2.834   5.529  -0.674  0.00  0.00    -0.166 F 
ATOM     35  F   UNL d   1       3.845   5.261   1.230  0.00  0.00    -0.166 F 
ENDBRANCH  26  32
ENDBRANCH   1  22
TORSDOF 9
