REMARK  9 active torsions:
REMARK  status: ('A' for Active; 'I' for Inactive)
REMARK    1  A    between atoms: C_3  and  C_1 
REMARK       I    between atoms: N_7  and  C_1 
REMARK    2  A    between atoms: C_2  and  C_4 
REMARK    3  A    between atoms: O_9  and  C_2 
REMARK    4  A    between atoms: C_11  and  N_7 
REMARK    5  A    between atoms: N_8  and  C_12 
REMARK    6  A    between atoms: C_13  and  N_8 
REMARK    7  A    between atoms: C_14  and  N_8 
REMARK    8  A    between atoms: C_10  and  C_11 
REMARK    9  A    between atoms: C_12  and  C_10 
ROOT
ATOM      1  C   UNL d   1       2.103   2.282  -0.225  0.00  0.00     0.241 C 
ATOM      2  O   UNL d   1       2.044   1.563  -1.216  0.00  0.00    -0.269 OA
ATOM      3  N   UNL d   1       2.620   1.905   0.989  0.00  0.00    -0.358 N 
ATOM      4  H   UNL d   1       2.652   2.572   1.748  0.00  0.00     0.162 HD
ENDROOT
BRANCH   3   5
ATOM      5  C   UNL d   1       3.183   0.587   1.220  0.00  0.00     0.124 C 
BRANCH   5   6
ATOM      6  C   UNL d   1       4.657   0.492   0.821  0.00  0.00     0.050 C 
BRANCH   6   7
ATOM      7  C   UNL d   1       5.546   1.413   1.672  0.00  0.00     0.274 C 
BRANCH   7   8
ATOM      8  N   UNL d   1       6.996   1.342   1.388  0.00  0.00     0.087 N 
BRANCH   8   9
ATOM      9  C   UNL d   1       7.335   1.546  -0.030  0.00  0.00     0.268 C 
ATOM     10  C   UNL d   1       7.028   2.926  -0.605  0.00  0.00     0.037 C 
ENDBRANCH   8   9
BRANCH   8  11
ATOM     11  C   UNL d   1       7.711   2.254   2.304  0.00  0.00     0.268 C 
ATOM     12  C   UNL d   1       9.232   2.224   2.188  0.00  0.00     0.037 C 
ENDBRANCH   8  11
ENDBRANCH   7   8
ENDBRANCH   6   7
ENDBRANCH   5   6
ENDBRANCH   3   5
BRANCH   1  13
ATOM     13  C   UNL d   1       1.607   3.675  -0.231  0.00  0.00     0.080 C 
ATOM     14  C   UNL d   1       0.999   4.152  -1.328  0.00  0.00     0.086 C 
BRANCH  14  15
ATOM     15  C   UNL d   1       0.507   5.538  -1.315  0.00  0.00     0.165 C 
ATOM     16  O   UNL d   1       0.627   6.301  -0.371  0.00  0.00    -0.647 OA
BRANCH  15  17
ATOM     17  O   UNL d   1      -0.099   5.877  -2.469  0.00  0.00    -0.773 OA
ATOM     18  H   UNL d   1      -0.134   5.177  -3.147  0.00  0.00     0.167 HD
ENDBRANCH  15  17
ENDBRANCH  14  15
ENDBRANCH   1  13
TORSDOF 9
