REMARK  7 active torsions:
REMARK  status: ('A' for Active; 'I' for Inactive)
REMARK       I    between atoms: N_4  and  C_1 
REMARK    1  A    between atoms: C_6  and  C_1 
REMARK    2  A    between atoms: C_5  and  C_2 
REMARK    3  A    between atoms: C_3  and  N_4 
REMARK       I    between atoms: N_7  and  C_5 
REMARK    4  A    between atoms: C_16  and  C_6 
REMARK    5  A    between atoms: C_18  and  C_6 
REMARK    6  A    between atoms: C_17  and  N_7 
REMARK    7  A    between atoms: C_9  and  C_17 
ROOT
ATOM      1  C   UNL d   1       2.286   2.843   0.399  0.00  0.00     0.097 A 
ATOM      2  C   UNL d   1       1.172   2.275   1.044  0.00  0.00     0.053 A 
ATOM      3  C   UNL d   1       2.887   3.979   0.978  0.00  0.00     0.134 A 
ATOM      4  F   UNL d   1       3.964   4.551   0.417  0.00  0.00    -0.205 F 
ATOM      5  C   UNL d   1       0.656   2.903   2.202  0.00  0.00     0.031 A 
ATOM      6  C   UNL d   1       1.265   4.032   2.751  0.00  0.00     0.005 A 
ATOM      7  C   UNL d   1       2.391   4.566   2.141  0.00  0.00     0.043 A 
ENDROOT
BRANCH   2   8
ATOM      8  N   UNL d   1       0.432   1.131   0.623  0.00  0.00    -0.326 N 
ATOM      9  C   UNL d   1       1.017  -0.119   0.510  0.00  0.00     0.231 C 
ATOM     10  O   UNL d   1       2.223  -0.317   0.666  0.00  0.00    -0.272 OA
ATOM     11  H   UNL d   1      -0.518   1.083   0.974  0.00  0.00     0.169 HD
BRANCH   9  12
ATOM     12  C   UNL d   1       0.061  -1.283   0.213  0.00  0.00     0.115 C 
BRANCH  12  13
ATOM     13  C   UNL d   1      -0.666  -1.772   1.465  0.00  0.00    -0.045 A 
ATOM     14  C   UNL d   1      -1.897  -1.244   1.887  0.00  0.00     0.008 A 
ATOM     15  C   UNL d   1      -2.590  -1.819   2.956  0.00  0.00     0.001 A 
ATOM     16  C   UNL d   1      -2.057  -2.916   3.629  0.00  0.00     0.000 A 
ATOM     17  C   UNL d   1      -0.819  -3.426   3.249  0.00  0.00     0.001 A 
ATOM     18  C   UNL d   1      -0.125  -2.853   2.182  0.00  0.00     0.008 A 
ENDBRANCH  12  13
BRANCH  12  19
ATOM     19  C   UNL d   1      -0.877  -1.024  -0.986  0.00  0.00     0.003 C 
ATOM     20  C   UNL d   1      -1.756  -2.235  -1.332  0.00  0.00     0.006 C 
ATOM     21  C   UNL d   1      -2.178  -2.026  -2.782  0.00  0.00     0.000 C 
ATOM     22  C   UNL d   1      -1.208  -1.000  -3.362  0.00  0.00     0.000 C 
ATOM     23  C   UNL d   1      -0.130  -0.804  -2.304  0.00  0.00     0.006 C 
ENDBRANCH  12  19
ENDBRANCH   9  12
ENDBRANCH   2   8
BRANCH   1  24
ATOM     24  C   UNL d   1       2.765   2.534  -0.977  0.00  0.00     0.257 C 
ATOM     25  N   UNL d   1       3.092   1.240  -1.298  0.00  0.00    -0.352 N 
ATOM     26  H   UNL d   1       3.002   0.513  -0.594  0.00  0.00     0.163 HD
ATOM     27  O   UNL d   1       2.879   3.451  -1.788  0.00  0.00    -0.267 OA
BRANCH  25  28
ATOM     28  C   UNL d   1       3.593   0.919  -2.617  0.00  0.00     0.169 C 
BRANCH  28  29
ATOM     29  C   UNL d   1       4.026  -0.513  -2.717  0.00  0.00     0.000 A 
ATOM     30  S   UNL d   1       4.070  -1.256  -4.269  0.00  0.00    -0.105 SA
ATOM     31  C   UNL d   1       4.557  -2.757  -3.616  0.00  0.00     0.050 A 
ATOM     32  C   UNL d   1       4.728  -2.694  -2.253  0.00  0.00     0.008 A 
ATOM     33  C   UNL d   1       4.459  -1.391  -1.740  0.00  0.00     0.017 A 
ENDBRANCH  28  29
ENDBRANCH  25  28
ENDBRANCH   1  24
TORSDOF 7
