REMARK  4 active torsions:
REMARK  status: ('A' for Active; 'I' for Inactive)
REMARK    1  A    between atoms: C_5  and  O_10 
REMARK    2  A    between atoms: O_11  and  C_5 
REMARK    3  A    between atoms: O_10  and  C_8 
REMARK    4  A    between atoms: C_9  and  O_11 
ROOT
ATOM      1  N   UNL d   1      10.135   6.131   1.185  0.00  0.00    -0.191 NA
ATOM      2  C   UNL d   1       9.402   5.245   1.035  0.00  0.00     0.099 C 
ATOM      3  C   UNL d   1       8.485   4.159   0.843  0.00  0.00     0.044 A 
ATOM      4  C   UNL d   1       6.675   2.045   0.467  0.00  0.00     0.071 A 
ATOM      5  C   UNL d   1       7.272   4.377   0.184  0.00  0.00     0.025 A 
ATOM      6  C   UNL d   1       8.797   2.878   1.306  0.00  0.00     0.025 A 
ATOM      7  C   UNL d   1       7.897   1.825   1.109  0.00  0.00     0.038 A 
ATOM      8  C   UNL d   1       6.371   3.323  -0.006  0.00  0.00     0.038 A 
ENDROOT
BRANCH   4   9
ATOM      9  O   UNL d   1       5.880   0.939   0.324  0.00  0.00    -0.326 OA
BRANCH   9  10
ATOM     10  C   UNL d   1       4.477   1.201   0.203  0.00  0.00     0.351 C 
BRANCH  10  11
ATOM     11  O   UNL d   1       3.745  -0.027   0.143  0.00  0.00    -0.326 OA
BRANCH  11  12
ATOM     12  C   UNL d   1       2.384   0.079   0.036  0.00  0.00     0.071 A 
ATOM     13  C   UNL d   1       1.709  -1.139  -0.081  0.00  0.00     0.038 A 
ATOM     14  C   UNL d   1       0.314  -1.177  -0.176  0.00  0.00     0.025 A 
ATOM     15  C   UNL d   1      -0.420   0.011  -0.155  0.00  0.00     0.044 A 
ATOM     16  C   UNL d   1      -1.851  -0.021  -0.239  0.00  0.00     0.099 C 
ATOM     17  C   UNL d   1       0.251   1.232  -0.047  0.00  0.00     0.025 A 
ATOM     18  N   UNL d   1      -3.008  -0.039  -0.306  0.00  0.00    -0.191 NA
ATOM     19  C   UNL d   1       1.648   1.267   0.046  0.00  0.00     0.038 A 
ENDBRANCH  11  12
ENDBRANCH  10  11
ENDBRANCH   9  10
ENDBRANCH   4   9
TORSDOF 4
