REMARK  1 active torsions:
REMARK  status: ('A' for Active; 'I' for Inactive)
REMARK       I    between atoms: C_2  and  N_1 
REMARK    1  A    between atoms: C_11  and  C_2 
ROOT
ATOM      1  N   UNL d   1       1.203   1.406  -0.189  0.00  0.00    -0.292 N 
ATOM      2  C   UNL d   1       1.274   2.808  -0.434  0.00  0.00     0.259 C 
ATOM      3  C   UNL d   1      -0.066   0.685  -0.180  0.00  0.00     0.049 A 
ATOM      4  C   UNL d   1       2.434   0.639   0.140  0.00  0.00     0.223 C 
ATOM      5  C   UNL d   1       1.137  -1.501   0.044  0.00  0.00     0.012 C 
ATOM      6  N   UNL d   1       3.499   1.278   2.474  0.00  0.00    -0.195 NA
ATOM      7  C   UNL d   1       2.298  -0.854   0.105  0.00  0.00     0.014 C 
ATOM      8  C   UNL d   1       3.009   1.003   1.453  0.00  0.00     0.089 C 
ATOM      9  C   UNL d   1      -0.088  -0.722  -0.029  0.00  0.00    -0.009 A 
ATOM     10  O   UNL d   1       0.349   3.532  -0.796  0.00  0.00    -0.267 OA
ATOM     11  C   UNL d   1      -1.314   1.320  -0.293  0.00  0.00     0.031 A 
ATOM     12  C   UNL d   1      -1.299  -1.436   0.022  0.00  0.00     0.013 A 
ATOM     13  C   UNL d   1      -2.520   0.602  -0.253  0.00  0.00     0.002 A 
ATOM     14  C   UNL d   1      -2.514  -0.774  -0.088  0.00  0.00     0.001 A 
ENDROOT
BRANCH   2  15
ATOM     15  C   UNL d   1       2.546   3.546  -0.184  0.00  0.00     0.032 A 
ATOM     16  C   UNL d   1       3.732   3.267  -0.872  0.00  0.00     0.017 A 
ATOM     17  C   UNL d   1       4.925   3.876  -0.477  0.00  0.00     0.001 A 
ATOM     18  C   UNL d   1       4.920   4.833   0.538  0.00  0.00     0.000 A 
ATOM     19  C   UNL d   1       3.719   5.205   1.140  0.00  0.00     0.001 A 
ATOM     20  C   UNL d   1       2.532   4.561   0.783  0.00  0.00     0.017 A 
ENDBRANCH   2  15
TORSDOF 1
