REMARK  6 active torsions:
REMARK  status: ('A' for Active; 'I' for Inactive)
REMARK    1  A    between atoms: N_2  and  C_1 
REMARK    2  A    between atoms: C_8  and  N_2 
REMARK    3  A    between atoms: C_9  and  C_4 
REMARK    4  A    between atoms: C_12  and  N_5 
REMARK    5  A    between atoms: C_15  and  C_12 
REMARK    6  A    between atoms: C_16  and  C_15 
ROOT
ATOM      1  N   UNL d   1       0.380   0.684   1.069  0.00  0.00    -0.333 N 
ATOM      2  H   UNL d   1       0.862   0.755   0.179  0.00  0.00     0.168 HD
ENDROOT
BRANCH   1   3
ATOM      3  C   UNL d   1      -0.789  -0.024   1.042  0.00  0.00     0.172 C 
ATOM      4  S   UNL d   1      -2.262   0.462   1.668  0.00  0.00    -0.041 SA
ATOM      5  N   UNL d   1      -0.750  -1.221   0.389  0.00  0.00    -0.367 N 
ATOM      6  H   UNL d   1      -1.636  -1.715   0.420  0.00  0.00     0.161 HD
BRANCH   5   7
ATOM      7  C   UNL d   1       0.423  -2.020   0.067  0.00  0.00     0.122 C 
BRANCH   7   8
ATOM      8  C   UNL d   1       1.029  -2.684   1.305  0.00  0.00     0.019 C 
BRANCH   8   9
ATOM      9  C   UNL d   1       2.129  -3.673   0.914  0.00  0.00    -0.003 C 
ATOM     10  C   UNL d   1       2.781  -4.315   2.128  0.00  0.00     0.005 C 
ENDBRANCH   8   9
ENDBRANCH   7   8
ENDBRANCH   5   7
ENDBRANCH   1   3
BRANCH   1  11
ATOM     11  C   UNL d   1       0.887   1.464   2.130  0.00  0.00     0.034 A 
ATOM     12  C   UNL d   1       0.579   1.181   3.461  0.00  0.00     0.030 A 
ATOM     13  C   UNL d   1       1.228   1.855   4.498  0.00  0.00     0.010 A 
ATOM     14  C   UNL d   1       2.197   2.830   4.224  0.00  0.00    -0.055 A 
ATOM     15  C   UNL d   1       2.462   3.147   2.884  0.00  0.00     0.010 A 
ATOM     16  C   UNL d   1       1.825   2.459   1.845  0.00  0.00     0.030 A 
BRANCH  14  17
ATOM     17  C   UNL d   1       3.019   3.456   5.337  0.00  0.00     0.010 C 
ATOM     18  C   UNL d   1       2.160   4.150   6.396  0.00  0.00     0.015 C 
ATOM     19  C   UNL d   1       3.919   2.394   5.982  0.00  0.00     0.015 C 
ENDBRANCH  14  17
ENDBRANCH   1  11
TORSDOF 6
