REMARK  5 active torsions:
REMARK  status: ('A' for Active; 'I' for Inactive)
REMARK    1  A    between atoms: C_2  and  S_1 
REMARK    2  A    between atoms: N_3  and  S_1 
REMARK    3  A    between atoms: C_7  and  C_12 
REMARK    4  A    between atoms: O_18  and  C_7 
REMARK    5  A    between atoms: C_23  and  O_18 
ROOT
ATOM      1  S   UNL d   1       1.078  -0.059   0.009  0.00  0.00     0.245 S 
ATOM      2  O   UNL d   1       0.530  -1.129   0.824  0.00  0.00    -0.206 OA
ATOM      3  O   UNL d   1       2.506   0.163   0.014  0.00  0.00    -0.206 OA
ENDROOT
BRANCH   1   4
ATOM      4  C   UNL d   1       0.196   1.415   0.461  0.00  0.00     0.102 A 
ATOM      5  C   UNL d   1       0.745   2.678   0.225  0.00  0.00     0.065 A 
ATOM      6  N   UNL d   1       1.892   2.872  -0.465  0.00  0.00    -0.364 N 
ATOM      7  C   UNL d   1       0.025   3.791   0.727  0.00  0.00    -0.008 A 
ATOM      8  C   UNL d   1       2.365   4.125  -0.641  0.00  0.00     0.088 A 
ATOM      9  HN  UNL d   1       2.398   2.075  -0.851  1.00  0.00     0.165 HD
ATOM     10  C   UNL d   1       1.725   5.253  -0.178  0.00  0.00     0.018 A 
ATOM     11  C   UNL d   1       0.535   5.080   0.512  0.00  0.00     0.015 A 
ATOM     12  C   UNL d   1      -1.178   3.623   1.434  0.00  0.00     0.014 A 
ATOM     13  C   UNL d   1      -1.695   2.353   1.655  0.00  0.00     0.003 A 
ATOM     14  C   UNL d   1      -1.009   1.248   1.171  0.00  0.00     0.027 A 
ENDBRANCH   1   4
BRANCH   1  15
ATOM     15  N   UNL d   1       0.590  -0.400  -1.627  0.00  0.00    -0.206 NA
ATOM     16  C   UNL d   1       1.069   0.612  -2.615  0.00  0.00     0.108 C 
ATOM     17  C   UNL d   1       0.588   0.262  -4.022  0.00  0.00     0.030 C 
ATOM     18  C   UNL d   1       1.021  -1.143  -4.447  0.00  0.00     0.088 C 
ATOM     19  C   UNL d   1       0.507  -2.142  -3.407  0.00  0.00     0.030 C 
ATOM     20  C   UNL d   1       0.995  -1.792  -2.004  0.00  0.00     0.108 C 
BRANCH  18  21
ATOM     21  C   UNL d   1       2.525  -1.305  -4.640  0.00  0.00     0.263 C 
ATOM     22  O   UNL d   1       3.115  -2.369  -4.497  0.00  0.00    -0.265 OA
BRANCH  21  23
ATOM     23  O   UNL d   1       3.111  -0.144  -5.037  0.00  0.00    -0.322 OA
BRANCH  23  24
ATOM     24  C   UNL d   1       4.533  -0.202  -5.234  0.00  0.00     0.174 C 
ATOM     25  C   UNL d   1       5.259  -0.073  -3.907  0.00  0.00     0.034 C 
ENDBRANCH  23  24
ENDBRANCH  21  23
ENDBRANCH  18  21
ENDBRANCH   1  15
TORSDOF 5
