REMARK  2 active torsions:
REMARK  status: ('A' for Active; 'I' for Inactive)
REMARK       I    between atoms: N_2  and  C_1 
REMARK    1  A    between atoms: C_6  and  C_1 
REMARK    2  A    between atoms: C_4  and  N_2 
ROOT
ATOM      1  C   UNL d   1      -0.785  -1.604   0.757  0.00  0.00    -0.003 A 
ATOM      2  C   UNL d   1      -1.482  -2.254   1.807  0.00  0.00    -0.042 A 
ATOM      3  C   UNL d   1       0.261  -0.738   1.086  0.00  0.00     0.044 A 
ATOM      4  C   UNL d   1      -1.382  -2.047  -0.506  0.00  0.00    -0.018 A 
ATOM      5  C   UNL d   1      -2.410  -2.978  -0.223  0.00  0.00    -0.043 A 
ATOM      6  C   UNL d   1      -2.547  -3.184   1.265  0.00  0.00     0.078 A 
ATOM      7  C   UNL d   1      -1.185  -2.056   3.149  0.00  0.00     0.008 A 
ATOM      8  C   UNL d   1       0.571  -0.542   2.450  0.00  0.00     0.018 A 
ATOM      9  C   UNL d   1      -1.130  -1.721  -1.829  0.00  0.00     0.013 A 
ATOM     10  C   UNL d   1      -3.159  -3.591  -1.218  0.00  0.00     0.008 A 
ATOM     11  C   UNL d   1      -0.149  -1.186   3.467  0.00  0.00     0.002 A 
ATOM     12  C   UNL d   1      -1.873  -2.340  -2.844  0.00  0.00     0.001 A 
ATOM     13  C   UNL d   1      -2.878  -3.268  -2.541  0.00  0.00     0.001 A 
ENDROOT
BRANCH   3  14
ATOM     14  C   UNL d   1       1.138  -0.093   0.070  0.00  0.00     0.258 C 
ATOM     15  N   UNL d   1       1.486   1.214   0.338  0.00  0.00    -0.303 N 
ATOM     16  H   UNL d   1       1.238   1.662   1.205  0.00  0.00     0.171 HD
ATOM     17  O   UNL d   1       1.552  -0.779  -0.855  0.00  0.00    -0.267 OA
BRANCH  15  18
ATOM     18  C   UNL d   1       2.303   1.919  -0.505  0.00  0.00     0.151 A 
ATOM     19  N   UNL d   1       2.626   1.667  -1.746  0.00  0.00    -0.346 N 
ATOM     20  C   UNL d   1       3.506   2.631  -2.196  0.00  0.00     0.097 A 
ATOM     21  HN  UNL d   1       2.282   0.881  -2.297  1.00  0.00     0.167 HD
ATOM     22  C   UNL d   1       3.861   3.588  -1.268  0.00  0.00     0.070 A 
ATOM     23  S   UNL d   1       2.987   3.323   0.188  0.00  0.00    -0.064 SA
ENDBRANCH  15  18
ENDBRANCH   3  14
TORSDOF 2
