REMARK  3 active torsions:
REMARK  status: ('A' for Active; 'I' for Inactive)
REMARK    1  A    between atoms: C_8  and  N_1 
REMARK    2  A    between atoms: C_5  and  C_3 
REMARK    3  A    between atoms: O_13  and  C_9 
ROOT
ATOM      1  N   UNL d   1       1.026   0.138   0.178  0.00  0.00    -0.365 N 
ATOM      2  HN  UNL d   1       0.571  -0.677   0.587  1.00  0.00     0.165 HD
ATOM      3  C   UNL d   1       0.314   1.146  -0.225  0.00  0.00     0.102 C 
ENDROOT
BRANCH   1   4
ATOM      4  C   UNL d   1       2.429   0.172   0.049  0.00  0.00     0.033 A 
ATOM      5  C   UNL d   1       3.088  -1.049  -0.119  0.00  0.00     0.053 A 
ATOM      6  C   UNL d   1       4.484  -1.114  -0.180  0.00  0.00     0.042 A 
ATOM      7 CL   UNL d   1       5.213  -2.670  -0.369  0.00  0.00    -0.084 Cl
ATOM      8  C   UNL d   1       5.261   0.048  -0.076  0.00  0.00    -0.040 A 
ATOM      9  C   UNL d   1       4.602   1.274   0.073  0.00  0.00     0.011 A 
ATOM     10  C   UNL d   1       6.764   0.013  -0.089  0.00  0.00     0.050 C 
ATOM     11  C   UNL d   1       3.205   1.332   0.147  0.00  0.00     0.030 A 
ENDBRANCH   1   4
BRANCH   3  12
ATOM     12  C   UNL d   1      -1.160   1.146  -0.112  0.00  0.00     0.012 A 
ATOM     13  C   UNL d   1      -1.877   0.069   0.421  0.00  0.00     0.077 A 
ATOM     14  C   UNL d   1      -3.267   0.119   0.496  0.00  0.00     0.037 A 
ATOM     15  C   UNL d   1      -3.949   1.242   0.023  0.00  0.00     0.003 A 
ATOM     16  C   UNL d   1      -3.240   2.317  -0.513  0.00  0.00     0.001 A 
ATOM     17  C   UNL d   1      -1.846   2.274  -0.577  0.00  0.00     0.015 A 
BRANCH  13  18
ATOM     18  O   UNL d   1      -1.276  -1.074   0.874  0.00  0.00    -0.360 OA
ATOM     19  H   UNL d   1      -0.311  -0.977   0.705  0.00  0.00     0.217 HD
ENDBRANCH  13  18
ENDBRANCH   3  12
TORSDOF 3
