REMARK  6 active torsions:
REMARK  status: ('A' for Active; 'I' for Inactive)
REMARK    1  A    between atoms: N_4  and  C_1 
REMARK    2  A    between atoms: N_6  and  C_2 
REMARK       I    between atoms: C_3  and  N_4 
REMARK       I    between atoms: N_12  and  C_3 
REMARK    3  A    between atoms: C_5  and  O_13 
REMARK    4  A    between atoms: C_19  and  N_12 
REMARK    5  A    between atoms: O_13  and  C_20 
REMARK    6  A    between atoms: C_21  and  C_14 
ROOT
ATOM      1  C   UNL d   1      -3.415   3.276  -1.161  0.00  0.00     0.155 C 
ATOM      2  C   UNL d   1      -3.926   2.794   0.005  0.00  0.00     0.151 C 
ATOM      3  C   UNL d   1      -2.860   2.383  -2.137  0.00  0.00     0.121 C 
ATOM      4  C   UNL d   1      -3.857   1.367   0.222  0.00  0.00     0.120 C 
ATOM      5  N   UNL d   1      -2.398   1.727  -2.976  0.00  0.00    -0.190 NA
ATOM      6  N   UNL d   1      -3.814   0.216   0.365  0.00  0.00    -0.190 NA
ENDROOT
BRANCH   1   7
ATOM      7  N   UNL d   1      -3.310   4.621  -1.530  0.00  0.00    -0.297 N 
ATOM      8  C   UNL d   1      -4.323   5.561  -1.406  0.00  0.00     0.325 C 
ATOM      9  N   UNL d   1      -3.957   6.752  -2.027  0.00  0.00    -0.309 N 
ATOM     10  O   UNL d   1      -5.428   5.310  -0.930  0.00  0.00    -0.247 OA
ATOM     11  H   UNL d   1      -3.041   6.789  -2.448  0.00  0.00     0.170 HD
ATOM     12  H   UNL d   1      -2.714   4.791  -2.330  0.00  0.00     0.171 HD
BRANCH   9  13
ATOM     13  C   UNL d   1      -4.812   7.836  -2.319  0.00  0.00     0.036 A 
ATOM     14  C   UNL d   1      -6.042   8.028  -1.695  0.00  0.00     0.032 A 
ATOM     15  C   UNL d   1      -6.899   9.053  -2.107  0.00  0.00     0.039 A 
ATOM     16  C   UNL d   1      -6.551   9.869  -3.179  0.00  0.00     0.078 A 
ATOM     17  C   UNL d   1      -5.281   9.747  -3.744  0.00  0.00     0.039 A 
ATOM     18  C   UNL d   1      -4.410   8.740  -3.310  0.00  0.00     0.032 A 
BRANCH  16  19
ATOM     19  O   UNL d   1      -7.348  10.854  -3.675  0.00  0.00    -0.255 OA
BRANCH  19  20
ATOM     20  C   UNL d   1      -8.716  10.525  -3.918  0.00  0.00     0.530 C 
ATOM     21  F   UNL d   1      -9.084   9.296  -3.498  0.00  0.00    -0.144 F 
ATOM     22  F   UNL d   1      -9.499  11.437  -3.301  0.00  0.00    -0.144 F 
ATOM     23  F   UNL d   1      -8.953  10.599  -5.247  0.00  0.00    -0.144 F 
ENDBRANCH  19  20
ENDBRANCH  16  19
ENDBRANCH   9  13
ENDBRANCH   1   7
BRANCH   2  24
ATOM     24  N   UNL d   1      -4.279   3.644   1.038  0.00  0.00    -0.354 N 
ATOM     25  C   UNL d   1      -5.208   3.400   1.919  0.00  0.00     0.100 C 
ATOM     26  HN  UNL d   1      -3.775   4.528   1.116  1.00  0.00     0.166 HD
BRANCH  25  27
ATOM     27  C   UNL d   1      -6.152   2.271   2.086  0.00  0.00    -0.021 A 
ATOM     28  C   UNL d   1      -6.383   1.813   3.389  0.00  0.00     0.014 A 
ATOM     29  C   UNL d   1      -7.211   0.708   3.609  0.00  0.00     0.024 A 
ATOM     30  C   UNL d   1      -7.812   0.069   2.525  0.00  0.00     0.034 A 
ATOM     31  C   UNL d   1      -7.630   0.558   1.231  0.00  0.00     0.024 A 
ATOM     32 CL   UNL d   1      -8.783  -1.327   2.788  0.00  0.00    -0.084 Cl
ATOM     33  C   UNL d   1      -6.820   1.678   1.011  0.00  0.00     0.014 A 
ENDBRANCH  25  27
ENDBRANCH   2  24
TORSDOF 6
