REMARK  14 active torsions:
REMARK  status: ('A' for Active; 'I' for Inactive)
REMARK    1  A    between atoms: C_3  and  C_1 
REMARK    2  A    between atoms: N_2  and  C_4 
REMARK    3  A    between atoms: C_18  and  N_7 
REMARK    4  A    between atoms: C_17  and  N_8 
REMARK    5  A    between atoms: C_10  and  C_17 
REMARK    6  A    between atoms: C_26  and  C_18 
REMARK    7  A    between atoms: C_35  and  C_32 
REMARK    8  A    between atoms: O_39  and  C_32 
REMARK    9  A    between atoms: C_33  and  C_34 
REMARK   10  A    between atoms: O_38  and  C_33 
REMARK   11  A    between atoms: C_44  and  C_42 
REMARK   12  A    between atoms: O_49  and  C_42 
REMARK   13  A    between atoms: C_43  and  C_45 
REMARK   14  A    between atoms: O_48  and  C_43 
ROOT
ATOM      1  C   UNL d   2      -0.080   2.211   0.753  0.00  0.00     0.088 C 
ATOM      2  C   UNL d   2      -0.855   1.387   0.037  0.00  0.00     0.088 C 
ENDROOT
BRANCH   1   3
ATOM      3  C   UNL d   2      -0.566   2.542   2.122  0.00  0.00     0.165 C 
ATOM      4  O   UNL d   2      -1.615   2.160   2.571  0.00  0.00    -0.647 OA
BRANCH   3   5
ATOM      5  O   UNL d   2       0.296   3.316   2.808  0.00  0.00    -0.773 OA
ATOM      6  H   UNL d   2       1.152   3.496   2.393  0.00  0.00     0.167 HD
ENDBRANCH   3   5
ENDBRANCH   1   3
BRANCH   2   7
ATOM      7  C   UNL d   2      -0.666   0.841  -1.317  0.00  0.00     0.165 C 
ATOM      8  O   UNL d   2      -1.542   0.180  -1.852  0.00  0.00    -0.647 OA
BRANCH   7   9
ATOM      9  O   UNL d   2       0.531   1.034  -1.893  0.00  0.00    -0.773 OA
ATOM     10  H   UNL d   2       1.232   1.465  -1.373  0.00  0.00     0.167 HD
ENDBRANCH   7   9
ENDBRANCH   2   7
TORSDOF 14
