REMARK  8 active torsions:
REMARK  status: ('A' for Active; 'I' for Inactive)
REMARK    1  A    between atoms: N_3  and  S_1 
REMARK    2  A    between atoms: C_12  and  S_1 
REMARK    3  A    between atoms: S_2  and  N_9 
REMARK    4  A    between atoms: C_8  and  S_2 
REMARK    5  A    between atoms: C_4  and  N_3 
REMARK    6  A    between atoms: N_9  and  C_24 
REMARK    7  A    between atoms: O_27  and  C_18 
REMARK    8  A    between atoms: O_28  and  C_19 
ROOT
ATOM      1  C   UNL d   1       0.375  -0.029  -1.702  0.00  0.00     0.075 A 
ATOM      2  C   UNL d   1       0.158  -1.316  -2.204  0.00  0.00     0.027 A 
ATOM      3  C   UNL d   1      -0.005   1.094  -2.442  0.00  0.00     0.027 A 
ATOM      4  C   UNL d   1      -0.705  -0.361  -4.248  0.00  0.00     0.042 A 
ATOM      5  C   UNL d   1      -0.545   0.924  -3.724  0.00  0.00     0.031 A 
ATOM      6  C   UNL d   1      -0.384  -1.477  -3.476  0.00  0.00     0.031 A 
ENDROOT
BRANCH   4   7
ATOM      7  N   UNL d   1      -1.236  -0.562  -5.543  0.00  0.00    -0.281 N 
ATOM      8  H   UNL d   1      -2.239  -0.495  -5.713  0.00  0.00     0.179 HD
BRANCH   7   9
ATOM      9  S   UNL d   1      -0.251  -0.534  -6.902  0.00  0.00     0.263 S 
ATOM     10  O   UNL d   1      -1.108  -0.771  -8.040  0.00  0.00    -0.200 OA
ATOM     11  O   UNL d   1       0.600   0.640  -6.827  0.00  0.00    -0.200 OA
BRANCH   9  12
ATOM     12  C   UNL d   1       0.767  -1.976  -6.705  0.00  0.00     0.082 A 
ATOM     13  C   UNL d   1       2.159  -1.839  -6.679  0.00  0.00     0.065 A 
ATOM     14  C   UNL d   1       2.977  -2.942  -6.392  0.00  0.00     0.102 A 
ATOM     15  C   UNL d   1       2.374  -4.195  -6.168  0.00  0.00     0.101 A 
ATOM     16  C   UNL d   1       0.977  -4.319  -6.227  0.00  0.00     0.041 A 
ATOM     17  C   UNL d   1       0.168  -3.219  -6.508  0.00  0.00     0.028 A 
BRANCH  14  18
ATOM     18  O   UNL d   1       4.337  -2.847  -6.262  0.00  0.00    -0.353 OA
ATOM     19  C   UNL d   1       4.941  -1.574  -6.467  0.00  0.00     0.210 C 
ENDBRANCH  14  18
BRANCH  15  20
ATOM     20  O   UNL d   1       2.994  -5.363  -5.803  0.00  0.00    -0.353 OA
ATOM     21  C   UNL d   1       4.298  -5.601  -6.319  0.00  0.00     0.210 C 
ENDBRANCH  15  20
ENDBRANCH   9  12
ENDBRANCH   7   9
ENDBRANCH   4   7
BRANCH   1  22
ATOM     22  S   UNL d   1       1.067   0.134  -0.072  0.00  0.00     0.247 S 
ATOM     23  O   UNL d   1       0.704   1.444   0.430  0.00  0.00    -0.205 OA
ATOM     24  O   UNL d   1       0.739  -1.064   0.667  0.00  0.00    -0.205 OA
BRANCH  22  25
ATOM     25  N   UNL d   1       2.733   0.198  -0.390  0.00  0.00    -0.165 NA
ATOM     26  H   UNL d   1       3.116   0.880   0.266  0.00  0.00     0.147 HD
BRANCH  25  27
ATOM     27  C   UNL d   1       3.423  -1.009  -0.381  0.00  0.00     0.117 A 
ATOM     28  N   UNL d   1       4.024  -1.476   0.713  0.00  0.00    -0.249 N 
ATOM     29  O   UNL d   1       4.574  -2.693   0.339  0.00  0.00    -0.241 OA
ATOM     30  HN  UNL d   1       4.069  -1.032   1.631  1.00  0.00     0.196 HD
ATOM     31  C   UNL d   1       4.367  -2.890  -0.992  0.00  0.00     0.075 A 
ATOM     32  C   UNL d   1       3.659  -1.829  -1.500  0.00  0.00     0.079 A 
ATOM     33  C   UNL d   1       4.924  -4.125  -1.571  0.00  0.00     0.079 C 
ENDBRANCH  25  27
ENDBRANCH  22  25
ENDBRANCH   1  22
TORSDOF 8
