REMARK  3 active torsions:
REMARK  status: ('A' for Active; 'I' for Inactive)
REMARK    1  A    between atoms: C_7  and  C_1 
REMARK    2  A    between atoms: O_13  and  C_7 
REMARK    3  A    between atoms: C_16  and  O_13 
ROOT
ATOM      1  C   UNL d   1      -3.192   0.725   0.094  0.00  0.00     0.154 A 
ATOM      2  C   UNL d   1      -3.090  -0.608   0.082  0.00  0.00     0.099 A 
ATOM      3  C   UNL d   1      -0.606  -0.297   0.022  0.00  0.00     0.050 A 
ATOM      4  C   UNL d   1      -1.751  -1.219   0.042  0.00  0.00     0.187 A 
ATOM      5  O   UNL d   1      -2.118   1.600   0.065  0.00  0.00    -0.303 OA
ATOM      6  C   UNL d   1      -0.855   1.074   0.026  0.00  0.00     0.090 A 
ATOM      7  C   UNL d   1       0.704  -0.781  -0.001  0.00  0.00     0.042 A 
ATOM      8  O   UNL d   1      -1.611  -2.433   0.019  0.00  0.00    -0.287 OA
ATOM      9  C   UNL d   1       0.206   1.978  -0.006  0.00  0.00     0.040 A 
ATOM     10  C   UNL d   1       1.762   0.126  -0.017  0.00  0.00     0.035 A 
ATOM     11  C   UNL d   1       1.519   1.502  -0.025  0.00  0.00     0.026 A 
ATOM     12 CL   UNL d   1       3.382  -0.449  -0.024  0.00  0.00    -0.084 Cl
ENDROOT
BRANCH   1  13
ATOM     13  C   UNL d   1      -4.563   1.308   0.052  0.00  0.00     0.317 C 
ATOM     14  O   UNL d   1      -5.595   0.658   0.001  0.00  0.00    -0.257 OA
BRANCH  13  15
ATOM     15  O   UNL d   1      -4.458   2.659  -0.042  0.00  0.00    -0.316 OA
BRANCH  15  16
ATOM     16  C   UNL d   1      -5.605   3.329  -0.578  0.00  0.00     0.175 C 
ATOM     17  C   UNL d   1      -5.471   3.336  -2.091  0.00  0.00     0.034 C 
ENDBRANCH  15  16
ENDBRANCH  13  15
ENDBRANCH   1  13
TORSDOF 3
