REMARK  6 active torsions:
REMARK  status: ('A' for Active; 'I' for Inactive)
REMARK    1  A    between atoms: C_6  and  C_1 
REMARK    2  A    between atoms: C_12  and  C_2 
REMARK    3  A    between atoms: O_19  and  C_6 
REMARK    4  A    between atoms: C_7  and  O_17 
REMARK    5  A    between atoms: C_8  and  C_7 
REMARK    6  A    between atoms: O_17  and  N_9 
ROOT
ATOM      1  C   UNL d   1      -0.737  -1.295   0.167  0.00  0.00     0.075 A 
ATOM      2  C   UNL d   1       0.705  -1.353   0.063  0.00  0.00     0.022 A 
ATOM      3  C   UNL d   1      -1.098   0.046   0.056  0.00  0.00     0.022 A 
ATOM      4  N   UNL d   1       0.055   0.781  -0.024  0.00  0.00    -0.362 N 
ATOM      5  C   UNL d   1       1.154  -0.037  -0.004  0.00  0.00     0.018 A 
ATOM      6  C   UNL d   1      -2.415   0.741   0.015  0.00  0.00     0.069 C 
ATOM      7  C   UNL d   1       2.512   0.572  -0.059  0.00  0.00     0.069 C 
ATOM      8  H   UNL d   1       0.093   1.791  -0.086  0.00  0.00     0.165 HD
ENDROOT
BRANCH   2   9
ATOM      9  C   UNL d   1       1.533  -2.556   0.070  0.00  0.00     0.129 C 
ATOM     10  N   UNL d   1       2.769  -2.465   0.432  0.00  0.00    -0.268 N 
ATOM     11  HN  UNL d   1       3.219  -1.603   0.740  1.00  0.00     0.194 HD
BRANCH  10  12
ATOM     12  O   UNL d   1       3.414  -3.719   0.347  0.00  0.00    -0.194 OA
BRANCH  12  13
ATOM     13  C   UNL d   1       4.701  -3.606   0.833  0.00  0.00     0.339 C 
ATOM     14  O   UNL d   1       5.192  -2.597   1.337  0.00  0.00    -0.255 OA
BRANCH  13  15
ATOM     15  C   UNL d   1       5.423  -4.848   0.671  0.00  0.00     0.151 A 
ATOM     16  O   UNL d   1       4.847  -5.924   0.046  0.00  0.00    -0.317 OA
ATOM     17  C   UNL d   1       5.768  -6.923   0.033  0.00  0.00     0.143 A 
ATOM     18  C   UNL d   1       6.933  -6.517   0.642  0.00  0.00     0.027 A 
ATOM     19  C   UNL d   1       6.712  -5.183   1.053  0.00  0.00     0.045 A 
ENDBRANCH  13  15
ENDBRANCH  12  13
ENDBRANCH  10  12
ENDBRANCH   2   9
BRANCH   1  20
ATOM     20  C   UNL d   1      -1.641  -2.428   0.374  0.00  0.00     0.295 C 
ATOM     21  O   UNL d   1      -1.362  -3.575   0.046  0.00  0.00    -0.259 OA
BRANCH  20  22
ATOM     22  O   UNL d   1      -2.787  -2.068   1.018  0.00  0.00    -0.322 OA
ATOM     23  C   UNL d   1      -3.703  -3.116   1.337  0.00  0.00     0.213 C 
ENDBRANCH  20  22
ENDBRANCH   1  20
TORSDOF 6
