REMARK  4 active torsions:
REMARK  status: ('A' for Active; 'I' for Inactive)
REMARK    1  A    between atoms: N_3  and  C_1 
REMARK    2  A    between atoms: C_2  and  N_3 
REMARK    3  A    between atoms: N_8  and  C_2 
REMARK    4  A    between atoms: C_11  and  N_8 
ROOT
ATOM      1  N   UNL d   1       0.625   2.539  -0.216  0.00  0.00    -0.331 N 
ATOM      2  H   UNL d   1       0.396   1.818  -0.886  0.00  0.00     0.168 HD
ENDROOT
BRANCH   1   3
ATOM      3  C   UNL d   1      -0.301   3.556  -0.250  0.00  0.00     0.172 C 
ATOM      4  S   UNL d   1      -0.008   5.210  -0.293  0.00  0.00    -0.041 SA
BRANCH   3   5
ATOM      5  N   UNL d   1      -1.616   3.210  -0.299  0.00  0.00    -0.359 N 
ATOM      6  H   UNL d   1      -2.194   4.043  -0.332  0.00  0.00     0.162 HD
BRANCH   5   7
ATOM      7  C   UNL d   1      -2.358   1.936  -0.319  0.00  0.00     0.021 C 
ATOM      8  C   UNL d   1      -1.974   1.030   0.856  0.00  0.00     0.037 C 
ATOM      9  C   UNL d   1      -3.855   2.294  -0.184  0.00  0.00     0.037 C 
ATOM     10  C   UNL d   1      -2.167   1.203  -1.653  0.00  0.00     0.037 C 
ENDBRANCH   5   7
ENDBRANCH   3   5
ENDBRANCH   1   3
BRANCH   1  11
ATOM     11  C   UNL d   1       2.029   2.791  -0.106  0.00  0.00     0.078 C 
ATOM     12  C   UNL d   1       2.591   3.445   1.007  0.00  0.00     0.064 C 
ATOM     13  C   UNL d   1       3.914   3.892   0.972  0.00  0.00     0.050 C 
ATOM     14 CL   UNL d   1       1.723   3.637   2.494  0.00  0.00    -0.082 Cl
ATOM     15  C   UNL d   1       4.696   3.641  -0.149  0.00  0.00     0.037 C 
ATOM     16  C   UNL d   1       4.200   2.876  -1.204  0.00  0.00     0.050 C 
ATOM     17 CL   UNL d   1       6.296   4.265  -0.229  0.00  0.00    -0.084 Cl
ATOM     18  C   UNL d   1       2.873   2.437  -1.170  0.00  0.00     0.064 C 
ATOM     19 CL   UNL d   1       2.287   1.505  -2.503  0.00  0.00    -0.082 Cl
ENDBRANCH   1  11
TORSDOF 4
