REMARK  2 active torsions:
REMARK  status: ('A' for Active; 'I' for Inactive)
REMARK    1  A    between atoms: N_9  and  C_2 
REMARK       I    between atoms: C_11  and  N_9 
REMARK    2  A    between atoms: C_13  and  C_11 
ROOT
ATOM      1  C   UNL d   1       0.542  -0.609  -0.071  0.00  0.00     0.089 A 
ATOM      2  C   UNL d   1      -1.979   0.526  -0.270  0.00  0.00     0.155 C 
ATOM      3  C   UNL d   1       0.315   0.722  -0.292  0.00  0.00     0.062 A 
ATOM      4  S   UNL d   1      -2.003  -1.190  -0.537  0.00  0.00    -0.010 SA
ATOM      5  C   UNL d   1      -0.451  -1.615   0.132  0.00  0.00     0.235 C 
ATOM      6  N   UNL d   1      -0.952   1.315  -0.219  0.00  0.00    -0.335 N 
ATOM      7  HN  UNL d   1      -1.061   2.325  -0.130  1.00  0.00     0.168 HD
ATOM      8  S   UNL d   1       2.202  -0.983  -0.054  0.00  0.00    -0.095 SA
ATOM      9  C   UNL d   1       1.512   1.467  -0.520  0.00  0.00    -0.027 A 
ATOM     10  C   UNL d   1       2.618   0.636  -0.414  0.00  0.00     0.059 A 
ATOM     11  O   UNL d   1      -0.277  -2.711   0.646  0.00  0.00    -0.279 OA
ATOM     12  C   UNL d   1       1.611   2.923  -0.826  0.00  0.00     0.051 C 
ENDROOT
BRANCH   2  13
ATOM     13  N   UNL d   1      -3.199   1.162  -0.092  0.00  0.00    -0.303 N 
ATOM     14  C   UNL d   1      -4.500   0.662  -0.055  0.00  0.00     0.257 C 
ATOM     15  O   UNL d   1      -4.843  -0.466  -0.382  0.00  0.00    -0.267 OA
ATOM     16  H   UNL d   1      -3.074   2.152   0.057  0.00  0.00     0.171 HD
BRANCH  14  17
ATOM     17  C   UNL d   1      -5.566   1.621   0.352  0.00  0.00     0.032 A 
ATOM     18  C   UNL d   1      -6.853   1.432  -0.180  0.00  0.00     0.020 A 
ATOM     19  C   UNL d   1      -7.897   2.285   0.177  0.00  0.00     0.043 A 
ATOM     20  C   UNL d   1      -7.656   3.317   1.074  0.00  0.00     0.116 A 
ATOM     21  C   UNL d   1      -6.393   3.505   1.629  0.00  0.00     0.043 A 
ATOM     22  F   UNL d   1      -8.656   4.138   1.418  0.00  0.00    -0.206 F 
ATOM     23  C   UNL d   1      -5.342   2.653   1.274  0.00  0.00     0.020 A 
ENDBRANCH  14  17
ENDBRANCH   2  13
TORSDOF 2
