REMARK  6 active torsions:
REMARK  status: ('A' for Active; 'I' for Inactive)
REMARK    1  A    between atoms: C_4  and  C_1 
REMARK    2  A    between atoms: C_5  and  C_1 
REMARK    3  A    between atoms: O_16  and  C_4 
REMARK    4  A    between atoms: N_7  and  C_5 
REMARK    5  A    between atoms: O_18  and  C_13 
REMARK    6  A    between atoms: C_20  and  O_16 
ROOT
ATOM      1  C   UNL d   1       0.905  -0.029  -0.014  0.00  0.00     0.108 C 
ATOM      2  C   UNL d   1       0.238   1.124  -0.332  0.00  0.00    -0.022 C 
ATOM      3  C   UNL d   1       0.893   2.445  -0.725  0.00  0.00    -0.022 A 
ATOM      4  C   UNL d   1       0.218   3.359  -1.569  0.00  0.00    -0.045 A 
ATOM      5  C   UNL d   1       2.155   2.858  -0.265  0.00  0.00     0.015 A 
ATOM      6  C   UNL d   1       0.841   4.557  -2.002  0.00  0.00     0.044 A 
ATOM      7  C   UNL d   1       2.135   4.877  -1.612  0.00  0.00     0.068 A 
ATOM      8  C   UNL d   1      -1.278   1.197  -0.440  0.00  0.00     0.041 C 
ATOM      9  C   UNL d   1       2.782   4.024  -0.731  0.00  0.00     0.037 A 
ATOM     10  C   UNL d   1      -1.225   3.170  -1.969  0.00  0.00     0.040 C 
ATOM     11  C   UNL d   1      -1.701   1.740  -1.800  0.00  0.00     0.009 C 
ENDROOT
BRANCH   1  12
ATOM     12  C   UNL d   1       0.267  -1.312   0.395  0.00  0.00     0.303 C 
ATOM     13  O   UNL d   1      -0.855  -1.431   0.852  0.00  0.00    -0.258 OA
BRANCH  12  14
ATOM     14  O   UNL d   1       1.142  -2.338   0.208  0.00  0.00    -0.317 OA
BRANCH  14  15
ATOM     15  C   UNL d   1       0.684  -3.645   0.588  0.00  0.00     0.174 C 
ATOM     16  C   UNL d   1       0.826  -3.848   2.085  0.00  0.00     0.034 C 
ENDBRANCH  14  15
ENDBRANCH  12  14
ENDBRANCH   1  12
BRANCH   1  17
ATOM     17  C   UNL d   1       2.425  -0.029  -0.014  0.00  0.00    -0.030 C 
BRANCH  17  18
ATOM     18  N   UNL d   1       3.686  -0.029  -0.014  0.00  0.00    -0.365 N 
ATOM     19  HN2 UNL d   1       2.666  -0.029  -0.014  1.00  0.00     0.165 HD
ATOM     20  HN1 UNL d   1       4.706  -0.029  -0.014  1.00  0.00     0.165 HD
ENDBRANCH  17  18
ENDBRANCH   1  17
BRANCH   7  21
ATOM     21  O   UNL d   1       2.850   5.980  -1.980  0.00  0.00    -0.356 OA
ATOM     22  C   UNL d   1       2.209   6.913  -2.840  0.00  0.00     0.210 C 
ENDBRANCH   7  21
TORSDOF 6
