REMARK  9 active torsions:
REMARK  status: ('A' for Active; 'I' for Inactive)
REMARK    1  A    between atoms: N_3  and  C_1 
REMARK    2  A    between atoms: N_16  and  C_1 
REMARK    3  A    between atoms: C_2  and  N_15 
REMARK    4  A    between atoms: N_4  and  C_2 
REMARK    5  A    between atoms: C_5  and  N_3 
REMARK    6  A    between atoms: C_6  and  N_4 
REMARK    7  A    between atoms: N_15  and  C_26 
REMARK    8  A    between atoms: C_25  and  N_16 
REMARK    9  A    between atoms: C_26  and  C_25 
ROOT
ATOM      1  C   UNL d   1       3.121  -0.617  -1.345  0.00  0.00     0.141 C 
ENDROOT
BRANCH   1   2
ATOM      2  N   UNL d   1       2.895  -0.972  -2.752  0.00  0.00    -0.365 N 
ATOM      3  H   UNL d   1       3.091  -0.218  -3.403  0.00  0.00     0.161 HD
BRANCH   2   4
ATOM      4  C   UNL d   1       3.135  -2.186  -3.308  0.00  0.00     0.172 C 
ATOM      5  S   UNL d   1       3.797  -2.263  -4.834  0.00  0.00    -0.041 SA
BRANCH   4   6
ATOM      6  N   UNL d   1       2.926  -3.322  -2.600  0.00  0.00    -0.331 N 
ATOM      7  H   UNL d   1       3.448  -4.131  -2.932  0.00  0.00     0.168 HD
BRANCH   6   8
ATOM      8  C   UNL d   1       1.779  -3.673  -1.845  0.00  0.00     0.073 A 
ATOM      9  C   UNL d   1       1.787  -4.912  -1.188  0.00  0.00     0.145 A 
ATOM     10  C   UNL d   1       0.690  -5.360  -0.463  0.00  0.00     0.086 A 
ATOM     11  F   UNL d   1       2.879  -5.689  -1.257  0.00  0.00    -0.204 F 
ATOM     12  C   UNL d   1      -0.447  -4.568  -0.419  0.00  0.00     0.119 A 
ATOM     13  C   UNL d   1      -0.497  -3.345  -1.083  0.00  0.00     0.044 A 
ATOM     14  F   UNL d   1      -1.520  -4.991   0.261  0.00  0.00    -0.206 F 
ATOM     15  C   UNL d   1       0.618  -2.894  -1.797  0.00  0.00     0.036 A 
ENDBRANCH   6   8
ENDBRANCH   4   6
ENDBRANCH   2   4
ENDBRANCH   1   2
BRANCH   1  16
ATOM     16  C   UNL d   1       4.595  -0.269  -1.077  0.00  0.00     0.141 C 
BRANCH  16  17
ATOM     17  N   UNL d   1       5.450  -1.451  -1.105  0.00  0.00    -0.365 N 
ATOM     18  H   UNL d   1       5.026  -2.289  -1.487  0.00  0.00     0.161 HD
BRANCH  17  19
ATOM     19  C   UNL d   1       6.816  -1.482  -1.086  0.00  0.00     0.172 C 
ATOM     20  S   UNL d   1       7.819  -0.151  -1.142  0.00  0.00    -0.041 SA
BRANCH  19  21
ATOM     21  N   UNL d   1       7.379  -2.732  -1.075  0.00  0.00    -0.331 N 
ATOM     22  H   UNL d   1       8.342  -2.766  -1.397  0.00  0.00     0.168 HD
BRANCH  21  23
ATOM     23  C   UNL d   1       6.854  -3.951  -0.588  0.00  0.00     0.073 A 
ATOM     24  C   UNL d   1       7.492  -5.141  -0.965  0.00  0.00     0.145 A 
ATOM     25  C   UNL d   1       7.037  -6.379  -0.524  0.00  0.00     0.086 A 
ATOM     26  F   UNL d   1       8.553  -5.096  -1.785  0.00  0.00    -0.204 F 
ATOM     27  C   UNL d   1       5.947  -6.423   0.332  0.00  0.00     0.119 A 
ATOM     28  C   UNL d   1       5.320  -5.257   0.759  0.00  0.00     0.044 A 
ATOM     29  F   UNL d   1       5.497  -7.607   0.769  0.00  0.00    -0.206 F 
ATOM     30  C   UNL d   1       5.776  -4.019   0.301  0.00  0.00     0.036 A 
ENDBRANCH  21  23
ENDBRANCH  19  21
ENDBRANCH  17  19
ENDBRANCH  16  17
ENDBRANCH   1  16
TORSDOF 9
