REMARK  1 active torsions:
REMARK  status: ('A' for Active; 'I' for Inactive)
REMARK    1  A    between atoms: C_2  and  N_1 
ROOT
ATOM      1  N   UNL d   1       0.006  -0.928  -0.063  0.00  0.00    -0.252 N 
ATOM      2  C   UNL d   1       1.245  -0.270  -0.086  0.00  0.00     0.231 C 
ATOM      3  C   UNL d   1      -1.240  -0.299   0.119  0.00  0.00     0.231 C 
ATOM      4  O   UNL d   1      -2.328  -0.874   0.092  0.00  0.00    -0.273 OA
ATOM      5  O   UNL d   1       2.334  -0.847  -0.140  0.00  0.00    -0.273 OA
ATOM      6  C   UNL d   1       1.230   1.230   0.092  0.00  0.00     0.104 C 
ATOM      7  C   UNL d   1      -1.202   1.188   0.387  0.00  0.00     0.104 C 
ATOM      8  C   UNL d   1      -0.070   1.847  -0.364  0.00  0.00     0.019 C 
ENDROOT
BRANCH   1   9
ATOM      9  C   UNL d   1       0.006  -2.353  -0.236  0.00  0.00     0.048 A 
ATOM     10  C   UNL d   1       0.689  -2.938  -1.312  0.00  0.00     0.054 A 
ATOM     11  C   UNL d   1       0.674  -4.325  -1.478  0.00  0.00     0.037 A 
ATOM     12 CL   UNL d   1       1.462  -5.025  -2.837  0.00  0.00    -0.084 Cl
ATOM     13  C   UNL d   1       0.021  -5.144  -0.564  0.00  0.00     0.048 A 
ATOM     14  C   UNL d   1      -0.639  -4.565   0.516  0.00  0.00     0.037 A 
ATOM     15  C   UNL d   1      -0.666  -3.179   0.674  0.00  0.00     0.054 A 
ATOM     16 CL   UNL d   1      -1.418  -5.571   1.677  0.00  0.00    -0.084 Cl
ENDBRANCH   1   9
TORSDOF 1
