REMARK  4 active torsions:
REMARK  status: ('A' for Active; 'I' for Inactive)
REMARK    1  A    between atoms: C_9  and  C_3 
REMARK    2  A    between atoms: C_8  and  C_7 
REMARK    3  A    between atoms: O_17  and  C_12 
REMARK    4  A    between atoms: O_16  and  C_13 
ROOT
ATOM      1  N   UNL d   1      -0.787   0.018   0.021  0.00  0.00    -0.331 N 
ATOM      2  HN  UNL d   1      -1.773  -0.243   0.012  1.00  0.00     0.168 HD
ATOM      3  C   UNL d   1      -0.264   1.202  -0.008  0.00  0.00     0.162 A 
ATOM      4  C   UNL d   1       0.311  -0.794   0.067  0.00  0.00     0.111 A 
ATOM      5  O   UNL d   1       1.087   1.293  -0.011  0.00  0.00    -0.256 OA
ATOM      6  C   UNL d   1       1.558   0.016   0.041  0.00  0.00     0.316 A 
ATOM      7  C   UNL d   1       0.330  -2.131   0.116  0.00  0.00     0.047 C 
ATOM      8  O   UNL d   1       2.717  -0.346   0.042  0.00  0.00    -0.257 OA
ENDROOT
BRANCH   7   9
ATOM      9  C   UNL d   1      -0.895  -2.928   0.040  0.00  0.00    -0.029 A 
ATOM     10  C   UNL d   1      -1.390  -3.281  -1.220  0.00  0.00     0.048 A 
ATOM     11  C   UNL d   1      -2.567  -4.019  -1.332  0.00  0.00     0.071 A 
ATOM     12  C   UNL d   1      -3.251  -4.402  -0.174  0.00  0.00     0.073 A 
ATOM     13  C   UNL d   1      -2.764  -4.064   1.090  0.00  0.00     0.071 A 
ATOM     14  C   UNL d   1      -1.585  -3.318   1.193  0.00  0.00     0.048 A 
BRANCH  11  15
ATOM     15  O   UNL d   1      -3.144  -4.430  -2.502  0.00  0.00    -0.356 OA
ATOM     16  C   UNL d   1      -2.470  -4.080  -3.705  0.00  0.00     0.210 C 
ENDBRANCH  11  15
BRANCH  13  17
ATOM     17  O   UNL d   1      -3.338  -4.405   2.285  0.00  0.00    -0.356 OA
ATOM     18  C   UNL d   1      -4.521  -5.194   2.226  0.00  0.00     0.210 C 
ENDBRANCH  13  17
ENDBRANCH   7   9
BRANCH   3  19
ATOM     19  C   UNL d   1      -0.992   2.479  -0.006  0.00  0.00     0.015 A 
ATOM     20  C   UNL d   1      -2.390   2.456   0.084  0.00  0.00     0.016 A 
ATOM     21  C   UNL d   1      -3.106   3.652   0.158  0.00  0.00     0.001 A 
ATOM     22  C   UNL d   1      -2.429   4.870   0.138  0.00  0.00     0.000 A 
ATOM     23  C   UNL d   1      -1.038   4.897   0.029  0.00  0.00     0.001 A 
ATOM     24  C   UNL d   1      -0.317   3.704  -0.045  0.00  0.00     0.016 A 
ENDBRANCH   3  19
TORSDOF 4
