REMARK  5 active torsions:
REMARK  status: ('A' for Active; 'I' for Inactive)
REMARK    1  A    between atoms: C_8  and  C_1 
REMARK    2  A    between atoms: N_7  and  C_2 
REMARK    3  A    between atoms: S_3  and  N_7 
REMARK    4  A    between atoms: C_10  and  S_3 
REMARK    5  A    between atoms: O_20  and  C_8 
ROOT
ATOM      1  C   UNL d   1      -0.094   1.400   0.215  0.00  0.00     0.108 A 
ATOM      2  C   UNL d   1       1.230   1.010   0.099  0.00  0.00     0.067 A 
ATOM      3  S   UNL d   1      -1.133   0.038   0.312  0.00  0.00    -0.081 SA
ATOM      4  C   UNL d   1       0.152  -1.079   0.155  0.00  0.00     0.025 A 
ATOM      5  C   UNL d   1       1.363  -0.417   0.082  0.00  0.00     0.052 A 
ATOM      6  C   UNL d   1      -0.102  -2.502   0.111  0.00  0.00     0.022 A 
ATOM      7  S   UNL d   1       1.024  -3.646   0.724  0.00  0.00    -0.101 SA
ATOM      8  C   UNL d   1      -1.221  -3.142  -0.396  0.00  0.00     0.021 A 
ATOM      9  C   UNL d   1       0.013  -4.967   0.328  0.00  0.00     0.050 A 
ATOM     10  C   UNL d   1      -1.155  -4.560  -0.274  0.00  0.00     0.008 A 
ENDROOT
BRANCH   2  11
ATOM     11  N   UNL d   1       2.326   1.875  -0.066  0.00  0.00    -0.279 N 
ATOM     12  H   UNL d   1       2.760   1.911  -0.989  0.00  0.00     0.179 HD
BRANCH  11  13
ATOM     13  S   UNL d   1       3.517   2.067   1.118  0.00  0.00     0.263 S 
ATOM     14  O   UNL d   1       3.613   0.863   1.915  0.00  0.00    -0.200 OA
ATOM     15  O   UNL d   1       4.672   2.611   0.437  0.00  0.00    -0.200 OA
BRANCH  13  16
ATOM     16  C   UNL d   1       2.823   3.359   2.122  0.00  0.00     0.080 A 
ATOM     17  C   UNL d   1       2.141   3.025   3.296  0.00  0.00     0.027 A 
ATOM     18  C   UNL d   1       1.592   4.038   4.085  0.00  0.00     0.025 A 
ATOM     19  C   UNL d   1       1.735   5.372   3.700  0.00  0.00     0.034 A 
ATOM     20  C   UNL d   1       2.433   5.705   2.538  0.00  0.00     0.025 A 
ATOM     21 CL   UNL d   1       1.041   6.617   4.663  0.00  0.00    -0.084 Cl
ATOM     22  C   UNL d   1       2.987   4.697   1.746  0.00  0.00     0.027 A 
ENDBRANCH  13  16
ENDBRANCH  11  13
ENDBRANCH   2  11
BRANCH   1  23
ATOM     23  C   UNL d   1      -0.711   2.715   0.255  0.00  0.00     0.302 C 
ATOM     24  O   UNL d   1      -1.899   2.949   0.448  0.00  0.00    -0.259 OA
BRANCH  23  25
ATOM     25  O   UNL d   1       0.218   3.691   0.039  0.00  0.00    -0.322 OA
ATOM     26  C   UNL d   1      -0.301   5.019   0.101  0.00  0.00     0.213 C 
ENDBRANCH  23  25
ENDBRANCH   1  23
TORSDOF 5
