REMARK  3 active torsions:
REMARK  status: ('A' for Active; 'I' for Inactive)
REMARK    1  A    between atoms: N_3  and  C_1 
REMARK    2  A    between atoms: C_2  and  C_7 
REMARK    3  A    between atoms: C_9  and  N_5 
ROOT
ATOM      1  N   UNL d   1      -3.884  -0.111   0.028  0.00  0.00    -0.381 N 
ATOM      2  N   UNL d   1      -6.458  -1.266  -0.579  0.00  0.00    -0.378 N 
ATOM      3  C   UNL d   1      -4.682  -0.768   1.089  0.00  0.00     0.142 C 
ATOM      4  C   UNL d   1      -4.744   0.486  -1.021  0.00  0.00     0.142 C 
ATOM      5  C   UNL d   1      -5.616  -1.840   0.488  0.00  0.00     0.143 C 
ATOM      6  C   UNL d   1      -5.695  -0.571  -1.635  0.00  0.00     0.143 C 
ENDROOT
BRANCH   2   7
ATOM      7  C   UNL d   1      -7.835  -1.293  -0.555  0.00  0.00     0.030 A 
ATOM      8  C   UNL d   1      -8.584  -1.305  -1.742  0.00  0.00     0.045 A 
ATOM      9  C   UNL d   1      -9.992  -1.326  -1.749  0.00  0.00     0.050 A 
ATOM     10  C   UNL d   1     -10.675  -1.342  -0.529  0.00  0.00     0.016 A 
ATOM     11  C   UNL d   1      -9.960  -1.335   0.664  0.00  0.00     0.003 A 
ATOM     12  C   UNL d   1      -8.562  -1.311   0.643  0.00  0.00     0.029 A 
BRANCH   9  13
ATOM     13  C   UNL d   1     -10.759  -1.337  -3.045  0.00  0.00     0.417 C 
ATOM     14  F   UNL d   1      -9.967  -1.300  -4.154  0.00  0.00    -0.166 F 
ATOM     15  F   UNL d   1     -11.538  -2.446  -3.182  0.00  0.00    -0.166 F 
ATOM     16  F   UNL d   1     -11.603  -0.273  -3.159  0.00  0.00    -0.166 F 
ENDBRANCH   9  13
ENDBRANCH   2   7
BRANCH   1  17
ATOM     17  C   UNL d   1      -2.494  -0.109  -0.014  0.00  0.00     0.012 A 
ATOM     18  C   UNL d   1      -1.687   0.497  -0.907  0.00  0.00     0.037 A 
ATOM     19  C   UNL d   1      -0.302   0.217  -0.570  0.00  0.00    -0.028 A 
ATOM     20  C   UNL d   1       0.862   0.623  -1.196  0.00  0.00     0.012 A 
ATOM     21  C   UNL d   1      -0.265  -0.592   0.568  0.00  0.00    -0.042 A 
ATOM     22  C   UNL d   1       2.081   0.199  -0.661  0.00  0.00     0.001 A 
ATOM     23  C   UNL d   1       2.117  -0.619   0.482  0.00  0.00     0.001 A 
ATOM     24  C   UNL d   1       0.935  -1.021   1.108  0.00  0.00     0.008 A 
ATOM     25  C   UNL d   1      -1.661  -0.863   1.029  0.00  0.00     0.096 A 
ENDBRANCH   1  17
TORSDOF 3
