REMARK  0 active torsions:
REMARK  status: ('A' for Active; 'I' for Inactive)
ROOT
ATOM      1  C   UNL d   1      -0.715  -0.012  -0.046  0.00  0.00    -0.011 A 
ATOM      2  C   UNL d   1       0.703  -0.004   0.065  0.00  0.00    -0.012 A 
ATOM      3  C   UNL d   1       1.403  -1.227   0.117  0.00  0.00    -0.045 A 
ATOM      4  C   UNL d   1      -1.412  -1.249  -0.092  0.00  0.00    -0.029 A 
ATOM      5  C   UNL d   1      -0.684  -2.451  -0.056  0.00  0.00     0.018 A 
ATOM      6  C   UNL d   1       0.705  -2.438   0.064  0.00  0.00     0.027 A 
ATOM      7  C   UNL d   1      -1.397   1.226  -0.110  0.00  0.00    -0.046 A 
ATOM      8  C   UNL d   1       1.396   1.227   0.114  0.00  0.00    -0.046 A 
ATOM      9  C   UNL d   1      -0.690   2.434  -0.066  0.00  0.00     0.008 A 
ATOM     10  C   UNL d   1       0.694   2.435   0.060  0.00  0.00     0.008 A 
ATOM     11 BR   UNL d   1      -1.515  -4.157  -0.176  0.00  0.00    -0.051 Br
ATOM     12  C   UNL d   1       2.905  -1.252   0.273  0.00  0.00     0.040 C 
ATOM     13  C   UNL d   1      -2.920  -1.243  -0.236  0.00  0.00     0.041 C 
ATOM     14  C   UNL d   1       3.549   0.005  -0.299  0.00  0.00     0.009 C 
ATOM     15  C   UNL d   1      -3.552   0.033   0.313  0.00  0.00     0.009 C 
ATOM     16  C   UNL d   1      -2.896   1.269  -0.281  0.00  0.00     0.040 C 
ATOM     17  C   UNL d   1       2.898   1.260   0.273  0.00  0.00     0.040 C 
ENDROOT
TORSDOF 0
