REMARK  1 active torsions:
REMARK  status: ('A' for Active; 'I' for Inactive)
REMARK    1  A    between atoms: N_6  and  C_1 
ROOT
ATOM      1  C   UNL d   1       1.722  -0.036  -0.017  0.00  0.00     0.107 A 
ATOM      2  C   UNL d   1       0.932  -1.204  -0.002  0.00  0.00     0.147 A 
ATOM      3  C   UNL d   1       0.988   1.169   0.000  0.00  0.00     0.147 A 
ATOM      4  N   UNL d   1      -3.738   0.086   0.097  0.00  0.00    -0.191 NA
ATOM      5  C   UNL d   1      -2.576   0.062   0.072  0.00  0.00     0.099 C 
ATOM      6  C   UNL d   1      -0.467  -1.184   0.020  0.00  0.00     0.067 A 
ATOM      7  C   UNL d   1      -0.412   1.212   0.034  0.00  0.00     0.067 A 
ATOM      8  C   UNL d   1      -1.145   0.029   0.041  0.00  0.00     0.050 A 
ATOM      9  F   UNL d   1       1.617   2.354  -0.059  0.00  0.00    -0.204 F 
ATOM     10  F   UNL d   1       1.510  -2.418   0.041  0.00  0.00    -0.204 F 
ENDROOT
BRANCH   1  11
ATOM     11  N   UNL d   1       3.112  -0.073  -0.035  0.00  0.00    -0.385 N 
ATOM     12  C   UNL d   1       3.848  -1.153  -0.683  0.00  0.00     0.149 C 
ATOM     13  C   UNL d   1       3.930   1.003   0.515  0.00  0.00     0.149 C 
ENDBRANCH   1  11
TORSDOF 1
