REMARK  6 active torsions:
REMARK  status: ('A' for Active; 'I' for Inactive)
REMARK    1  A    between atoms: C_10  and  C_1 
REMARK    2  A    between atoms: C_2  and  C_11 
REMARK    3  A    between atoms: C_3  and  C_8 
REMARK    4  A    between atoms: C_4  and  C_9 
REMARK    5  A    between atoms: C_7  and  C_5 
REMARK    6  A    between atoms: C_6  and  C_7 
ROOT
ATOM      1  C   UNL d   1      -1.662  -2.711   3.291  0.00  0.00     0.192 C 
ATOM      2  O   UNL d   1      -2.287  -1.696   3.581  0.00  0.00    -0.287 OA
ENDROOT
BRANCH   1   3
ATOM      3  C   UNL d   1      -1.846  -3.943   4.104  0.00  0.00     0.016 A 
ATOM      4  C   UNL d   1      -1.822  -5.216   3.519  0.00  0.00     0.031 A 
ATOM      5  C   UNL d   1      -1.934  -6.368   4.314  0.00  0.00     0.049 A 
ATOM      6  C   UNL d   1      -2.110  -6.218   5.700  0.00  0.00     0.032 A 
ATOM      7  C   UNL d   1      -2.169  -4.945   6.296  0.00  0.00     0.049 A 
ATOM      8  C   UNL d   1      -2.044  -3.809   5.482  0.00  0.00     0.031 A 
BRANCH   5   9
ATOM      9  C   UNL d   1      -1.847  -7.747   3.702  0.00  0.00     0.417 C 
ATOM     10  F   UNL d   1      -1.580  -7.726   2.367  0.00  0.00    -0.166 F 
ATOM     11  F   UNL d   1      -0.865  -8.500   4.267  0.00  0.00    -0.166 F 
ATOM     12  F   UNL d   1      -2.999  -8.454   3.847  0.00  0.00    -0.166 F 
ENDBRANCH   5   9
BRANCH   7  13
ATOM     13  C   UNL d   1      -2.341  -4.817   7.792  0.00  0.00     0.417 C 
ATOM     14  F   UNL d   1      -2.326  -3.532   8.237  0.00  0.00    -0.166 F 
ATOM     15  F   UNL d   1      -3.512  -5.356   8.227  0.00  0.00    -0.166 F 
ATOM     16  F   UNL d   1      -1.355  -5.462   8.475  0.00  0.00    -0.166 F 
ENDBRANCH   7  13
ENDBRANCH   1   3
BRANCH   1  17
ATOM     17  C   UNL d   1      -0.726  -2.687   2.135  0.00  0.00     0.016 A 
ATOM     18  C   UNL d   1       0.434  -3.471   2.120  0.00  0.00     0.031 A 
ATOM     19  C   UNL d   1       1.271  -3.489   0.995  0.00  0.00     0.049 A 
ATOM     20  C   UNL d   1       0.949  -2.670  -0.101  0.00  0.00     0.032 A 
ATOM     21  C   UNL d   1      -0.192  -1.847  -0.085  0.00  0.00     0.049 A 
ATOM     22  C   UNL d   1      -1.022  -1.857   1.047  0.00  0.00     0.031 A 
BRANCH  19  23
ATOM     23  C   UNL d   1       2.486  -4.387   0.949  0.00  0.00     0.417 C 
ATOM     24  F   UNL d   1       2.618  -5.167   2.057  0.00  0.00    -0.166 F 
ATOM     25  F   UNL d   1       3.647  -3.691   0.837  0.00  0.00    -0.166 F 
ATOM     26  F   UNL d   1       2.451  -5.243  -0.108  0.00  0.00    -0.166 F 
ENDBRANCH  19  23
BRANCH  21  27
ATOM     27  C   UNL d   1      -0.520  -0.990  -1.287  0.00  0.00     0.417 C 
ATOM     28  F   UNL d   1      -1.669  -0.275  -1.152  0.00  0.00    -0.166 F 
ATOM     29  F   UNL d   1       0.459  -0.088  -1.563  0.00  0.00    -0.166 F 
ATOM     30  F   UNL d   1      -0.674  -1.736  -2.416  0.00  0.00    -0.166 F 
ENDBRANCH  21  27
ENDBRANCH   1  17
TORSDOF 6
