REMARK  0 active torsions:
REMARK  status: ('A' for Active; 'I' for Inactive)
ROOT
ATOM      1  C   UNL d   1       0.769  -0.254   0.035  0.00  0.00     0.053 A 
ATOM      2  C   UNL d   1      -0.704  -0.340   0.017  0.00  0.00     0.011 A 
ATOM      3  N   UNL d   1       1.421  -1.447   0.045  0.00  0.00    -0.345 N 
ATOM      4  HN  UNL d   1       0.903  -2.325   0.053  1.00  0.00     0.167 HD
ATOM      5  C   UNL d   1       1.459   0.941   0.030  0.00  0.00    -0.005 A 
ATOM      6  S   UNL d   1      -0.921   2.468   0.228  0.00  0.00    -0.124 SA
ATOM      7  C   UNL d   1      -1.526   0.800   0.062  0.00  0.00     0.013 A 
ATOM      8  N   UNL d   1       3.514  -0.332   0.040  0.00  0.00    -0.355 N 
ATOM      9  HN  UNL d   1       4.533  -0.367   0.043  1.00  0.00     0.166 HD
ATOM     10  C   UNL d   1       2.764  -1.440   0.043  0.00  0.00     0.077 A 
ATOM     11  C   UNL d   1       0.851   2.296  -0.051  0.00  0.00     0.121 C 
ATOM     12  C   UNL d   1      -1.345  -1.599  -0.033  0.00  0.00     0.057 A 
ATOM     13  C   UNL d   1       2.841   0.831   0.031  0.00  0.00     0.099 A 
ATOM     14  C   UNL d   1      -2.931   0.669   0.037  0.00  0.00     0.022 A 
ATOM     15  C   UNL d   1      -2.732  -1.711  -0.045  0.00  0.00     0.117 A 
ATOM     16  C   UNL d   1      -3.534  -0.585  -0.017  0.00  0.00     0.043 A 
ATOM     17  F   UNL d   1      -3.298  -2.924  -0.080  0.00  0.00    -0.206 F 
ATOM     18  C   UNL d   1       3.476  -2.756   0.030  0.00  0.00     0.089 C 
ENDROOT
TORSDOF 0
