REMARK  4 active torsions:
REMARK  status: ('A' for Active; 'I' for Inactive)
REMARK    1  A    between atoms: C_8  and  C_1 
REMARK    2  A    between atoms: O_16  and  C_2 
REMARK    3  A    between atoms: C_4  and  C_11 
REMARK    4  A    between atoms: C_11  and  C_8 
ROOT
ATOM      1  C   UNL d   1       1.740  -0.925  -0.020  0.00  0.00     0.059 C 
ATOM      2  C   UNL d   1       0.913  -0.521   0.962  0.00  0.00     0.091 C 
ATOM      3  C   UNL d   1       1.371  -0.652  -1.433  0.00  0.00     0.297 C 
ATOM      4  O   UNL d   1       0.461   0.362  -1.671  0.00  0.00    -0.274 OA
ATOM      5  C   UNL d   1      -0.298   0.235   0.636  0.00  0.00     0.032 A 
ATOM      6  C   UNL d   1      -0.452   0.706  -0.665  0.00  0.00     0.092 A 
ATOM      7  O   UNL d   1       1.879  -1.281  -2.356  0.00  0.00    -0.259 OA
ATOM      8  C   UNL d   1      -1.308   0.525   1.562  0.00  0.00     0.017 A 
ATOM      9  C   UNL d   1      -1.544   1.484  -1.050  0.00  0.00     0.038 A 
ATOM     10  C   UNL d   1      -2.429   1.275   1.183  0.00  0.00     0.001 A 
ATOM     11  C   UNL d   1      -2.540   1.764  -0.118  0.00  0.00     0.003 A 
ENDROOT
BRANCH   1  12
ATOM     12  C   UNL d   1       3.024  -1.700   0.148  0.00  0.00     0.134 C 
BRANCH  12  13
ATOM     13  C   UNL d   1       4.254  -0.783   0.161  0.00  0.00     0.187 C 
ATOM     14  O   UNL d   1       4.167   0.432  -0.016  0.00  0.00    -0.290 OA
BRANCH  13  15
ATOM     15  C   UNL d   1       5.520  -1.442   0.467  0.00  0.00     0.123 A 
ATOM     16  O   UNL d   1       5.543  -2.796   0.605  0.00  0.00    -0.306 OA
ATOM     17  C   UNL d   1       6.816  -3.150   0.932  0.00  0.00     0.086 A 
ATOM     18  C   UNL d   1       7.252  -4.449   1.184  0.00  0.00     0.038 A 
ATOM     19  C   UNL d   1       7.628  -2.025   1.003  0.00  0.00     0.001 A 
ATOM     20  C   UNL d   1       8.594  -4.596   1.551  0.00  0.00     0.003 A 
ATOM     21  C   UNL d   1       9.443  -3.489   1.645  0.00  0.00     0.001 A 
ATOM     22  C   UNL d   1       8.976  -2.193   1.361  0.00  0.00     0.014 A 
ATOM     23  C   UNL d   1       6.789  -0.924   0.670  0.00  0.00     0.055 A 
ENDBRANCH  13  15
ENDBRANCH  12  13
ENDBRANCH   1  12
BRANCH   2  24
ATOM     24  O   UNL d   1       1.112  -0.742   2.308  0.00  0.00    -0.359 OA
ATOM     25  H   UNL d   1       1.944  -1.214   2.462  0.00  0.00     0.217 HD
ENDBRANCH   2  24
TORSDOF 4
