REMARK  2 active torsions:
REMARK  status: ('A' for Active; 'I' for Inactive)
REMARK    1  A    between atoms: C_7  and  C_1 
REMARK    2  A    between atoms: O_13  and  C_7 
ROOT
ATOM      1  C   UNL d   1      -1.216   1.003  -0.004  0.00  0.00    -0.022 A 
ATOM      2  C   UNL d   1      -0.010  -1.147   0.001  0.00  0.00    -0.049 A 
ATOM      3  C   UNL d   1       1.245   0.986  -0.031  0.00  0.00    -0.049 A 
ATOM      4  C   UNL d   1       1.221  -0.436  -0.020  0.00  0.00    -0.049 A 
ATOM      5  C   UNL d   1       0.024   1.713   0.004  0.00  0.00    -0.047 A 
ATOM      6  C   UNL d   1      -1.232  -0.423  -0.039  0.00  0.00    -0.047 A 
ATOM      7  C   UNL d   1      -0.006   3.221   0.084  0.00  0.00     0.049 C 
ATOM      8  C   UNL d   1      -2.575  -1.127  -0.095  0.00  0.00     0.049 C 
ATOM      9  C   UNL d   1       0.033  -2.657   0.076  0.00  0.00     0.049 C 
ATOM     10  C   UNL d   1       2.600   1.665  -0.053  0.00  0.00     0.049 C 
ATOM     11  C   UNL d   1       2.548  -1.182  -0.023  0.00  0.00     0.049 C 
ENDROOT
BRANCH   1  12
ATOM     12  C   UNL d   1      -2.540   1.762   0.103  0.00  0.00     0.203 C 
BRANCH  12  13
ATOM     13  O   UNL d   1      -3.355   1.608  -1.052  0.00  0.00    -0.396 OA
ATOM     14  H   UNL d   1      -2.796   1.813  -1.819  0.00  0.00     0.209 HD
ENDBRANCH  12  13
ENDBRANCH   1  12
TORSDOF 2
