REMARK  9 active torsions:
REMARK  status: ('A' for Active; 'I' for Inactive)
REMARK    1  A    between atoms: C_9  and  C_1 
REMARK    2  A    between atoms: C_3  and  C_2 
REMARK    3  A    between atoms: C_6  and  C_8 
REMARK    4  A    between atoms: N_14  and  C_7 
REMARK       I    between atoms: C_8  and  N_13 
REMARK    5  A    between atoms: O_22  and  C_9 
REMARK    6  A    between atoms: N_13  and  N_14 
REMARK    7  A    between atoms: O_24  and  C_15 
REMARK    8  A    between atoms: O_23  and  C_16 
REMARK    9  A    between atoms: C_28  and  O_22 
ROOT
ATOM      1  C   UNL d   1       0.116   0.090   4.141  0.00  0.00     0.086 A 
ATOM      2  C   UNL d   1       0.827  -0.196   2.994  0.00  0.00     0.136 A 
ATOM      3  N   UNL d   1       0.806   0.665   1.922  0.00  0.00    -0.327 N 
ATOM      4  HN  UNL d   1       1.372   0.472   1.096  1.00  0.00     0.168 HD
ATOM      5  C   UNL d   1       0.034   1.762   1.975  0.00  0.00     0.176 A 
ATOM      6  N   UNL d   1      -0.766   2.031   3.015  0.00  0.00    -0.340 N 
ATOM      7  HN  UNL d   1      -1.404   2.826   3.004  1.00  0.00     0.167 HD
ATOM      8  C   UNL d   1      -0.691   1.203   4.081  0.00  0.00     0.110 A 
ENDROOT
BRANCH   5   9
ATOM      9  N   UNL d   1       0.104   2.650   0.896  0.00  0.00    -0.172 NA
ATOM     10  H   UNL d   1       0.573   2.226   0.102  0.00  0.00     0.156 HD
BRANCH   9  11
ATOM     11  N   UNL d   1      -1.095   3.323   0.582  0.00  0.00    -0.280 N 
ATOM     12  C   UNL d   1      -0.991   4.599   0.035  0.00  0.00     0.271 C 
ATOM     13  O   UNL d   1       0.086   5.058  -0.340  0.00  0.00    -0.266 OA
ATOM     14  H   UNL d   1      -1.893   3.113   1.185  0.00  0.00     0.184 HD
BRANCH  12  15
ATOM     15  C   UNL d   1      -2.276   5.396  -0.080  0.00  0.00     0.099 A 
ATOM     16  C   UNL d   1      -3.399   5.130   0.745  0.00  0.00     0.086 A 
ATOM     17  C   UNL d   1      -4.547   5.931   0.644  0.00  0.00     0.038 A 
ATOM     18  C   UNL d   1      -4.622   6.954  -0.292  0.00  0.00     0.005 A 
ATOM     19  C   UNL d   1      -3.545   7.200  -1.135  0.00  0.00     0.038 A 
ATOM     20  C   UNL d   1      -2.365   6.445  -1.030  0.00  0.00     0.086 A 
BRANCH  16  21
ATOM     21  O   UNL d   1      -3.314   4.101   1.651  0.00  0.00    -0.355 OA
ATOM     22  C   UNL d   1      -4.535   3.598   2.187  0.00  0.00     0.210 C 
ENDBRANCH  16  21
BRANCH  20  23
ATOM     23  O   UNL d   1      -1.314   6.650  -1.889  0.00  0.00    -0.355 OA
ATOM     24  C   UNL d   1      -1.196   7.943  -2.476  0.00  0.00     0.210 C 
ENDBRANCH  20  23
ENDBRANCH  12  15
ENDBRANCH   9  11
ENDBRANCH   5   9
BRANCH   2  25
ATOM     25  C   UNL d   1       1.617  -1.477   2.802  0.00  0.00     0.433 C 
ATOM     26  F   UNL d   1       1.419  -2.440   3.743  0.00  0.00    -0.165 F 
ATOM     27  F   UNL d   1       1.299  -2.094   1.623  0.00  0.00    -0.165 F 
ATOM     28  F   UNL d   1       2.963  -1.267   2.755  0.00  0.00    -0.165 F 
ENDBRANCH   2  25
BRANCH   1  29
ATOM     29  C   UNL d   1       0.101  -0.673   5.399  0.00  0.00     0.296 C 
ATOM     30  O   UNL d   1      -0.913  -0.824   6.057  0.00  0.00    -0.259 OA
BRANCH  29  31
ATOM     31  O   UNL d   1       1.356  -1.042   5.744  0.00  0.00    -0.318 OA
BRANCH  31  32
ATOM     32  C   UNL d   1       1.482  -1.714   7.015  0.00  0.00     0.174 C 
ATOM     33  C   UNL d   1       0.990  -3.151   6.949  0.00  0.00     0.034 C 
ENDBRANCH  31  32
ENDBRANCH  29  31
ENDBRANCH   1  29
TORSDOF 9
