REMARK  5 active torsions:
REMARK  status: ('A' for Active; 'I' for Inactive)
REMARK    1  A    between atoms: C_6  and  C_1 
REMARK    2  A    between atoms: N_8  and  C_2 
REMARK       I    between atoms: C_9  and  N_8 
REMARK       I    between atoms: N_14  and  C_9 
REMARK    3  A    between atoms: C_18  and  N_14 
REMARK    4  A    between atoms: C_23  and  C_18 
REMARK    5  A    between atoms: C_19  and  C_23 
ROOT
ATOM      1  N   UNL d   1       0.484  -2.659   0.072  0.00  0.00    -0.305 N 
ATOM      2  C   UNL d   1       1.833  -2.965   0.058  0.00  0.00     0.320 C 
ATOM      3  O   UNL d   1       2.744  -2.143   0.096  0.00  0.00    -0.247 OA
ATOM      4  N   UNL d   1       2.063  -4.325  -0.095  0.00  0.00    -0.343 N 
ATOM      5  H   UNL d   1      -0.074  -3.314  -0.457  0.00  0.00     0.171 HD
ATOM      6  H   UNL d   1       1.387  -4.932   0.349  0.00  0.00     0.164 HD
ENDROOT
BRANCH   1   7
ATOM      7  C   UNL d   1       0.085  -1.317  -0.033  0.00  0.00     0.097 A 
ATOM      8  C   UNL d   1      -0.782  -0.721  -1.015  0.00  0.00     0.096 A 
ATOM      9  N   UNL d   1      -0.856   0.605  -0.802  0.00  0.00    -0.258 N 
ATOM     10  O   UNL d   1      -0.133   0.871   0.328  0.00  0.00    -0.240 OA
ATOM     11  HN  UNL d   1      -1.357   1.284  -1.375  1.00  0.00     0.195 HD
ATOM     12  C   UNL d   1       0.426  -0.275   0.801  0.00  0.00     0.101 A 
ATOM     13  C   UNL d   1       1.168  -0.108   2.064  0.00  0.00     0.081 C 
BRANCH   8  14
ATOM     14  C   UNL d   1      -1.441  -1.321  -2.179  0.00  0.00     0.017 A 
ATOM     15  C   UNL d   1      -2.695  -0.896  -2.665  0.00  0.00     0.046 A 
ATOM     16 CL   UNL d   1      -3.658   0.334  -1.912  0.00  0.00    -0.083 Cl
ATOM     17  C   UNL d   1      -3.255  -1.487  -3.805  0.00  0.00     0.025 A 
ATOM     18  C   UNL d   1      -2.595  -2.522  -4.465  0.00  0.00     0.002 A 
ATOM     19  C   UNL d   1      -1.360  -2.956  -4.001  0.00  0.00     0.001 A 
ATOM     20  C   UNL d   1      -0.780  -2.350  -2.883  0.00  0.00     0.015 A 
ENDBRANCH   8  14
ENDBRANCH   1   7
BRANCH   4  21
ATOM     21  C   UNL d   1       3.449  -4.776  -0.162  0.00  0.00     0.129 C 
BRANCH  21  22
ATOM     22  C   UNL d   1       3.627  -6.297  -0.200  0.00  0.00     0.058 C 
BRANCH  22  23
ATOM     23  C   UNL d   1       5.090  -6.684  -0.241  0.00  0.00    -0.054 A 
ATOM     24  C   UNL d   1       5.828  -6.830   0.939  0.00  0.00     0.024 A 
ATOM     25  C   UNL d   1       7.175  -7.156   0.851  0.00  0.00     0.088 A 
ATOM     26  N   UNL d   1       7.829  -7.341  -0.314  0.00  0.00    -0.375 N 
ATOM     27  C   UNL d   1       7.105  -7.191  -1.442  0.00  0.00     0.088 A 
ATOM     28  HN  UNL d   1       8.819  -7.583  -0.340  1.00  0.00     0.164 HD
ATOM     29  C   UNL d   1       5.754  -6.865  -1.458  0.00  0.00     0.024 A 
ENDBRANCH  22  23
ENDBRANCH  21  22
ENDBRANCH   4  21
TORSDOF 5
