REMARK  2 active torsions:
REMARK  status: ('A' for Active; 'I' for Inactive)
REMARK    1  A    between atoms: C_13  and  N_7 
REMARK    2  A    between atoms: C_15  and  C_13 
ROOT
ATOM      1  C   UNL d   1       0.876  -2.080   0.019  0.00  0.00     0.256 C 
ATOM      2  N   UNL d   1      -0.438  -1.941   0.382  0.00  0.00    -0.324 N 
ATOM      3  C   UNL d   1      -1.066  -0.635   0.307  0.00  0.00     0.146 C 
ATOM      4  C   UNL d   1       1.673  -0.843   0.083  0.00  0.00     0.065 A 
ATOM      5  O   UNL d   1      -0.243   0.319   1.011  0.00  0.00    -0.319 OA
ATOM      6  C   UNL d   1       1.069   0.297   0.617  0.00  0.00     0.087 A 
ATOM      7  N   UNL d   1      -3.379   0.971  -0.654  0.00  0.00     0.092 N 
ATOM      8  C   UNL d   1      -2.433  -0.671   1.014  0.00  0.00     0.092 C 
ATOM      9  C   UNL d   1      -1.250  -0.201  -1.164  0.00  0.00     0.092 C 
ATOM     10  O   UNL d   1       1.342  -3.155  -0.340  0.00  0.00    -0.267 OA
ATOM     11  C   UNL d   1      -3.253   0.602   0.765  0.00  0.00     0.277 C 
ATOM     12  C   UNL d   1      -2.040   1.099  -1.244  0.00  0.00     0.277 C 
ATOM     13  C   UNL d   1       2.982  -0.794  -0.393  0.00  0.00     0.020 A 
ATOM     14  C   UNL d   1       1.791   1.483   0.727  0.00  0.00     0.038 A 
ATOM     15  C   UNL d   1       3.695   0.404  -0.317  0.00  0.00     0.001 A 
ATOM     16  C   UNL d   1       3.102   1.536   0.250  0.00  0.00     0.003 A 
ATOM     17  H   UNL d   1      -0.996  -2.771   0.220  0.00  0.00     0.165 HD
ENDROOT
BRANCH   7  18
ATOM     18  C   UNL d   1      -4.277   0.060  -1.395  0.00  0.00     0.311 C 
BRANCH  18  19
ATOM     19  C   UNL d   1      -4.476   0.440  -2.851  0.00  0.00    -0.030 A 
ATOM     20  C   UNL d   1      -4.060  -0.419  -3.883  0.00  0.00     0.009 A 
ATOM     21  C   UNL d   1      -4.173  -0.029  -5.220  0.00  0.00     0.001 A 
ATOM     22  C   UNL d   1      -4.721   1.211  -5.541  0.00  0.00     0.000 A 
ATOM     23  C   UNL d   1      -5.177   2.053  -4.529  0.00  0.00     0.001 A 
ATOM     24  C   UNL d   1      -5.055   1.670  -3.192  0.00  0.00     0.009 A 
ENDBRANCH  18  19
ENDBRANCH   7  18
TORSDOF 2
