REMARK  6 active torsions:
REMARK  status: ('A' for Active; 'I' for Inactive)
REMARK       I    between atoms: N_2  and  C_1 
REMARK    1  A    between atoms: C_11  and  C_1 
REMARK    2  A    between atoms: C_8  and  N_2 
REMARK    3  A    between atoms: C_3  and  C_12 
REMARK    4  A    between atoms: O_10  and  C_3 
REMARK    5  A    between atoms: O_9  and  C_11 
REMARK    6  A    between atoms: C_12  and  O_9 
ROOT
ATOM      1  C   UNL d   1       1.085   0.132   0.243  0.00  0.00     0.245 C 
ATOM      2  N   UNL d   1       0.397   0.886  -0.693  0.00  0.00    -0.324 N 
ATOM      3  O   UNL d   1       0.580  -0.508   1.161  0.00  0.00    -0.271 OA
ATOM      4  H   UNL d   1       0.925   1.278  -1.464  0.00  0.00     0.169 HD
ENDROOT
BRANCH   1   5
ATOM      5  C   UNL d   1       2.610   0.125   0.006  0.00  0.00     0.271 C 
BRANCH   5   6
ATOM      6  O   UNL d   1       3.307  -1.091   0.274  0.00  0.00    -0.372 OA
BRANCH   6   7
ATOM      7  C   UNL d   1       2.876  -2.167  -0.562  0.00  0.00     0.277 C 
BRANCH   7   8
ATOM      8  C   UNL d   1       3.424  -2.012  -1.973  0.00  0.00     0.164 C 
ATOM      9  O   UNL d   1       2.781  -2.191  -2.995  0.00  0.00    -0.648 OA
BRANCH   8  10
ATOM     10  O   UNL d   1       4.719  -1.608  -1.973  0.00  0.00    -0.775 OA
ATOM     11  H   UNL d   1       5.034  -1.477  -1.052  0.00  0.00     0.167 HD
ENDBRANCH   8  10
ENDBRANCH   7   8
ENDBRANCH   6   7
ENDBRANCH   5   6
ENDBRANCH   1   5
BRANCH   2  12
ATOM     12  C   UNL d   1      -0.995   1.118  -0.729  0.00  0.00     0.050 A 
ATOM     13  C   UNL d   1      -1.905   0.710   0.244  0.00  0.00     0.117 A 
ATOM     14  N   UNL d   1      -3.240   0.965   0.193  0.00  0.00    -0.373 N 
ATOM     15  C   UNL d   1      -3.690   1.650  -0.877  0.00  0.00     0.088 A 
ATOM     16  HN  UNL d   1      -3.871   0.651   0.930  1.00  0.00     0.164 HD
ATOM     17  C   UNL d   1      -2.872   2.097  -1.899  0.00  0.00     0.019 A 
ATOM     18  C   UNL d   1      -1.508   1.828  -1.818  0.00  0.00     0.032 A 
ENDBRANCH   2  12
TORSDOF 6
