REMARK  4 active torsions:
REMARK  status: ('A' for Active; 'I' for Inactive)
REMARK    1  A    between atoms: N_3  and  C_1 
REMARK    2  A    between atoms: N_6  and  C_1 
REMARK    3  A    between atoms: C_2  and  N_3 
REMARK    4  A    between atoms: C_11  and  N_6 
ROOT
ATOM      1  N   UNL d   1       0.596   1.089   0.108  0.00  0.00    -0.332 N 
ATOM      2  H   UNL d   1       0.183   0.780   0.975  0.00  0.00     0.168 HD
ENDROOT
BRANCH   1   3
ATOM      3  C   UNL d   1       1.145   2.392   0.125  0.00  0.00     0.046 A 
ATOM      4  C   UNL d   1       0.711   3.278   1.140  0.00  0.00    -0.034 A 
ATOM      5  C   UNL d   1       1.362   4.513   1.316  0.00  0.00     0.015 A 
ATOM      6  C   UNL d   1      -0.442   2.997   2.072  0.00  0.00     0.050 C 
ATOM      7  C   UNL d   1       2.428   4.894   0.503  0.00  0.00    -0.061 A 
ATOM      8  C   UNL d   1       2.829   4.031  -0.515  0.00  0.00     0.015 A 
ATOM      9  C   UNL d   1       3.134   6.193   0.743  0.00  0.00     0.048 C 
ATOM     10  C   UNL d   1       2.221   2.773  -0.710  0.00  0.00    -0.034 A 
ATOM     11  C   UNL d   1       2.895   1.902  -1.739  0.00  0.00     0.050 C 
ENDBRANCH   1   3
BRANCH   1  12
ATOM     12  C   UNL d   1       0.234   0.309  -0.947  0.00  0.00     0.172 C 
ATOM     13  S   UNL d   1      -0.424   0.843  -2.392  0.00  0.00    -0.041 SA
BRANCH  12  14
ATOM     14  N   UNL d   1       0.384  -1.040  -0.777  0.00  0.00    -0.359 N 
ATOM     15  H   UNL d   1       0.045  -1.564  -1.577  0.00  0.00     0.162 HD
BRANCH  14  16
ATOM     16  C   UNL d   1       0.919  -1.841   0.352  0.00  0.00     0.021 C 
ATOM     17  C   UNL d   1      -0.142  -1.970   1.456  0.00  0.00     0.037 C 
ATOM     18  C   UNL d   1       1.232  -3.252  -0.186  0.00  0.00     0.037 C 
ATOM     19  C   UNL d   1       2.226  -1.272   0.929  0.00  0.00     0.037 C 
ENDBRANCH  14  16
ENDBRANCH  12  14
ENDBRANCH   1  12
TORSDOF 4
