REMARK  7 active torsions:
REMARK  status: ('A' for Active; 'I' for Inactive)
REMARK    1  A    between atoms: N_2  and  S_1 
REMARK    2  A    between atoms: C_5  and  S_1 
REMARK    3  A    between atoms: C_4  and  N_2 
REMARK       I    between atoms: C_3  and  N_7 
REMARK    4  A    between atoms: C_14  and  C_3 
REMARK    5  A    between atoms: O_6  and  C_9 
REMARK    6  A    between atoms: C_8  and  O_6 
REMARK    7  A    between atoms: N_7  and  C_21 
ROOT
ATOM      1  S   UNL d   1      -0.379   0.055   0.286  0.00  0.00     0.263 S 
ATOM      2  O   UNL d   1      -1.783  -0.065   0.610  0.00  0.00    -0.200 OA
ATOM      3  O   UNL d   1       0.271  -0.907  -0.578  0.00  0.00    -0.200 OA
ENDROOT
BRANCH   1   4
ATOM      4  N   UNL d   1       0.517   0.070   1.697  0.00  0.00    -0.278 N 
ATOM      5  H   UNL d   1       1.387  -0.450   1.597  0.00  0.00     0.179 HD
BRANCH   4   6
ATOM      6  C   UNL d   1       0.524   1.174   2.597  0.00  0.00     0.076 C 
ATOM      7  C   UNL d   1      -0.483   1.437   3.538  0.00  0.00     0.103 C 
ATOM      8  C   UNL d   1      -0.237   2.389   4.542  0.00  0.00     0.039 C 
ATOM      9  C   UNL d   1       0.905   3.187   4.507  0.00  0.00     0.003 C 
ATOM     10  C   UNL d   1       1.837   3.013   3.492  0.00  0.00     0.002 C 
ATOM     11  C   UNL d   1       1.661   1.993   2.558  0.00  0.00     0.033 C 
BRANCH   7  12
ATOM     12  O   UNL d   1      -1.666   0.725   3.507  0.00  0.00    -0.307 OA
BRANCH  12  13
ATOM     13  C   UNL d   1      -2.831   1.389   3.868  0.00  0.00     0.098 A 
ATOM     14  C   UNL d   1      -3.792   0.711   4.630  0.00  0.00     0.069 A 
ATOM     15  C   UNL d   1      -4.953   1.368   5.055  0.00  0.00     0.050 A 
ATOM     16 CL   UNL d   1      -3.569  -0.933   5.106  0.00  0.00    -0.081 Cl
ATOM     17  C   UNL d   1      -5.155   2.705   4.717  0.00  0.00     0.035 A 
ATOM     18  C   UNL d   1      -4.224   3.383   3.934  0.00  0.00     0.026 A 
ATOM     19 CL   UNL d   1      -6.560   3.529   5.271  0.00  0.00    -0.084 Cl
ATOM     20  C   UNL d   1      -3.079   2.719   3.487  0.00  0.00     0.041 A 
ENDBRANCH  12  13
ENDBRANCH   7  12
ENDBRANCH   4   6
ENDBRANCH   1   4
BRANCH   1  21
ATOM     21  C   UNL d   1      -0.126   1.657  -0.440  0.00  0.00     0.080 A 
ATOM     22  C   UNL d   1       0.998   1.909  -1.232  0.00  0.00     0.027 A 
ATOM     23  C   UNL d   1       1.108   3.136  -1.899  0.00  0.00     0.031 A 
ATOM     24  C   UNL d   1       0.087   4.096  -1.808  0.00  0.00     0.035 A 
ATOM     25  C   UNL d   1      -1.020   3.832  -0.999  0.00  0.00     0.031 A 
ATOM     26  C   UNL d   1      -1.130   2.618  -0.320  0.00  0.00     0.027 A 
BRANCH  24  27
ATOM     27  N   UNL d   1       0.233   5.273  -2.573  0.00  0.00    -0.323 N 
ATOM     28  C   UNL d   1      -0.688   6.298  -2.714  0.00  0.00     0.256 C 
ATOM     29  O   UNL d   1      -1.777   6.394  -2.161  0.00  0.00    -0.267 OA
ATOM     30  H   UNL d   1       1.111   5.370  -3.065  0.00  0.00     0.169 HD
BRANCH  28  31
ATOM     31  C   UNL d   1      -0.259   7.409  -3.609  0.00  0.00     0.032 A 
ATOM     32  C   UNL d   1       0.494   7.183  -4.770  0.00  0.00     0.018 A 
ATOM     33  C   UNL d   1       0.925   8.266  -5.542  0.00  0.00     0.025 A 
ATOM     34  C   UNL d   1       0.592   9.567  -5.163  0.00  0.00     0.034 A 
ATOM     35  C   UNL d   1      -0.194   9.796  -4.035  0.00  0.00     0.025 A 
ATOM     36 CL   UNL d   1       1.161  10.897  -6.093  0.00  0.00    -0.084 Cl
ATOM     37  C   UNL d   1      -0.627   8.716  -3.263  0.00  0.00     0.018 A 
ENDBRANCH  28  31
ENDBRANCH  24  27
ENDBRANCH   1  21
TORSDOF 7
