REMARK  4 active torsions:
REMARK  status: ('A' for Active; 'I' for Inactive)
REMARK    1  A    between atoms: C_4  and  C_1 
REMARK    2  A    between atoms: C_12  and  C_6 
REMARK    3  A    between atoms: O_17  and  C_11 
REMARK    4  A    between atoms: O_18  and  C_14 
ROOT
ATOM      1  C   UNL d   1      -3.727  -0.030   0.009  0.00  0.00     0.089 C 
ATOM      2  C   UNL d   1      -4.430   1.124  -0.000  0.00  0.00     0.038 C 
ATOM      3  C   UNL d   1      -2.247  -0.023  -0.005  0.00  0.00     0.103 C 
ATOM      4  N   UNL d   1      -1.090  -0.008  -0.012  0.00  0.00    -0.191 NA
ENDROOT
BRANCH   1   5
ATOM      5  C   UNL d   1      -4.508  -1.242   0.015  0.00  0.00     0.127 A 
ATOM      6  N   UNL d   1      -5.825  -1.424   0.019  0.00  0.00    -0.339 N 
ATOM      7  C   UNL d   1      -6.045  -2.783   0.000  0.00  0.00     0.060 A 
ATOM      8  HN  UNL d   1      -6.538  -0.695   0.033  1.00  0.00     0.167 HD
ATOM      9  C   UNL d   1      -7.246  -3.509  -0.012  0.00  0.00     0.032 A 
ATOM     10  C   UNL d   1      -4.837  -3.468  -0.011  0.00  0.00     0.060 A 
ATOM     11  C   UNL d   1      -7.186  -4.908  -0.038  0.00  0.00     0.002 A 
ATOM     12  C   UNL d   1      -5.955  -5.569  -0.050  0.00  0.00     0.002 A 
ATOM     13  C   UNL d   1      -4.747  -4.862  -0.036  0.00  0.00     0.032 A 
ATOM     14  N   UNL d   1      -3.884  -2.478   0.004  0.00  0.00    -0.339 N 
ATOM     15  H   UNL d   1      -2.889  -2.633   0.002  0.00  0.00     0.167 HD
ENDBRANCH   1   5
BRANCH   2  16
ATOM     16  C   UNL d   1      -3.788   2.443  -0.063  0.00  0.00    -0.032 A 
ATOM     17  C   UNL d   1      -3.481   3.002  -1.312  0.00  0.00     0.051 A 
ATOM     18  C   UNL d   1      -2.712   4.172  -1.412  0.00  0.00     0.102 A 
ATOM     19  C   UNL d   1      -2.330   4.840  -0.237  0.00  0.00     0.101 A 
ATOM     20  C   UNL d   1      -2.659   4.284   1.008  0.00  0.00     0.040 A 
ATOM     21  C   UNL d   1      -3.376   3.090   1.099  0.00  0.00     0.014 A 
BRANCH  18  22
ATOM     22  O   UNL d   1      -2.323   4.684  -2.623  0.00  0.00    -0.353 OA
ATOM     23  C   UNL d   1      -2.100   3.736  -3.664  0.00  0.00     0.210 C 
ENDBRANCH  18  22
BRANCH  19  24
ATOM     24  O   UNL d   1      -1.580   5.984  -0.133  0.00  0.00    -0.353 OA
ATOM     25  C   UNL d   1      -1.712   6.939  -1.178  0.00  0.00     0.210 C 
ENDBRANCH  19  24
ENDBRANCH   2  16
TORSDOF 4
