REMARK  4 active torsions:
REMARK  status: ('A' for Active; 'I' for Inactive)
REMARK    1  A    between atoms: C_5  and  N_1 
REMARK    2  A    between atoms: C_10  and  C_4 
REMARK       I    between atoms: N_16  and  C_10 
REMARK    3  A    between atoms: N_13  and  N_16 
REMARK    4  A    between atoms: C_21  and  C_20 
ROOT
ATOM      1  N   UNL d   1       0.904  -0.678  -0.075  0.00  0.00    -0.257 N 
ATOM      2  N   UNL d   1       0.973   0.690  -0.109  0.00  0.00    -0.288 N 
ATOM      3  HN  UNL d   1       1.815   1.264  -0.149  1.00  0.00     0.188 HD
ATOM      4  C   UNL d   1      -0.302   1.118  -0.079  0.00  0.00     0.119 A 
ATOM      5  C   UNL d   1      -0.419  -1.107   0.030  0.00  0.00     0.033 A 
ATOM      6  C   UNL d   1      -1.193   0.029  -0.036  0.00  0.00     0.063 A 
ATOM      7  C   UNL d   1      -0.909  -2.492   0.266  0.00  0.00     0.070 C 
ENDROOT
BRANCH   4   8
ATOM      8  C   UNL d   1      -0.707   2.530  -0.067  0.00  0.00     0.287 C 
ATOM      9  N   UNL d   1       0.338   3.445   0.017  0.00  0.00    -0.265 N 
ATOM     10  H   UNL d   1       1.291   3.098   0.071  0.00  0.00     0.190 HD
ATOM     11  O   UNL d   1      -1.899   2.844  -0.113  0.00  0.00    -0.264 OA
BRANCH   9  12
ATOM     12  N   UNL d   1       0.040   4.776   0.004  0.00  0.00    -0.312 N 
ATOM     13  C   UNL d   1       1.011   5.618   0.111  0.00  0.00     0.088 C 
ATOM     14  HN  UNL d   1      -0.924   5.097  -0.088  1.00  0.00     0.185 HD
BRANCH  13  15
ATOM     15  C   UNL d   1       0.722   7.124   0.111  0.00  0.00    -0.018 C 
ATOM     16  C   UNL d   1       0.551   7.588   1.562  0.00  0.00     0.020 C 
ATOM     17  C   UNL d   1       1.904   7.860  -0.531  0.00  0.00     0.020 C 
ATOM     18  C   UNL d   1      -0.556   7.438  -0.684  0.00  0.00     0.020 C 
ENDBRANCH  13  15
ENDBRANCH   9  12
ENDBRANCH   4   8
BRANCH   1  19
ATOM     19  C   UNL d   1       2.105  -1.448  -0.102  0.00  0.00     0.100 A 
ATOM     20  C   UNL d   1       3.236  -1.038   0.637  0.00  0.00     0.066 A 
ATOM     21  C   UNL d   1       4.402  -1.819   0.651  0.00  0.00     0.050 A 
ATOM     22 CL   UNL d   1       3.295   0.359   1.666  0.00  0.00    -0.082 Cl
ATOM     23  C   UNL d   1       4.449  -3.018  -0.046  0.00  0.00     0.037 A 
ATOM     24  C   UNL d   1       3.360  -3.426  -0.803  0.00  0.00     0.050 A 
ATOM     25 CL   UNL d   1       5.870  -3.985   0.004  0.00  0.00    -0.084 Cl
ATOM     26  C   UNL d   1       2.209  -2.627  -0.868  0.00  0.00     0.066 A 
ATOM     27 CL   UNL d   1       1.075  -3.097  -2.091  0.00  0.00    -0.082 Cl
ENDBRANCH   1  19
TORSDOF 4
