REMARK  5 active torsions:
REMARK  status: ('A' for Active; 'I' for Inactive)
REMARK    1  A    between atoms: N_2  and  C_3 
REMARK    2  A    between atoms: C_8  and  C_10 
REMARK    3  A    between atoms: S_12  and  C_9 
REMARK    4  A    between atoms: C_21  and  C_11 
REMARK    5  A    between atoms: C_15  and  S_12 
ROOT
ATOM      1  C   UNL d   1      -5.109  -1.487   1.115  0.00  0.00     0.120 A 
ATOM      2  C   UNL d   1      -6.156  -1.394   0.191  0.00  0.00     0.040 A 
ATOM      3  C   UNL d   1      -4.001  -0.627   1.081  0.00  0.00     0.049 A 
ATOM      4  C   UNL d   1      -3.898   0.317   0.055  0.00  0.00    -0.032 A 
ATOM      5  C   UNL d   1      -6.043  -0.424  -0.818  0.00  0.00     0.022 A 
ATOM      6  C   UNL d   1      -4.921   0.418  -0.893  0.00  0.00     0.013 A 
ENDROOT
BRANCH   2   7
ATOM      7  S   UNL d   1      -7.621  -2.423   0.178  0.00  0.00    -0.070 SA
BRANCH   7   8
ATOM      8  C   UNL d   1      -8.517  -1.847   1.612  0.00  0.00     0.074 A 
ATOM      9  N   UNL d   1      -7.901  -0.985   2.451  0.00  0.00    -0.359 N 
ATOM     10  C   UNL d   1      -8.598  -0.541   3.524  0.00  0.00     0.105 A 
ATOM     11  HN  UNL d   1      -6.943  -0.679   2.283  1.00  0.00     0.166 HD
ATOM     12  C   UNL d   1      -9.909  -0.898   3.799  0.00  0.00     0.063 A 
ATOM     13  C   UNL d   1     -10.523  -1.802   2.927  0.00  0.00     0.020 A 
ATOM     14  C   UNL d   1      -9.818  -2.286   1.824  0.00  0.00     0.038 A 
BRANCH  12  15
ATOM     15  C   UNL d   1     -10.633  -0.310   4.971  0.00  0.00     0.418 C 
ATOM     16  F   UNL d   1      -9.879   0.560   5.699  0.00  0.00    -0.166 F 
ATOM     17  F   UNL d   1     -11.740   0.388   4.594  0.00  0.00    -0.166 F 
ATOM     18  F   UNL d   1     -11.068  -1.254   5.849  0.00  0.00    -0.166 F 
ENDBRANCH  12  15
ENDBRANCH   7   8
ENDBRANCH   2   7
BRANCH   1  19
ATOM     19  N   UNL d   1      -5.066  -2.549   2.101  0.00  0.00    -0.114 N 
ATOM     20  O   UNL d   1      -5.027  -3.713   1.677  0.00  0.00    -0.532 OA
ATOM     21  O   UNL d   1      -4.969  -2.217   3.292  0.00  0.00    -0.532 OA
ENDBRANCH   1  19
BRANCH   4  22
ATOM     22  C   UNL d   1      -2.667   1.091  -0.077  0.00  0.00     0.036 C 
ATOM     23  C   UNL d   1      -1.590   0.647  -0.742  0.00  0.00     0.076 A 
ATOM     24  C   UNL d   1      -1.461  -0.638  -1.495  0.00  0.00     0.264 A 
ATOM     25  S   UNL d   1      -0.080   1.496  -0.791  0.00  0.00    -0.055 SA
ATOM     26  N   UNL d   1      -0.177  -0.779  -1.941  0.00  0.00    -0.307 N 
ATOM     27  O   UNL d   1      -2.344  -1.452  -1.705  0.00  0.00    -0.267 OA
ATOM     28  C   UNL d   1       0.714   0.209  -1.670  0.00  0.00     0.146 A 
ATOM     29  H   UNL d   1       0.085  -1.606  -2.460  0.00  0.00     0.170 HD
ATOM     30  S   UNL d   1       2.305   0.158  -2.124  0.00  0.00    -0.052 SA
ENDBRANCH   4  22
TORSDOF 5
