REMARK  2 active torsions:
REMARK  status: ('A' for Active; 'I' for Inactive)
REMARK    1  A    between atoms: C_8  and  C_3 
REMARK    2  A    between atoms: C_11  and  C_7 
ROOT
ATOM      1  N   UNL d   1       1.567  -0.081  -0.047  0.00  0.00    -0.331 N 
ATOM      2  HN  UNL d   1       2.509  -0.467  -0.108  1.00  0.00     0.168 HD
ATOM      3  C   UNL d   1       1.203   1.160   0.007  0.00  0.00     0.162 A 
ATOM      4  C   UNL d   1       0.367  -0.746  -0.000  0.00  0.00     0.111 A 
ATOM      5  O   UNL d   1      -0.120   1.427   0.083  0.00  0.00    -0.256 OA
ATOM      6  C   UNL d   1      -0.759   0.229   0.075  0.00  0.00     0.316 A 
ATOM      7  C   UNL d   1       0.265  -2.079  -0.015  0.00  0.00     0.047 C 
ATOM      8  O   UNL d   1      -1.958   0.049   0.125  0.00  0.00    -0.257 OA
ENDROOT
BRANCH   7   9
ATOM      9  C   UNL d   1      -0.984  -2.837   0.015  0.00  0.00    -0.034 A 
ATOM     10  C   UNL d   1      -1.602  -3.215  -1.182  0.00  0.00     0.013 A 
ATOM     11  C   UNL d   1      -2.773  -3.977  -1.157  0.00  0.00     0.024 A 
ATOM     12  C   UNL d   1      -3.324  -4.359   0.065  0.00  0.00     0.034 A 
ATOM     13  C   UNL d   1      -2.724  -3.972   1.262  0.00  0.00     0.024 A 
ATOM     14 CL   UNL d   1      -4.745  -5.330   0.096  0.00  0.00    -0.084 Cl
ATOM     15  C   UNL d   1      -1.555  -3.207   1.238  0.00  0.00     0.013 A 
ENDBRANCH   7   9
BRANCH   3  16
ATOM     16  C   UNL d   1       2.073   2.344  -0.002  0.00  0.00     0.016 A 
ATOM     17  C   UNL d   1       1.530   3.630   0.119  0.00  0.00     0.022 A 
ATOM     18  C   UNL d   1       2.366   4.752   0.141  0.00  0.00    -0.061 A 
ATOM     19  C   UNL d   1       1.796   6.130   0.301  0.00  0.00     0.048 C 
ATOM     20  C   UNL d   1       3.750   4.572   0.025  0.00  0.00     0.007 A 
ATOM     21  C   UNL d   1       4.292   3.293  -0.108  0.00  0.00     0.002 A 
ATOM     22  C   UNL d   1       3.456   2.176  -0.119  0.00  0.00     0.016 A 
ENDBRANCH   3  16
TORSDOF 2
