REMARK  1 active torsions:
REMARK  status: ('A' for Active; 'I' for Inactive)
REMARK    1  A    between atoms: O_12  and  C_5 
ROOT
ATOM      1  N   UNL d   1      -0.239   0.681  -0.000  0.00  0.00    -0.282 N 
ATOM      2  N   UNL d   1       0.979  -1.394   0.003  0.00  0.00    -0.303 N 
ATOM      3  HN  UNL d   1       0.957  -2.414   0.003  1.00  0.00     0.171 HD
ATOM      4  C   UNL d   1      -0.100  -0.699   0.001  0.00  0.00     0.159 A 
ATOM      5  C   UNL d   1       0.928   1.423   0.004  0.00  0.00     0.160 A 
ATOM      6  C   UNL d   1       2.124   0.807   0.008  0.00  0.00     0.057 A 
ATOM      7  C   UNL d   1       2.167  -0.699   0.005  0.00  0.00     0.257 A 
ATOM      8  S   UNL d   1      -1.700  -1.471  -0.001  0.00  0.00    -0.064 SA
ATOM      9  C   UNL d   1      -1.566   1.087  -0.001  0.00  0.00     0.108 A 
ATOM     10  C   UNL d   1      -2.471   0.097  -0.001  0.00  0.00     0.071 A 
ATOM     11  O   UNL d   1       3.254  -1.266   0.006  0.00  0.00    -0.267 OA
ATOM     12  C   UNL d   1       3.453   1.496   0.014  0.00  0.00     0.059 C 
ENDROOT
BRANCH   5  13
ATOM     13  O   UNL d   1       0.884   2.803   0.004  0.00  0.00    -0.345 OA
ATOM     14  H   UNL d   1      -0.040   3.086  -0.013  0.00  0.00     0.219 HD
ENDBRANCH   5  13
TORSDOF 1
