REMARK  1 active torsions:
REMARK  status: ('A' for Active; 'I' for Inactive)
REMARK    1  A    between atoms: C_9  and  C_4 
ROOT
ATOM      1  C   UNL d   1      -2.106   0.335   0.086  0.00  0.00    -0.010 C 
ATOM      2  C   UNL d   1      -1.147  -0.824   0.017  0.00  0.00     0.188 C 
ATOM      3  C   UNL d   1       0.310  -0.468   0.008  0.00  0.00     0.021 A 
ATOM      4  C   UNL d   1      -3.313   0.228  -0.509  0.00  0.00    -0.011 C 
ATOM      5  C   UNL d   1       0.726   0.877  -0.003  0.00  0.00    -0.044 A 
ATOM      6  C   UNL d   1      -1.535   1.543   0.775  0.00  0.00     0.047 C 
ATOM      7  O   UNL d   1      -1.527  -1.985  -0.057  0.00  0.00    -0.287 OA
ATOM      8  C   UNL d   1      -0.282   1.996   0.038  0.00  0.00     0.044 C 
ATOM      9  C   UNL d   1       1.268  -1.487  -0.020  0.00  0.00     0.016 A 
ATOM     10  C   UNL d   1       2.093   1.181  -0.082  0.00  0.00     0.008 A 
ATOM     11  C   UNL d   1       2.630  -1.172  -0.075  0.00  0.00     0.001 A 
ATOM     12  C   UNL d   1       3.035   0.158  -0.114  0.00  0.00     0.001 A 
ENDROOT
BRANCH   4  13
ATOM     13  C   UNL d   1      -4.292   1.369  -0.715  0.00  0.00     0.009 C 
ATOM     14  C   UNL d   1      -5.645   1.166  -0.011  0.00  0.00     0.008 C 
ATOM     15  C   UNL d   1      -6.719   0.462  -0.837  0.00  0.00     0.001 C 
ATOM     16  C   UNL d   1      -6.821   1.030  -2.245  0.00  0.00     0.000 C 
ATOM     17  C   UNL d   1      -5.481   0.916  -2.955  0.00  0.00     0.001 C 
ATOM     18  C   UNL d   1      -4.412   1.709  -2.212  0.00  0.00     0.008 C 
ENDBRANCH   4  13
TORSDOF 1
