REMARK  6 active torsions:
REMARK  status: ('A' for Active; 'I' for Inactive)
REMARK    1  A    between atoms: N_16  and  C_3 
REMARK    2  A    between atoms: N_10  and  C_5 
REMARK    3  A    between atoms: C_8  and  N_10 
REMARK    4  A    between atoms: N_12  and  C_8 
REMARK    5  A    between atoms: C_14  and  N_12 
REMARK    6  A    between atoms: S_18  and  C_17 
ROOT
ATOM      1  C   UNL d   1      -0.405  -0.960   0.016  0.00  0.00    -0.039 A 
ATOM      2  C   UNL d   1      -0.598   0.428  -0.078  0.00  0.00    -0.021 A 
ATOM      3  C   UNL d   1       0.510   1.268  -0.192  0.00  0.00     0.021 A 
ATOM      4  C   UNL d   1      -2.075   0.772  -0.004  0.00  0.00    -0.017 C 
ATOM      5  C   UNL d   1       2.005  -0.703  -0.072  0.00  0.00     0.042 A 
ATOM      6  C   UNL d   1       1.810   0.698  -0.257  0.00  0.00    -0.014 A 
ATOM      7  C   UNL d   1      -1.711  -1.715   0.141  0.00  0.00    -0.019 C 
ATOM      8  C   UNL d   1       0.877  -1.518   0.038  0.00  0.00     0.038 A 
ATOM      9  C   UNL d   1      -2.728  -0.618  -0.245  0.00  0.00     0.027 C 
ATOM     10  C   UNL d   1      -2.452   1.338   1.374  0.00  0.00     0.020 C 
ATOM     11  C   UNL d   1      -2.571   1.725  -1.106  0.00  0.00     0.020 C 
ATOM     12  C   UNL d   1       2.989   1.612  -0.519  0.00  0.00     0.052 C 
ATOM     13  C   UNL d   1      -1.937  -2.230   1.568  0.00  0.00     0.020 C 
ATOM     14  C   UNL d   1      -1.817  -2.890  -0.842  0.00  0.00     0.020 C 
ENDROOT
BRANCH   5  15
ATOM     15  N   UNL d   1       3.349  -1.175   0.035  0.00  0.00    -0.333 N 
ATOM     16  H   UNL d   1       4.024  -0.470  -0.156  0.00  0.00     0.168 HD
BRANCH  15  17
ATOM     17  C   UNL d   1       3.924  -2.324   0.487  0.00  0.00     0.176 C 
ATOM     18  S   UNL d   1       3.177  -3.731   1.014  0.00  0.00    -0.041 SA
BRANCH  17  19
ATOM     19  N   UNL d   1       5.291  -2.376   0.598  0.00  0.00    -0.333 N 
ATOM     20  H   UNL d   1       5.537  -3.289   0.972  0.00  0.00     0.168 HD
BRANCH  19  21
ATOM     21  C   UNL d   1       6.416  -1.530   0.433  0.00  0.00     0.035 A 
ATOM     22  C   UNL d   1       7.645  -2.087   0.845  0.00  0.00     0.048 A 
ATOM     23  C   UNL d   1       8.858  -1.377   0.794  0.00  0.00     0.002 A 
ATOM     24  C   UNL d   1       8.844  -0.078   0.297  0.00  0.00     0.018 A 
ATOM     25  C   UNL d   1       7.646   0.489  -0.129  0.00  0.00     0.004 A 
ATOM     26  C   UNL d   1       6.443  -0.232  -0.066  0.00  0.00     0.029 A 
BRANCH  23  27
ATOM     27  S   UNL d   1      10.330  -2.226   1.354  0.00  0.00    -0.134 SA
ATOM     28  C   UNL d   1      11.482  -0.869   1.701  0.00  0.00     0.095 C 
ENDBRANCH  23  27
ENDBRANCH  19  21
ENDBRANCH  17  19
ENDBRANCH  15  17
ENDBRANCH   5  15
BRANCH   3  29
ATOM     29  N   UNL d   1       0.392   2.667  -0.085  0.00  0.00    -0.302 NA
ATOM     30  H   UNL d   1      -0.559   3.009  -0.139  0.00  0.00     0.124 HD
ATOM     31  H   UNL d   1       0.817   2.988   0.782  0.00  0.00     0.124 HD
ENDBRANCH   3  29
TORSDOF 6
