REMARK  5 active torsions:
REMARK  status: ('A' for Active; 'I' for Inactive)
REMARK    1  A    between atoms: C_4  and  N_1 
REMARK    2  A    between atoms: S_11  and  C_5 
REMARK    3  A    between atoms: C_7  and  C_9 
REMARK    4  A    between atoms: C_8  and  C_10 
REMARK    5  A    between atoms: C_15  and  S_11 
ROOT
ATOM      1  C   UNL d   1       0.056   2.245  -0.096  0.00  0.00     0.046 A 
ATOM      2  C   UNL d   1       1.238   4.327  -0.652  0.00  0.00     0.050 A 
ATOM      3  C   UNL d   1      -0.868   4.418   0.569  0.00  0.00     0.050 A 
ATOM      4  C   UNL d   1      -0.953   3.016   0.502  0.00  0.00     0.046 A 
ATOM      5  C   UNL d   1       1.137   2.926  -0.681  0.00  0.00     0.046 A 
ATOM      6  C   UNL d   1       0.229   5.064  -0.020  0.00  0.00     0.032 A 
ENDROOT
BRANCH   1   7
ATOM      7  N   UNL d   1       0.008   0.819  -0.096  0.00  0.00    -0.251 N 
ATOM      8  C   UNL d   1      -1.137   0.072   0.048  0.00  0.00     0.232 C 
ATOM      9  C   UNL d   1      -0.794  -1.385   0.009  0.00  0.00     0.129 C 
ATOM     10  O   UNL d   1      -2.291   0.456   0.179  0.00  0.00    -0.273 OA
ATOM     11  C   UNL d   1       0.700  -1.426  -0.235  0.00  0.00     0.157 C 
ATOM     12  C   UNL d   1       1.126   0.014  -0.169  0.00  0.00     0.246 C 
ATOM     13  O   UNL d   1       2.305   0.359  -0.136  0.00  0.00    -0.271 OA
BRANCH  11  14
ATOM     14  S   UNL d   1       1.144  -2.085  -1.877  0.00  0.00    -0.078 SA
BRANCH  14  15
ATOM     15  C   UNL d   1       0.726  -3.773  -1.624  0.00  0.00     0.182 C 
ATOM     16  O   UNL d   1       0.241  -4.165  -0.569  0.00  0.00    -0.286 OA
ATOM     17  C   UNL d   1       0.950  -4.666  -2.808  0.00  0.00     0.104 C 
ENDBRANCH  14  15
ENDBRANCH  11  14
ENDBRANCH   1   7
BRANCH   3  18
ATOM     18  C   UNL d   1      -1.912   5.222   1.310  0.00  0.00     0.417 C 
ATOM     19  F   UNL d   1      -2.894   4.463   1.870  0.00  0.00    -0.166 F 
ATOM     20  F   UNL d   1      -1.370   5.940   2.333  0.00  0.00    -0.166 F 
ATOM     21  F   UNL d   1      -2.542   6.126   0.511  0.00  0.00    -0.166 F 
ENDBRANCH   3  18
BRANCH   2  22
ATOM     22  C   UNL d   1       2.427   5.027  -1.269  0.00  0.00     0.417 C 
ATOM     23  F   UNL d   1       3.342   4.178  -1.812  0.00  0.00    -0.166 F 
ATOM     24  F   UNL d   1       2.065   5.874  -2.271  0.00  0.00    -0.166 F 
ATOM     25  F   UNL d   1       3.107   5.782  -0.364  0.00  0.00    -0.166 F 
ENDBRANCH   2  22
TORSDOF 5
