REMARK  6 active torsions:
REMARK  status: ('A' for Active; 'I' for Inactive)
REMARK    1  A    between atoms: C_7  and  C_1 
REMARK    2  A    between atoms: C_9  and  N_2 
REMARK    3  A    between atoms: C_8  and  C_3 
REMARK    4  A    between atoms: N_6  and  C_10 
REMARK    5  A    between atoms: O_19  and  C_7 
REMARK    6  A    between atoms: C_23  and  O_19 
ROOT
ATOM      1  C   UNL d   1      -0.261   1.158   0.044  0.00  0.00     0.064 C 
ATOM      2  N   UNL d   1       1.107  -0.696  -0.014  0.00  0.00    -0.318 N 
ATOM      3  C   UNL d   1      -0.262  -1.134  -0.012  0.00  0.00     0.025 C 
ATOM      4  C   UNL d   1       1.050   0.726  -0.113  0.00  0.00     0.029 C 
ATOM      5  C   UNL d   1      -1.053   0.006   0.004  0.00  0.00     0.046 C 
ATOM      6  C   UNL d   1       2.194   1.663  -0.368  0.00  0.00     0.070 C 
ENDROOT
BRANCH   2   7
ATOM      7  C   UNL d   1       2.351  -1.491   0.049  0.00  0.00     0.039 A 
ATOM      8  C   UNL d   1       3.608  -0.898   0.273  0.00  0.00     0.032 A 
ATOM      9  C   UNL d   1       4.818  -1.617   0.197  0.00  0.00     0.038 A 
ATOM     10  C   UNL d   1       4.795  -2.989  -0.032  0.00  0.00     0.103 A 
ATOM     11  C   UNL d   1       3.572  -3.633  -0.152  0.00  0.00     0.038 A 
ATOM     12  C   UNL d   1       2.384  -2.884  -0.109  0.00  0.00     0.032 A 
BRANCH  10  13
ATOM     13  N   UNL d   1       6.040  -3.759  -0.123  0.00  0.00    -0.116 N 
ATOM     14  O   UNL d   1       5.953  -4.992  -0.177  0.00  0.00    -0.532 OA
ATOM     15  O   UNL d   1       7.104  -3.123  -0.145  0.00  0.00    -0.532 OA
ENDBRANCH  10  13
ENDBRANCH   2   7
BRANCH   3  16
ATOM     16  C   UNL d   1      -0.865  -2.552   0.045  0.00  0.00    -0.008 C 
ATOM     17  C   UNL d   1      -2.429  -2.518   0.122  0.00  0.00     0.021 C 
ATOM     18  C   UNL d   1      -0.602  -3.327  -1.269  0.00  0.00     0.021 C 
ATOM     19  C   UNL d   1      -0.466  -3.260   1.361  0.00  0.00     0.021 C 
ENDBRANCH   3  16
BRANCH   1  20
ATOM     20  C   UNL d   1      -0.736   2.535   0.200  0.00  0.00     0.295 C 
ATOM     21  O   UNL d   1       0.002   3.502   0.354  0.00  0.00    -0.259 OA
BRANCH  20  22
ATOM     22  O   UNL d   1      -2.101   2.602   0.253  0.00  0.00    -0.318 OA
BRANCH  22  23
ATOM     23  C   UNL d   1      -2.640   3.844   0.722  0.00  0.00     0.174 C 
ATOM     24  C   UNL d   1      -2.691   3.812   2.240  0.00  0.00     0.034 C 
ENDBRANCH  22  23
ENDBRANCH  20  22
ENDBRANCH   1  20
TORSDOF 6
