REMARK  4 active torsions:
REMARK  status: ('A' for Active; 'I' for Inactive)
REMARK    1  A    between atoms: C_2  and  C_1 
REMARK    2  A    between atoms: C_3  and  C_2 
REMARK    3  A    between atoms: C_7  and  C_3 
REMARK    4  A    between atoms: N_15  and  C_8 
ROOT
ATOM      1  C   UNL d   1      -0.211   1.118  -0.070  0.00  0.00     0.148 A 
ATOM      2  S   UNL d   1       1.070  -0.026  -0.231  0.00  0.00    -0.032 SA
ATOM      3  N   UNL d   1      -1.399   0.566   0.017  0.00  0.00    -0.290 N 
ATOM      4  HN  UNL d   1      -2.271   1.094   0.043  1.00  0.00     0.187 HD
ATOM      5  C   UNL d   1      -0.100  -1.273  -0.034  0.00  0.00     0.160 A 
ATOM      6  N   UNL d   1      -1.331  -0.813   0.068  0.00  0.00    -0.279 N 
ATOM      7  HN  UNL d   1      -2.148  -1.413   0.175  1.00  0.00     0.189 HD
ENDROOT
BRANCH   1   8
ATOM      8  C   UNL d   1       0.105   2.577  -0.058  0.00  0.00     0.366 C 
ATOM      9  F   UNL d   1       1.143   2.822   0.804  0.00  0.00    -0.191 F 
ATOM     10  F   UNL d   1       0.596   2.934  -1.290  0.00  0.00    -0.191 F 
BRANCH   8  11
ATOM     11  C   UNL d   1      -1.040   3.513   0.282  0.00  0.00     0.409 C 
ATOM     12  F   UNL d   1      -0.568   4.804   0.200  0.00  0.00    -0.189 F 
ATOM     13  F   UNL d   1      -2.035   3.446  -0.648  0.00  0.00    -0.189 F 
BRANCH  11  14
ATOM     14  C   UNL d   1      -1.578   3.285   1.680  0.00  0.00     0.461 C 
ATOM     15  F   UNL d   1      -0.593   3.244   2.607  0.00  0.00    -0.165 F 
ATOM     16  F   UNL d   1      -2.415   4.290   2.048  0.00  0.00    -0.165 F 
ATOM     17  F   UNL d   1      -2.284   2.144   1.812  0.00  0.00    -0.165 F 
ENDBRANCH  11  14
ENDBRANCH   8  11
ENDBRANCH   1   8
BRANCH   5  18
ATOM     18  N   UNL d   1       0.287  -2.565   0.019  0.00  0.00    -0.374 N 
ATOM     19  C   UNL d   1      -0.709  -3.610  -0.024  0.00  0.00     0.148 C 
ATOM     20  H   UNL d   1       1.199  -2.804  -0.356  0.00  0.00     0.161 HD
ENDBRANCH   5  18
TORSDOF 4
