REMARK  3 active torsions:
REMARK  status: ('A' for Active; 'I' for Inactive)
REMARK    1  A    between atoms: C_10  and  C_3 
REMARK    2  A    between atoms: N_6  and  C_9 
REMARK    3  A    between atoms: C_11  and  C_8 
ROOT
ATOM      1  N   UNL d   1       1.580  -0.065   0.063  0.00  0.00    -0.331 N 
ATOM      2  HN  UNL d   1       2.532  -0.431   0.024  1.00  0.00     0.168 HD
ATOM      3  C   UNL d   1       1.190   1.169   0.089  0.00  0.00     0.162 A 
ATOM      4  C   UNL d   1       0.395  -0.759   0.101  0.00  0.00     0.111 A 
ATOM      5  O   UNL d   1      -0.139   1.407   0.167  0.00  0.00    -0.256 OA
ATOM      6  C   UNL d   1      -0.753   0.192   0.193  0.00  0.00     0.316 A 
ATOM      7  C   UNL d   1       0.314  -2.093   0.024  0.00  0.00     0.049 C 
ATOM      8  O   UNL d   1      -1.945  -0.013   0.287  0.00  0.00    -0.257 OA
ENDROOT
BRANCH   3   9
ATOM      9  C   UNL d   1       2.038   2.371   0.033  0.00  0.00     0.018 A 
ATOM     10  C   UNL d   1       3.424   2.226  -0.109  0.00  0.00     0.052 A 
ATOM     11  C   UNL d   1       4.231   3.371  -0.176  0.00  0.00     0.103 A 
ATOM     12  C   UNL d   1       3.667   4.652  -0.102  0.00  0.00     0.036 A 
ATOM     13  C   UNL d   1       2.286   4.789   0.042  0.00  0.00     0.003 A 
ATOM     14  C   UNL d   1       1.474   3.654   0.109  0.00  0.00     0.016 A 
BRANCH  11  15
ATOM     15  N   UNL d   1       5.686   3.232  -0.330  0.00  0.00    -0.116 N 
ATOM     16  O   UNL d   1       6.151   2.086  -0.389  0.00  0.00    -0.532 OA
ATOM     17  O   UNL d   1       6.361   4.269  -0.391  0.00  0.00    -0.532 OA
ENDBRANCH  11  15
ENDBRANCH   3   9
BRANCH   7  18
ATOM     18  C   UNL d   1      -0.932  -2.868  -0.028  0.00  0.00    -0.012 A 
ATOM     19  C   UNL d   1      -1.558  -3.198  -1.242  0.00  0.00     0.044 A 
ATOM     20 CL   UNL d   1      -0.892  -2.726  -2.768  0.00  0.00    -0.083 Cl
ATOM     21  C   UNL d   1      -2.746  -3.936  -1.249  0.00  0.00     0.024 A 
ATOM     22  C   UNL d   1      -3.317  -4.353  -0.047  0.00  0.00     0.002 A 
ATOM     23  C   UNL d   1      -2.701  -4.034   1.163  0.00  0.00     0.001 A 
ATOM     24  C   UNL d   1      -1.516  -3.293   1.174  0.00  0.00     0.013 A 
ENDBRANCH   7  18
TORSDOF 3
