REMARK  6 active torsions:
REMARK  status: ('A' for Active; 'I' for Inactive)
REMARK    1  A    between atoms: N_2  and  C_1 
REMARK    2  A    between atoms: C_3  and  C_8 
REMARK    3  A    between atoms: C_4  and  N_7 
REMARK    4  A    between atoms: N_9  and  C_4 
REMARK    5  A    between atoms: N_7  and  C_5 
REMARK    6  A    between atoms: C_15  and  N_9 
ROOT
ATOM      1  C   UNL d   1       0.793  -0.665   1.118  0.00  0.00     0.130 C 
ATOM      2  C   UNL d   1       0.471  -1.763   0.294  0.00  0.00     0.067 C 
ATOM      3  C   UNL d   1       0.032   0.512   1.045  0.00  0.00     0.054 C 
ATOM      4  C   UNL d   1      -1.112   0.577   0.239  0.00  0.00     0.050 C 
ATOM      5  C   UNL d   1      -0.761  -1.757  -0.369  0.00  0.00     0.033 C 
ATOM      6  C   UNL d   1      -1.548  -0.595  -0.396  0.00  0.00     0.018 C 
ENDROOT
BRANCH   2   7
ATOM      7  N   UNL d   1       1.359  -2.832  -0.009  0.00  0.00    -0.331 N 
ATOM      8  H   UNL d   1       0.933  -3.670  -0.384  0.00  0.00     0.168 HD
BRANCH   7   9
ATOM      9  C   UNL d   1       2.628  -2.632  -0.505  0.00  0.00     0.172 C 
ATOM     10  S   UNL d   1       3.233  -1.213  -1.174  0.00  0.00    -0.041 SA
BRANCH   9  11
ATOM     11  N   UNL d   1       3.484  -3.684  -0.486  0.00  0.00    -0.359 N 
ATOM     12  H   UNL d   1       4.404  -3.402  -0.813  0.00  0.00     0.162 HD
BRANCH  11  13
ATOM     13  C   UNL d   1       3.397  -5.065   0.025  0.00  0.00     0.021 C 
ATOM     14  C   UNL d   1       2.422  -5.895  -0.822  0.00  0.00     0.037 C 
ATOM     15  C   UNL d   1       4.803  -5.687  -0.110  0.00  0.00     0.037 C 
ATOM     16  C   UNL d   1       3.000  -5.108   1.506  0.00  0.00     0.037 C 
ENDBRANCH  11  13
ENDBRANCH   9  11
ENDBRANCH   7   9
ENDBRANCH   2   7
BRANCH   1  17
ATOM     17  N   UNL d   1       1.803  -0.756   2.190  0.00  0.00    -0.113 N 
ATOM     18  O   UNL d   1       2.576  -1.720   2.238  0.00  0.00    -0.532 OA
ATOM     19  O   UNL d   1       1.777   0.137   3.059  0.00  0.00    -0.532 OA
ENDBRANCH   1  17
BRANCH   4  20
ATOM     20  C   UNL d   1      -1.874   1.871   0.079  0.00  0.00     0.417 C 
ATOM     21  F   UNL d   1      -1.129   2.970   0.389  0.00  0.00    -0.166 F 
ATOM     22  F   UNL d   1      -2.306   2.067  -1.198  0.00  0.00    -0.166 F 
ATOM     23  F   UNL d   1      -2.978   1.928   0.866  0.00  0.00    -0.166 F 
ENDBRANCH   4  20
TORSDOF 6
