REMARK  14 active torsions:
REMARK  status: ('A' for Active; 'I' for Inactive)
REMARK    1  A    between atoms: N_3  and  C_1 
REMARK    2  A    between atoms: N_12  and  C_1 
REMARK    3  A    between atoms: N_4  and  C_2 
REMARK    4  A    between atoms: C_17  and  N_3 
REMARK    5  A    between atoms: C_18  and  N_4 
REMARK    6  A    between atoms: C_7  and  C_10 
REMARK    7  A    between atoms: C_8  and  C_9 
REMARK    8  A    between atoms: N_11  and  C_30 
REMARK    9  A    between atoms: C_29  and  N_12 
REMARK   10  A    between atoms: C_32  and  C_29 
REMARK   11  A    between atoms: C_30  and  C_31 
REMARK   12  A    between atoms: C_31  and  C_34 
REMARK   13  A    between atoms: C_33  and  C_32 
REMARK   14  A    between atoms: C_34  and  C_33 
ROOT
ATOM      1  C   UNL d   1       5.407   1.298   1.606  0.00  0.00     0.002 C 
ENDROOT
BRANCH   1   2
ATOM      2  C   UNL d   1       4.867   0.289   0.589  0.00  0.00     0.020 C 
BRANCH   2   3
ATOM      3  C   UNL d   1       5.250  -1.145   0.944  0.00  0.00     0.122 C 
BRANCH   3   4
ATOM      4  N   UNL d   1       4.724  -2.099  -0.012  0.00  0.00    -0.367 N 
ATOM      5  H   UNL d   1       3.855  -2.562   0.236  0.00  0.00     0.161 HD
BRANCH   4   6
ATOM      6  C   UNL d   1       5.410  -2.737  -1.014  0.00  0.00     0.172 C 
ATOM      7  S   UNL d   1       4.689  -4.098  -1.660  0.00  0.00    -0.041 SA
BRANCH   6   8
ATOM      8  N   UNL d   1       6.581  -2.138  -1.399  0.00  0.00    -0.333 N 
ATOM      9  H   UNL d   1       6.576  -1.131  -1.343  0.00  0.00     0.168 HD
BRANCH   8  10
ATOM     10  C   UNL d   1       7.681  -2.703  -2.086  0.00  0.00     0.034 A 
ATOM     11  C   UNL d   1       8.458  -1.877  -2.896  0.00  0.00     0.030 A 
ATOM     12  C   UNL d   1       9.631  -2.363  -3.496  0.00  0.00     0.010 A 
ATOM     13  C   UNL d   1      10.090  -3.671  -3.256  0.00  0.00    -0.051 A 
ATOM     14  C   UNL d   1       9.271  -4.497  -2.469  0.00  0.00     0.010 A 
ATOM     15  C   UNL d   1       8.082  -4.021  -1.895  0.00  0.00     0.030 A 
BRANCH  13  16
ATOM     16  C   UNL d   1      11.464  -4.130  -3.778  0.00  0.00    -0.024 C 
ATOM     17  C   UNL d   1      11.853  -5.555  -3.318  0.00  0.00     0.019 C 
ATOM     18  C   UNL d   1      11.496  -4.116  -5.319  0.00  0.00     0.019 C 
ATOM     19  C   UNL d   1      12.559  -3.177  -3.246  0.00  0.00     0.019 C 
ENDBRANCH  13  16
ENDBRANCH   8  10
ENDBRANCH   6   8
ENDBRANCH   4   6
ENDBRANCH   3   4
ENDBRANCH   2   3
ENDBRANCH   1   2
BRANCH   1  20
ATOM     20  C   UNL d   1       6.939   1.325   1.662  0.00  0.00     0.002 C 
BRANCH  20  21
ATOM     21  C   UNL d   1       7.505   2.204   2.776  0.00  0.00     0.020 C 
BRANCH  21  22
ATOM     22  C   UNL d   1       7.056   1.821   4.186  0.00  0.00     0.122 C 
BRANCH  22  23
ATOM     23  N   UNL d   1       7.366   0.457   4.594  0.00  0.00    -0.367 N 
ATOM     24  C   UNL d   1       8.468   0.048   5.284  0.00  0.00     0.172 C 
ATOM     25  S   UNL d   1       9.966   0.791   5.239  0.00  0.00    -0.041 SA
ATOM     26  H   UNL d   1       6.705  -0.268   4.358  0.00  0.00     0.161 HD
BRANCH  24  27
ATOM     27  N   UNL d   1       8.341  -1.069   6.059  0.00  0.00    -0.333 N 
ATOM     28  H   UNL d   1       9.238  -1.426   6.371  0.00  0.00     0.168 HD
BRANCH  27  29
ATOM     29  C   UNL d   1       7.212  -1.678   6.652  0.00  0.00     0.034 A 
ATOM     30  C   UNL d   1       5.922  -1.153   6.636  0.00  0.00     0.030 A 
ATOM     31  C   UNL d   1       4.856  -1.849   7.223  0.00  0.00     0.010 A 
ATOM     32  C   UNL d   1       5.045  -3.081   7.872  0.00  0.00    -0.051 A 
ATOM     33  C   UNL d   1       6.363  -3.552   7.960  0.00  0.00     0.010 A 
ATOM     34  C   UNL d   1       7.427  -2.864   7.357  0.00  0.00     0.030 A 
BRANCH  32  35
ATOM     35  C   UNL d   1       3.840  -3.866   8.419  0.00  0.00    -0.024 C 
ATOM     36  C   UNL d   1       4.230  -5.192   9.108  0.00  0.00     0.019 C 
ATOM     37  C   UNL d   1       3.059  -3.023   9.449  0.00  0.00     0.019 C 
ATOM     38  C   UNL d   1       2.896  -4.222   7.248  0.00  0.00     0.019 C 
ENDBRANCH  32  35
ENDBRANCH  27  29
ENDBRANCH  24  27
ENDBRANCH  22  23
ENDBRANCH  21  22
ENDBRANCH  20  21
ENDBRANCH   1  20
TORSDOF 14
