REMARK  6 active torsions:
REMARK  status: ('A' for Active; 'I' for Inactive)
REMARK    1  A    between atoms: S_12  and  C_2 
REMARK    2  A    between atoms: O_17  and  C_8 
REMARK    3  A    between atoms: O_18  and  C_9 
REMARK    4  A    between atoms: C_16  and  S_12 
REMARK    5  A    between atoms: C_14  and  C_16 
REMARK    6  A    between atoms: O_19  and  C_14 
ROOT
ATOM      1  C   UNL d   1       0.105   0.741   0.039  0.00  0.00     0.027 A 
ATOM      2  C   UNL d   1      -1.151   1.384   0.054  0.00  0.00     0.083 A 
ATOM      3  C   UNL d   1       0.053  -0.644   0.017  0.00  0.00     0.049 A 
ATOM      4  C   UNL d   1       1.383   1.358   0.041  0.00  0.00     0.056 A 
ATOM      5  C   UNL d   1       1.259  -1.337   0.004  0.00  0.00     0.070 A 
ATOM      6  N   UNL d   1      -2.324   0.720   0.030  0.00  0.00    -0.346 N 
ATOM      7  HN  UNL d   1      -3.222   1.203   0.029  1.00  0.00     0.167 HD
ATOM      8  C   UNL d   1       2.614   0.654   0.025  0.00  0.00     0.102 A 
ATOM      9  C   UNL d   1       2.549  -0.736   0.009  0.00  0.00     0.103 A 
ATOM     10  N   UNL d   1      -1.100  -1.326   0.001  0.00  0.00    -0.351 N 
ATOM     11  HN  UNL d   1      -1.114  -2.346  -0.018  1.00  0.00     0.166 HD
ATOM     12  C   UNL d   1      -2.231  -0.612   0.009  0.00  0.00     0.181 A 
ENDROOT
BRANCH   2  13
ATOM     13  S   UNL d   1      -1.278   3.177   0.024  0.00  0.00    -0.102 SA
BRANCH  13  14
ATOM     14  C   UNL d   1      -2.926   3.428   0.760  0.00  0.00     0.191 C 
BRANCH  14  15
ATOM     15  C   UNL d   1      -2.993   3.014   2.217  0.00  0.00     0.268 C 
ATOM     16  O   UNL d   1      -2.087   2.550   2.894  0.00  0.00    -0.264 OA
BRANCH  15  17
ATOM     17  O   UNL d   1      -4.251   3.278   2.693  0.00  0.00    -0.326 OA
ATOM     18  C   UNL d   1      -4.431   2.948   4.072  0.00  0.00     0.213 C 
ENDBRANCH  15  17
ENDBRANCH  14  15
ENDBRANCH  13  14
ENDBRANCH   2  13
BRANCH   8  19
ATOM     19  O   UNL d   1       3.593   1.592   0.019  0.00  0.00    -0.353 OA
ATOM     20  C   UNL d   1       4.981   1.395   0.047  0.00  0.00     0.210 C 
ENDBRANCH   8  19
BRANCH   9  21
ATOM     21  O   UNL d   1       3.461  -1.744  -0.013  0.00  0.00    -0.353 OA
ATOM     22  C   UNL d   1       4.853  -1.572   0.008  0.00  0.00     0.210 C 
ENDBRANCH   9  21
TORSDOF 6
