REMARK  6 active torsions:
REMARK  status: ('A' for Active; 'I' for Inactive)
REMARK    1  A    between atoms: C_2  and  S_1 
REMARK    2  A    between atoms: C_5  and  S_1 
REMARK    3  A    between atoms: C_3  and  C_6 
REMARK    4  A    between atoms: C_4  and  C_7 
REMARK    5  A    between atoms: N_15  and  C_8 
REMARK    6  A    between atoms: C_16  and  N_15 
ROOT
ATOM      1  C   UNL d   1       0.379   1.041   1.197  0.00  0.00     0.159 C 
ATOM      2  C   UNL d   1      -0.399   2.096   0.885  0.00  0.00     0.123 C 
ATOM      3  C   UNL d   1       0.849   0.126   0.225  0.00  0.00     0.113 C 
ATOM      4  N   UNL d   1       1.218  -0.580  -0.617  0.00  0.00    -0.191 NA
ENDROOT
BRANCH   1   5
ATOM      5  S   UNL d   1       0.740   0.717   2.861  0.00  0.00     0.218 S 
ATOM      6  O   UNL d   1       0.218  -0.592   3.211  0.00  0.00    -0.216 OA
ATOM      7  O   UNL d   1       0.387   1.865   3.681  0.00  0.00    -0.216 OA
BRANCH   5   8
ATOM      8  C   UNL d   1       2.522   0.594   2.937  0.00  0.00     0.065 A 
ATOM      9  C   UNL d   1       3.132  -0.659   2.813  0.00  0.00     0.036 A 
ATOM     10  C   UNL d   1       4.521  -0.791   2.997  0.00  0.00    -0.025 A 
ATOM     11  C   UNL d   1       5.157  -2.040   2.894  0.00  0.00     0.012 A 
ATOM     12  C   UNL d   1       5.293   0.352   3.312  0.00  0.00    -0.026 A 
ATOM     13  C   UNL d   1       6.533  -2.160   3.095  0.00  0.00     0.001 A 
ATOM     14  C   UNL d   1       7.293  -1.035   3.398  0.00  0.00     0.001 A 
ATOM     15  C   UNL d   1       6.678   0.213   3.506  0.00  0.00     0.012 A 
ATOM     16  C   UNL d   1       4.657   1.597   3.445  0.00  0.00     0.014 A 
ATOM     17  C   UNL d   1       3.277   1.721   3.269  0.00  0.00     0.025 A 
ENDBRANCH   5   8
ENDBRANCH   1   5
BRANCH   2  18
ATOM     18  N   UNL d   1      -0.901   2.445  -0.351  0.00  0.00    -0.364 N 
ATOM     19  H   UNL d   1      -0.768   1.774  -1.107  0.00  0.00     0.165 HD
BRANCH  18  20
ATOM     20  C   UNL d   1      -1.435   3.675  -0.773  0.00  0.00     0.033 A 
ATOM     21  C   UNL d   1      -1.253   4.875  -0.079  0.00  0.00     0.045 A 
ATOM     22  C   UNL d   1      -1.806   6.083  -0.547  0.00  0.00     0.050 A 
ATOM     23  C   UNL d   1      -2.599   6.071  -1.704  0.00  0.00     0.032 A 
ATOM     24  C   UNL d   1      -2.820   4.879  -2.405  0.00  0.00     0.050 A 
ATOM     25  C   UNL d   1      -2.235   3.694  -1.927  0.00  0.00     0.045 A 
BRANCH  22  26
ATOM     26  C   UNL d   1      -1.506   7.371   0.185  0.00  0.00     0.417 C 
ATOM     27  F   UNL d   1      -2.071   8.468  -0.391  0.00  0.00    -0.166 F 
ATOM     28  F   UNL d   1      -1.944   7.353   1.472  0.00  0.00    -0.166 F 
ATOM     29  F   UNL d   1      -0.170   7.627   0.245  0.00  0.00    -0.166 F 
ENDBRANCH  22  26
BRANCH  24  30
ATOM     30  C   UNL d   1      -3.654   4.849  -3.665  0.00  0.00     0.417 C 
ATOM     31  F   UNL d   1      -4.150   6.067  -4.017  0.00  0.00    -0.166 F 
ATOM     32  F   UNL d   1      -2.947   4.408  -4.741  0.00  0.00    -0.166 F 
ATOM     33  F   UNL d   1      -4.730   4.022  -3.558  0.00  0.00    -0.166 F 
ENDBRANCH  24  30
ENDBRANCH  18  20
ENDBRANCH   2  18
TORSDOF 6
