REMARK  9 active torsions:
REMARK  status: ('A' for Active; 'I' for Inactive)
REMARK    1  A    between atoms: N_5  and  S_1 
REMARK    2  A    between atoms: C_15  and  S_1 
REMARK    3  A    between atoms: C_11  and  C_2 
REMARK    4  A    between atoms: C_4  and  C_3 
REMARK    5  A    between atoms: N_10  and  N_5 
REMARK    6  A    between atoms: C_8  and  N_10 
REMARK    7  A    between atoms: C_9  and  C_18 
REMARK    8  A    between atoms: O_30  and  C_11 
REMARK    9  A    between atoms: C_31  and  O_30 
ROOT
ATOM      1  C   UNL d   1       0.019   0.469  -6.647  0.00  0.00     0.087 A 
ATOM      2  C   UNL d   1       1.300   0.792  -6.247  0.00  0.00     0.150 A 
ATOM      3  N   UNL d   1       1.616   0.885  -4.918  0.00  0.00    -0.184 N 
ATOM      4  HN  UNL d   1       2.551   1.171  -4.629  1.00  0.00     0.184 HD
ATOM      5  C   UNL d   1       0.681   0.596  -4.003  0.00  0.00     0.697 A 
ATOM      6  N   UNL d   1      -0.568   0.240  -4.315  0.00  0.00    -0.199 N 
ATOM      7  HN  UNL d   1      -1.257   0.020  -3.596  1.00  0.00     0.183 HD
ATOM      8  C   UNL d   1      -0.873   0.186  -5.631  0.00  0.00     0.126 A 
ENDROOT
BRANCH   5   9
ATOM      9  N   UNL d   1       1.079   0.670  -2.678  0.00  0.00    -0.122 N 
ATOM     10  H   UNL d   1       2.071   0.857  -2.554  0.00  0.00     0.206 HD
BRANCH   9  11
ATOM     11  N   UNL d   1       0.321   0.206  -1.532  0.00  0.00    -0.208 N 
ATOM     12  H   UNL d   1      -0.600  -0.229  -1.649  0.00  0.00     0.201 HD
BRANCH  11  13
ATOM     13  S   UNL d   1       1.039   0.160  -0.012  0.00  0.00     0.276 S 
ATOM     14  O   UNL d   1       2.457  -0.089  -0.197  0.00  0.00    -0.199 OA
ATOM     15  O   UNL d   1       0.218  -0.666   0.843  0.00  0.00    -0.199 OA
BRANCH  13  16
ATOM     16  C   UNL d   1       0.848   1.852   0.491  0.00  0.00     0.081 A 
ATOM     17  C   UNL d   1      -0.310   2.240   1.167  0.00  0.00     0.026 A 
ATOM     18  C   UNL d   1      -0.458   3.569   1.569  0.00  0.00     0.018 A 
ATOM     19  C   UNL d   1       0.549   4.512   1.305  0.00  0.00     0.048 A 
ATOM     20  C   UNL d   1       1.711   4.101   0.628  0.00  0.00     0.018 A 
ATOM     21  C   UNL d   1       1.866   2.774   0.227  0.00  0.00     0.026 A 
BRANCH  19  22
ATOM     22  C   UNL d   1       0.408   5.950   1.748  0.00  0.00     0.417 C 
ATOM     23  F   UNL d   1      -0.762   6.208   2.394  0.00  0.00    -0.166 F 
ATOM     24  F   UNL d   1       1.399   6.329   2.602  0.00  0.00    -0.166 F 
ATOM     25  F   UNL d   1       0.459   6.822   0.704  0.00  0.00    -0.166 F 
ENDBRANCH  19  22
ENDBRANCH  13  16
ENDBRANCH  11  13
ENDBRANCH   9  11
ENDBRANCH   5   9
BRANCH   2  26
ATOM     26  C   UNL d   1       2.444   1.039  -7.208  0.00  0.00     0.434 C 
ATOM     27  F   UNL d   1       2.342   0.395  -8.402  0.00  0.00    -0.165 F 
ATOM     28  F   UNL d   1       2.616   2.361  -7.491  0.00  0.00    -0.165 F 
ATOM     29  F   UNL d   1       3.641   0.617  -6.699  0.00  0.00    -0.165 F 
ENDBRANCH   2  26
BRANCH   1  30
ATOM     30  C   UNL d   1      -0.479   0.347  -8.022  0.00  0.00     0.296 C 
ATOM     31  O   UNL d   1      -1.340  -0.463  -8.331  0.00  0.00    -0.259 OA
BRANCH  30  32
ATOM     32  O   UNL d   1       0.080   1.278  -8.824  0.00  0.00    -0.318 OA
BRANCH  32  33
ATOM     33  C   UNL d   1      -0.315   1.209 -10.207  0.00  0.00     0.174 C 
ATOM     34  C   UNL d   1       0.392   0.067 -10.920  0.00  0.00     0.034 C 
ENDBRANCH  32  33
ENDBRANCH  30  32
ENDBRANCH   1  30
TORSDOF 9
