REMARK  6 active torsions:
REMARK  status: ('A' for Active; 'I' for Inactive)
REMARK    1  A    between atoms: C_6  and  N_1 
REMARK    2  A    between atoms: C_2  and  N_7 
REMARK    3  A    between atoms: N_4  and  C_2 
REMARK    4  A    between atoms: C_3  and  C_12 
REMARK       I    between atoms: N_5  and  C_3 
REMARK    5  A    between atoms: C_8  and  N_4 
REMARK    6  A    between atoms: N_7  and  N_5 
ROOT
ATOM      1  C   UNL d   1      -1.823   3.595  -3.140  0.00  0.00     0.270 C 
ATOM      2  N   UNL d   1      -2.744   4.549  -2.762  0.00  0.00    -0.264 N 
ATOM      3  O   UNL d   1      -1.327   3.640  -4.265  0.00  0.00    -0.266 OA
ATOM      4  H   UNL d   1      -2.987   5.242  -3.468  0.00  0.00     0.190 HD
ENDROOT
BRANCH   2   5
ATOM      5  N   UNL d   1      -3.153   4.823  -1.456  0.00  0.00    -0.273 N 
ATOM      6  H   UNL d   1      -2.483   4.675  -0.708  0.00  0.00     0.189 HD
BRANCH   5   7
ATOM      7  C   UNL d   1      -4.475   5.063  -1.160  0.00  0.00     0.191 C 
ATOM      8  S   UNL d   1      -5.737   4.987  -2.258  0.00  0.00    -0.039 SA
BRANCH   7   9
ATOM      9  N   UNL d   1      -4.777   5.310   0.149  0.00  0.00    -0.331 N 
ATOM     10  H   UNL d   1      -5.753   5.146   0.391  0.00  0.00     0.168 HD
BRANCH   9  11
ATOM     11  C   UNL d   1      -4.005   5.898   1.178  0.00  0.00     0.056 A 
ATOM     12  C   UNL d   1      -4.444   5.785   2.509  0.00  0.00     0.060 A 
ATOM     13 CL   UNL d   1      -5.855   4.867   2.910  0.00  0.00    -0.082 Cl
ATOM     14  C   UNL d   1      -3.741   6.399   3.550  0.00  0.00     0.026 A 
ATOM     15  C   UNL d   1      -2.604   7.154   3.268  0.00  0.00     0.002 A 
ATOM     16  C   UNL d   1      -2.174   7.295   1.950  0.00  0.00     0.002 A 
ATOM     17  C   UNL d   1      -2.871   6.674   0.910  0.00  0.00     0.031 A 
ENDBRANCH   9  11
ENDBRANCH   7   9
ENDBRANCH   5   7
ENDBRANCH   2   5
BRANCH   1  18
ATOM     18  C   UNL d   1      -1.390   2.519  -2.208  0.00  0.00     0.033 A 
ATOM     19  C   UNL d   1      -2.246   1.938  -1.263  0.00  0.00     0.019 A 
ATOM     20  C   UNL d   1      -1.778   0.925  -0.416  0.00  0.00     0.037 A 
ATOM     21  C   UNL d   1      -0.456   0.471  -0.536  0.00  0.00     0.102 A 
ATOM     22  C   UNL d   1       0.392   1.008  -1.512  0.00  0.00     0.037 A 
ATOM     23  C   UNL d   1      -0.081   2.028  -2.345  0.00  0.00     0.019 A 
BRANCH  21  24
ATOM     24  N   UNL d   1       0.044  -0.574   0.367  0.00  0.00    -0.116 N 
ATOM     25  O   UNL d   1       1.199  -0.982   0.193  0.00  0.00    -0.532 OA
ATOM     26  O   UNL d   1      -0.718  -0.973   1.260  0.00  0.00    -0.532 OA
ENDBRANCH  21  24
ENDBRANCH   1  18
TORSDOF 6
