REMARK  4 active torsions:
REMARK  status: ('A' for Active; 'I' for Inactive)
REMARK    1  A    between atoms: C_6  and  N_1 
REMARK    2  A    between atoms: N_7  and  C_6 
REMARK    3  A    between atoms: C_11  and  N_8 
REMARK    4  A    between atoms: C_18  and  C_11 
ROOT
ATOM      1  N   UNL d   1       3.815   0.914   0.353  0.00  0.00     0.109 N 
ATOM      2  N   UNL d   1       2.307   3.353   1.347  0.00  0.00     0.096 N 
ATOM      3  C   UNL d   1       3.020   0.948   1.595  0.00  0.00     0.304 C 
ATOM      4  C   UNL d   1       4.152   2.285  -0.084  0.00  0.00     0.304 C 
ATOM      5  C   UNL d   1       1.858   1.966   1.593  0.00  0.00     0.303 C 
ATOM      6  C   UNL d   1       3.044   3.362   0.066  0.00  0.00     0.303 C 
ENDROOT
BRANCH   1   7
ATOM      7  C   UNL d   1       3.204   0.105  -0.712  0.00  0.00     0.408 C 
BRANCH   7   8
ATOM      8  N   UNL d   1       3.323  -1.288  -0.336  0.00  0.00    -0.252 N 
ATOM      9  C   UNL d   1       2.376  -1.966   0.377  0.00  0.00     0.263 A 
ATOM     10  C   UNL d   1       3.022  -3.173   0.878  0.00  0.00     0.048 A 
ATOM     11  O   UNL d   1       1.227  -1.653   0.634  0.00  0.00    -0.267 OA
ATOM     12  C   UNL d   1       2.586  -4.090   1.818  0.00  0.00     0.018 A 
ATOM     13  C   UNL d   1       4.289  -3.225   0.332  0.00  0.00     0.048 A 
ATOM     14  C   UNL d   1       3.477  -5.103   2.180  0.00  0.00     0.001 A 
ATOM     15  C   UNL d   1       4.756  -5.180   1.595  0.00  0.00     0.001 A 
ATOM     16  C   UNL d   1       5.180  -4.232   0.655  0.00  0.00     0.018 A 
ATOM     17  C   UNL d   1       4.474  -2.022  -0.473  0.00  0.00     0.263 A 
ATOM     18  O   UNL d   1       5.487  -1.769  -1.096  0.00  0.00    -0.267 OA
ENDBRANCH   7   8
ENDBRANCH   1   7
BRANCH   2  19
ATOM     19  C   UNL d   1       3.117   3.815   2.493  0.00  0.00     0.311 C 
BRANCH  19  20
ATOM     20  C   UNL d   1       3.545   5.262   2.446  0.00  0.00    -0.030 A 
ATOM     21  C   UNL d   1       2.601   6.295   2.398  0.00  0.00     0.009 A 
ATOM     22  C   UNL d   1       3.014   7.628   2.423  0.00  0.00     0.001 A 
ATOM     23  C   UNL d   1       4.372   7.939   2.497  0.00  0.00     0.000 A 
ATOM     24  C   UNL d   1       5.319   6.920   2.547  0.00  0.00     0.001 A 
ATOM     25  C   UNL d   1       4.909   5.588   2.523  0.00  0.00     0.009 A 
ENDBRANCH  19  20
ENDBRANCH   2  19
TORSDOF 4
