REMARK  2 active torsions:
REMARK  status: ('A' for Active; 'I' for Inactive)
REMARK    1  A    between atoms: C_2  and  C_1 
REMARK       I    between atoms: N_6  and  C_2 
REMARK    2  A    between atoms: N_9  and  N_6 
ROOT
ATOM      1  C   UNL d   1       0.027   1.006  -0.009  0.00  0.00     0.110 A 
ATOM      2  C   UNL d   1      -1.174   0.291  -0.015  0.00  0.00     0.135 A 
ATOM      3  C   UNL d   1       1.217   0.274   0.007  0.00  0.00     0.135 A 
ATOM      4  F   UNL d   1       2.411   0.891   0.015  0.00  0.00    -0.205 F 
ATOM      5  F   UNL d   1      -2.362   0.912  -0.032  0.00  0.00    -0.205 F 
ATOM      6  C   UNL d   1       0.012  -1.817   0.004  0.00  0.00     0.006 A 
ATOM      7  C   UNL d   1      -1.185  -1.106  -0.009  0.00  0.00     0.043 A 
ATOM      8  C   UNL d   1       1.218  -1.123   0.013  0.00  0.00     0.043 A 
ENDROOT
BRANCH   1   9
ATOM      9  C   UNL d   1       0.007   2.494  -0.045  0.00  0.00     0.271 C 
ATOM     10  O   UNL d   1      -1.047   3.121  -0.101  0.00  0.00    -0.266 OA
ATOM     11  N   UNL d   1       1.236   3.149  -0.031  0.00  0.00    -0.289 N 
ATOM     12  H   UNL d   1       2.108   2.638   0.110  0.00  0.00     0.183 HD
BRANCH  11  13
ATOM     13  N   UNL d   1       1.269   4.560  -0.053  0.00  0.00    -0.247 NA
ATOM     14  H   UNL d   1       0.291   4.875   0.030  0.00  0.00     0.143 HD
ATOM     15  H   UNL d   1       1.542   4.854  -0.995  0.00  0.00     0.143 HD
ENDBRANCH  11  13
ENDBRANCH   1   9
TORSDOF 2
