REMARK  4 active torsions:
REMARK  status: ('A' for Active; 'I' for Inactive)
REMARK    1  A    between atoms: C_7  and  N_1 
REMARK    2  A    between atoms: C_10  and  C_6 
REMARK    3  A    between atoms: C_13  and  N_8 
REMARK    4  A    between atoms: O_24  and  C_10 
ROOT
ATOM      1  N   UNL d   1       0.422  -1.080   0.208  0.00  0.00    -0.257 N 
ATOM      2  C   UNL d   1      -0.920  -0.840   0.486  0.00  0.00     0.160 C 
ATOM      3  C   UNL d   1       0.195   1.189  -0.441  0.00  0.00     0.082 C 
ATOM      4  C   UNL d   1       1.101   0.009  -0.347  0.00  0.00     0.271 C 
ATOM      5  S   UNL d   1      -1.213   0.888   0.472  0.00  0.00    -0.048 SA
ATOM      6  C   UNL d   1       0.504   2.271  -1.165  0.00  0.00     0.106 C 
ATOM      7  N   UNL d   1      -1.806  -1.769   0.673  0.00  0.00    -0.336 N 
ATOM      8  HN  UNL d   1      -1.487  -2.738   0.667  1.00  0.00     0.168 HD
ATOM      9  O   UNL d   1       2.260   0.091  -0.733  0.00  0.00    -0.266 OA
ENDROOT
BRANCH   1  10
ATOM     10  C   UNL d   1       1.063  -2.348   0.465  0.00  0.00     0.045 A 
ATOM     11  C   UNL d   1       2.280  -2.710  -0.136  0.00  0.00     0.037 A 
ATOM     12  C   UNL d   1       2.942  -3.921   0.164  0.00  0.00    -0.054 A 
ATOM     13  C   UNL d   1       4.260  -4.219  -0.498  0.00  0.00     0.049 C 
ATOM     14  C   UNL d   1       2.369  -4.817   1.080  0.00  0.00    -0.056 A 
ATOM     15  C   UNL d   1       1.155  -4.477   1.678  0.00  0.00     0.009 A 
ATOM     16  C   UNL d   1       3.033  -6.114   1.447  0.00  0.00     0.049 C 
ATOM     17  C   UNL d   1       0.524  -3.263   1.382  0.00  0.00     0.031 A 
ENDBRANCH   1  10
BRANCH   7  18
ATOM     18  C   UNL d   1      -3.175  -1.533   0.884  0.00  0.00     0.034 C 
ATOM     19  C   UNL d   1      -3.929  -0.657   0.098  0.00  0.00     0.036 C 
ATOM     20  C   UNL d   1      -5.280  -0.392   0.363  0.00  0.00    -0.054 C 
ATOM     21  C   UNL d   1      -5.955   0.711  -0.403  0.00  0.00     0.049 C 
ATOM     22  C   UNL d   1      -5.946  -1.146   1.343  0.00  0.00    -0.056 C 
ATOM     23  C   UNL d   1      -5.218  -2.092   2.081  0.00  0.00     0.009 C 
ATOM     24  C   UNL d   1      -7.416  -0.963   1.593  0.00  0.00     0.049 C 
ATOM     25  C   UNL d   1      -3.845  -2.267   1.864  0.00  0.00     0.030 C 
ENDBRANCH   7  18
BRANCH   6  26
ATOM     26  C   UNL d   1      -0.431   3.390  -1.391  0.00  0.00     0.283 C 
ATOM     27  O   UNL d   1      -1.645   3.311  -1.374  0.00  0.00    -0.260 OA
BRANCH  26  28
ATOM     28  O   UNL d   1       0.290   4.511  -1.650  0.00  0.00    -0.323 OA
ATOM     29  C   UNL d   1      -0.530   5.663  -1.869  0.00  0.00     0.213 C 
ENDBRANCH  26  28
ENDBRANCH   6  26
TORSDOF 4
