REMARK  4 active torsions:
REMARK  status: ('A' for Active; 'I' for Inactive)
REMARK    1  A    between atoms: C_16  and  C_3 
REMARK    2  A    between atoms: O_11  and  C_8 
REMARK    3  A    between atoms: C_12  and  O_11 
REMARK    4  A    between atoms: O_17  and  C_16 
ROOT
ATOM      1  C   UNL d   1       0.561  -0.619   0.016  0.00  0.00     0.093 A 
ATOM      2  C   UNL d   1       0.200   0.731   0.013  0.00  0.00     0.008 A 
ATOM      3  C   UNL d   1       1.266   1.746   0.076  0.00  0.00    -0.016 A 
ATOM      4  O   UNL d   1       1.911  -1.022   0.051  0.00  0.00    -0.275 OA
ATOM      5  C   UNL d   1       2.932  -0.092   0.071  0.00  0.00     0.288 A 
ATOM      6  C   UNL d   1       2.540   1.322   0.099  0.00  0.00     0.092 A 
ATOM      7  C   UNL d   1      -0.377  -1.652  -0.034  0.00  0.00     0.077 A 
ATOM      8  C   UNL d   1      -1.729  -1.332  -0.079  0.00  0.00     0.103 A 
ATOM      9  C   UNL d   1      -1.168   1.034  -0.056  0.00  0.00     0.041 A 
ATOM     10  C   UNL d   1      -2.126   0.011  -0.108  0.00  0.00     0.069 A 
ATOM     11  O   UNL d   1       4.116  -0.413   0.058  0.00  0.00    -0.260 OA
ATOM     12 CL   UNL d   1      -3.793   0.449  -0.218  0.00  0.00    -0.081 Cl
ENDROOT
BRANCH   8  13
ATOM     13  O   UNL d   1      -2.730  -2.323  -0.199  0.00  0.00    -0.277 OA
BRANCH  13  14
ATOM     14  C   UNL d   1      -2.619  -3.558   0.439  0.00  0.00     0.260 C 
ATOM     15  O   UNL d   1      -1.725  -3.910   1.196  0.00  0.00    -0.265 OA
ATOM     16  C   UNL d   1      -3.799  -4.415   0.086  0.00  0.00     0.126 C 
ENDBRANCH  13  14
ENDBRANCH   8  13
BRANCH   3  17
ATOM     17  C   UNL d   1       0.949   3.218   0.094  0.00  0.00     0.206 C 
BRANCH  17  18
ATOM     18  O   UNL d   1       0.188   3.521   1.260  0.00  0.00    -0.391 OA
ATOM     19  C   UNL d   1      -0.022   4.920   1.403  0.00  0.00     0.201 C 
ENDBRANCH  17  18
ENDBRANCH   3  17
TORSDOF 4
