REMARK  2 active torsions:
REMARK  status: ('A' for Active; 'I' for Inactive)
REMARK       I    between atoms: N_2  and  C_1 
REMARK    1  A    between atoms: C_3  and  C_1 
REMARK    2  A    between atoms: C_4  and  C_5 
ROOT
ATOM      1  C   UNL d   1       0.270  -0.265   1.237  0.00  0.00     0.032 A 
ATOM      2  C   UNL d   1      -1.262  -1.095   3.482  0.00  0.00    -0.051 A 
ATOM      3  C   UNL d   1       0.483   0.302   2.491  0.00  0.00     0.017 A 
ATOM      4  C   UNL d   1      -0.762  -1.192   1.084  0.00  0.00     0.017 A 
ATOM      5  C   UNL d   1      -0.236  -0.142   3.603  0.00  0.00     0.009 A 
ATOM      6  C   UNL d   1      -1.520  -1.598   2.194  0.00  0.00     0.009 A 
ENDROOT
BRANCH   1   7
ATOM      7  C   UNL d   1       1.077   0.149   0.046  0.00  0.00     0.253 C 
ATOM      8  N   UNL d   1       2.470   0.321   0.176  0.00  0.00    -0.348 N 
ATOM      9  C   UNL d   1       3.229  -0.116   1.350  0.00  0.00     0.126 C 
ATOM     10  C   UNL d   1       3.174   1.050  -0.878  0.00  0.00     0.126 C 
ATOM     11  C   UNL d   1       4.700  -0.458   1.156  0.00  0.00     0.020 C 
ATOM     12  C   UNL d   1       4.969  -1.346  -0.050  0.00  0.00     0.002 C 
ATOM     13  C   UNL d   1       5.183  -0.520  -1.313  0.00  0.00     0.002 C 
ATOM     14  C   UNL d   1       3.926   0.153  -1.861  0.00  0.00     0.020 C 
ATOM     15  O   UNL d   1       0.476   0.334  -1.008  0.00  0.00    -0.267 OA
ENDBRANCH   1   7
BRANCH   2  16
ATOM     16  C   UNL d   1      -2.054  -1.518   4.733  0.00  0.00    -0.024 C 
ATOM     17  C   UNL d   1      -3.255  -2.437   4.425  0.00  0.00     0.019 C 
ATOM     18  C   UNL d   1      -1.122  -2.276   5.703  0.00  0.00     0.019 C 
ATOM     19  C   UNL d   1      -2.611  -0.267   5.450  0.00  0.00     0.019 C 
ENDBRANCH   2  16
TORSDOF 2
