REMARK  8 active torsions:
REMARK  status: ('A' for Active; 'I' for Inactive)
REMARK    1  A    between atoms: N_3  and  C_1 
REMARK    2  A    between atoms: C_4  and  C_1 
REMARK    3  A    between atoms: C_6  and  C_2 
REMARK    4  A    between atoms: C_8  and  N_3 
REMARK    5  A    between atoms: O_17  and  C_4 
REMARK    6  A    between atoms: O_5  and  C_10 
REMARK    7  A    between atoms: C_7  and  O_5 
REMARK    8  A    between atoms: O_19  and  C_6 
ROOT
ATOM      1  C   UNL d   1       3.117   1.080   0.761  0.00  0.00     0.047 C 
ATOM      2  C   UNL d   1       2.850   1.288   2.127  0.00  0.00     0.097 C 
ATOM      3  C   UNL d   1       4.283   1.639   0.218  0.00  0.00     0.027 C 
ATOM      4  C   UNL d   1       3.622   2.211   2.854  0.00  0.00     0.039 C 
ATOM      5  C   UNL d   1       4.751   2.791   2.284  0.00  0.00     0.003 C 
ATOM      6  C   UNL d   1       5.100   2.481   0.974  0.00  0.00     0.002 C 
ENDROOT
BRANCH   1   7
ATOM      7  N   UNL d   1       2.361   0.227  -0.086  0.00  0.00    -0.252 NA
ATOM      8  H   UNL d   1       2.754  -0.719  -0.037  0.00  0.00     0.134 HD
BRANCH   7   9
ATOM      9  C   UNL d   1       0.966   0.150  -0.051  0.00  0.00     0.094 C 
ATOM     10  C   UNL d   1       0.055   1.137  -0.144  0.00  0.00     0.112 C 
BRANCH  10  11
ATOM     11  C   UNL d   1       0.380   2.552  -0.415  0.00  0.00     0.284 C 
ATOM     12  O   UNL d   1       1.381   2.970  -0.965  0.00  0.00    -0.260 OA
BRANCH  11  13
ATOM     13  O   UNL d   1      -0.677   3.296   0.004  0.00  0.00    -0.323 OA
ATOM     14  C   UNL d   1      -0.574   4.707  -0.210  0.00  0.00     0.213 C 
ENDBRANCH  11  13
ENDBRANCH  10  11
BRANCH   9  15
ATOM     15  C   UNL d   1       0.365  -1.232   0.052  0.00  0.00     0.304 C 
ATOM     16  O   UNL d   1      -0.824  -1.492   0.144  0.00  0.00    -0.258 OA
BRANCH  15  17
ATOM     17  O   UNL d   1       1.382  -2.142   0.007  0.00  0.00    -0.322 OA
ATOM     18  C   UNL d   1       0.970  -3.507   0.079  0.00  0.00     0.213 C 
ENDBRANCH  15  17
ENDBRANCH   9  15
ENDBRANCH   7   9
ENDBRANCH   1   7
BRANCH   2  19
ATOM     19  O   UNL d   1       1.825   0.568   2.721  0.00  0.00    -0.307 OA
BRANCH  19  20
ATOM     20  C   UNL d   1       1.965   0.214   4.050  0.00  0.00     0.098 A 
ATOM     21  C   UNL d   1       0.871   0.376   4.909  0.00  0.00     0.069 A 
ATOM     22  C   UNL d   1       1.005   0.115   6.275  0.00  0.00     0.050 A 
ATOM     23 CL   UNL d   1      -0.655   0.927   4.322  0.00  0.00    -0.081 Cl
ATOM     24  C   UNL d   1       2.230  -0.323   6.777  0.00  0.00     0.035 A 
ATOM     25  C   UNL d   1       3.307  -0.549   5.921  0.00  0.00     0.026 A 
ATOM     26 CL   UNL d   1       2.420  -0.579   8.467  0.00  0.00    -0.084 Cl
ATOM     27  C   UNL d   1       3.167  -0.307   4.553  0.00  0.00     0.041 A 
ENDBRANCH  19  20
ENDBRANCH   2  19
TORSDOF 8
