REMARK  5 active torsions:
REMARK  status: ('A' for Active; 'I' for Inactive)
REMARK    1  A    between atoms: C_14  and  C_3 
REMARK    2  A    between atoms: N_9  and  C_4 
REMARK    3  A    between atoms: C_15  and  N_9 
REMARK    4  A    between atoms: C_16  and  N_10 
REMARK    5  A    between atoms: C_21  and  C_16 
ROOT
ATOM      1  C   UNL d   1       1.352  -2.124  -0.938  0.00  0.00     0.070 A 
ATOM      2  S   UNL d   1       1.109  -1.215  -2.379  0.00  0.00    -0.084 SA
ATOM      3  C   UNL d   1       2.791  -0.939  -2.611  0.00  0.00     0.018 A 
ATOM      4  C   UNL d   1       0.416  -2.760  -0.103  0.00  0.00     0.101 A 
ATOM      5  C   UNL d   1       3.518  -1.523  -1.591  0.00  0.00     0.050 A 
ATOM      6  C   UNL d   1       2.706  -2.198  -0.634  0.00  0.00     0.054 A 
ATOM      7  N   UNL d   1       0.906  -3.419   0.972  0.00  0.00    -0.342 N 
ATOM      8  HN  UNL d   1       0.275  -3.908   1.607  1.00  0.00     0.167 HD
ATOM      9  N   UNL d   1       3.180  -2.854   0.453  0.00  0.00    -0.351 N 
ATOM     10  HN  UNL d   1       4.173  -2.908   0.683  1.00  0.00     0.166 HD
ATOM     11  C   UNL d   1       2.228  -3.424   1.195  0.00  0.00     0.182 A 
ENDROOT
BRANCH   4  12
ATOM     12  N   UNL d   1      -0.970  -2.725  -0.347  0.00  0.00    -0.273 NA
ATOM     13  H   UNL d   1      -1.133  -2.430  -1.307  0.00  0.00     0.129 HD
BRANCH  12  14
ATOM     14  C   UNL d   1      -1.713  -3.934   0.055  0.00  0.00     0.065 C 
ATOM     15  C   UNL d   1      -2.935  -4.142  -0.851  0.00  0.00     0.050 C 
ATOM     16  C   UNL d   1      -4.130  -3.262  -0.482  0.00  0.00     0.274 C 
ATOM     17  N   UNL d   1      -4.500  -3.391   0.938  0.00  0.00     0.092 N 
ATOM     18  C   UNL d   1      -3.356  -2.989   1.774  0.00  0.00     0.274 C 
ATOM     19  C   UNL d   1      -2.144  -3.886   1.524  0.00  0.00     0.050 C 
BRANCH  17  20
ATOM     20  C   UNL d   1      -5.691  -2.554   1.202  0.00  0.00     0.311 C 
BRANCH  20  21
ATOM     21  C   UNL d   1      -6.208  -2.589   2.627  0.00  0.00    -0.030 A 
ATOM     22  C   UNL d   1      -6.207  -1.421   3.406  0.00  0.00     0.009 A 
ATOM     23  C   UNL d   1      -6.699  -1.434   4.712  0.00  0.00     0.001 A 
ATOM     24  C   UNL d   1      -7.200  -2.615   5.255  0.00  0.00     0.000 A 
ATOM     25  C   UNL d   1      -7.208  -3.781   4.494  0.00  0.00     0.001 A 
ATOM     26  C   UNL d   1      -6.715  -3.771   3.186  0.00  0.00     0.009 A 
ENDBRANCH  20  21
ENDBRANCH  17  20
ENDBRANCH  12  14
ENDBRANCH   4  12
BRANCH   3  27
ATOM     27  C   UNL d   1       3.285  -0.151  -3.758  0.00  0.00    -0.019 A 
ATOM     28  C   UNL d   1       4.433   0.648  -3.623  0.00  0.00     0.013 A 
ATOM     29  C   UNL d   1       4.919   1.403  -4.696  0.00  0.00     0.001 A 
ATOM     30  C   UNL d   1       4.266   1.370  -5.924  0.00  0.00     0.000 A 
ATOM     31  C   UNL d   1       3.133   0.577  -6.082  0.00  0.00     0.001 A 
ATOM     32  C   UNL d   1       2.650  -0.179  -5.010  0.00  0.00     0.013 A 
ENDBRANCH   3  27
TORSDOF 5
