REMARK  4 active torsions:
REMARK  status: ('A' for Active; 'I' for Inactive)
REMARK    1  A    between atoms: C_5  and  C_1 
REMARK    2  A    between atoms: C_12  and  N_4 
REMARK       I    between atoms: C_7  and  N_10 
REMARK    3  A    between atoms: C_9  and  C_7 
REMARK    4  A    between atoms: N_10  and  C_22 
ROOT
ATOM      1  C   UNL d   1       1.989   1.450   0.163  0.00  0.00     0.056 A 
ATOM      2  C   UNL d   1       3.057   1.106  -0.676  0.00  0.00     0.034 A 
ATOM      3  C   UNL d   1       2.097   2.588   0.968  0.00  0.00     0.034 A 
ATOM      4  C   UNL d   1       4.290   3.080   0.035  0.00  0.00     0.035 A 
ATOM      5  C   UNL d   1       3.244   3.392   0.905  0.00  0.00     0.032 A 
ATOM      6  C   UNL d   1       4.196   1.918  -0.739  0.00  0.00     0.032 A 
ENDROOT
BRANCH   1   7
ATOM      7  N   UNL d   1       0.809   0.656   0.164  0.00  0.00    -0.267 N 
ATOM      8  N   UNL d   1       0.734  -0.481  -0.574  0.00  0.00    -0.290 N 
ATOM      9  C   UNL d   1      -0.501  -0.972  -0.361  0.00  0.00     0.134 A 
ATOM     10  HN  UNL d   1       1.462  -0.880  -1.167  1.00  0.00     0.187 HD
ATOM     11  C   UNL d   1      -1.233  -0.128   0.509  0.00  0.00     0.055 A 
ATOM     12  C   UNL d   1      -0.373   0.894   0.830  0.00  0.00     0.119 A 
BRANCH   9  13
ATOM     13  C   UNL d   1      -1.001  -2.248  -0.983  0.00  0.00     0.434 C 
ATOM     14  F   UNL d   1      -0.099  -2.849  -1.803  0.00  0.00    -0.165 F 
ATOM     15  F   UNL d   1      -1.338  -3.164  -0.034  0.00  0.00    -0.165 F 
ATOM     16  F   UNL d   1      -2.123  -2.037  -1.724  0.00  0.00    -0.165 F 
ENDBRANCH   9  13
ENDBRANCH   1   7
BRANCH   4  17
ATOM     17  N   UNL d   1       5.423   3.896  -0.155  0.00  0.00    -0.323 N 
ATOM     18  C   UNL d   1       5.702   5.120   0.434  0.00  0.00     0.263 C 
ATOM     19  O   UNL d   1       5.053   5.605   1.356  0.00  0.00    -0.267 OA
ATOM     20  H   UNL d   1       6.080   3.597  -0.867  0.00  0.00     0.169 HD
BRANCH  18  21
ATOM     21  C   UNL d   1       6.838   5.838  -0.143  0.00  0.00     0.072 A 
ATOM     22  S   UNL d   1       7.790   5.205  -1.422  0.00  0.00    -0.097 SA
ATOM     23  C   UNL d   1       8.745   6.621  -1.507  0.00  0.00     0.050 A 
ATOM     24  C   UNL d   1       8.369   7.555  -0.568  0.00  0.00     0.009 A 
ATOM     25  C   UNL d   1       7.278   7.097   0.224  0.00  0.00     0.025 A 
ENDBRANCH  18  21
ENDBRANCH   4  17
TORSDOF 4
