REMARK  8 active torsions:
REMARK  status: ('A' for Active; 'I' for Inactive)
REMARK    1  A    between atoms: C_3  and  C_1 
REMARK    2  A    between atoms: N_2  and  C_4 
REMARK    3  A    between atoms: C_7  and  O_11 
REMARK    4  A    between atoms: C_23  and  N_10 
REMARK    5  A    between atoms: O_11  and  C_27 
REMARK    6  A    between atoms: C_28  and  C_23 
REMARK    7  A    between atoms: C_27  and  C_28 
REMARK    8  A    between atoms: O_30  and  C_28 
ROOT
ATOM      1  N   UNL d   1      -1.250   0.253   5.331  0.00  0.00    -0.364 N 
ATOM      2  N   UNL d   1      -2.583  -0.406   7.900  0.00  0.00     0.094 N 
ATOM      3  C   UNL d   1      -0.554  -0.567   6.329  0.00  0.00     0.154 C 
ATOM      4  C   UNL d   1      -2.264   1.167   5.861  0.00  0.00     0.154 C 
ATOM      5  C   UNL d   1      -1.580  -1.286   7.238  0.00  0.00     0.292 C 
ATOM      6  C   UNL d   1      -3.214   0.425   6.844  0.00  0.00     0.292 C 
ENDROOT
BRANCH   2   7
ATOM      7  C   UNL d   1      -1.960   0.378   8.980  0.00  0.00     0.306 C 
BRANCH   7   8
ATOM      8  C   UNL d   1      -2.897   1.236   9.869  0.00  0.00     0.170 C 
BRANCH   8   9
ATOM      9  C   UNL d   1      -4.007   0.442  10.597  0.00  0.00     0.209 C 
BRANCH   9  10
ATOM     10  O   UNL d   1      -5.051   1.375  10.950  0.00  0.00    -0.347 OA
BRANCH  10  11
ATOM     11  C   UNL d   1      -6.001   0.927  11.833  0.00  0.00     0.092 A 
ATOM     12  C   UNL d   1      -6.142   1.613  13.058  0.00  0.00     0.046 A 
ATOM     13  C   UNL d   1      -7.189   1.325  13.939  0.00  0.00     0.046 A 
ATOM     14 BR   UNL d   1      -4.939   2.996  13.567  0.00  0.00    -0.048 Br
ATOM     15  C   UNL d   1      -8.113   0.345  13.605  0.00  0.00     0.036 A 
ATOM     16  C   UNL d   1      -7.995  -0.336  12.395  0.00  0.00     0.033 A 
ATOM     17 CL   UNL d   1      -9.434   0.003  14.652  0.00  0.00    -0.084 Cl
ATOM     18  C   UNL d   1      -6.965  -0.036  11.483  0.00  0.00    -0.026 A 
ATOM     19  C   UNL d   1      -7.040  -0.732  10.154  0.00  0.00     0.051 C 
ENDBRANCH  10  11
ENDBRANCH   9  10
ENDBRANCH   8   9
BRANCH   8  20
ATOM     20  O   UNL d   1      -2.075   1.920  10.834  0.00  0.00    -0.392 OA
ATOM     21  H   UNL d   1      -1.717   1.257  11.449  0.00  0.00     0.210 HD
ENDBRANCH   8  20
ENDBRANCH   7   8
ENDBRANCH   2   7
BRANCH   1  22
ATOM     22  C   UNL d   1      -0.764   0.282   4.041  0.00  0.00     0.103 A 
ATOM     23  C   UNL d   1      -1.027   1.321   3.153  0.00  0.00     0.049 A 
ATOM     24  C   UNL d   1      -0.567   1.261   1.831  0.00  0.00     0.021 A 
ATOM     25  C   UNL d   1       0.156   0.148   1.401  0.00  0.00     0.063 A 
ATOM     26  C   UNL d   1       0.395  -0.832   2.337  0.00  0.00     0.106 A 
ATOM     27  N   UNL d   1      -0.035  -0.777   3.622  0.00  0.00    -0.352 N 
ATOM     28  HN  UNL d   1       0.191  -1.531   4.271  1.00  0.00     0.166 HD
BRANCH  25  29
ATOM     29  C   UNL d   1       0.647   0.016  -0.006  0.00  0.00     0.418 C 
ATOM     30  F   UNL d   1       1.282  -1.164  -0.254  0.00  0.00    -0.166 F 
ATOM     31  F   UNL d   1       1.532   0.992  -0.345  0.00  0.00    -0.166 F 
ATOM     32  F   UNL d   1      -0.360   0.092  -0.920  0.00  0.00    -0.166 F 
ENDBRANCH  25  29
ENDBRANCH   1  22
TORSDOF 8
