REMARK  4 active torsions:
REMARK  status: ('A' for Active; 'I' for Inactive)
REMARK    1  A    between atoms: C_9  and  C_3 
REMARK    2  A    between atoms: C_8  and  C_7 
REMARK       I    between atoms: C_10  and  N_11 
REMARK    3  A    between atoms: N_11  and  C_17 
REMARK    4  A    between atoms: O_20  and  C_13 
ROOT
ATOM      1  N   UNL d   1       1.608  -0.091   0.249  0.00  0.00    -0.331 N 
ATOM      2  HN  UNL d   1       2.552  -0.475   0.205  1.00  0.00     0.168 HD
ATOM      3  C   UNL d   1       1.238   1.150   0.251  0.00  0.00     0.162 A 
ATOM      4  C   UNL d   1       0.413  -0.759   0.323  0.00  0.00     0.111 A 
ATOM      5  O   UNL d   1      -0.081   1.414   0.390  0.00  0.00    -0.256 OA
ATOM      6  C   UNL d   1      -0.714   0.209   0.479  0.00  0.00     0.316 A 
ATOM      7  C   UNL d   1       0.324  -2.083   0.154  0.00  0.00     0.050 C 
ATOM      8  O   UNL d   1      -1.897   0.025   0.664  0.00  0.00    -0.257 OA
ENDROOT
BRANCH   3   9
ATOM      9  C   UNL d   1       2.111   2.318   0.075  0.00  0.00     0.015 A 
ATOM     10  C   UNL d   1       3.493   2.129  -0.039  0.00  0.00     0.018 A 
ATOM     11  C   UNL d   1       4.334   3.220  -0.288  0.00  0.00     0.030 A 
ATOM     12  C   UNL d   1       3.805   4.511  -0.428  0.00  0.00     0.034 A 
ATOM     13  C   UNL d   1       2.426   4.688  -0.297  0.00  0.00     0.030 A 
ATOM     14  C   UNL d   1       1.581   3.602  -0.047  0.00  0.00     0.018 A 
BRANCH  12  15
ATOM     15  N   UNL d   1       4.704   5.562  -0.708  0.00  0.00    -0.328 N 
ATOM     16  C   UNL d   1       4.385   6.894  -0.904  0.00  0.00     0.218 C 
ATOM     17  O   UNL d   1       3.266   7.396  -0.858  0.00  0.00    -0.274 OA
ATOM     18  C   UNL d   1       5.579   7.762  -1.209  0.00  0.00     0.117 C 
ATOM     19  H   UNL d   1       5.679   5.304  -0.785  0.00  0.00     0.169 HD
ENDBRANCH  12  15
ENDBRANCH   3   9
BRANCH   7  20
ATOM     20  C   UNL d   1      -0.915  -2.846   0.011  0.00  0.00    -0.001 A 
ATOM     21  C   UNL d   1      -1.549  -3.084  -1.222  0.00  0.00     0.078 A 
ATOM     22  C   UNL d   1      -2.756  -3.796  -1.246  0.00  0.00     0.037 A 
ATOM     23  C   UNL d   1      -3.323  -4.289  -0.071  0.00  0.00     0.003 A 
ATOM     24  C   UNL d   1      -2.697  -4.057   1.149  0.00  0.00     0.001 A 
ATOM     25  C   UNL d   1      -1.501  -3.339   1.190  0.00  0.00     0.014 A 
BRANCH  21  26
ATOM     26  O   UNL d   1      -1.174  -2.627  -2.459  0.00  0.00    -0.355 OA
ATOM     27  C   UNL d   1       0.213  -2.606  -2.767  0.00  0.00     0.210 C 
ENDBRANCH  21  26
ENDBRANCH   7  20
TORSDOF 4
