REMARK  5 active torsions:
REMARK  status: ('A' for Active; 'I' for Inactive)
REMARK    1  A    between atoms: C_2  and  C_1 
REMARK    2  A    between atoms: C_21  and  C_7 
REMARK    3  A    between atoms: C_8  and  S_20 
REMARK    4  A    between atoms: C_22  and  C_11 
REMARK    5  A    between atoms: S_20  and  C_22 
ROOT
ATOM      1  C   UNL d   1       0.548  -0.874  -0.099  0.00  0.00     0.186 A 
ATOM      2  N   UNL d   1       1.316   0.196  -0.024  0.00  0.00    -0.322 N 
ATOM      3  HN  UNL d   1       2.331   0.245   0.064  1.00  0.00     0.169 HD
ATOM      4  C   UNL d   1       0.410   1.231  -0.092  0.00  0.00     0.114 A 
ATOM      5  N   UNL d   1      -0.860   0.842  -0.266  0.00  0.00    -0.246 N 
ATOM      6  HN  UNL d   1      -1.691   1.424  -0.371  1.00  0.00     0.196 HD
ATOM      7  O   UNL d   1      -0.772  -0.545  -0.267  0.00  0.00    -0.217 OA
ENDROOT
BRANCH   1   8
ATOM      8  C   UNL d   1       1.053  -2.265  -0.003  0.00  0.00     0.078 A 
ATOM      9  C   UNL d   1       0.348  -3.493   0.173  0.00  0.00     0.082 A 
ATOM     10  N   UNL d   1       1.220  -4.520   0.165  0.00  0.00    -0.259 N 
ATOM     11  O   UNL d   1       2.474  -3.975   0.001  0.00  0.00    -0.241 OA
ATOM     12  HN  UNL d   1       0.994  -5.510   0.260  1.00  0.00     0.195 HD
ATOM     13  C   UNL d   1       2.378  -2.626  -0.101  0.00  0.00     0.089 A 
ATOM     14  C   UNL d   1       3.637  -1.896  -0.339  0.00  0.00     0.080 C 
BRANCH   9  15
ATOM     15  C   UNL d   1      -1.084  -3.752   0.347  0.00  0.00    -0.006 A 
ATOM     16  C   UNL d   1      -1.896  -2.900   1.107  0.00  0.00     0.014 A 
ATOM     17  C   UNL d   1      -3.272  -3.124   1.205  0.00  0.00     0.001 A 
ATOM     18  C   UNL d   1      -3.845  -4.230   0.583  0.00  0.00     0.000 A 
ATOM     19  C   UNL d   1      -3.043  -5.119  -0.128  0.00  0.00     0.001 A 
ATOM     20  C   UNL d   1      -1.670  -4.881  -0.246  0.00  0.00     0.014 A 
ENDBRANCH   9  15
ENDBRANCH   1   8
BRANCH   4  21
ATOM     21  C   UNL d   1       0.804   2.663  -0.000  0.00  0.00     0.160 C 
BRANCH  21  22
ATOM     22  S   UNL d   1       0.471   3.331   1.666  0.00  0.00    -0.086 SA
BRANCH  22  23
ATOM     23  C   UNL d   1       0.967   4.963   1.440  0.00  0.00     0.145 A 
ATOM     24  N   UNL d   1       1.467   5.505   0.358  0.00  0.00    -0.335 N 
ATOM     25  C   UNL d   1       1.700   6.819   0.700  0.00  0.00     0.061 A 
ATOM     26  HN  UNL d   1       1.644   5.055  -0.540  1.00  0.00     0.168 HD
ATOM     27  C   UNL d   1       2.231   7.868  -0.066  0.00  0.00     0.032 A 
ATOM     28  C   UNL d   1       1.329   7.066   2.021  0.00  0.00     0.061 A 
ATOM     29  C   UNL d   1       2.375   9.129   0.527  0.00  0.00     0.002 A 
ATOM     30  C   UNL d   1       1.994   9.344   1.854  0.00  0.00     0.002 A 
ATOM     31  C   UNL d   1       1.458   8.313   2.635  0.00  0.00     0.032 A 
ATOM     32  N   UNL d   1       0.859   5.857   2.467  0.00  0.00    -0.335 N 
ATOM     33  H   UNL d   1       0.498   5.649   3.385  0.00  0.00     0.168 HD
ENDBRANCH  22  23
ENDBRANCH  21  22
ENDBRANCH   4  21
TORSDOF 5
