REMARK  4 active torsions:
REMARK  status: ('A' for Active; 'I' for Inactive)
REMARK    1  A    between atoms: N_6  and  C_1 
REMARK    2  A    between atoms: N_3  and  C_2 
REMARK    3  A    between atoms: C_7  and  C_14 
REMARK       I    between atoms: N_19  and  C_7 
REMARK    4  A    between atoms: O_20  and  C_9 
ROOT
ATOM      1  C   UNL d   1      -0.690   1.274   0.092  0.00  0.00     0.118 A 
ATOM      2  C   UNL d   1      -0.959   0.034   0.675  0.00  0.00     0.141 A 
ATOM      3  N   UNL d   1       0.596   1.648  -0.118  0.00  0.00    -0.326 N 
ATOM      4  HN  UNL d   1       0.812   2.544  -0.555  1.00  0.00     0.169 HD
ATOM      5  C   UNL d   1       0.068  -0.822   1.083  0.00  0.00     0.044 A 
ATOM      6  C   UNL d   1       1.589   0.809   0.263  0.00  0.00     0.142 A 
ATOM      7  C   UNL d   1       1.378  -0.417   0.872  0.00  0.00     0.059 A 
ENDROOT
BRANCH   1   8
ATOM      8  N   UNL d   1      -1.715   2.155  -0.291  0.00  0.00    -0.267 NA
ATOM      9  C   UNL d   1      -1.345   3.046  -1.402  0.00  0.00     0.098 C 
ATOM     10  C   UNL d   1      -2.629   3.675  -1.950  0.00  0.00     0.029 C 
ATOM     11  C   UNL d   1      -3.450   4.383  -0.860  0.00  0.00     0.080 C 
ATOM     12  C   UNL d   1      -3.618   3.498   0.386  0.00  0.00     0.029 C 
ATOM     13  C   UNL d   1      -2.289   2.894   0.842  0.00  0.00     0.098 C 
BRANCH  11  14
ATOM     14  C   UNL d   1      -2.853   5.737  -0.501  0.00  0.00     0.219 C 
ATOM     15  O   UNL d   1      -1.776   6.153  -0.911  0.00  0.00    -0.273 OA
ATOM     16  N   UNL d   1      -3.614   6.504   0.332  0.00  0.00    -0.370 N 
ATOM     17  H   UNL d   1      -4.589   6.303   0.509  0.00  0.00     0.159 HD
ATOM     18  H   UNL d   1      -3.283   7.442   0.518  0.00  0.00     0.159 HD
ENDBRANCH  11  14
ENDBRANCH   1   8
BRANCH   2  19
ATOM     19  N   UNL d   1      -2.319  -0.419   0.828  0.00  0.00    -0.112 N 
ATOM     20  O   UNL d   1      -2.955  -0.699  -0.197  0.00  0.00    -0.532 OA
ATOM     21  O   UNL d   1      -2.728  -0.564   1.990  0.00  0.00    -0.532 OA
ENDBRANCH   2  19
BRANCH   6  22
ATOM     22  O   UNL d   1       2.906   1.162   0.050  0.00  0.00    -0.341 OA
ATOM     23  C   UNL d   1       3.046   2.387  -0.664  0.00  0.00     0.211 C 
ENDBRANCH   6  22
TORSDOF 4
