REMARK  2 active torsions:
REMARK  status: ('A' for Active; 'I' for Inactive)
REMARK    1  A    between atoms: N_12  and  C_3 
REMARK    2  A    between atoms: C_14  and  N_12 
ROOT
ATOM      1  C   UNL d   1      -2.063   0.150  -0.291  0.00  0.00     0.070 A 
ATOM      2  C   UNL d   1      -1.374  -1.046  -0.172  0.00  0.00     0.138 A 
ATOM      3  C   UNL d   1      -1.360   1.344  -0.076  0.00  0.00     0.117 A 
ATOM      4  N   UNL d   1      -3.525  -1.564  -0.729  0.00  0.00    -0.307 N 
ATOM      5  HN  UNL d   1      -4.365  -2.093  -0.961  1.00  0.00     0.186 HD
ATOM      6  N   UNL d   1      -2.291  -2.033  -0.426  0.00  0.00    -0.281 N 
ATOM      7  C   UNL d   1      -3.372  -0.238  -0.648  0.00  0.00     0.126 A 
ATOM      8  N   UNL d   1      -0.074  -1.186   0.133  0.00  0.00    -0.337 N 
ATOM      9  HN  UNL d   1       0.406  -2.082   0.223  1.00  0.00     0.168 HD
ATOM     10  N   UNL d   1      -0.044   1.245   0.219  0.00  0.00    -0.338 N 
ATOM     11  HN  UNL d   1       0.519   2.081   0.373  1.00  0.00     0.168 HD
ATOM     12  C   UNL d   1       0.511   0.015   0.306  0.00  0.00     0.183 A 
ATOM     13  C   UNL d   1      -2.076  -3.458  -0.382  0.00  0.00     0.179 C 
ENDROOT
BRANCH   3  14
ATOM     14  N   UNL d   1      -1.997   2.556  -0.164  0.00  0.00    -0.371 N 
ATOM     15  H   UNL d   1      -3.006   2.515  -0.218  0.00  0.00     0.161 HD
BRANCH  14  16
ATOM     16  C   UNL d   1      -1.434   3.898  -0.257  0.00  0.00     0.083 C 
ATOM     17  C   UNL d   1      -0.270   4.050  -1.244  0.00  0.00     0.025 C 
ATOM     18  C   UNL d   1       1.125   4.220  -0.643  0.00  0.00     0.002 C 
ATOM     19  C   UNL d   1       1.144   5.070   0.619  0.00  0.00     0.000 C 
ATOM     20  C   UNL d   1       0.168   4.526   1.651  0.00  0.00     0.002 C 
ATOM     21  C   UNL d   1      -1.256   4.557   1.114  0.00  0.00     0.025 C 
ENDBRANCH  14  16
ENDBRANCH   3  14
TORSDOF 2
