REMARK  4 active torsions:
REMARK  status: ('A' for Active; 'I' for Inactive)
REMARK    1  A    between atoms: C_2  and  C_1 
REMARK    2  A    between atoms: O_3  and  C_4 
REMARK    3  A    between atoms: C_5  and  O_3 
REMARK    4  A    between atoms: N_17  and  C_7 
ROOT
ATOM      1  C   UNL d   1       0.681   1.113   0.869  0.00  0.00     0.049 A 
ATOM      2  C   UNL d   1      -0.161   3.042   2.721  0.00  0.00     0.097 A 
ATOM      3  C   UNL d   1      -0.635   1.723   2.845  0.00  0.00     0.041 A 
ATOM      4  C   UNL d   1      -0.214   0.778   1.899  0.00  0.00     0.042 A 
ATOM      5  C   UNL d   1       1.128   2.437   0.761  0.00  0.00     0.019 A 
ATOM      6  C   UNL d   1       0.703   3.396   1.679  0.00  0.00     0.040 A 
ENDROOT
BRANCH   2   7
ATOM      7  O   UNL d   1      -0.556   4.080   3.537  0.00  0.00    -0.307 OA
BRANCH   7   8
ATOM      8  C   UNL d   1      -0.358   3.999   4.901  0.00  0.00     0.098 A 
ATOM      9  C   UNL d   1      -1.113   4.870   5.704  0.00  0.00     0.069 A 
ATOM     10  C   UNL d   1      -1.026   4.812   7.097  0.00  0.00     0.050 A 
ATOM     11 CL   UNL d   1      -2.187   6.031   5.008  0.00  0.00    -0.081 Cl
ATOM     12  C   UNL d   1      -0.171   3.887   7.691  0.00  0.00     0.035 A 
ATOM     13  C   UNL d   1       0.617   3.045   6.908  0.00  0.00     0.026 A 
ATOM     14 CL   UNL d   1      -0.092   3.776   9.406  0.00  0.00    -0.084 Cl
ATOM     15  C   UNL d   1       0.539   3.115   5.514  0.00  0.00     0.041 A 
ENDBRANCH   7   8
ENDBRANCH   2   7
BRANCH   3  16
ATOM     16  N   UNL d   1      -1.676   1.370   3.717  0.00  0.00    -0.300 NA
ATOM     17  H   UNL d   1      -1.680   0.396   4.001  0.00  0.00     0.124 HD
ATOM     18  H   UNL d   1      -1.817   2.007   4.493  0.00  0.00     0.124 HD
ENDBRANCH   3  16
BRANCH   1  19
ATOM     19  C   UNL d   1       1.123   0.081  -0.138  0.00  0.00     0.417 C 
ATOM     20  F   UNL d   1       0.734  -1.185   0.171  0.00  0.00    -0.166 F 
ATOM     21  F   UNL d   1       2.479   0.030  -0.268  0.00  0.00    -0.166 F 
ATOM     22  F   UNL d   1       0.640   0.329  -1.387  0.00  0.00    -0.166 F 
ENDBRANCH   1  19
TORSDOF 4
