REMARK  7 active torsions:
REMARK  status: ('A' for Active; 'I' for Inactive)
REMARK    1  A    between atoms: C_2  and  C_1 
REMARK    2  A    between atoms: S_3  and  C_2 
REMARK    3  A    between atoms: C_4  and  C_2 
REMARK    4  A    between atoms: C_6  and  S_3 
REMARK    5  A    between atoms: C_5  and  C_4 
REMARK    6  A    between atoms: C_9  and  C_5 
REMARK    7  A    between atoms: N_16  and  C_12 
ROOT
ATOM      1  C   UNL d   1       2.462   1.478  -0.285  0.00  0.00     0.093 C 
ENDROOT
BRANCH   1   2
ATOM      2  C   UNL d   1       1.185   0.658  -0.019  0.00  0.00    -0.037 C 
ATOM      3  C   UNL d   1       0.072   1.085   0.694  0.00  0.00     0.057 C 
ATOM      4  S   UNL d   1      -1.273   0.030   0.546  0.00  0.00    -0.113 SA
ATOM      5  C   UNL d   1      -0.375  -1.075  -0.392  0.00  0.00     0.050 C 
ATOM      6  C   UNL d   1       0.934  -0.671  -0.537  0.00  0.00     0.016 C 
ENDBRANCH   1   2
BRANCH   1   7
ATOM      7  S   UNL d   1       3.172   1.131  -1.987  0.00  0.00    -0.118 SA
BRANCH   7   8
ATOM      8  C   UNL d   1       1.963   1.753  -3.171  0.00  0.00     0.022 A 
ATOM      9  C   UNL d   1       2.397   2.153  -4.455  0.00  0.00     0.022 A 
ATOM     10  C   UNL d   1       1.449   2.569  -5.401  0.00  0.00     0.024 A 
ATOM     11  C   UNL d   1       0.075   2.513  -5.124  0.00  0.00     0.002 A 
ATOM     12  C   UNL d   1      -0.356   2.110  -3.880  0.00  0.00     0.001 A 
ATOM     13  C   UNL d   1       0.583   1.749  -2.921  0.00  0.00     0.020 A 
BRANCH   9  14
ATOM     14  N   UNL d   1       3.758   2.375  -4.746  0.00  0.00    -0.302 NA
ATOM     15  H   UNL d   1       4.373   1.820  -4.154  0.00  0.00     0.124 HD
ATOM     16  H   UNL d   1       3.992   2.318  -5.730  0.00  0.00     0.124 HD
ENDBRANCH   9  14
ENDBRANCH   7   8
ENDBRANCH   1   7
BRANCH   1  17
ATOM     17  C   UNL d   1       2.316   3.000  -0.095  0.00  0.00     0.104 C 
BRANCH  17  18
ATOM     18  C   UNL d   1       3.644   3.735  -0.249  0.00  0.00     0.161 C 
ATOM     19  O   UNL d   1       4.612   3.394   0.438  0.00  0.00    -0.292 OA
BRANCH  18  20
ATOM     20  C   UNL d   1       3.784   4.919  -1.166  0.00  0.00     0.010 A 
ATOM     21  C   UNL d   1       2.772   5.357  -2.025  0.00  0.00     0.015 A 
ATOM     22  C   UNL d   1       2.928   6.534  -2.771  0.00  0.00     0.007 A 
ATOM     23  C   UNL d   1       4.108   7.284  -2.694  0.00  0.00    -0.062 A 
ATOM     24  C   UNL d   1       5.144   6.820  -1.882  0.00  0.00     0.007 A 
ATOM     25  C   UNL d   1       4.206   8.600  -3.411  0.00  0.00     0.048 C 
ATOM     26  C   UNL d   1       4.985   5.648  -1.129  0.00  0.00     0.015 A 
ENDBRANCH  18  20
ENDBRANCH  17  18
ENDBRANCH   1  17
TORSDOF 7
