REMARK  2 active torsions:
REMARK  status: ('A' for Active; 'I' for Inactive)
REMARK    1  A    between atoms: N_4  and  C_9 
REMARK    2  A    between atoms: C_13  and  C_8 
ROOT
ATOM      1  C   UNL d   1       0.691  -5.106  -1.069  0.00  0.00     0.103 A 
ATOM      2  C   UNL d   1       1.557  -3.109  -0.017  0.00  0.00    -0.032 A 
ATOM      3  C   UNL d   1       0.884  -3.719  -1.081  0.00  0.00     0.047 A 
ATOM      4  C   UNL d   1       1.172  -5.888  -0.009  0.00  0.00     0.036 A 
ATOM      5  C   UNL d   1       1.848  -5.274   1.045  0.00  0.00     0.003 A 
ATOM      6  C   UNL d   1       2.037  -3.890   1.042  0.00  0.00     0.011 A 
ENDROOT
BRANCH   2   7
ATOM      7  C   UNL d   1       1.705  -1.654   0.017  0.00  0.00     0.047 C 
ATOM      8  C   UNL d   1       0.794  -0.863   0.595  0.00  0.00     0.111 A 
ATOM      9  N   UNL d   1      -0.360  -1.250   1.223  0.00  0.00    -0.335 N 
ATOM     10  C   UNL d   1       0.932   0.617   0.632  0.00  0.00     0.316 A 
ATOM     11  C   UNL d   1      -0.864  -0.121   1.600  0.00  0.00     0.124 A 
ATOM     12  HN  UNL d   1      -0.729  -2.191   1.358  1.00  0.00     0.168 HD
ATOM     13  C   UNL d   1      -2.133   0.058   2.346  0.00  0.00     0.098 C 
ATOM     14  O   UNL d   1      -0.186   1.009   1.302  0.00  0.00    -0.261 OA
ATOM     15  O   UNL d   1       1.815   1.320   0.185  0.00  0.00    -0.257 OA
ENDBRANCH   2   7
BRANCH   1  16
ATOM     16  N   UNL d   1      -0.039  -5.746  -2.170  0.00  0.00    -0.116 N 
ATOM     17  O   UNL d   1      -0.458  -5.021  -3.083  0.00  0.00    -0.532 OA
ATOM     18  O   UNL d   1      -0.194  -6.975  -2.122  0.00  0.00    -0.532 OA
ENDBRANCH   1  16
TORSDOF 2
