REMARK  6 active torsions:
REMARK  status: ('A' for Active; 'I' for Inactive)
REMARK    1  A    between atoms: C_8  and  C_1 
REMARK    2  A    between atoms: C_11  and  C_1 
REMARK    3  A    between atoms: C_10  and  C_2 
REMARK    4  A    between atoms: C_3  and  C_6 
REMARK    5  A    between atoms: C_4  and  C_7 
REMARK    6  A    between atoms: N_26  and  C_11 
ROOT
ATOM      1  C   UNL d   1       3.223   1.865  -0.417  0.00  0.00     0.084 C 
ATOM      2  C   UNL d   1       2.699   3.089  -0.944  0.00  0.00     0.102 C 
ATOM      3  N   UNL d   1       2.269   4.095  -1.338  0.00  0.00    -0.191 NA
ENDROOT
BRANCH   1   4
ATOM      4  C   UNL d   1       3.020   0.683  -1.045  0.00  0.00     0.063 C 
ATOM      5  C   UNL d   1       2.353   0.589  -2.303  0.00  0.00     0.077 A 
ATOM      6  O   UNL d   1       2.418   1.560  -3.277  0.00  0.00    -0.310 OA
ATOM      7  C   UNL d   1       1.580  -0.449  -2.799  0.00  0.00     0.040 A 
ATOM      8  C   UNL d   1       1.696   1.155  -4.358  0.00  0.00     0.086 A 
ATOM      9  C   UNL d   1       1.155  -0.084  -4.100  0.00  0.00     0.041 A 
BRANCH   8  10
ATOM     10  C   UNL d   1       1.722   2.036  -5.519  0.00  0.00    -0.001 A 
ATOM     11  C   UNL d   1       1.545   1.483  -6.795  0.00  0.00     0.030 A 
ATOM     12  C   UNL d   1       1.659   2.262  -7.957  0.00  0.00     0.049 A 
ATOM     13  C   UNL d   1       1.927   3.631  -7.829  0.00  0.00     0.032 A 
ATOM     14  C   UNL d   1       2.107   4.216  -6.565  0.00  0.00     0.049 A 
ATOM     15  C   UNL d   1       1.986   3.411  -5.415  0.00  0.00     0.030 A 
BRANCH  12  16
ATOM     16  C   UNL d   1       1.565   1.603  -9.310  0.00  0.00     0.417 C 
ATOM     17  F   UNL d   1       1.766   2.461 -10.348  0.00  0.00    -0.166 F 
ATOM     18  F   UNL d   1       2.487   0.612  -9.461  0.00  0.00    -0.166 F 
ATOM     19  F   UNL d   1       0.353   1.024  -9.528  0.00  0.00    -0.166 F 
ENDBRANCH  12  16
BRANCH  14  20
ATOM     20  C   UNL d   1       2.494   5.673  -6.449  0.00  0.00     0.417 C 
ATOM     21  F   UNL d   1       2.676   6.274  -7.661  0.00  0.00    -0.166 F 
ATOM     22  F   UNL d   1       1.563   6.423  -5.801  0.00  0.00    -0.166 F 
ATOM     23  F   UNL d   1       3.664   5.848  -5.776  0.00  0.00    -0.166 F 
ENDBRANCH  14  20
ENDBRANCH   8  10
ENDBRANCH   1   4
BRANCH   1  24
ATOM     24  C   UNL d   1       3.982   1.906   0.887  0.00  0.00     0.115 C 
ATOM     25  S   UNL d   1       4.665   0.626   1.734  0.00  0.00    -0.059 SA
BRANCH  24  26
ATOM     26  N   UNL d   1       4.144   3.143   1.454  0.00  0.00    -0.389 N 
ATOM     27  H   UNL d   1       3.808   4.020   1.068  0.00  0.00     0.157 HD
ATOM     28  H   UNL d   1       4.658   3.209   2.327  0.00  0.00     0.157 HD
ENDBRANCH  24  26
ENDBRANCH   1  24
TORSDOF 6
