REMARK  4 active torsions:
REMARK  status: ('A' for Active; 'I' for Inactive)
REMARK    1  A    between atoms: C_2  and  S_1 
REMARK    2  A    between atoms: C_12  and  S_1 
REMARK    3  A    between atoms: N_5  and  C_3 
REMARK       I    between atoms: C_4  and  N_5 
REMARK    4  A    between atoms: C_6  and  C_4 
ROOT
ATOM      1  C   UNL d   1       0.313  -1.154  -1.610  0.00  0.00     0.098 A 
ATOM      2  C   UNL d   1      -0.703  -0.247  -2.061  0.00  0.00     0.064 A 
ATOM      3  S   UNL d   1      -0.907  -2.380  -3.507  0.00  0.00    -0.110 SA
ATOM      4  C   UNL d   1       0.306  -2.346  -2.307  0.00  0.00     0.075 A 
ATOM      5  C   UNL d   1      -1.435  -0.807  -3.091  0.00  0.00     0.080 A 
ENDROOT
BRANCH   2   6
ATOM      6  N   UNL d   1      -0.905   1.040  -1.567  0.00  0.00    -0.321 N 
ATOM      7  C   UNL d   1      -2.076   1.756  -1.698  0.00  0.00     0.257 C 
ATOM      8  O   UNL d   1      -3.169   1.308  -2.028  0.00  0.00    -0.267 OA
ATOM      9  H   UNL d   1      -0.145   1.434  -1.009  0.00  0.00     0.169 HD
BRANCH   7  10
ATOM     10  C   UNL d   1      -1.989   3.173  -1.287  0.00  0.00     0.054 A 
ATOM     11  C   UNL d   1      -1.122   4.073  -1.916  0.00  0.00     0.049 A 
ATOM     12 CL   UNL d   1      -0.131   3.631  -3.259  0.00  0.00    -0.083 Cl
ATOM     13  C   UNL d   1      -1.073   5.401  -1.483  0.00  0.00     0.025 A 
ATOM     14  C   UNL d   1      -1.894   5.832  -0.439  0.00  0.00     0.002 A 
ATOM     15  C   UNL d   1      -2.783   4.943   0.164  0.00  0.00     0.001 A 
ATOM     16  C   UNL d   1      -2.838   3.615  -0.261  0.00  0.00     0.019 A 
ENDBRANCH   7  10
ENDBRANCH   2   6
BRANCH   1  17
ATOM     17  S   UNL d   1       1.398  -0.855  -0.294  0.00  0.00     0.209 S 
ATOM     18  O   UNL d   1       1.253   0.555   0.010  0.00  0.00    -0.217 OA
ATOM     19  O   UNL d   1       2.654  -1.429  -0.738  0.00  0.00    -0.217 OA
BRANCH  17  20
ATOM     20  C   UNL d   1       0.840  -1.782   1.114  0.00  0.00     0.064 A 
ATOM     21  C   UNL d   1      -0.490  -2.197   1.237  0.00  0.00     0.024 A 
ATOM     22  C   UNL d   1      -0.863  -2.974   2.337  0.00  0.00     0.002 A 
ATOM     23  C   UNL d   1       0.077  -3.321   3.309  0.00  0.00     0.000 A 
ATOM     24  C   UNL d   1       1.401  -2.892   3.188  0.00  0.00     0.002 A 
ATOM     25  C   UNL d   1       1.786  -2.124   2.087  0.00  0.00     0.024 A 
ENDBRANCH  17  20
ENDBRANCH   1  17
TORSDOF 4
