REMARK  3 active torsions:
REMARK  status: ('A' for Active; 'I' for Inactive)
REMARK    1  A    between atoms: C_2  and  C_1 
REMARK       I    between atoms: N_6  and  C_1 
REMARK    2  A    between atoms: C_3  and  C_4 
REMARK    3  A    between atoms: N_11  and  N_6 
ROOT
ATOM      1  C   UNL d   1       0.334  -0.786   0.791  0.00  0.00     0.033 A 
ATOM      2  C   UNL d   1      -1.212  -2.487   2.453  0.00  0.00    -0.051 A 
ATOM      3  C   UNL d   1       0.718  -1.010   2.114  0.00  0.00     0.017 A 
ATOM      4  C   UNL d   1      -0.815  -1.402   0.296  0.00  0.00     0.017 A 
ATOM      5  C   UNL d   1      -0.048  -1.849   2.932  0.00  0.00     0.009 A 
ATOM      6  C   UNL d   1      -1.581  -2.235   1.120  0.00  0.00     0.009 A 
ENDROOT
BRANCH   1   7
ATOM      7  C   UNL d   1       1.147   0.053  -0.129  0.00  0.00     0.265 C 
ATOM      8  O   UNL d   1       1.211  -0.209  -1.327  0.00  0.00    -0.266 OA
ATOM      9  N   UNL d   1       1.790   1.142   0.448  0.00  0.00    -0.290 N 
ATOM     10  H   UNL d   1       1.507   1.466   1.370  0.00  0.00     0.183 HD
BRANCH   9  11
ATOM     11  N   UNL d   1       2.505   2.031  -0.386  0.00  0.00    -0.247 NA
ATOM     12  H   UNL d   1       2.281   1.766  -1.357  0.00  0.00     0.143 HD
ATOM     13  H   UNL d   1       3.500   1.806  -0.300  0.00  0.00     0.143 HD
ENDBRANCH   9  11
ENDBRANCH   1   7
BRANCH   2  14
ATOM     14  C   UNL d   1      -2.003  -3.443   3.365  0.00  0.00    -0.024 C 
ATOM     15  C   UNL d   1      -3.257  -4.047   2.692  0.00  0.00     0.019 C 
ATOM     16  C   UNL d   1      -1.099  -4.623   3.784  0.00  0.00     0.019 C 
ATOM     17  C   UNL d   1      -2.480  -2.701   4.632  0.00  0.00     0.019 C 
ENDBRANCH   2  14
TORSDOF 3
