REMARK  2 active torsions:
REMARK  status: ('A' for Active; 'I' for Inactive)
REMARK    1  A    between atoms: C_2  and  N_1 
REMARK    2  A    between atoms: C_3  and  C_4 
ROOT
ATOM      1  C   UNL d   1       0.150   0.237  -3.784  0.00  0.00    -0.028 A 
ATOM      2  S   UNL d   1      -1.558   0.967  -5.572  0.00  0.00    -0.113 SA
ATOM      3  C   UNL d   1      -0.943   1.057  -3.976  0.00  0.00     0.061 A 
ATOM      4  C   UNL d   1      -0.366  -0.170  -6.024  0.00  0.00     0.050 A 
ATOM      5  C   UNL d   1       0.482  -0.473  -4.981  0.00  0.00     0.019 A 
ENDROOT
BRANCH   1   6
ATOM      6  C   UNL d   1       0.826   0.151  -2.522  0.00  0.00     0.035 C 
ATOM      7  C   UNL d   1       1.882  -0.636  -2.280  0.00  0.00     0.168 C 
BRANCH   7   8
ATOM      8  N   UNL d   1       2.495  -0.657  -0.975  0.00  0.00    -0.127 N 
ATOM      9  O   UNL d   1       3.464  -1.415  -0.852  0.00  0.00    -0.532 OA
ATOM     10  O   UNL d   1       2.030   0.063  -0.082  0.00  0.00    -0.532 OA
ENDBRANCH   7   8
ENDBRANCH   1   6
TORSDOF 2
