REMARK  7 active torsions:
REMARK  status: ('A' for Active; 'I' for Inactive)
REMARK    1  A    between atoms: C_2  and  C_1 
REMARK    2  A    between atoms: C_4  and  C_1 
REMARK    3  A    between atoms: C_6  and  C_1 
REMARK    4  A    between atoms: C_3  and  C_4 
REMARK       I    between atoms: N_7  and  C_3 
REMARK    5  A    between atoms: C_5  and  C_6 
REMARK    6  A    between atoms: O_16  and  C_5 
REMARK    7  A    between atoms: C_12  and  N_7 
ROOT
ATOM      1  C   UNL d   1       1.331  -0.490  -0.361  0.00  0.00     0.040 C 
ENDROOT
BRANCH   1   2
ATOM      2  C   UNL d   1       0.942  -1.207  -1.671  0.00  0.00    -0.010 A 
ATOM      3  C   UNL d   1       0.060  -0.582  -2.586  0.00  0.00     0.042 A 
ATOM      4 CL   UNL d   1      -0.845   0.841  -2.186  0.00  0.00    -0.084 Cl
ATOM      5  C   UNL d   1      -0.185  -1.122  -3.858  0.00  0.00     0.024 A 
ATOM      6  C   UNL d   1       0.399  -2.322  -4.239  0.00  0.00     0.003 A 
ATOM      7  C   UNL d   1       1.180  -3.012  -3.324  0.00  0.00     0.024 A 
ATOM      8  C   UNL d   1       1.438  -2.475  -2.052  0.00  0.00     0.042 A 
ATOM      9 CL   UNL d   1       2.323  -3.521  -0.993  0.00  0.00    -0.084 Cl
ENDBRANCH   1   2
BRANCH   1  10
ATOM     10  C   UNL d   1       0.571  -1.128   0.827  0.00  0.00     0.113 C 
BRANCH  10  11
ATOM     11  C   UNL d   1       0.761  -0.422   2.152  0.00  0.00     0.222 C 
ATOM     12  N   UNL d   1       0.350  -0.972   3.329  0.00  0.00    -0.327 N 
ATOM     13  H   UNL d   1       0.561  -0.328   4.085  0.00  0.00     0.169 HD
ATOM     14  O   UNL d   1       1.282   0.694   2.218  0.00  0.00    -0.273 OA
BRANCH  12  15
ATOM     15  C   UNL d   1      -0.292  -2.161   3.720  0.00  0.00     0.034 A 
ATOM     16  C   UNL d   1      -0.641  -3.228   2.893  0.00  0.00     0.031 A 
ATOM     17  C   UNL d   1      -1.271  -4.367   3.419  0.00  0.00     0.021 A 
ATOM     18  C   UNL d   1      -1.575  -4.436   4.775  0.00  0.00     0.011 A 
ATOM     19  C   UNL d   1      -1.244  -3.382   5.615  0.00  0.00     0.021 A 
ATOM     20 BR   UNL d   1      -2.444  -5.962   5.472  0.00  0.00    -0.051 Br
ATOM     21  C   UNL d   1      -0.600  -2.258   5.088  0.00  0.00     0.031 A 
ENDBRANCH  12  15
ENDBRANCH  10  11
ENDBRANCH   1  10
BRANCH   1  22
ATOM     22  C   UNL d   1       2.861  -0.392  -0.119  0.00  0.00     0.119 C 
BRANCH  22  23
ATOM     23  C   UNL d   1       3.590   0.458  -1.139  0.00  0.00     0.140 C 
ATOM     24  O   UNL d   1       3.132   0.855  -2.196  0.00  0.00    -0.650 OA
BRANCH  23  25
ATOM     25  O   UNL d   1       4.861   0.722  -0.761  0.00  0.00    -0.776 OA
ATOM     26  H   UNL d   1       5.102   0.359   0.118  0.00  0.00     0.167 HD
ENDBRANCH  23  25
ENDBRANCH  22  23
ENDBRANCH   1  22
TORSDOF 7
