REMARK  3 active torsions:
REMARK  status: ('A' for Active; 'I' for Inactive)
REMARK    1  A    between atoms: N_3  and  C_1 
REMARK    2  A    between atoms: N_2  and  C_5 
REMARK    3  A    between atoms: N_13  and  C_4 
ROOT
ATOM      1  C   UNL d   1      -1.214   1.266   0.015  0.00  0.00     0.132 A 
ATOM      2  C   UNL d   1      -2.005   0.101  -0.034  0.00  0.00     0.065 A 
ATOM      3  C   UNL d   1       0.139  -1.205   0.052  0.00  0.00     0.071 A 
ATOM      4  C   UNL d   1       0.185   1.237   0.036  0.00  0.00     0.083 A 
ATOM      5  C   UNL d   1      -1.274  -1.113  -0.005  0.00  0.00     0.064 A 
ATOM      6  C   UNL d   1       0.838   0.012   0.055  0.00  0.00     0.145 A 
ATOM      7  F   UNL d   1       2.180   0.033   0.064  0.00  0.00    -0.204 F 
ENDROOT
BRANCH   3   8
ATOM      8  N   UNL d   1       0.757  -2.437   0.159  0.00  0.00    -0.373 N 
ATOM      9  C   UNL d   1       0.277  -3.639  -0.540  0.00  0.00     0.154 C 
ATOM     10  C   UNL d   1       0.234  -4.808   0.465  0.00  0.00     0.136 C 
ATOM     11  C   UNL d   1      -0.222  -6.094  -0.206  0.00  0.00     0.041 C 
ATOM     12  O   UNL d   1       1.543  -5.037   1.024  0.00  0.00    -0.378 OA
ATOM     13  C   UNL d   1       2.009  -3.865   1.726  0.00  0.00     0.136 C 
ATOM     14  C   UNL d   1       2.073  -2.625   0.797  0.00  0.00     0.154 C 
ATOM     15  C   UNL d   1       3.377  -4.191   2.309  0.00  0.00     0.041 C 
ENDBRANCH   3   8
BRANCH   2  16
ATOM     16  N   UNL d   1      -3.403   0.097  -0.048  0.00  0.00    -0.388 N 
ATOM     17  C   UNL d   1      -4.136  -1.089   0.400  0.00  0.00     0.149 C 
ATOM     18  C   UNL d   1      -4.114   0.888  -1.057  0.00  0.00     0.149 C 
ENDBRANCH   2  16
BRANCH   1  19
ATOM     19  N   UNL d   1      -1.811   2.582   0.148  0.00  0.00    -0.113 N 
ATOM     20  O   UNL d   1      -2.445   2.826   1.185  0.00  0.00    -0.532 OA
ATOM     21  O   UNL d   1      -1.592   3.389  -0.765  0.00  0.00    -0.532 OA
ENDBRANCH   1  19
TORSDOF 3
