REMARK  4 active torsions:
REMARK  status: ('A' for Active; 'I' for Inactive)
REMARK    1  A    between atoms: C_2  and  C_1 
REMARK       I    between atoms: N_7  and  C_2 
REMARK    2  A    between atoms: C_12  and  N_7 
REMARK    3  A    between atoms: C_14  and  N_7 
REMARK    4  A    between atoms: C_13  and  C_14 
ROOT
ATOM      1  N   UNL d   1       2.758  -5.514   1.351  0.00  0.00    -0.197 NA
ATOM      2  C   UNL d   1       3.494  -4.615   1.315  0.00  0.00     0.060 C 
ATOM      3  C   UNL d   1       4.430  -3.488   1.263  0.00  0.00     0.143 C 
ENDROOT
BRANCH   3   4
ATOM      4  C   UNL d   1       4.147  -2.608   0.040  0.00  0.00     0.140 C 
BRANCH   4   5
ATOM      5  N   UNL d   1       4.758  -1.269   0.138  0.00  0.00    -0.342 N 
ATOM      6  C   UNL d   1       3.998  -0.080   0.363  0.00  0.00     0.262 C 
ATOM      7  O   UNL d   1       4.588   1.000   0.468  0.00  0.00    -0.267 OA
BRANCH   6   8
ATOM      8  C   UNL d   1       2.540  -0.109   0.387  0.00  0.00     0.096 C 
ATOM      9  S   UNL d   1       1.737   0.898  -0.751  0.00  0.00    -0.082 SA
ATOM     10  C   UNL d   1       0.177   0.521  -0.136  0.00  0.00     0.017 A 
ATOM     11  C   UNL d   1      -1.055   1.058  -0.560  0.00  0.00     0.020 A 
ATOM     12  C   UNL d   1       0.255  -0.417   0.894  0.00  0.00     0.004 A 
ATOM     13  C   UNL d   1      -2.236   0.598   0.028  0.00  0.00     0.001 A 
ATOM     14  C   UNL d   1      -2.196  -0.381   1.007  0.00  0.00     0.001 A 
ATOM     15  C   UNL d   1      -0.969  -0.885   1.448  0.00  0.00     0.014 A 
ATOM     16  C   UNL d   1       1.629  -0.692   1.244  0.00  0.00     0.068 C 
ATOM     17 CL   UNL d   1       2.008  -1.602   2.649  0.00  0.00    -0.082 Cl
ENDBRANCH   6   8
BRANCH   5  18
ATOM     18  C   UNL d   1       6.199  -1.057  -0.198  0.00  0.00     0.087 C 
ATOM     19  C   UNL d   1       6.385  -0.543  -1.641  0.00  0.00     0.025 C 
ATOM     20  C   UNL d   1       6.329  -1.653  -2.685  0.00  0.00     0.002 C 
ATOM     21  C   UNL d   1       7.353  -2.746  -2.403  0.00  0.00     0.000 C 
ATOM     22  C   UNL d   1       7.264  -3.296  -0.985  0.00  0.00     0.002 C 
ATOM     23  C   UNL d   1       7.203  -2.196   0.076  0.00  0.00     0.025 C 
ENDBRANCH   5  18
ENDBRANCH   4   5
ENDBRANCH   3   4
TORSDOF 4
