REMARK  7 active torsions:
REMARK  status: ('A' for Active; 'I' for Inactive)
REMARK    1  A    between atoms: C_7  and  C_1 
REMARK    2  A    between atoms: O_9  and  C_2 
REMARK    3  A    between atoms: C_3  and  C_11 
REMARK       I    between atoms: C_4  and  N_5 
REMARK    4  A    between atoms: C_8  and  C_4 
REMARK    5  A    between atoms: N_5  and  C_6 
REMARK    6  A    between atoms: O_28  and  C_7 
REMARK    7  A    between atoms: C_12  and  O_9 
ROOT
ATOM      1  C   UNL d   1       2.041   3.452   0.640  0.00  0.00     0.070 A 
ATOM      2  C   UNL d   1       2.362   5.810   0.109  0.00  0.00     0.050 A 
ATOM      3  C   UNL d   1       2.817   3.118  -0.478  0.00  0.00     0.102 A 
ATOM      4  C   UNL d   1       1.801   4.802   0.917  0.00  0.00     0.048 A 
ATOM      5  C   UNL d   1       3.154   5.449  -0.992  0.00  0.00     0.019 A 
ATOM      6  C   UNL d   1       3.388   4.108  -1.281  0.00  0.00     0.040 A 
ENDROOT
BRANCH   1   7
ATOM      7  N   UNL d   1       1.582   2.406   1.470  0.00  0.00    -0.320 N 
ATOM      8  C   UNL d   1       0.518   2.466   2.342  0.00  0.00     0.256 C 
ATOM      9  O   UNL d   1      -0.329   3.343   2.425  0.00  0.00    -0.267 OA
ATOM     10  H   UNL d   1       2.024   1.505   1.320  0.00  0.00     0.169 HD
BRANCH   8  11
ATOM     11  C   UNL d   1       0.425   1.302   3.241  0.00  0.00     0.035 A 
ATOM     12  C   UNL d   1       1.289   1.238   4.338  0.00  0.00     0.041 A 
ATOM     13  C   UNL d   1       1.193   0.161   5.213  0.00  0.00     0.036 A 
ATOM     14 CL   UNL d   1       2.240   0.079   6.575  0.00  0.00    -0.084 Cl
ATOM     15  C   UNL d   1       0.257  -0.850   4.998  0.00  0.00     0.047 A 
ATOM     16  C   UNL d   1      -0.598  -0.769   3.898  0.00  0.00     0.036 A 
ATOM     17  C   UNL d   1      -0.528   0.308   3.015  0.00  0.00     0.041 A 
ATOM     18 CL   UNL d   1      -1.750  -2.019   3.628  0.00  0.00    -0.084 Cl
ENDBRANCH   8  11
ENDBRANCH   1   7
BRANCH   3  19
ATOM     19  O   UNL d   1       3.016   1.785  -0.763  0.00  0.00    -0.307 OA
BRANCH  19  20
ATOM     20  C   UNL d   1       2.794   1.316  -2.019  0.00  0.00     0.099 A 
ATOM     21  C   UNL d   1       3.528   0.263  -2.530  0.00  0.00     0.114 A 
ATOM     22  S   UNL d   1       3.020  -0.113  -4.131  0.00  0.00    -0.093 SA
ATOM     23  C   UNL d   1       1.840   1.121  -4.131  0.00  0.00     0.053 A 
ATOM     24  C   UNL d   1       1.800   1.792  -2.930  0.00  0.00     0.046 A 
BRANCH  21  25
ATOM     25  C   UNL d   1       4.619  -0.500  -1.953  0.00  0.00     0.302 C 
ATOM     26  O   UNL d   1       5.125  -1.510  -2.425  0.00  0.00    -0.259 OA
BRANCH  25  27
ATOM     27  O   UNL d   1       5.040   0.083  -0.790  0.00  0.00    -0.322 OA
ATOM     28  C   UNL d   1       6.163  -0.553  -0.179  0.00  0.00     0.213 C 
ENDBRANCH  25  27
ENDBRANCH  21  25
ENDBRANCH  19  20
ENDBRANCH   3  19
BRANCH   2  29
ATOM     29  C   UNL d   1       2.148   7.274   0.412  0.00  0.00     0.417 C 
ATOM     30  F   UNL d   1       1.445   7.508   1.553  0.00  0.00    -0.166 F 
ATOM     31  F   UNL d   1       3.326   7.944   0.556  0.00  0.00    -0.166 F 
ATOM     32  F   UNL d   1       1.478   7.915  -0.585  0.00  0.00    -0.166 F 
ENDBRANCH   2  29
TORSDOF 7
