REMARK  2 active torsions:
REMARK  status: ('A' for Active; 'I' for Inactive)
REMARK    1  A    between atoms: C_5  and  C_1 
REMARK       I    between atoms: N_8  and  C_5 
REMARK    2  A    between atoms: N_10  and  N_8 
ROOT
ATOM      1  C   UNL d   1       2.550   0.021   0.020  0.00  0.00     0.097 A 
ATOM      2  S   UNL d   1       1.699   1.510  -0.003  0.00  0.00    -0.082 SA
ATOM      3  C   UNL d   1       1.669  -1.044   0.002  0.00  0.00     0.068 A 
ATOM      4  C   UNL d   1       0.282  -0.641  -0.005  0.00  0.00     0.004 A 
ATOM      5  C   UNL d   1       0.164   0.749  -0.006  0.00  0.00     0.017 A 
ATOM      6 CL   UNL d   1       2.111  -2.708   0.006  0.00  0.00    -0.082 Cl
ATOM      7  C   UNL d   1      -0.918  -1.401  -0.007  0.00  0.00     0.014 A 
ATOM      8  C   UNL d   1      -1.090   1.391  -0.005  0.00  0.00     0.020 A 
ATOM      9  C   UNL d   1      -2.167  -0.770  -0.007  0.00  0.00     0.001 A 
ATOM     10  C   UNL d   1      -2.248   0.615  -0.004  0.00  0.00     0.001 A 
ENDROOT
BRANCH   1  11
ATOM     11  C   UNL d   1       4.009   0.004   0.071  0.00  0.00     0.274 C 
ATOM     12  O   UNL d   1       4.691  -1.020   0.128  0.00  0.00    -0.266 OA
ATOM     13  N   UNL d   1       4.630   1.258   0.073  0.00  0.00    -0.289 N 
ATOM     14  H   UNL d   1       4.068   2.094  -0.071  0.00  0.00     0.183 HD
BRANCH  13  15
ATOM     15  N   UNL d   1       6.038   1.366   0.116  0.00  0.00    -0.247 NA
ATOM     16  H   UNL d   1       6.413   0.409   0.037  0.00  0.00     0.143 HD
ATOM     17  H   UNL d   1       6.304   1.662   1.059  0.00  0.00     0.143 HD
ENDBRANCH  13  15
ENDBRANCH   1  11
TORSDOF 2
