REMARK  5 active torsions:
REMARK  status: ('A' for Active; 'I' for Inactive)
REMARK       I    between atoms: N_6  and  C_1 
REMARK       I    between atoms: N_8  and  C_1 
REMARK    1  A    between atoms: O_11  and  C_2 
REMARK    2  A    between atoms: O_12  and  C_3 
REMARK    3  A    between atoms: C_13  and  N_6 
REMARK    4  A    between atoms: C_9  and  C_14 
REMARK    5  A    between atoms: C_14  and  C_13 
ROOT
ATOM      1  C   UNL d   1      -5.154   0.055  -2.293  0.00  0.00     0.102 A 
ATOM      2  C   UNL d   1      -5.926  -1.119  -2.281  0.00  0.00     0.101 A 
ATOM      3  C   UNL d   1      -3.752  -0.057  -2.329  0.00  0.00     0.046 A 
ATOM      4  C   UNL d   1      -5.290  -2.363  -2.257  0.00  0.00     0.040 A 
ATOM      5  C   UNL d   1      -3.109  -1.310  -2.331  0.00  0.00    -0.054 A 
ATOM      6  C   UNL d   1      -3.900  -2.460  -2.272  0.00  0.00     0.010 A 
ENDROOT
BRANCH   5   7
ATOM      7  C   UNL d   1      -1.595  -1.382  -2.301  0.00  0.00     0.058 C 
BRANCH   7   8
ATOM      8  C   UNL d   1      -0.996  -2.583  -3.046  0.00  0.00     0.128 C 
BRANCH   8   9
ATOM      9  N   UNL d   1       0.452  -2.616  -2.989  0.00  0.00    -0.347 N 
ATOM     10  C   UNL d   1       1.105  -3.215  -1.955  0.00  0.00     0.291 C 
ATOM     11  O   UNL d   1       0.579  -3.778  -1.006  0.00  0.00    -0.254 OA
ATOM     12  N   UNL d   1       2.451  -3.145  -2.085  0.00  0.00    -0.254 NA
ATOM     13  H   UNL d   1       2.939  -3.716  -1.405  0.00  0.00     0.128 HD
ATOM     14  H   UNL d   1       2.821  -3.207  -3.022  0.00  0.00     0.128 HD
ATOM     15  H   UNL d   1       0.973  -1.940  -3.528  0.00  0.00     0.163 HD
ENDBRANCH   8   9
ENDBRANCH   7   8
ENDBRANCH   5   7
BRANCH   1  16
ATOM     16  O   UNL d   1      -5.818   1.251  -2.229  0.00  0.00    -0.353 OA
ATOM     17  C   UNL d   1      -5.053   2.446  -2.172  0.00  0.00     0.210 C 
ENDBRANCH   1  16
BRANCH   2  18
ATOM     18  O   UNL d   1      -7.292  -1.222  -2.218  0.00  0.00    -0.353 OA
ATOM     19  C   UNL d   1      -8.045  -0.202  -2.858  0.00  0.00     0.210 C 
ENDBRANCH   2  18
TORSDOF 5
