REMARK  10 active torsions:
REMARK  status: ('A' for Active; 'I' for Inactive)
REMARK    1  A    between atoms: C_12  and  N_6 
REMARK    2  A    between atoms: N_11  and  C_8 
REMARK    3  A    between atoms: C_19  and  N_11 
REMARK    4  A    between atoms: C_17  and  C_12 
REMARK    5  A    between atoms: N_18  and  C_21 
REMARK    6  A    between atoms: C_22  and  N_18 
REMARK    7  A    between atoms: C_21  and  C_19 
REMARK    8  A    between atoms: C_26  and  C_19 
REMARK    9  A    between atoms: O_20  and  C_23 
REMARK   10  A    between atoms: C_23  and  C_22 
ROOT
ATOM      1  C   UNL d   1      -0.221  -0.751  -0.259  0.00  0.00     0.146 A 
ATOM      2  C   UNL d   1      -0.520   0.579  -0.185  0.00  0.00     0.151 A 
ATOM      3  N   UNL d   1      -1.334  -1.523  -0.227  0.00  0.00    -0.316 N 
ATOM      4  HN  UNL d   1      -1.385  -2.539  -0.293  1.00  0.00     0.170 HD
ATOM      5  N   UNL d   1       1.067  -1.216  -0.285  0.00  0.00    -0.287 N 
ATOM      6  N   UNL d   1      -1.894   0.631  -0.152  0.00  0.00    -0.311 N 
ATOM      7  N   UNL d   1       1.790   1.056  -0.130  0.00  0.00    -0.269 N 
ATOM      8  C   UNL d   1      -2.334  -0.681  -0.093  0.00  0.00     0.162 A 
ATOM      9  C   UNL d   1       2.123  -0.309  -0.208  0.00  0.00     0.332 A 
ATOM     10  C   UNL d   1       0.487   1.580  -0.109  0.00  0.00     0.282 A 
ATOM     11  O   UNL d   1       3.294  -0.697  -0.199  0.00  0.00    -0.246 OA
ATOM     12  O   UNL d   1       0.244   2.779  -0.000  0.00  0.00    -0.265 OA
ATOM     13  C   UNL d   1       1.363  -2.634  -0.345  0.00  0.00     0.163 C 
ATOM     14  C   UNL d   1       2.870   2.016  -0.016  0.00  0.00     0.164 C 
ENDROOT
BRANCH   8  15
ATOM     15  N   UNL d   1      -3.622  -1.010   0.182  0.00  0.00    -0.258 NA
ATOM     16  H   UNL d   1      -4.259  -0.822  -0.587  0.00  0.00     0.131 HD
BRANCH  15  17
ATOM     17  C   UNL d   1      -3.841  -2.376   0.731  0.00  0.00     0.090 C 
BRANCH  17  18
ATOM     18  C   UNL d   1      -3.208  -2.473   2.159  0.00  0.00     0.289 C 
BRANCH  18  19
ATOM     19  N   UNL d   1      -3.411  -3.776   2.808  0.00  0.00     0.086 N 
ATOM     20  H   UNL d   1      -2.944  -4.506   2.263  0.00  0.00     0.316 HD
BRANCH  19  21
ATOM     21  C   UNL d   1      -2.820  -3.796   4.153  0.00  0.00     0.295 C 
BRANCH  21  22
ATOM     22  C   UNL d   1      -3.028  -5.173   4.792  0.00  0.00     0.194 C 
BRANCH  22  23
ATOM     23  O   UNL d   1      -2.344  -6.172   4.035  0.00  0.00    -0.399 OA
ATOM     24  H   UNL d   1      -2.593  -7.029   4.421  0.00  0.00     0.209 HD
ENDBRANCH  22  23
ENDBRANCH  21  22
ENDBRANCH  19  21
ENDBRANCH  18  19
ENDBRANCH  17  18
BRANCH  17  25
ATOM     25  C   UNL d   1      -5.354  -2.676   0.801  0.00  0.00     0.017 C 
ATOM     26  C   UNL d   1      -6.013  -2.851  -0.561  0.00  0.00     0.006 C 
ENDBRANCH  17  25
ENDBRANCH  15  17
ENDBRANCH   8  15
BRANCH   6  27
ATOM     27  C   UNL d   1      -2.709   1.827   0.012  0.00  0.00     0.170 C 
BRANCH  27  28
ATOM     28  C   UNL d   1      -2.983   2.527  -1.300  0.00  0.00    -0.040 A 
ATOM     29  C   UNL d   1      -3.766   1.925  -2.296  0.00  0.00     0.009 A 
ATOM     30  C   UNL d   1      -4.027   2.589  -3.498  0.00  0.00     0.001 A 
ATOM     31  C   UNL d   1      -3.517   3.866  -3.717  0.00  0.00     0.000 A 
ATOM     32  C   UNL d   1      -2.750   4.484  -2.732  0.00  0.00     0.001 A 
ATOM     33  C   UNL d   1      -2.485   3.820  -1.531  0.00  0.00     0.009 A 
ENDBRANCH  27  28
ENDBRANCH   6  27
TORSDOF 10
