REMARK  5 active torsions:
REMARK  status: ('A' for Active; 'I' for Inactive)
REMARK    1  A    between atoms: C_10  and  C_4 
REMARK    2  A    between atoms: C_11  and  C_4 
REMARK    3  A    between atoms: C_8  and  N_6 
REMARK    4  A    between atoms: O_14  and  C_10 
REMARK    5  A    between atoms: O_13  and  C_11 
ROOT
ATOM      1  C   UNL d   1      -0.286  -1.184   0.027  0.00  0.00     0.141 C 
ATOM      2  N   UNL d   1      -1.447  -0.617   0.065  0.00  0.00    -0.356 N 
ATOM      3  HN  UNL d   1      -2.324  -1.106   0.241  1.00  0.00     0.162 HD
ATOM      4  C   UNL d   1      -1.331   0.853  -0.182  0.00  0.00     0.083 C 
ATOM      5  S   UNL d   1       1.098  -0.142  -0.221  0.00  0.00    -0.091 SA
ATOM      6  N   UNL d   1      -0.003  -2.510   0.144  0.00  0.00    -0.337 N 
ATOM      7  C   UNL d   1       0.088   1.303   0.185  0.00  0.00     0.117 C 
ATOM      8  H   UNL d   1       0.967  -2.770   0.016  0.00  0.00     0.168 HD
ENDROOT
BRANCH   6   9
ATOM      9  C   UNL d   1      -0.740  -3.443   0.900  0.00  0.00     0.034 A 
ATOM     10  C   UNL d   1      -1.522  -3.072   2.002  0.00  0.00     0.036 A 
ATOM     11  C   UNL d   1      -2.246  -4.022   2.740  0.00  0.00    -0.060 A 
ATOM     12  C   UNL d   1      -3.042  -3.616   3.945  0.00  0.00     0.048 C 
ATOM     13  C   UNL d   1      -2.201  -5.362   2.348  0.00  0.00     0.007 A 
ATOM     14  C   UNL d   1      -1.439  -5.745   1.246  0.00  0.00     0.003 A 
ATOM     15  C   UNL d   1      -0.705  -4.793   0.535  0.00  0.00     0.029 A 
ENDBRANCH   6   9
BRANCH   4  16
ATOM     16  C   UNL d   1      -2.390   1.538   0.706  0.00  0.00     0.198 C 
BRANCH  16  17
ATOM     17  O   UNL d   1      -2.157   1.231   2.082  0.00  0.00    -0.398 OA
ATOM     18  H   UNL d   1      -2.154   0.255   2.118  0.00  0.00     0.209 HD
ENDBRANCH  16  17
ENDBRANCH   4  16
BRANCH   4  19
ATOM     19  C   UNL d   1      -1.635   1.130  -1.673  0.00  0.00     0.198 C 
BRANCH  19  20
ATOM     20  O   UNL d   1      -2.913   0.616  -2.040  0.00  0.00    -0.398 OA
ATOM     21  H   UNL d   1      -2.923  -0.310  -1.724  0.00  0.00     0.209 HD
ENDBRANCH  19  20
ENDBRANCH   4  19
TORSDOF 5
