REMARK  4 active torsions:
REMARK  status: ('A' for Active; 'I' for Inactive)
REMARK    1  A    between atoms: C_9  and  C_1 
REMARK    2  A    between atoms: C_11  and  C_4 
REMARK    3  A    between atoms: O_16  and  C_5 
REMARK    4  A    between atoms: C_8  and  C_9 
ROOT
ATOM      1  C   UNL d   1      -0.665   1.137  -0.013  0.00  0.00     0.019 A 
ATOM      2  N   UNL d   1      -0.611  -1.278  -0.058  0.00  0.00    -0.321 N 
ATOM      3  HN  UNL d   1      -1.106  -2.167  -0.112  1.00  0.00     0.169 HD
ATOM      4  C   UNL d   1       0.729  -1.207   0.038  0.00  0.00     0.134 A 
ATOM      5  C   UNL d   1      -1.248  -0.107  -0.079  0.00  0.00     0.150 A 
ATOM      6  N   UNL d   1       1.420  -0.045   0.117  0.00  0.00    -0.344 N 
ATOM      7  HN  UNL d   1       2.437  -0.042   0.201  1.00  0.00     0.167 HD
ATOM      8  C   UNL d   1       0.719   1.112   0.081  0.00  0.00     0.018 A 
ATOM      9  C   UNL d   1       1.538   2.369   0.130  0.00  0.00     0.069 C 
ENDROOT
BRANCH   1  10
ATOM     10  C   UNL d   1      -1.487   2.389  -0.059  0.00  0.00     0.087 C 
BRANCH  10  11
ATOM     11  C   UNL d   1      -1.641   3.187  -1.349  0.00  0.00    -0.010 A 
ATOM     12  C   UNL d   1      -1.272   2.775  -2.647  0.00  0.00     0.042 A 
ATOM     13 CL   UNL d   1      -0.591   1.239  -3.050  0.00  0.00    -0.084 Cl
ATOM     14  C   UNL d   1      -1.453   3.620  -3.756  0.00  0.00     0.024 A 
ATOM     15  C   UNL d   1      -2.027   4.876  -3.616  0.00  0.00     0.003 A 
ATOM     16  C   UNL d   1      -2.437   5.294  -2.360  0.00  0.00     0.024 A 
ATOM     17  C   UNL d   1      -2.252   4.465  -1.247  0.00  0.00     0.042 A 
ATOM     18 CL   UNL d   1      -2.834   5.092   0.264  0.00  0.00    -0.084 Cl
ENDBRANCH  10  11
ENDBRANCH   1  10
BRANCH   5  19
ATOM     19  O   UNL d   1      -2.592  -0.253  -0.209  0.00  0.00    -0.346 OA
ATOM     20  H   UNL d   1      -2.644  -1.223  -0.297  0.00  0.00     0.219 HD
ENDBRANCH   5  19
BRANCH   4  21
ATOM     21  C   UNL d   1       1.493  -2.478   0.095  0.00  0.00     0.076 A 
ATOM     22  N   UNL d   1       0.794  -3.639  -0.082  0.00  0.00    -0.363 N 
ATOM     23  C   UNL d   1       1.464  -4.807   0.003  0.00  0.00     0.088 A 
ATOM     24  HN  UNL d   1      -0.208  -3.622  -0.272  1.00  0.00     0.165 HD
ATOM     25  C   UNL d   1       2.819  -4.900   0.262  0.00  0.00     0.017 A 
ATOM     26  C   UNL d   1       3.534  -3.723   0.431  0.00  0.00     0.004 A 
ATOM     27  C   UNL d   1       2.869  -2.501   0.342  0.00  0.00     0.033 A 
ENDBRANCH   4  21
TORSDOF 4
