REMARK  5 active torsions:
REMARK  status: ('A' for Active; 'I' for Inactive)
REMARK    1  A    between atoms: N_3  and  S_1 
REMARK    2  A    between atoms: C_11  and  S_1 
REMARK    3  A    between atoms: N_6  and  N_3 
REMARK    4  A    between atoms: C_4  and  N_6 
REMARK       I    between atoms: C_18  and  N_19 
REMARK    5  A    between atoms: N_19  and  C_23 
ROOT
ATOM      1  N   UNL d   1       0.217   1.494   0.417  0.00  0.00    -0.221 N 
ATOM      2  H   UNL d   1      -0.062   2.131  -0.331  0.00  0.00     0.200 HD
ENDROOT
BRANCH   1   3
ATOM      3  S   UNL d   1       0.867  -0.028   0.067  0.00  0.00     0.276 S 
ATOM      4  O   UNL d   1       0.378  -0.941   1.075  0.00  0.00    -0.199 OA
ATOM      5  O   UNL d   1       2.292   0.167  -0.129  0.00  0.00    -0.199 OA
BRANCH   3   6
ATOM      6  C   UNL d   1       0.203  -0.545  -1.490  0.00  0.00     0.081 A 
ATOM      7  C   UNL d   1      -0.702   0.215  -2.228  0.00  0.00     0.027 A 
ATOM      8  C   UNL d   1      -1.188  -0.290  -3.442  0.00  0.00     0.031 A 
ATOM      9  C   UNL d   1      -0.789  -1.548  -3.918  0.00  0.00     0.034 A 
ATOM     10  C   UNL d   1       0.124  -2.292  -3.169  0.00  0.00     0.031 A 
ATOM     11  C   UNL d   1       0.618  -1.794  -1.962  0.00  0.00     0.027 A 
BRANCH   9  12
ATOM     12  N   UNL d   1      -1.350  -1.988  -5.133  0.00  0.00    -0.328 N 
ATOM     13  C   UNL d   1      -1.128  -3.195  -5.770  0.00  0.00     0.218 C 
ATOM     14  O   UNL d   1      -0.380  -4.096  -5.405  0.00  0.00    -0.274 OA
ATOM     15  C   UNL d   1      -1.929  -3.348  -7.043  0.00  0.00     0.117 C 
ATOM     16  H   UNL d   1      -2.002  -1.352  -5.577  0.00  0.00     0.169 HD
ENDBRANCH   9  12
ENDBRANCH   3   6
ENDBRANCH   1   3
BRANCH   1  17
ATOM     17  N   UNL d   1       0.619   2.101   1.688  0.00  0.00    -0.275 N 
ATOM     18  H   UNL d   1       1.146   1.501   2.321  0.00  0.00     0.189 HD
BRANCH  17  19
ATOM     19  C   UNL d   1       0.674   3.474   1.924  0.00  0.00     0.134 A 
ATOM     20  C   UNL d   1       1.134   3.980   3.154  0.00  0.00     0.044 A 
ATOM     21  C   UNL d   1       1.183   5.359   3.269  0.00  0.00     0.088 A 
ATOM     22  C   UNL d   1       1.575   3.347   4.367  0.00  0.00     0.025 A 
ATOM     23  S   UNL d   1       1.752   5.868   4.795  0.00  0.00    -0.083 SA
ATOM     24  N   UNL d   1       0.838   6.249   2.327  0.00  0.00    -0.346 N 
ATOM     25  C   UNL d   1       1.937   4.256   5.336  0.00  0.00     0.053 A 
ATOM     26  C   UNL d   1       0.408   5.661   1.206  0.00  0.00     0.182 A 
ATOM     27  HN  UNL d   1       0.896   7.260   2.452  1.00  0.00     0.167 HD
ATOM     28  N   UNL d   1       0.299   4.346   0.953  0.00  0.00    -0.337 N 
ATOM     29  HN  UNL d   1      -0.056   4.012   0.057  1.00  0.00     0.168 HD
ENDBRANCH  17  19
ENDBRANCH   1  17
TORSDOF 5
