REMARK  6 active torsions:
REMARK  status: ('A' for Active; 'I' for Inactive)
REMARK    1  A    between atoms: C_15  and  C_1 
REMARK    2  A    between atoms: O_10  and  C_2 
REMARK    3  A    between atoms: C_9  and  C_3 
REMARK    4  A    between atoms: C_4  and  C_6 
REMARK    5  A    between atoms: C_6  and  O_10 
REMARK    6  A    between atoms: O_20  and  C_15 
ROOT
ATOM      1  C   UNL d   1      -0.093  -3.630   0.364  0.00  0.00     0.303 C 
ATOM      2  O   UNL d   1       0.175  -4.782   0.698  0.00  0.00    -0.259 OA
ENDROOT
BRANCH   1   3
ATOM      3  C   UNL d   1      -1.333  -3.287  -0.297  0.00  0.00     0.100 A 
ATOM      4  C   UNL d   1      -1.712  -2.175  -1.110  0.00  0.00     0.087 A 
ATOM      5  N   UNL d   1      -3.000  -2.289  -1.479  0.00  0.00    -0.259 N 
ATOM      6  O   UNL d   1      -3.483  -3.432  -0.888  0.00  0.00    -0.241 OA
ATOM      7  HN  UNL d   1      -3.519  -1.651  -2.082  1.00  0.00     0.195 HD
ATOM      8  C   UNL d   1      -2.488  -4.040  -0.201  0.00  0.00     0.091 A 
ATOM      9  C   UNL d   1      -2.850  -5.285   0.508  0.00  0.00     0.080 C 
BRANCH   4  10
ATOM     10  C   UNL d   1      -0.914  -1.048  -1.597  0.00  0.00     0.037 A 
ATOM     11  C   UNL d   1       0.289  -1.258  -2.301  0.00  0.00     0.048 A 
ATOM     12 CL   UNL d   1       0.896  -2.834  -2.693  0.00  0.00    -0.083 Cl
ATOM     13  C   UNL d   1       1.053  -0.177  -2.764  0.00  0.00     0.025 A 
ATOM     14  C   UNL d   1       0.610   1.127  -2.582  0.00  0.00     0.003 A 
ATOM     15  C   UNL d   1      -0.593   1.356  -1.922  0.00  0.00     0.025 A 
ATOM     16  C   UNL d   1      -1.343   0.284  -1.418  0.00  0.00     0.048 A 
ATOM     17 CL   UNL d   1      -2.785   0.711  -0.554  0.00  0.00    -0.083 Cl
ENDBRANCH   4  10
ENDBRANCH   1   3
BRANCH   1  18
ATOM     18  O   UNL d   1       0.688  -2.538   0.685  0.00  0.00    -0.272 OA
BRANCH  18  19
ATOM     19  C   UNL d   1       1.493  -2.690   1.776  0.00  0.00     0.114 C 
ATOM     20  C   UNL d   1       1.009  -3.096   3.010  0.00  0.00     0.115 C 
ATOM     21  S   UNL d   1       2.274  -3.298   4.133  0.00  0.00    -0.081 SA
ATOM     22  C   UNL d   1       3.448  -2.660   3.052  0.00  0.00     0.019 A 
ATOM     23  C   UNL d   1       4.810  -2.446   3.340  0.00  0.00     0.020 A 
ATOM     24  C   UNL d   1       2.894  -2.352   1.806  0.00  0.00     0.017 A 
ATOM     25  C   UNL d   1       5.627  -1.883   2.362  0.00  0.00     0.001 A 
ATOM     26  C   UNL d   1       5.104  -1.554   1.118  0.00  0.00     0.001 A 
ATOM     27  C   UNL d   1       3.756  -1.794   0.826  0.00  0.00     0.015 A 
BRANCH  20  28
ATOM     28  C   UNL d   1      -0.377  -3.302   3.386  0.00  0.00     0.302 C 
ATOM     29  O   UNL d   1      -1.330  -2.775   2.829  0.00  0.00    -0.259 OA
BRANCH  28  30
ATOM     30  O   UNL d   1      -0.495  -4.184   4.420  0.00  0.00    -0.322 OA
ATOM     31  C   UNL d   1      -1.846  -4.414   4.816  0.00  0.00     0.213 C 
ENDBRANCH  28  30
ENDBRANCH  20  28
ENDBRANCH  18  19
ENDBRANCH   1  18
TORSDOF 6
