REMARK  2 active torsions:
REMARK  status: ('A' for Active; 'I' for Inactive)
REMARK    1  A    between atoms: C_8  and  C_2 
REMARK    2  A    between atoms: S_9  and  C_3 
ROOT
ATOM      1  C   UNL d   1      -0.767  -0.005  -0.052  0.00  0.00     0.079 A 
ATOM      2  C   UNL d   1      -0.109  -1.297  -0.045  0.00  0.00     0.003 A 
ATOM      3  C   UNL d   1       0.129   1.050  -0.033  0.00  0.00     0.062 A 
ATOM      4  C   UNL d   1       1.266  -1.135  -0.021  0.00  0.00     0.065 A 
ATOM      5  S   UNL d   1       1.749   0.500  -0.027  0.00  0.00    -0.092 SA
ATOM      6  C   UNL d   1      -2.187   0.189  -0.054  0.00  0.00     0.102 C 
ATOM      7  N   UNL d   1      -3.342   0.330  -0.048  0.00  0.00    -0.191 NA
ENDROOT
BRANCH   2   8
ATOM      8  C   UNL d   1      -0.705  -2.643  -0.015  0.00  0.00    -0.024 A 
ATOM      9  C   UNL d   1      -0.090  -3.723  -0.672  0.00  0.00     0.014 A 
ATOM     10  C   UNL d   1      -0.645  -5.008  -0.619  0.00  0.00     0.024 A 
ATOM     11  C   UNL d   1      -1.831  -5.223   0.076  0.00  0.00     0.034 A 
ATOM     12  C   UNL d   1      -2.463  -4.166   0.721  0.00  0.00     0.024 A 
ATOM     13 CL   UNL d   1      -2.512  -6.800   0.148  0.00  0.00    -0.084 Cl
ATOM     14  C   UNL d   1      -1.895  -2.888   0.688  0.00  0.00     0.014 A 
ENDBRANCH   2   8
BRANCH   3  15
ATOM     15  S   UNL d   1      -0.198   2.782   0.071  0.00  0.00    -0.126 SA
ATOM     16  C   UNL d   1      -1.060   3.103  -1.483  0.00  0.00     0.096 C 
ENDBRANCH   3  15
TORSDOF 2
