REMARK  4 active torsions:
REMARK  status: ('A' for Active; 'I' for Inactive)
REMARK    1  A    between atoms: C_6  and  C_1 
REMARK    2  A    between atoms: C_7  and  C_3 
REMARK    3  A    between atoms: N_9  and  C_4 
REMARK    4  A    between atoms: O_10  and  C_6 
ROOT
ATOM      1  C   UNL d   1      -0.245   1.115   0.004  0.00  0.00     0.106 A 
ATOM      2  S   UNL d   1       1.342   0.442   0.015  0.00  0.00    -0.086 SA
ATOM      3  C   UNL d   1       0.770  -1.181  -0.008  0.00  0.00    -0.007 A 
ATOM      4  C   UNL d   1      -1.190   0.108  -0.000  0.00  0.00     0.050 A 
ATOM      5  C   UNL d   1      -0.615  -1.186   0.001  0.00  0.00     0.045 A 
ENDROOT
BRANCH   1   6
ATOM      6  C   UNL d   1      -0.403   2.560   0.007  0.00  0.00     0.302 C 
ATOM      7  O   UNL d   1       0.499   3.396   0.011  0.00  0.00    -0.259 OA
BRANCH   6   8
ATOM      8  O   UNL d   1      -1.733   2.896   0.006  0.00  0.00    -0.322 OA
ATOM      9  C   UNL d   1      -2.007   4.297   0.011  0.00  0.00     0.213 C 
ENDBRANCH   6   8
ENDBRANCH   1   6
BRANCH   4  10
ATOM     10  N   UNL d   1      -2.524   0.284  -0.002  0.00  0.00    -0.398 N 
ATOM     11  H   UNL d   1      -2.938   1.215  -0.003  0.00  0.00     0.156 HD
ATOM     12  H   UNL d   1      -3.193  -0.479  -0.008  0.00  0.00     0.156 HD
ENDBRANCH   4  10
BRANCH   3  13
ATOM     13  C   UNL d   1       1.703  -2.403   0.008  0.00  0.00    -0.018 C 
ATOM     14  C   UNL d   1       2.006  -2.809   1.463  0.00  0.00     0.020 C 
ATOM     15  C   UNL d   1       1.008  -3.594  -0.695  0.00  0.00     0.020 C 
ATOM     16  C   UNL d   1       3.042  -2.161  -0.717  0.00  0.00     0.020 C 
ENDBRANCH   3  13
TORSDOF 4
