REMARK  6 active torsions:
REMARK  status: ('A' for Active; 'I' for Inactive)
REMARK    1  A    between atoms: C_8  and  C_1 
REMARK    2  A    between atoms: C_7  and  CA_2 
REMARK    3  A    between atoms: OXT_17  and  C_7 
REMARK    4  A    between atoms: C_16  and  C_8 
REMARK    5  A    between atoms: C_12  and  C_16 
REMARK    6  A    between atoms: O_19  and  C_12 
ROOT
ATOM      1  C   UNL d   1      -1.556  -1.191  -0.033  0.00  0.00    -0.010 A 
ATOM      2  CA  UNL d   1      -2.372  -0.054  -0.015  0.00  0.00     0.114 A 
ATOM      3  N   UNL d   1      -1.540   1.036   0.032  0.00  0.00    -0.350 N 
ATOM      4  C   UNL d   1      -0.174  -0.734  -0.032  0.00  0.00     0.021 A 
ATOM      5  C   UNL d   1      -0.224   0.665  -0.011  0.00  0.00     0.047 A 
ATOM      6  C   UNL d   1       1.130  -1.299  -0.030  0.00  0.00     0.048 A 
ATOM      7  C   UNL d   1       0.913   1.487  -0.005  0.00  0.00     0.054 A 
ATOM      8  C   UNL d   1       2.284  -0.505  -0.021  0.00  0.00     0.048 A 
ATOM      9  C   UNL d   1       2.164   0.874  -0.013  0.00  0.00     0.037 A 
ATOM     10 CL   UNL d   1       1.303  -2.999  -0.002  0.00  0.00    -0.083 Cl
ATOM     11 CL   UNL d   1       3.579   1.857   0.003  0.00  0.00    -0.084 Cl
ATOM     12  H   UNL d   1      -1.846   1.993   0.149  0.00  0.00     0.166 HD
ENDROOT
BRANCH   1  13
ATOM     13  C   UNL d   1      -2.058  -2.618  -0.012  0.00  0.00     0.052 C 
BRANCH  13  14
ATOM     14  C   UNL d   1      -2.983  -3.027  -1.159  0.00  0.00     0.115 C 
BRANCH  14  15
ATOM     15  C   UNL d   1      -2.335  -2.991  -2.519  0.00  0.00     0.139 C 
ATOM     16  O   UNL d   1      -1.177  -2.692  -2.759  0.00  0.00    -0.650 OA
BRANCH  15  17
ATOM     17  O   UNL d   1      -3.205  -3.335  -3.502  0.00  0.00    -0.776 OA
ATOM     18  H   UNL d   1      -4.099  -3.558  -3.174  0.00  0.00     0.167 HD
ENDBRANCH  15  17
ENDBRANCH  14  15
ENDBRANCH  13  14
ENDBRANCH   1  13
BRANCH   2  19
ATOM     19  C   UNL d   1      -3.813   0.047   0.043  0.00  0.00     0.194 C 
ATOM     20  O   UNL d   1      -4.570  -0.769   0.545  0.00  0.00    -0.645 OA
BRANCH  19  21
ATOM     21  OXT UNL d   1      -4.267   1.172  -0.562  0.00  0.00    -0.772 OA
ATOM     22  HXT UNL d   1      -3.619   1.590  -1.157  0.00  0.00     0.167 HD
ENDBRANCH  19  21
ENDBRANCH   2  19
TORSDOF 6
