REMARK  4 active torsions:
REMARK  status: ('A' for Active; 'I' for Inactive)
REMARK    1  A    between atoms: C_6  and  C_1 
REMARK    2  A    between atoms: C_3  and  C_2 
REMARK       I    between atoms: N_7  and  C_3 
REMARK    3  A    between atoms: C_10  and  N_7 
REMARK    4  A    between atoms: N_14  and  C_11 
REMARK       I    between atoms: C_17  and  N_14 
ROOT
ATOM      1  C   UNL d   1       0.222  -2.465   0.327  0.00  0.00     0.261 C 
ATOM      2  N   UNL d   1      -0.330  -3.503  -0.416  0.00  0.00    -0.321 N 
ATOM      3  O   UNL d   1       1.243  -2.579   1.002  0.00  0.00    -0.267 OA
ATOM      4  H   UNL d   1      -0.981  -3.251  -1.162  0.00  0.00     0.169 HD
ENDROOT
BRANCH   1   5
ATOM      5  C   UNL d   1      -0.345  -1.144   0.182  0.00  0.00     0.093 A 
ATOM      6  C   UNL d   1      -1.640  -0.557   0.391  0.00  0.00     0.086 A 
ATOM      7  N   UNL d   1      -1.520   0.785   0.319  0.00  0.00    -0.259 N 
ATOM      8  O   UNL d   1      -0.232   1.079  -0.014  0.00  0.00    -0.241 OA
ATOM      9  HN  UNL d   1      -2.264   1.463   0.484  1.00  0.00     0.195 HD
ATOM     10  C   UNL d   1       0.480  -0.062  -0.081  0.00  0.00     0.090 A 
ATOM     11  C   UNL d   1       1.922   0.105  -0.364  0.00  0.00     0.080 C 
BRANCH   6  12
ATOM     12  C   UNL d   1      -2.973  -1.091   0.750  0.00  0.00     0.037 A 
ATOM     13  C   UNL d   1      -3.171  -2.125   1.687  0.00  0.00     0.048 A 
ATOM     14 CL   UNL d   1      -1.899  -2.950   2.517  0.00  0.00    -0.083 Cl
ATOM     15  C   UNL d   1      -4.464  -2.510   2.088  0.00  0.00     0.025 A 
ATOM     16  C   UNL d   1      -5.588  -1.840   1.623  0.00  0.00     0.003 A 
ATOM     17  C   UNL d   1      -5.428  -0.813   0.707  0.00  0.00     0.025 A 
ATOM     18  C   UNL d   1      -4.148  -0.464   0.246  0.00  0.00     0.048 A 
ATOM     19 CL   UNL d   1      -4.152   0.758  -0.994  0.00  0.00    -0.083 Cl
ENDBRANCH   6  12
ENDBRANCH   1   5
BRANCH   2  20
ATOM     20  C   UNL d   1       0.368  -4.736  -0.556  0.00  0.00     0.065 C 
ATOM     21  C   UNL d   1       0.500  -5.403  -1.793  0.00  0.00     0.063 C 
ATOM     22  C   UNL d   1       1.518  -6.378  -1.912  0.00  0.00     0.058 C 
ATOM     23  C   UNL d   1       2.322  -6.733  -0.828  0.00  0.00     0.074 C 
ATOM     24  C   UNL d   1       2.064  -6.195   0.417  0.00  0.00     0.140 C 
ATOM     25 CL   UNL d   1       3.638  -7.817  -1.064  0.00  0.00    -0.081 Cl
ATOM     26  C   UNL d   1       1.081  -5.227   0.558  0.00  0.00     0.076 C 
ATOM     27  F   UNL d   1       2.785  -6.551   1.490  0.00  0.00    -0.204 F 
BRANCH  21  28
ATOM     28  N   UNL d   1      -0.239  -5.201  -2.989  0.00  0.00    -0.325 N 
ATOM     29  C   UNL d   1      -1.338  -4.409  -3.224  0.00  0.00     0.218 C 
ATOM     30  O   UNL d   1      -1.847  -3.624  -2.437  0.00  0.00    -0.274 OA
ATOM     31  C   UNL d   1      -1.904  -4.574  -4.619  0.00  0.00     0.117 C 
ATOM     32  H   UNL d   1       0.036  -5.797  -3.760  0.00  0.00     0.169 HD
ENDBRANCH  21  28
ENDBRANCH   2  20
TORSDOF 4
