REMARK  8 active torsions:
REMARK  status: ('A' for Active; 'I' for Inactive)
REMARK    1  A    between atoms: C_7  and  C_1 
REMARK    2  A    between atoms: N_3  and  C_2 
REMARK       I    between atoms: C_4  and  N_3 
REMARK    3  A    between atoms: C_11  and  C_4 
REMARK    4  A    between atoms: C_6  and  O_12 
REMARK    5  A    between atoms: O_21  and  C_7 
REMARK    6  A    between atoms: O_22  and  C_9 
REMARK    7  A    between atoms: O_23  and  C_10 
REMARK    8  A    between atoms: O_12  and  C_20 
ROOT
ATOM      1  N   UNL d   1       1.154  -2.563  -0.159  0.00  0.00    -0.322 N 
ATOM      2  C   UNL d   1       2.475  -2.800  -0.542  0.00  0.00     0.256 C 
ATOM      3  O   UNL d   1       3.155  -1.983  -1.157  0.00  0.00    -0.267 OA
ATOM      4  H   UNL d   1       0.548  -3.365  -0.109  0.00  0.00     0.169 HD
ENDROOT
BRANCH   1   5
ATOM      5  C   UNL d   1       0.523  -1.281  -0.209  0.00  0.00     0.054 C 
ATOM      6  C   UNL d   1       1.199  -0.054  -0.084  0.00  0.00     0.067 C 
ATOM      7  C   UNL d   1       0.533   1.163  -0.246  0.00  0.00     0.060 C 
ATOM      8  C   UNL d   1      -0.853   1.180  -0.341  0.00  0.00     0.102 C 
ATOM      9  C   UNL d   1      -1.578  -0.022  -0.347  0.00  0.00     0.103 C 
ATOM     10  C   UNL d   1      -0.882  -1.246  -0.312  0.00  0.00     0.070 C 
BRANCH   6  11
ATOM     11  C   UNL d   1       2.522   0.076   0.570  0.00  0.00     0.178 C 
ATOM     12  O   UNL d   1       3.408   0.815   0.193  0.00  0.00    -0.646 OA
BRANCH  11  13
ATOM     13  O   UNL d   1       2.513  -0.531   1.784  0.00  0.00    -0.773 OA
ATOM     14  H   UNL d   1       1.667  -0.954   2.005  0.00  0.00     0.167 HD
ENDBRANCH  11  13
ENDBRANCH   6  11
BRANCH   8  15
ATOM     15  O   UNL d   1      -1.413   2.429  -0.431  0.00  0.00    -0.353 OA
ATOM     16  C   UNL d   1      -2.364   2.703   0.597  0.00  0.00     0.210 C 
ENDBRANCH   8  15
BRANCH   9  17
ATOM     17  O   UNL d   1      -2.940   0.105  -0.363  0.00  0.00    -0.353 OA
ATOM     18  C   UNL d   1      -3.734  -1.057  -0.532  0.00  0.00     0.210 C 
ENDBRANCH   9  17
ENDBRANCH   1   5
BRANCH   2  19
ATOM     19  C   UNL d   1       3.072  -4.145  -0.210  0.00  0.00     0.032 A 
ATOM     20  C   UNL d   1       2.386  -5.182   0.428  0.00  0.00     0.020 A 
ATOM     21  C   UNL d   1       3.035  -6.395   0.746  0.00  0.00     0.038 A 
ATOM     22  C   UNL d   1       4.377  -6.590   0.419  0.00  0.00     0.078 A 
ATOM     23  C   UNL d   1       5.069  -5.549  -0.204  0.00  0.00     0.038 A 
ATOM     24  C   UNL d   1       4.429  -4.344  -0.517  0.00  0.00     0.020 A 
BRANCH  22  25
ATOM     25  O   UNL d   1       5.129  -7.709   0.626  0.00  0.00    -0.255 OA
BRANCH  25  26
ATOM     26  C   UNL d   1       4.537  -8.854   1.213  0.00  0.00     0.530 C 
ATOM     27  F   UNL d   1       3.361  -9.172   0.630  0.00  0.00    -0.144 F 
ATOM     28  F   UNL d   1       5.375  -9.903   1.050  0.00  0.00    -0.144 F 
ATOM     29  F   UNL d   1       4.346  -8.666   2.535  0.00  0.00    -0.144 F 
ENDBRANCH  25  26
ENDBRANCH  22  25
ENDBRANCH   2  19
TORSDOF 8
