REMARK  4 active torsions:
REMARK  status: ('A' for Active; 'I' for Inactive)
REMARK    1  A    between atoms: C_10  and  N_3 
REMARK    2  A    between atoms: C_7  and  C_4 
REMARK    3  A    between atoms: C_9  and  C_5 
REMARK    4  A    between atoms: O_20  and  C_17 
ROOT
ATOM      1  N   UNL d   1       1.152  -0.178   0.087  0.00  0.00    -0.301 N 
ATOM      2  HN  UNL d   1       2.150  -0.372   0.175  1.00  0.00     0.187 HD
ATOM      3  N   UNL d   1       0.147  -1.100   0.041  0.00  0.00    -0.283 N 
ATOM      4  C   UNL d   1       0.597   0.995  -0.002  0.00  0.00     0.038 A 
ATOM      5  C   UNL d   1      -1.190  -0.510  -0.035  0.00  0.00     0.147 A 
ATOM      6  C   UNL d   1      -0.904   0.989  -0.089  0.00  0.00     0.091 A 
ENDROOT
BRANCH   4   7
ATOM      7  C   UNL d   1       1.364   2.264  -0.038  0.00  0.00    -0.011 A 
ATOM      8  C   UNL d   1       2.764   2.223  -0.028  0.00  0.00     0.025 A 
ATOM      9  C   UNL d   1       3.520   3.408  -0.075  0.00  0.00    -0.025 A 
ATOM     10  C   UNL d   1       4.923   3.384  -0.067  0.00  0.00     0.012 A 
ATOM     11  C   UNL d   1       2.853   4.654  -0.131  0.00  0.00    -0.026 A 
ATOM     12  C   UNL d   1       5.659   4.571  -0.110  0.00  0.00     0.001 A 
ATOM     13  C   UNL d   1       5.001   5.795  -0.162  0.00  0.00     0.001 A 
ATOM     14  C   UNL d   1       3.607   5.838  -0.174  0.00  0.00     0.012 A 
ATOM     15  C   UNL d   1       1.452   4.683  -0.145  0.00  0.00     0.013 A 
ATOM     16  C   UNL d   1       0.712   3.498  -0.100  0.00  0.00     0.014 A 
ENDBRANCH   4   7
BRANCH   3  17
ATOM     17  C   UNL d   1       0.418  -2.467   0.024  0.00  0.00     0.051 A 
ATOM     18  C   UNL d   1       1.623  -2.966   0.544  0.00  0.00     0.031 A 
ATOM     19  C   UNL d   1       1.894  -4.338   0.584  0.00  0.00     0.002 A 
ATOM     20  C   UNL d   1       0.971  -5.245   0.074  0.00  0.00     0.000 A 
ATOM     21  C   UNL d   1      -0.221  -4.778  -0.469  0.00  0.00     0.002 A 
ATOM     22  C   UNL d   1      -0.494  -3.406  -0.484  0.00  0.00     0.031 A 
ENDBRANCH   3  17
BRANCH   5  23
ATOM     23  C   UNL d   1      -2.065  -0.852   1.163  0.00  0.00    -0.033 A 
ATOM     24  C   UNL d   1      -1.524  -1.038   2.446  0.00  0.00     0.012 A 
ATOM     25  C   UNL d   1      -2.342  -1.343   3.538  0.00  0.00     0.037 A 
ATOM     26  C   UNL d   1      -3.721  -1.452   3.369  0.00  0.00     0.068 A 
ATOM     27  C   UNL d   1      -4.269  -1.254   2.102  0.00  0.00     0.037 A 
ATOM     28  C   UNL d   1      -3.453  -0.955   1.006  0.00  0.00     0.012 A 
BRANCH  26  29
ATOM     29  O   UNL d   1      -4.627  -1.744   4.351  0.00  0.00    -0.356 OA
ATOM     30  C   UNL d   1      -4.107  -1.954   5.659  0.00  0.00     0.210 C 
ENDBRANCH  26  29
ENDBRANCH   5  23
TORSDOF 4
