REMARK  6 active torsions:
REMARK  status: ('A' for Active; 'I' for Inactive)
REMARK    1  A    between atoms: N_7  and  S_1 
REMARK    2  A    between atoms: C_17  and  S_1 
REMARK    3  A    between atoms: C_2  and  C_6 
REMARK    4  A    between atoms: C_11  and  C_3 
REMARK       I    between atoms: C_6  and  N_15 
REMARK    5  A    between atoms: C_8  and  N_7 
REMARK    6  A    between atoms: N_15  and  C_25 
ROOT
ATOM      1  C   UNL d   1       0.516   1.726  -0.566  0.00  0.00     0.075 A 
ATOM      2  C   UNL d   1      -0.662   1.868  -1.301  0.00  0.00     0.027 A 
ATOM      3  C   UNL d   1       1.187   2.852  -0.084  0.00  0.00     0.027 A 
ATOM      4  C   UNL d   1      -0.473   4.276  -1.142  0.00  0.00     0.035 A 
ATOM      5  C   UNL d   1      -1.137   3.142  -1.619  0.00  0.00     0.031 A 
ATOM      6  C   UNL d   1       0.673   4.124  -0.353  0.00  0.00     0.031 A 
ENDROOT
BRANCH   4   7
ATOM      7  N   UNL d   1      -0.952   5.578  -1.375  0.00  0.00    -0.323 N 
ATOM      8  C   UNL d   1      -1.644   5.981  -2.507  0.00  0.00     0.261 C 
ATOM      9  O   UNL d   1      -1.790   5.310  -3.521  0.00  0.00    -0.267 OA
ATOM     10  H   UNL d   1      -0.616   6.309  -0.760  0.00  0.00     0.169 HD
BRANCH   8  11
ATOM     11  C   UNL d   1      -2.113   7.346  -2.421  0.00  0.00     0.093 A 
ATOM     12  C   UNL d   1      -1.918   8.447  -3.319  0.00  0.00     0.085 A 
ATOM     13  N   UNL d   1      -2.515   9.543  -2.820  0.00  0.00    -0.259 N 
ATOM     14  O   UNL d   1      -3.164   9.161  -1.671  0.00  0.00    -0.241 OA
ATOM     15  HN  UNL d   1      -2.491  10.482  -3.219  1.00  0.00     0.195 HD
ATOM     16  C   UNL d   1      -2.927   7.850  -1.431  0.00  0.00     0.090 A 
ATOM     17  C   UNL d   1      -3.579   7.277  -0.236  0.00  0.00     0.080 C 
BRANCH  12  18
ATOM     18  C   UNL d   1      -1.119   8.516  -4.549  0.00  0.00     0.015 A 
ATOM     19  C   UNL d   1      -1.519   9.236  -5.692  0.00  0.00     0.046 A 
ATOM     20 CL   UNL d   1      -3.033  10.068  -5.820  0.00  0.00    -0.083 Cl
ATOM     21  C   UNL d   1      -0.695   9.285  -6.828  0.00  0.00     0.025 A 
ATOM     22  C   UNL d   1       0.525   8.613  -6.848  0.00  0.00     0.002 A 
ATOM     23  C   UNL d   1       0.934   7.898  -5.729  0.00  0.00     0.001 A 
ATOM     24  C   UNL d   1       0.125   7.857  -4.589  0.00  0.00     0.015 A 
ENDBRANCH  12  18
ENDBRANCH   8  11
ENDBRANCH   4   7
BRANCH   1  25
ATOM     25  S   UNL d   1       1.071   0.096  -0.124  0.00  0.00     0.247 S 
ATOM     26  O   UNL d   1       1.959   0.235   1.012  0.00  0.00    -0.205 OA
ATOM     27  O   UNL d   1      -0.096  -0.762  -0.053  0.00  0.00    -0.205 OA
BRANCH  25  28
ATOM     28  N   UNL d   1       2.048  -0.361  -1.424  0.00  0.00    -0.165 NA
ATOM     29  H   UNL d   1       2.797  -0.939  -1.043  0.00  0.00     0.147 HD
BRANCH  28  30
ATOM     30  C   UNL d   1       1.433  -0.933  -2.530  0.00  0.00     0.117 A 
ATOM     31  N   UNL d   1       1.506  -2.240  -2.779  0.00  0.00    -0.249 N 
ATOM     32  O   UNL d   1       0.755  -2.440  -3.931  0.00  0.00    -0.241 OA
ATOM     33  HN  UNL d   1       2.006  -2.945  -2.237  1.00  0.00     0.196 HD
ATOM     34  C   UNL d   1       0.317  -1.238  -4.394  0.00  0.00     0.075 A 
ATOM     35  C   UNL d   1       0.760  -0.243  -3.556  0.00  0.00     0.079 A 
ATOM     36  C   UNL d   1      -0.489  -1.254  -5.626  0.00  0.00     0.079 C 
ENDBRANCH  28  30
ENDBRANCH  25  28
ENDBRANCH   1  25
TORSDOF 6
