REMARK  3 active torsions:
REMARK  status: ('A' for Active; 'I' for Inactive)
REMARK    1  A    between atoms: C_2  and  C_1 
REMARK       I    between atoms: N_5  and  C_2 
REMARK       I    between atoms: C_3  and  N_6 
REMARK    2  A    between atoms: C_4  and  C_3 
REMARK    3  A    between atoms: N_6  and  N_5 
ROOT
ATOM      1  C   UNL d   1      -0.208   2.302   0.108  0.00  0.00     0.276 C 
ATOM      2  N   UNL d   1      -1.310   3.136   0.154  0.00  0.00    -0.263 N 
ATOM      3  O   UNL d   1      -0.300   1.161  -0.338  0.00  0.00    -0.266 OA
ATOM      4  H   UNL d   1      -1.313   4.061   0.586  0.00  0.00     0.190 HD
ENDROOT
BRANCH   2   5
ATOM      5  N   UNL d   1      -2.548   2.640  -0.278  0.00  0.00    -0.263 N 
ATOM      6  C   UNL d   1      -3.691   3.162   0.297  0.00  0.00     0.271 C 
ATOM      7  O   UNL d   1      -3.675   4.058   1.137  0.00  0.00    -0.266 OA
ATOM      8  H   UNL d   1      -2.525   1.722  -0.721  0.00  0.00     0.190 HD
BRANCH   6   9
ATOM      9  C   UNL d   1      -4.976   2.591  -0.160  0.00  0.00     0.049 A 
ATOM     10  C   UNL d   1      -6.056   2.567   0.713  0.00  0.00     0.104 A 
ATOM     11  N   UNL d   1      -7.291   2.117   0.373  0.00  0.00    -0.374 N 
ATOM     12  C   UNL d   1      -7.457   1.698  -0.901  0.00  0.00     0.087 A 
ATOM     13  HN  UNL d   1      -8.057   2.095   1.046  1.00  0.00     0.164 HD
ATOM     14  C   UNL d   1      -6.444   1.698  -1.847  0.00  0.00     0.018 A 
ATOM     15  C   UNL d   1      -5.179   2.148  -1.469  0.00  0.00     0.020 A 
ENDBRANCH   6   9
ENDBRANCH   2   5
BRANCH   1  16
ATOM     16  C   UNL d   1       1.083   2.848   0.610  0.00  0.00     0.110 A 
ATOM     17  C   UNL d   1       1.202   4.140   1.129  0.00  0.00     0.135 A 
ATOM     18  F   UNL d   1       0.140   4.958   1.197  0.00  0.00    -0.205 F 
ATOM     19  C   UNL d   1       2.424   4.634   1.593  0.00  0.00     0.043 A 
ATOM     20  C   UNL d   1       3.564   3.835   1.542  0.00  0.00     0.006 A 
ATOM     21  C   UNL d   1       3.469   2.547   1.024  0.00  0.00     0.043 A 
ATOM     22  C   UNL d   1       2.240   2.062   0.564  0.00  0.00     0.135 A 
ATOM     23  F   UNL d   1       2.221   0.817   0.070  0.00  0.00    -0.205 F 
ENDBRANCH   1  16
TORSDOF 3
