REMARK  6 active torsions:
REMARK  status: ('A' for Active; 'I' for Inactive)
REMARK    1  A    between atoms: C_3  and  C_1 
REMARK    2  A    between atoms: C_4  and  C_1 
REMARK    3  A    between atoms: C_8  and  C_2 
REMARK    4  A    between atoms: O_14  and  C_3 
REMARK    5  A    between atoms: N_5  and  C_4 
REMARK    6  A    between atoms: C_15  and  O_14 
ROOT
ATOM      1  C   UNL d   1       0.983  -0.062  -0.077  0.00  0.00     0.102 C 
ATOM      2  C   UNL d   1       0.309  -0.983   0.639  0.00  0.00     0.039 C 
ENDROOT
BRANCH   1   3
ATOM      3  C   UNL d   1       0.252   0.860  -0.967  0.00  0.00     0.302 C 
ATOM      4  O   UNL d   1      -0.963   0.852  -1.115  0.00  0.00    -0.259 OA
BRANCH   3   5
ATOM      5  O   UNL d   1       1.131   1.630  -1.650  0.00  0.00    -0.317 OA
BRANCH   5   6
ATOM      6  C   UNL d   1       0.612   2.328  -2.789  0.00  0.00     0.174 C 
ATOM      7  C   UNL d   1       0.731   1.419  -4.000  0.00  0.00     0.034 C 
ENDBRANCH   5   6
ENDBRANCH   3   5
ENDBRANCH   1   3
BRANCH   1   8
ATOM      8  C   UNL d   1       2.503  -0.062  -0.077  0.00  0.00    -0.031 C 
BRANCH   8   9
ATOM      9  N   UNL d   1       3.764  -0.062  -0.077  0.00  0.00    -0.365 N 
ATOM     10  HN2 UNL d   1       2.744  -0.062  -0.077  1.00  0.00     0.165 HD
ATOM     11  HN1 UNL d   1       4.784  -0.062  -0.077  1.00  0.00     0.165 HD
ENDBRANCH   8   9
ENDBRANCH   1   8
BRANCH   2  12
ATOM     12  C   UNL d   1       0.942  -2.004   1.417  0.00  0.00    -0.028 A 
ATOM     13  C   UNL d   1       1.251  -1.855   2.751  0.00  0.00     0.061 A 
ATOM     14  S   UNL d   1       2.090  -3.217   3.368  0.00  0.00    -0.113 SA
ATOM     15  C   UNL d   1       2.034  -4.009   1.852  0.00  0.00     0.050 A 
ATOM     16  C   UNL d   1       1.381  -3.259   0.899  0.00  0.00     0.019 A 
ENDBRANCH   2  12
TORSDOF 6
