REMARK  6 active torsions:
REMARK  status: ('A' for Active; 'I' for Inactive)
REMARK    1  A    between atoms: C_2  and  C_1 
REMARK    2  A    between atoms: O_15  and  C_2 
REMARK       I    between atoms: C_3  and  N_9 
REMARK    3  A    between atoms: C_5  and  C_3 
REMARK    4  A    between atoms: C_6  and  C_7 
REMARK    5  A    between atoms: O_18  and  C_6 
REMARK    6  A    between atoms: N_9  and  C_10 
ROOT
ATOM      1  C   UNL d   1       0.073   0.818  -0.442  0.00  0.00     0.061 A 
ATOM      2  C   UNL d   1      -0.425  -0.451  -0.124  0.00  0.00     0.051 A 
ATOM      3  C   UNL d   1       1.470   1.010  -0.460  0.00  0.00     0.049 A 
ATOM      4  C   UNL d   1       2.358  -0.010  -0.106  0.00  0.00     0.036 A 
ATOM      5  C   UNL d   1       0.460  -1.493   0.177  0.00  0.00     0.027 A 
ATOM      6  C   UNL d   1       1.840  -1.272   0.193  0.00  0.00     0.031 A 
ATOM      7 CL   UNL d   1      -2.109  -0.837  -0.073  0.00  0.00    -0.083 Cl
ENDROOT
BRANCH   4   8
ATOM      8  N   UNL d   1       3.754   0.173   0.024  0.00  0.00    -0.324 N 
ATOM      9  C   UNL d   1       4.447   1.358  -0.125  0.00  0.00     0.245 C 
ATOM     10  O   UNL d   1       4.003   2.435  -0.500  0.00  0.00    -0.268 OA
ATOM     11  H   UNL d   1       4.278  -0.636   0.335  0.00  0.00     0.169 HD
BRANCH   9  12
ATOM     12  C   UNL d   1       5.877   1.237   0.255  0.00  0.00     0.081 C 
ATOM     13  C   UNL d   1       6.647   2.333   0.219  0.00  0.00     0.086 C 
BRANCH  13  14
ATOM     14  C   UNL d   1       8.056   2.216   0.624  0.00  0.00     0.165 C 
ATOM     15  O   UNL d   1       8.532   1.228   1.153  0.00  0.00    -0.647 OA
BRANCH  14  16
ATOM     16  O   UNL d   1       8.770   3.319   0.333  0.00  0.00    -0.773 OA
ATOM     17  H   UNL d   1       8.284   4.022  -0.138  0.00  0.00     0.167 HD
ENDBRANCH  14  16
ENDBRANCH  13  14
ENDBRANCH   9  12
ENDBRANCH   4   8
BRANCH   1  18
ATOM     18  C   UNL d   1      -0.744   2.029  -0.750  0.00  0.00     0.177 C 
ATOM     19  O   UNL d   1      -0.273   3.001  -1.319  0.00  0.00    -0.646 OA
BRANCH  18  20
ATOM     20  O   UNL d   1      -2.011   2.034  -0.292  0.00  0.00    -0.773 OA
ATOM     21  H   UNL d   1      -2.315   1.204   0.123  0.00  0.00     0.167 HD
ENDBRANCH  18  20
ENDBRANCH   1  18
TORSDOF 6
