REMARK  4 active torsions:
REMARK  status: ('A' for Active; 'I' for Inactive)
REMARK    1  A    between atoms: C_13  and  C_5 
REMARK    2  A    between atoms: N_7  and  C_9 
REMARK    3  A    between atoms: N_8  and  C_14 
REMARK       I    between atoms: N_23  and  C_13 
REMARK    4  A    between atoms: C_24  and  N_23 
ROOT
ATOM      1  C   UNL d   1      -0.680   0.853   0.019  0.00  0.00     0.005 A 
ATOM      2  C   UNL d   1      -1.149  -0.482  -0.034  0.00  0.00     0.029 A 
ATOM      3  C   UNL d   1       1.210  -0.541  -0.031  0.00  0.00     0.028 A 
ATOM      4  C   UNL d   1       0.787   0.805   0.003  0.00  0.00    -0.010 A 
ATOM      5  C   UNL d   1      -1.635   1.876   0.059  0.00  0.00     0.046 A 
ATOM      6  C   UNL d   1       0.011  -1.388  -0.053  0.00  0.00     0.194 A 
ATOM      7  C   UNL d   1      -3.414   0.174  -0.061  0.00  0.00     0.104 A 
ATOM      8  C   UNL d   1      -2.480  -0.858  -0.074  0.00  0.00     0.052 A 
ATOM      9  C   UNL d   1      -3.006   1.525   0.013  0.00  0.00     0.054 A 
ATOM     10  C   UNL d   1       2.530  -0.958  -0.080  0.00  0.00     0.052 A 
ATOM     11  C   UNL d   1       3.497   0.049  -0.097  0.00  0.00     0.103 A 
ATOM     12  C   UNL d   1       1.767   1.786  -0.024  0.00  0.00     0.016 A 
ATOM     13  O   UNL d   1      -0.021  -2.600  -0.095  0.00  0.00    -0.287 OA
ATOM     14  C   UNL d   1       3.123   1.408  -0.062  0.00  0.00     0.037 A 
ENDROOT
BRANCH   5  15
ATOM     15  C   UNL d   1      -1.283   3.307   0.264  0.00  0.00     0.252 C 
ATOM     16  O   UNL d   1      -0.356   3.604   1.006  0.00  0.00    -0.268 OA
ATOM     17  N   UNL d   1      -2.063   4.254  -0.378  0.00  0.00    -0.357 N 
ATOM     18  H   UNL d   1      -2.784   3.983  -1.034  0.00  0.00     0.162 HD
BRANCH  17  19
ATOM     19  C   UNL d   1      -1.730   5.661  -0.250  0.00  0.00     0.118 C 
ATOM     20  C   UNL d   1      -2.741   6.571  -0.922  0.00  0.00     0.026 C 
ENDBRANCH  17  19
ENDBRANCH   5  15
BRANCH   7  21
ATOM     21  N   UNL d   1      -4.847  -0.148  -0.115  0.00  0.00    -0.116 N 
ATOM     22  O   UNL d   1      -5.168  -1.343  -0.124  0.00  0.00    -0.532 OA
ATOM     23  O   UNL d   1      -5.642   0.799  -0.160  0.00  0.00    -0.532 OA
ENDBRANCH   7  21
BRANCH  11  24
ATOM     24  N   UNL d   1       4.918  -0.312  -0.176  0.00  0.00    -0.116 N 
ATOM     25  O   UNL d   1       5.203  -1.516  -0.248  0.00  0.00    -0.532 OA
ATOM     26  O   UNL d   1       5.746   0.609  -0.177  0.00  0.00    -0.532 OA
ENDBRANCH  11  24
TORSDOF 4
