REMARK  4 active torsions:
REMARK  status: ('A' for Active; 'I' for Inactive)
REMARK    1  A    between atoms: C_6  and  C_1 
REMARK    2  A    between atoms: N_7  and  N_4 
REMARK    3  A    between atoms: S_12  and  C_9 
REMARK    4  A    between atoms: N_13  and  C_9 
ROOT
ATOM      1  N   UNL d   1      -4.541  -1.202  -0.115  0.00  0.00    -0.301 N 
ATOM      2  HN  UNL d   1      -5.555  -1.217  -0.227  1.00  0.00     0.186 HD
ATOM      3  C   UNL d   1      -3.865  -0.092  -0.098  0.00  0.00     0.056 C 
ATOM      4  C   UNL d   1      -2.360   0.015  -0.014  0.00  0.00     0.072 C 
ENDROOT
BRANCH   3   5
ATOM      5  C   UNL d   1      -4.631   1.135  -0.137  0.00  0.00     0.100 A 
ATOM      6  O   UNL d   1      -3.995   2.346  -0.072  0.00  0.00    -0.308 OA
ATOM      7  C   UNL d   1      -4.961   3.308  -0.069  0.00  0.00     0.086 A 
ATOM      8  C   UNL d   1      -4.743   4.682   0.003  0.00  0.00     0.038 A 
ATOM      9  C   UNL d   1      -6.221   2.728  -0.139  0.00  0.00     0.001 A 
ATOM     10  C   UNL d   1      -5.883   5.496   0.008  0.00  0.00     0.003 A 
ATOM     11  C   UNL d   1      -7.166   4.946  -0.055  0.00  0.00     0.001 A 
ATOM     12  C   UNL d   1      -7.353   3.560  -0.131  0.00  0.00     0.014 A 
ATOM     13  C   UNL d   1      -5.998   1.333  -0.195  0.00  0.00     0.053 A 
ENDBRANCH   3   5
BRANCH   1  14
ATOM     14  N   UNL d   1      -3.799  -2.366   0.029  0.00  0.00    -0.284 N 
ATOM     15  C   UNL d   1      -4.465  -3.473  -0.117  0.00  0.00     0.130 C 
ATOM     16  HN  UNL d   1      -2.800  -2.354   0.234  1.00  0.00     0.188 HD
BRANCH  15  17
ATOM     17  S   UNL d   1      -6.155  -3.635  -0.553  0.00  0.00    -0.103 SA
ATOM     18  C   UNL d   1      -6.927  -2.918   0.910  0.00  0.00     0.098 C 
ENDBRANCH  15  17
BRANCH  15  19
ATOM     19  N   UNL d   1      -3.846  -4.679   0.007  0.00  0.00    -0.282 NA
ATOM     20  H   UNL d   1      -2.846  -4.619  -0.138  0.00  0.00     0.126 HD
ATOM     21  H   UNL d   1      -4.300  -5.423  -0.507  0.00  0.00     0.126 HD
ENDBRANCH  15  19
ENDBRANCH   1  14
TORSDOF 4
