REMARK  4 active torsions:
REMARK  status: ('A' for Active; 'I' for Inactive)
REMARK    1  A    between atoms: C_2  and  C_1 
REMARK       I    between atoms: N_10  and  C_2 
REMARK    2  A    between atoms: C_9  and  C_4 
REMARK    3  A    between atoms: C_6  and  N_11 
REMARK    4  A    between atoms: C_14  and  C_7 
ROOT
ATOM      1  C   UNL d   1       0.096  -2.588   0.227  0.00  0.00     0.256 C 
ATOM      2  N   UNL d   1      -0.997  -3.446   0.109  0.00  0.00    -0.345 N 
ATOM      3  N   UNL d   1      -3.346  -5.034   0.009  0.00  0.00    -0.363 N 
ATOM      4  O   UNL d   1       0.974  -2.771   1.069  0.00  0.00    -0.267 OA
ATOM      5  C   UNL d   1      -1.813  -3.581  -1.108  0.00  0.00     0.146 C 
ATOM      6  C   UNL d   1      -1.134  -4.601   1.022  0.00  0.00     0.146 C 
ATOM      7  C   UNL d   1      -2.621  -4.973   1.299  0.00  0.00     0.144 C 
ATOM      8  C   UNL d   1      -3.283  -3.760  -0.716  0.00  0.00     0.144 C 
ENDROOT
BRANCH   1   9
ATOM      9  C   UNL d   1       0.149  -1.447  -0.678  0.00  0.00     0.064 C 
ATOM     10  C   UNL d   1      -0.931  -0.674  -1.197  0.00  0.00     0.057 C 
ATOM     11  C   UNL d   1      -0.418   0.180  -2.147  0.00  0.00     0.087 C 
ATOM     12  O   UNL d   1       0.944   0.115  -2.111  0.00  0.00    -0.314 OA
ATOM     13  C   UNL d   1       1.285  -0.830  -1.180  0.00  0.00     0.065 C 
ATOM     14  C   UNL d   1       2.735  -0.981  -0.928  0.00  0.00     0.077 C 
BRANCH  11  15
ATOM     15  C   UNL d   1      -1.046   1.105  -3.083  0.00  0.00    -0.002 A 
ATOM     16  C   UNL d   1      -2.441   1.074  -3.262  0.00  0.00     0.016 A 
ATOM     17  C   UNL d   1      -3.087   2.024  -4.058  0.00  0.00     0.024 A 
ATOM     18  C   UNL d   1      -2.338   3.003  -4.697  0.00  0.00     0.034 A 
ATOM     19  C   UNL d   1      -0.950   3.015  -4.581  0.00  0.00     0.024 A 
ATOM     20 CL   UNL d   1      -3.135   4.218  -5.617  0.00  0.00    -0.084 Cl
ATOM     21  C   UNL d   1      -0.304   2.062  -3.785  0.00  0.00     0.016 A 
ENDBRANCH  11  15
ENDBRANCH   1   9
BRANCH   3  22
ATOM     22  C   UNL d   1      -4.462  -5.830  -0.118  0.00  0.00     0.118 A 
ATOM     23  C   UNL d   1      -4.896  -6.330  -1.359  0.00  0.00     0.091 A 
ATOM     24  C   UNL d   1      -6.043  -7.141  -1.390  0.00  0.00     0.021 A 
ATOM     25  C   UNL d   1      -6.709  -7.471  -0.219  0.00  0.00     0.018 A 
ATOM     26  C   UNL d   1      -6.197  -6.963   0.952  0.00  0.00     0.089 A 
ATOM     27  N   UNL d   1      -5.111  -6.165   1.023  0.00  0.00    -0.352 N 
ATOM     28  HN  UNL d   1      -4.783  -5.818   1.924  1.00  0.00     0.166 HD
BRANCH  23  29
ATOM     29  C   UNL d   1      -4.219  -6.107  -2.680  0.00  0.00     0.421 C 
ATOM     30  F   UNL d   1      -2.966  -5.582  -2.664  0.00  0.00    -0.166 F 
ATOM     31  F   UNL d   1      -4.091  -7.266  -3.396  0.00  0.00    -0.166 F 
ATOM     32  F   UNL d   1      -4.946  -5.273  -3.481  0.00  0.00    -0.166 F 
ENDBRANCH  23  29
ENDBRANCH   3  22
TORSDOF 4
