REMARK  3 active torsions:
REMARK  status: ('A' for Active; 'I' for Inactive)
REMARK    1  A    between atoms: N_2  and  C_1 
REMARK    2  A    between atoms: N_3  and  C_1 
REMARK    3  A    between atoms: C_5  and  N_3 
ROOT
ATOM      1  C   UNL d   1       0.853   0.060   0.128  0.00  0.00     0.174 C 
ATOM      2  S   UNL d   1       0.685   0.170   1.801  0.00  0.00    -0.041 SA
ENDROOT
BRANCH   1   3
ATOM      3  N   UNL d   1       0.230   0.913  -0.815  0.00  0.00    -0.358 N 
ATOM      4  C   UNL d   1       0.669   0.939  -2.219  0.00  0.00     0.125 C 
ATOM      5  C   UNL d   1      -0.358   1.437  -3.236  0.00  0.00     0.020 C 
ATOM      6  C   UNL d   1      -1.742   0.817  -3.055  0.00  0.00     0.002 C 
ATOM      7  C   UNL d   1      -2.613   1.596  -2.070  0.00  0.00     0.002 C 
ATOM      8  C   UNL d   1      -2.144   1.577  -0.614  0.00  0.00     0.020 C 
ATOM      9  C   UNL d   1      -0.689   1.990  -0.407  0.00  0.00     0.125 C 
ENDBRANCH   1   3
BRANCH   1  10
ATOM     10  N   UNL d   1       1.547  -0.984  -0.461  0.00  0.00    -0.333 N 
ATOM     11  H   UNL d   1       0.996  -1.535  -1.105  0.00  0.00     0.168 HD
BRANCH  10  12
ATOM     12  C   UNL d   1       2.821  -1.488  -0.134  0.00  0.00     0.034 A 
ATOM     13  C   UNL d   1       3.165  -2.758  -0.603  0.00  0.00     0.030 A 
ATOM     14  C   UNL d   1       4.449  -3.269  -0.392  0.00  0.00     0.009 A 
ATOM     15  C   UNL d   1       5.417  -2.503   0.265  0.00  0.00    -0.062 A 
ATOM     16  C   UNL d   1       5.067  -1.237   0.745  0.00  0.00     0.009 A 
ATOM     17  C   UNL d   1       6.800  -3.047   0.469  0.00  0.00     0.048 C 
ATOM     18  C   UNL d   1       3.779  -0.730   0.543  0.00  0.00     0.030 A 
ENDBRANCH  10  12
ENDBRANCH   1  10
TORSDOF 3
