REMARK  4 active torsions:
REMARK  status: ('A' for Active; 'I' for Inactive)
REMARK    1  A    between atoms: N_2  and  C_1 
REMARK    2  A    between atoms: N_4  and  C_1 
REMARK       I    between atoms: C_3  and  N_2 
REMARK    3  A    between atoms: C_6  and  C_3 
REMARK    4  A    between atoms: C_7  and  C_8 
ROOT
ATOM      1  N   UNL d   1       0.240   1.902   0.305  0.00  0.00    -0.300 N 
ATOM      2  C   UNL d   1       0.906   1.964   1.534  0.00  0.00     0.257 C 
ATOM      3  O   UNL d   1       0.387   1.802   2.631  0.00  0.00    -0.267 OA
ATOM      4  H   UNL d   1       0.691   2.392  -0.442  0.00  0.00     0.171 HD
ENDROOT
BRANCH   2   5
ATOM      5  C   UNL d   1       2.382   2.247   1.484  0.00  0.00     0.032 A 
ATOM      6  C   UNL d   1       3.131   2.316   0.305  0.00  0.00     0.017 A 
ATOM      7  C   UNL d   1       4.530   2.413   0.356  0.00  0.00     0.009 A 
ATOM      8  C   UNL d   1       5.228   2.426   1.578  0.00  0.00    -0.051 A 
ATOM      9  C   UNL d   1       4.459   2.427   2.750  0.00  0.00     0.009 A 
ATOM     10  C   UNL d   1       3.062   2.337   2.704  0.00  0.00     0.017 A 
BRANCH   8  11
ATOM     11  C   UNL d   1       6.767   2.367   1.599  0.00  0.00    -0.024 C 
ATOM     12  C   UNL d   1       7.361   2.330   3.025  0.00  0.00     0.019 C 
ATOM     13  C   UNL d   1       7.237   1.081   0.880  0.00  0.00     0.019 C 
ATOM     14  C   UNL d   1       7.371   3.588   0.877  0.00  0.00     0.019 C 
ENDBRANCH   8  11
ENDBRANCH   2   5
BRANCH   1  15
ATOM     15  C   UNL d   1      -1.025   1.398  -0.024  0.00  0.00     0.176 C 
ATOM     16  S   UNL d   1      -2.169   0.943   1.121  0.00  0.00    -0.041 SA
BRANCH  15  17
ATOM     17  N   UNL d   1      -1.237   1.281  -1.417  0.00  0.00    -0.354 N 
ATOM     18  C   UNL d   1      -2.548   0.906  -1.995  0.00  0.00     0.151 C 
ATOM     19  C   UNL d   1      -2.443  -0.446  -2.707  0.00  0.00     0.187 C 
ATOM     20  O   UNL d   1      -1.470  -0.371  -3.762  0.00  0.00    -0.388 OA
ATOM     21  C   UNL d   1      -0.177  -0.055  -3.234  0.00  0.00     0.187 C 
ATOM     22  C   UNL d   1      -0.182   1.270  -2.453  0.00  0.00     0.151 C 
ENDBRANCH  15  17
ENDBRANCH   1  15
TORSDOF 4
