REMARK  7 active torsions:
REMARK  status: ('A' for Active; 'I' for Inactive)
REMARK    1  A    between atoms: C_7  and  C_1 
REMARK    2  A    between atoms: C_3  and  C_2 
REMARK    3  A    between atoms: O_18  and  C_6 
REMARK    4  A    between atoms: O_25  and  C_7 
REMARK    5  A    between atoms: C_12  and  C_17 
REMARK    6  A    between atoms: N_14  and  O_18 
REMARK    7  A    between atoms: C_28  and  O_25 
ROOT
ATOM      1  C   UNL d   1      -0.002  -1.472   0.002  0.00  0.00     0.086 A 
ATOM      2  C   UNL d   1       1.206  -0.791  -0.011  0.00  0.00     0.137 A 
ATOM      3  N   UNL d   1       1.236   0.582  -0.004  0.00  0.00    -0.316 N 
ATOM      4  HN  UNL d   1       2.123   1.085  -0.011  1.00  0.00     0.169 HD
ATOM      5  C   UNL d   1       0.069   1.247   0.013  0.00  0.00     0.247 A 
ATOM      6  N   UNL d   1      -1.136   0.664  -0.005  0.00  0.00    -0.330 N 
ATOM      7  HN  UNL d   1      -2.000   1.207  -0.014  1.00  0.00     0.168 HD
ATOM      8  C   UNL d   1      -1.139  -0.685  -0.010  0.00  0.00     0.111 A 
ENDROOT
BRANCH   5   9
ATOM      9  O   UNL d   1       0.174   2.636  -0.036  0.00  0.00    -0.201 OA
BRANCH   9  10
ATOM     10  N   UNL d   1      -0.946   3.235   0.573  0.00  0.00    -0.268 N 
ATOM     11  C   UNL d   1      -0.846   4.522   0.482  0.00  0.00     0.127 C 
ATOM     12  HN  UNL d   1      -1.716   2.733   1.015  1.00  0.00     0.194 HD
BRANCH  11  13
ATOM     13  C   UNL d   1      -1.868   5.410   1.078  0.00  0.00     0.003 A 
ATOM     14  C   UNL d   1      -1.762   6.806   1.027  0.00  0.00     0.047 A 
ATOM     15  C   UNL d   1      -2.734   7.603   1.643  0.00  0.00     0.048 A 
ATOM     16 CL   UNL d   1      -0.464   7.620   0.229  0.00  0.00    -0.083 Cl
ATOM     17  C   UNL d   1      -3.807   7.009   2.304  0.00  0.00     0.035 A 
ATOM     18  C   UNL d   1      -3.929   5.622   2.350  0.00  0.00     0.025 A 
ATOM     19 CL   UNL d   1      -4.989   7.994   3.073  0.00  0.00    -0.084 Cl
ATOM     20  C   UNL d   1      -2.961   4.825   1.738  0.00  0.00     0.016 A 
ENDBRANCH  11  13
ENDBRANCH   9  10
ENDBRANCH   5   9
BRANCH   2  21
ATOM     21  C   UNL d   1       2.569  -1.449  -0.088  0.00  0.00     0.433 C 
ATOM     22  F   UNL d   1       2.590  -2.791  -0.301  0.00  0.00    -0.165 F 
ATOM     23  F   UNL d   1       3.318  -0.939  -1.113  0.00  0.00    -0.165 F 
ATOM     24  F   UNL d   1       3.306  -1.240   1.040  0.00  0.00    -0.165 F 
ENDBRANCH   2  21
BRANCH   1  25
ATOM     25  C   UNL d   1      -0.225  -2.923  -0.042  0.00  0.00     0.296 C 
ATOM     26  O   UNL d   1      -1.152  -3.409  -0.668  0.00  0.00    -0.259 OA
BRANCH  25  27
ATOM     27  O   UNL d   1       0.634  -3.584   0.758  0.00  0.00    -0.318 OA
BRANCH  27  28
ATOM     28  C   UNL d   1       0.501  -5.020   0.753  0.00  0.00     0.174 C 
ATOM     29  C   UNL d   1       1.007  -5.628  -0.547  0.00  0.00     0.034 C 
ENDBRANCH  27  28
ENDBRANCH  25  27
ENDBRANCH   1  25
TORSDOF 7
