REMARK  4 active torsions:
REMARK  status: ('A' for Active; 'I' for Inactive)
REMARK    1  A    between atoms: C_7  and  C_3 
REMARK    2  A    between atoms: C_12  and  C_4 
REMARK    3  A    between atoms: O_8  and  C_12 
REMARK    4  A    between atoms: C_10  and  O_8 
ROOT
ATOM      1  N   UNL d   1       1.465  -0.580   0.050  0.00  0.00    -0.351 N 
ATOM      2  HN  UNL d   1       2.356  -1.074  -0.014  1.00  0.00     0.166 HD
ATOM      3  C   UNL d   1       1.322   0.798   0.073  0.00  0.00     0.049 A 
ATOM      4  C   UNL d   1       0.284  -1.162   0.124  0.00  0.00     0.075 A 
ATOM      5  S   UNL d   1      -1.061  -0.085   0.172  0.00  0.00    -0.084 SA
ATOM      6  C   UNL d   1       0.016   1.245   0.114  0.00  0.00     0.082 A 
ENDROOT
BRANCH   4   7
ATOM      7  C   UNL d   1       0.056  -2.643   0.044  0.00  0.00     0.240 C 
BRANCH   7   8
ATOM      8  O   UNL d   1      -0.654  -3.057   1.215  0.00  0.00    -0.343 OA
BRANCH   8   9
ATOM      9  C   UNL d   1      -1.043  -4.373   1.244  0.00  0.00     0.090 A 
ATOM     10  C   UNL d   1      -1.110  -5.012   2.492  0.00  0.00     0.067 A 
ATOM     11 CL   UNL d   1      -0.659  -4.197   3.949  0.00  0.00    -0.081 Cl
ATOM     12  C   UNL d   1      -1.539  -6.342   2.590  0.00  0.00     0.026 A 
ATOM     13  C   UNL d   1      -1.917  -7.039   1.445  0.00  0.00     0.002 A 
ATOM     14  C   UNL d   1      -1.876  -6.408   0.206  0.00  0.00     0.003 A 
ATOM     15  C   UNL d   1      -1.446  -5.081   0.105  0.00  0.00     0.038 A 
ENDBRANCH   8   9
ENDBRANCH   7   8
ENDBRANCH   4   7
BRANCH   3  16
ATOM     16  C   UNL d   1       2.483   1.677   0.016  0.00  0.00    -0.006 A 
ATOM     17  C   UNL d   1       3.639   1.254  -0.651  0.00  0.00     0.056 A 
ATOM     18  C   UNL d   1       4.753   2.085  -0.705  0.00  0.00     0.117 A 
ATOM     19  F   UNL d   1       5.851   1.675  -1.353  0.00  0.00    -0.206 F 
ATOM     20  C   UNL d   1       4.747   3.336  -0.098  0.00  0.00     0.042 A 
ATOM     21  C   UNL d   1       3.607   3.765   0.576  0.00  0.00     0.004 A 
ATOM     22  C   UNL d   1       2.480   2.940   0.633  0.00  0.00     0.014 A 
ENDBRANCH   3  16
TORSDOF 4
