REMARK  6 active torsions:
REMARK  status: ('A' for Active; 'I' for Inactive)
REMARK    1  A    between atoms: O_3  and  C_1 
REMARK       I    between atoms: N_12  and  C_1 
REMARK    2  A    between atoms: C_2  and  O_3 
REMARK    3  A    between atoms: C_11  and  C_6 
REMARK    4  A    between atoms: C_7  and  C_11 
REMARK    5  A    between atoms: C_21  and  C_13 
REMARK    6  A    between atoms: O_19  and  C_21 
ROOT
ATOM      1  C   UNL d   1      -1.019   1.287  -0.387  0.00  0.00     0.156 A 
ATOM      2  N   UNL d   1      -1.682   1.476  -1.549  0.00  0.00    -0.326 N 
ATOM      3  HN  UNL d   1      -1.186   1.606  -2.431  1.00  0.00     0.169 HD
ATOM      4  C   UNL d   1      -3.035   1.486  -1.491  0.00  0.00     0.087 A 
ATOM      5  N   UNL d   1      -3.743   1.186  -0.389  0.00  0.00    -0.347 N 
ATOM      6  HN  UNL d   1      -4.759   1.098  -0.417  1.00  0.00     0.167 HD
ATOM      7  C   UNL d   1      -1.671   1.123   0.819  0.00  0.00     0.083 A 
ATOM      8  C   UNL d   1      -3.053   1.005   0.759  0.00  0.00     0.038 A 
ENDROOT
BRANCH   4   9
ATOM      9  C   UNL d   1      -3.816   1.918  -2.719  0.00  0.00     0.118 C 
BRANCH   9  10
ATOM     10  C   UNL d   1      -4.144   0.792  -3.680  0.00  0.00    -0.008 A 
ATOM     11  C   UNL d   1      -5.336   0.051  -3.556  0.00  0.00     0.042 A 
ATOM     12 CL   UNL d   1      -6.590   0.484  -2.444  0.00  0.00    -0.084 Cl
ATOM     13  C   UNL d   1      -5.578  -1.075  -4.354  0.00  0.00     0.024 A 
ATOM     14  C   UNL d   1      -4.658  -1.460  -5.322  0.00  0.00     0.003 A 
ATOM     15  C   UNL d   1      -3.503  -0.707  -5.505  0.00  0.00     0.024 A 
ATOM     16  C   UNL d   1      -3.243   0.404  -4.690  0.00  0.00     0.042 A 
ATOM     17 CL   UNL d   1      -1.776   1.264  -5.005  0.00  0.00    -0.084 Cl
ENDBRANCH   9  10
ENDBRANCH   4   9
BRANCH   1  18
ATOM     18  O   UNL d   1       0.392   1.026  -0.543  0.00  0.00    -0.244 OA
BRANCH  18  19
ATOM     19  C   UNL d   1       1.328   1.338   0.454  0.00  0.00     0.368 C 
ATOM     20  N   UNL d   1       2.663   0.976   0.184  0.00  0.00    -0.336 N 
ATOM     21  C   UNL d   1       3.658   1.290   1.199  0.00  0.00     0.154 C 
ATOM     22  C   UNL d   1       3.164   0.225  -0.954  0.00  0.00     0.154 C 
ATOM     23  O   UNL d   1       1.016   1.887   1.490  0.00  0.00    -0.238 OA
ENDBRANCH  18  19
ENDBRANCH   1  18
BRANCH   8  24
ATOM     24  C   UNL d   1      -3.840   0.525   1.961  0.00  0.00     0.224 C 
BRANCH  24  25
ATOM     25  O   UNL d   1      -3.842   1.493   3.008  0.00  0.00    -0.390 OA
ATOM     26  C   UNL d   1      -4.592   1.039   4.130  0.00  0.00     0.201 C 
ENDBRANCH  24  25
ENDBRANCH   8  24
TORSDOF 6
