REMARK  3 active torsions:
REMARK  status: ('A' for Active; 'I' for Inactive)
REMARK    1  A    between atoms: C_9  and  C_1 
REMARK    2  A    between atoms: C_4  and  C_9 
REMARK    3  A    between atoms: O_13  and  C_7 
ROOT
ATOM      1  C   UNL d   1      -0.675   1.046  -0.073  0.00  0.00     0.087 A 
ATOM      2  N   UNL d   1      -0.390   0.576  -1.302  0.00  0.00    -0.326 N 
ATOM      3  HN  UNL d   1      -0.600   1.100  -2.151  1.00  0.00     0.169 HD
ATOM      4  N   UNL d   1      -0.408   0.386   1.073  0.00  0.00    -0.349 N 
ATOM      5  HN  UNL d   1      -0.640   0.790   1.980  1.00  0.00     0.167 HD
ATOM      6  C   UNL d   1       0.188  -0.628  -1.328  0.00  0.00     0.142 A 
ATOM      7  C   UNL d   1       0.501  -1.390  -0.237  0.00  0.00     0.080 A 
ATOM      8  C   UNL d   1       0.177  -0.828   0.977  0.00  0.00     0.010 A 
ATOM      9  C   UNL d   1       0.458  -1.544   2.261  0.00  0.00     0.068 C 
ENDROOT
BRANCH   1  10
ATOM     10  C   UNL d   1      -1.373   2.384   0.030  0.00  0.00     0.118 C 
BRANCH  10  11
ATOM     11  C   UNL d   1      -2.886   2.264   0.039  0.00  0.00    -0.008 A 
ATOM     12  C   UNL d   1      -3.598   2.094   1.243  0.00  0.00     0.042 A 
ATOM     13 CL   UNL d   1      -2.827   2.128   2.792  0.00  0.00    -0.084 Cl
ATOM     14  C   UNL d   1      -4.986   1.905   1.243  0.00  0.00     0.024 A 
ATOM     15  C   UNL d   1      -5.695   1.887   0.047  0.00  0.00     0.003 A 
ATOM     16  C   UNL d   1      -5.015   2.069  -1.153  0.00  0.00     0.024 A 
ATOM     17  C   UNL d   1      -3.626   2.253  -1.159  0.00  0.00     0.042 A 
ATOM     18 CL   UNL d   1      -2.887   2.481  -2.708  0.00  0.00    -0.084 Cl
ENDBRANCH  10  11
ENDBRANCH   1  10
BRANCH   6  19
ATOM     19  O   UNL d   1       0.458  -1.084  -2.577  0.00  0.00    -0.346 OA
ATOM     20  H   UNL d   1       0.115  -0.344  -3.109  0.00  0.00     0.219 HD
ENDBRANCH   6  19
TORSDOF 3
