REMARK  4 active torsions:
REMARK  status: ('A' for Active; 'I' for Inactive)
REMARK    1  A    between atoms: N_16  and  C_8 
REMARK    2  A    between atoms: N_13  and  N_16 
REMARK    3  A    between atoms: C_15  and  C_18 
REMARK    4  A    between atoms: O_19  and  C_17 
ROOT
ATOM      1  C   UNL d   1       1.280  -0.794   0.064  0.00  0.00     0.150 A 
ATOM      2  C   UNL d   1       0.831   0.510   0.008  0.00  0.00     0.105 A 
ATOM      3  N   UNL d   1       2.564  -1.192   0.118  0.00  0.00    -0.172 N 
ATOM      4  HN  UNL d   1       2.864  -2.166   0.169  1.00  0.00     0.186 HD
ATOM      5  N   UNL d   1       0.183  -1.609   0.053  0.00  0.00    -0.339 N 
ATOM      6  N   UNL d   1       1.721   1.528  -0.015  0.00  0.00    -0.282 N 
ATOM      7  HN  UNL d   1       1.427   2.504  -0.058  1.00  0.00     0.187 HD
ATOM      8  C   UNL d   1       3.405  -0.130   0.096  0.00  0.00     0.713 A 
ATOM      9  C   UNL d   1      -0.588   0.491  -0.003  0.00  0.00     0.022 A 
ATOM     10  C   UNL d   1      -0.972  -0.856   0.019  0.00  0.00     0.046 A 
ATOM     11  N   UNL d   1       3.013   1.176   0.023  0.00  0.00    -0.130 N 
ATOM     12  HN  UNL d   1       3.725   1.906  -0.004  1.00  0.00     0.205 HD
ATOM     13  C   UNL d   1      -1.587   1.483  -0.025  0.00  0.00     0.016 A 
ATOM     14  C   UNL d   1      -2.315  -1.253   0.007  0.00  0.00     0.030 A 
ATOM     15  C   UNL d   1      -2.932   1.101  -0.025  0.00  0.00     0.001 A 
ATOM     16  C   UNL d   1      -3.287  -0.247  -0.012  0.00  0.00     0.002 A 
ATOM     17  H   UNL d   1       0.225  -2.617   0.076  0.00  0.00     0.167 HD
ENDROOT
BRANCH   8  18
ATOM     18  N   UNL d   1       4.780  -0.445   0.162  0.00  0.00    -0.131 N 
ATOM     19  H   UNL d   1       4.880  -1.448   0.040  0.00  0.00     0.205 HD
BRANCH  18  20
ATOM     20  N   UNL d   1       5.657   0.415  -0.425  0.00  0.00    -0.297 N 
ATOM     21  C   UNL d   1       6.896   0.035  -0.408  0.00  0.00     0.121 C 
ATOM     22  HN  UNL d   1       5.361   1.295  -0.848  1.00  0.00     0.186 HD
BRANCH  21  23
ATOM     23  C   UNL d   1       7.953   0.870  -1.014  0.00  0.00     0.014 A 
ATOM     24  C   UNL d   1       7.664   2.061  -1.693  0.00  0.00     0.077 A 
ATOM     25  C   UNL d   1       8.692   2.821  -2.245  0.00  0.00     0.037 A 
ATOM     26  C   UNL d   1      10.016   2.400  -2.116  0.00  0.00     0.003 A 
ATOM     27  C   UNL d   1      10.311   1.214  -1.443  0.00  0.00     0.001 A 
ATOM     28  C   UNL d   1       9.281   0.445  -0.894  0.00  0.00     0.015 A 
BRANCH  24  29
ATOM     29  O   UNL d   1       6.396   2.547  -1.857  0.00  0.00    -0.360 OA
ATOM     30  H   UNL d   1       5.777   1.961  -1.365  0.00  0.00     0.217 HD
ENDBRANCH  24  29
ENDBRANCH  21  23
ENDBRANCH  18  20
ENDBRANCH   8  18
TORSDOF 4
