REMARK  4 active torsions:
REMARK  status: ('A' for Active; 'I' for Inactive)
REMARK    1  A    between atoms: C_8  and  C_1 
REMARK    2  A    between atoms: N_7  and  C_2 
REMARK    3  A    between atoms: C_10  and  C_3 
REMARK       I    between atoms: C_9  and  N_7 
REMARK    4  A    between atoms: C_11  and  C_9 
ROOT
ATOM      1  C   UNL d   1       1.698   0.835  -0.278  0.00  0.00     0.147 A 
ATOM      2  C   UNL d   1       0.277  -0.892  -0.112  0.00  0.00     0.138 A 
ATOM      3  C   UNL d   1       1.631  -0.579  -0.117  0.00  0.00     0.053 A 
ATOM      4  N   UNL d   1       0.463   1.360  -0.367  0.00  0.00    -0.292 N 
ATOM      5  HN  UNL d   1       0.215   2.342  -0.482  1.00  0.00     0.187 HD
ATOM      6  N   UNL d   1      -0.379   0.309  -0.272  0.00  0.00    -0.280 N 
ATOM      7  C   UNL d   1      -1.791   0.603  -0.202  0.00  0.00     0.179 C 
ENDROOT
BRANCH   2   8
ATOM      8  N   UNL d   1      -0.174  -2.200   0.054  0.00  0.00    -0.310 N 
ATOM      9  C   UNL d   1      -1.414  -2.724  -0.433  0.00  0.00     0.231 C 
ATOM     10  O   UNL d   1      -2.199  -1.986  -1.006  0.00  0.00    -0.272 OA
ATOM     11  H   UNL d   1       0.508  -2.850   0.426  0.00  0.00     0.170 HD
BRANCH   9  12
ATOM     12  C   UNL d   1      -1.581  -4.244  -0.322  0.00  0.00     0.030 C 
ATOM     13  C   UNL d   1      -1.062  -4.782   1.018  0.00  0.00     0.025 C 
ATOM     14  C   UNL d   1      -3.072  -4.591  -0.447  0.00  0.00     0.025 C 
ATOM     15  C   UNL d   1      -0.807  -4.887  -1.480  0.00  0.00     0.025 C 
ENDBRANCH   9  12
ENDBRANCH   2   8
BRANCH   3  16
ATOM     16  C   UNL d   1       2.693  -1.567  -0.025  0.00  0.00    -0.020 A 
ATOM     17  C   UNL d   1       2.725  -2.644  -0.926  0.00  0.00     0.014 A 
ATOM     18  C   UNL d   1       3.694  -3.642  -0.805  0.00  0.00     0.020 A 
ATOM     19  C   UNL d   1       4.657  -3.548   0.196  0.00  0.00     0.011 A 
ATOM     20  C   UNL d   1       4.660  -2.464   1.073  0.00  0.00     0.020 A 
ATOM     21 BR   UNL d   1       5.965  -4.901   0.362  0.00  0.00    -0.051 Br
ATOM     22  C   UNL d   1       3.675  -1.475   0.967  0.00  0.00     0.014 A 
ENDBRANCH   3  16
BRANCH   1  23
ATOM     23  C   UNL d   1       2.943   1.687  -0.338  0.00  0.00     0.434 C 
ATOM     24  F   UNL d   1       3.958   1.055  -0.989  0.00  0.00    -0.165 F 
ATOM     25  F   UNL d   1       2.757   2.872  -0.973  0.00  0.00    -0.165 F 
ATOM     26  F   UNL d   1       3.404   1.970   0.910  0.00  0.00    -0.165 F 
ENDBRANCH   1  23
TORSDOF 4
