REMARK  2 active torsions:
REMARK  status: ('A' for Active; 'I' for Inactive)
REMARK    1  A    between atoms: C_10  and  N_1 
REMARK    2  A    between atoms: C_7  and  C_5 
ROOT
ATOM      1  N   UNL d   1       0.950  -0.638   0.053  0.00  0.00    -0.255 N 
ATOM      2  C   UNL d   1      -0.356  -1.106   0.154  0.00  0.00     0.076 C 
ATOM      3  N   UNL d   1       0.988   0.724   0.094  0.00  0.00    -0.289 N 
ATOM      4  HN  UNL d   1       1.812   1.317   0.188  1.00  0.00     0.187 HD
ATOM      5  C   UNL d   1      -0.293   1.119  -0.015  0.00  0.00     0.135 C 
ATOM      6  C   UNL d   1      -1.164   0.003  -0.003  0.00  0.00     0.069 C 
ATOM      7  C   UNL d   1      -0.761  -2.447   0.485  0.00  0.00     0.033 A 
ATOM      8  S   UNL d   1      -2.115  -3.189  -0.258  0.00  0.00    -0.100 SA
ATOM      9  C   UNL d   1      -0.195  -3.279   1.435  0.00  0.00     0.021 A 
ATOM     10  C   UNL d   1      -1.925  -4.617   0.664  0.00  0.00     0.050 A 
ATOM     11  C   UNL d   1      -0.858  -4.537   1.528  0.00  0.00     0.008 A 
ENDROOT
BRANCH   1  12
ATOM     12  C   UNL d   1       2.168  -1.366  -0.076  0.00  0.00     0.057 A 
ATOM     13  C   UNL d   1       2.199  -2.634  -0.671  0.00  0.00     0.031 A 
ATOM     14  C   UNL d   1       3.401  -3.341  -0.752  0.00  0.00     0.002 A 
ATOM     15  C   UNL d   1       4.574  -2.786  -0.243  0.00  0.00     0.000 A 
ATOM     16  C   UNL d   1       4.556  -1.511   0.320  0.00  0.00     0.002 A 
ATOM     17  C   UNL d   1       3.360  -0.792   0.388  0.00  0.00     0.031 A 
ENDBRANCH   1  12
BRANCH   5  18
ATOM     18  C   UNL d   1      -0.714   2.563  -0.075  0.00  0.00     0.434 C 
ATOM     19  F   UNL d   1       0.315   3.441   0.048  0.00  0.00    -0.165 F 
ATOM     20  F   UNL d   1      -1.338   2.853  -1.249  0.00  0.00    -0.165 F 
ATOM     21  F   UNL d   1      -1.602   2.863   0.912  0.00  0.00    -0.165 F 
ENDBRANCH   5  18
TORSDOF 2
