REMARK  7 active torsions:
REMARK  status: ('A' for Active; 'I' for Inactive)
REMARK    1  A    between atoms: C_3  and  C_1 
REMARK    2  A    between atoms: N_9  and  C_2 
REMARK    3  A    between atoms: O_16  and  C_3 
REMARK    4  A    between atoms: C_5  and  C_7 
REMARK    5  A    between atoms: O_17  and  C_5 
REMARK    6  A    between atoms: C_8  and  N_9 
REMARK    7  A    between atoms: C_19  and  O_16 
ROOT
ATOM      1  C   UNL d   1       1.133   0.007  -0.034  0.00  0.00     0.135 C 
ATOM      2  C   UNL d   1       0.489  -1.090   0.413  0.00  0.00     0.117 C 
ATOM      3  C   UNL d   1       2.534   0.154   0.151  0.00  0.00     0.107 C 
ATOM      4  N   UNL d   1       3.677   0.207   0.352  0.00  0.00    -0.191 NA
ENDROOT
BRANCH   1   5
ATOM      5  C   UNL d   1       0.415   1.155  -0.639  0.00  0.00     0.305 C 
ATOM      6  O   UNL d   1       0.970   2.190  -0.978  0.00  0.00    -0.258 OA
BRANCH   5   7
ATOM      7  O   UNL d   1      -0.928   0.948  -0.659  0.00  0.00    -0.317 OA
BRANCH   7   8
ATOM      8  C   UNL d   1      -1.732   2.133  -0.756  0.00  0.00     0.174 C 
ATOM      9  C   UNL d   1      -1.986   2.635   0.654  0.00  0.00     0.034 C 
ENDBRANCH   7   8
ENDBRANCH   5   7
ENDBRANCH   1   5
BRANCH   2  10
ATOM     10  N   UNL d   1       1.013  -2.167   1.094  0.00  0.00    -0.364 N 
ATOM     11  H   UNL d   1       2.007  -2.139   1.311  0.00  0.00     0.165 HD
BRANCH  10  12
ATOM     12  C   UNL d   1       0.341  -3.321   1.544  0.00  0.00     0.038 A 
ATOM     13  C   UNL d   1      -0.780  -3.818   0.857  0.00  0.00     0.047 A 
ATOM     14  C   UNL d   1      -1.472  -4.953   1.304  0.00  0.00     0.041 A 
ATOM     15  C   UNL d   1      -1.055  -5.591   2.472  0.00  0.00     0.018 A 
ATOM     16  C   UNL d   1       0.034  -5.094   3.186  0.00  0.00     0.010 A 
ATOM     17  C   UNL d   1       0.734  -3.957   2.742  0.00  0.00    -0.035 A 
ATOM     18  C   UNL d   1       1.861  -3.466   3.616  0.00  0.00     0.050 C 
BRANCH  14  19
ATOM     19  C   UNL d   1      -2.640  -5.514   0.571  0.00  0.00     0.293 C 
ATOM     20  O   UNL d   1      -3.257  -6.500   0.936  0.00  0.00    -0.259 OA
BRANCH  19  21
ATOM     21  O   UNL d   1      -2.903  -4.778  -0.539  0.00  0.00    -0.323 OA
ATOM     22  C   UNL d   1      -4.007  -5.259  -1.308  0.00  0.00     0.213 C 
ENDBRANCH  19  21
ENDBRANCH  14  19
ENDBRANCH  10  12
ENDBRANCH   2  10
TORSDOF 7
