REMARK  5 active torsions:
REMARK  status: ('A' for Active; 'I' for Inactive)
REMARK    1  A    between atoms: C_5  and  C_1 
REMARK    2  A    between atoms: S_9  and  C_6 
REMARK    3  A    between atoms: C_11  and  S_9 
REMARK    4  A    between atoms: C_10  and  C_11 
REMARK    5  A    between atoms: C_16  and  C_10 
ROOT
ATOM      1  C   UNL d   1       0.138  -4.850   3.138  0.00  0.00     0.207 A 
ATOM      2  N   UNL d   1      -0.408  -4.742   1.887  0.00  0.00    -0.317 N 
ATOM      3  N   UNL d   1       0.616  -3.668   3.489  0.00  0.00    -0.280 N 
ATOM      4  HN  UNL d   1       1.086  -3.450   4.368  1.00  0.00     0.188 HD
ATOM      5  C   UNL d   1      -0.261  -3.440   1.519  0.00  0.00     0.161 A 
ATOM      6  N   UNL d   1       0.368  -2.782   2.459  0.00  0.00    -0.278 N 
ATOM      7  HN  UNL d   1       0.628  -1.796   2.436  1.00  0.00     0.189 HD
ATOM      8  H   UNL d   1      -0.881  -5.459   1.345  0.00  0.00     0.169 HD
ENDROOT
BRANCH   5   9
ATOM      9  S   UNL d   1      -0.772  -2.858  -0.019  0.00  0.00    -0.085 SA
BRANCH   9  10
ATOM     10  C   UNL d   1      -2.584  -2.974   0.099  0.00  0.00     0.166 C 
BRANCH  10  11
ATOM     11  C   UNL d   1      -3.082  -4.413   0.126  0.00  0.00     0.169 C 
ATOM     12  O   UNL d   1      -2.332  -5.386   0.211  0.00  0.00    -0.291 OA
BRANCH  11  13
ATOM     13  C   UNL d   1      -4.554  -4.668   0.092  0.00  0.00     0.010 A 
ATOM     14  C   UNL d   1      -5.507  -3.642   0.085  0.00  0.00     0.015 A 
ATOM     15  C   UNL d   1      -6.870  -3.958   0.073  0.00  0.00     0.001 A 
ATOM     16  C   UNL d   1      -7.286  -5.289   0.070  0.00  0.00     0.000 A 
ATOM     17  C   UNL d   1      -6.345  -6.313   0.076  0.00  0.00     0.001 A 
ATOM     18  C   UNL d   1      -4.984  -6.004   0.087  0.00  0.00     0.015 A 
ENDBRANCH  11  13
ENDBRANCH  10  11
ENDBRANCH   9  10
ENDBRANCH   5   9
BRANCH   1  19
ATOM     19  C   UNL d   1       0.134  -6.122   3.894  0.00  0.00     0.450 C 
ATOM     20  F   UNL d   1      -0.542  -7.097   3.225  0.00  0.00    -0.163 F 
ATOM     21  F   UNL d   1       1.384  -6.604   4.111  0.00  0.00    -0.163 F 
ATOM     22  F   UNL d   1      -0.467  -6.004   5.105  0.00  0.00    -0.163 F 
ENDBRANCH   1  19
TORSDOF 5
