REMARK  7 active torsions:
REMARK  status: ('A' for Active; 'I' for Inactive)
REMARK    1  A    between atoms: O_7  and  C_3 
REMARK    2  A    between atoms: S_12  and  C_4 
REMARK    3  A    between atoms: C_5  and  C_11 
REMARK    4  A    between atoms: C_6  and  O_7 
REMARK    5  A    between atoms: C_13  and  C_6 
REMARK    6  A    between atoms: C_11  and  S_12 
REMARK    7  A    between atoms: C_17  and  C_18 
ROOT
ATOM      1  N   UNL d   1       1.708  -0.021  -0.167  0.00  0.00    -0.317 N 
ATOM      2  HN  UNL d   1       2.716  -0.030  -0.319  1.00  0.00     0.170 HD
ATOM      3  C   UNL d   1       1.035  -1.130   0.212  0.00  0.00     0.155 A 
ATOM      4  C   UNL d   1       0.976   1.095  -0.331  0.00  0.00     0.146 A 
ATOM      5  N   UNL d   1      -0.353   1.161  -0.157  0.00  0.00    -0.341 N 
ATOM      6  HN  UNL d   1      -0.864   2.032  -0.307  1.00  0.00     0.167 HD
ATOM      7  C   UNL d   1      -0.319  -1.146   0.447  0.00  0.00     0.081 A 
ATOM      8  C   UNL d   1      -0.986   0.037   0.223  0.00  0.00     0.011 A 
ATOM      9  C   UNL d   1      -2.484   0.076   0.267  0.00  0.00     0.068 C 
ENDROOT
BRANCH   3  10
ATOM     10  O   UNL d   1       1.836  -2.306   0.267  0.00  0.00    -0.257 OA
BRANCH  10  11
ATOM     11  C   UNL d   1       1.377  -3.601   0.474  0.00  0.00     0.299 C 
ATOM     12  O   UNL d   1       0.239  -3.943   0.756  0.00  0.00    -0.259 OA
BRANCH  11  13
ATOM     13  C   UNL d   1       2.483  -4.589   0.303  0.00  0.00     0.040 A 
ATOM     14  C   UNL d   1       2.224  -5.944   0.536  0.00  0.00     0.018 A 
ATOM     15  C   UNL d   1       3.247  -6.900   0.425  0.00  0.00     0.009 A 
ATOM     16  C   UNL d   1       4.561  -6.529   0.085  0.00  0.00    -0.051 A 
ATOM     17  C   UNL d   1       4.789  -5.168  -0.190  0.00  0.00     0.009 A 
ATOM     18  C   UNL d   1       3.770  -4.210  -0.081  0.00  0.00     0.018 A 
BRANCH  16  19
ATOM     19  C   UNL d   1       5.697  -7.571   0.070  0.00  0.00    -0.024 C 
ATOM     20  C   UNL d   1       7.073  -6.970  -0.303  0.00  0.00     0.019 C 
ATOM     21  C   UNL d   1       5.840  -8.195   1.475  0.00  0.00     0.019 C 
ATOM     22  C   UNL d   1       5.406  -8.698  -0.944  0.00  0.00     0.019 C 
ENDBRANCH  16  19
ENDBRANCH  11  13
ENDBRANCH  10  11
ENDBRANCH   3  10
BRANCH   4  23
ATOM     23  S   UNL d   1       1.812   2.567  -0.903  0.00  0.00    -0.089 SA
BRANCH  23  24
ATOM     24  C   UNL d   1       0.426   3.752  -0.851  0.00  0.00     0.124 C 
BRANCH  24  25
ATOM     25  C   UNL d   1       0.743   5.098  -1.470  0.00  0.00    -0.005 A 
ATOM     26  C   UNL d   1       0.523   5.347  -2.841  0.00  0.00     0.042 A 
ATOM     27 CL   UNL d   1      -0.037   4.112  -3.919  0.00  0.00    -0.084 Cl
ATOM     28  C   UNL d   1       0.733   6.615  -3.398  0.00  0.00     0.024 A 
ATOM     29  C   UNL d   1       1.174   7.667  -2.604  0.00  0.00     0.003 A 
ATOM     30  C   UNL d   1       1.430   7.444  -1.255  0.00  0.00     0.024 A 
ATOM     31  C   UNL d   1       1.225   6.174  -0.694  0.00  0.00     0.042 A 
ATOM     32 CL   UNL d   1       1.572   6.010   0.993  0.00  0.00    -0.084 Cl
ENDBRANCH  24  25
ENDBRANCH  23  24
ENDBRANCH   4  23
TORSDOF 7
