REMARK  4 active torsions:
REMARK  status: ('A' for Active; 'I' for Inactive)
REMARK    1  A    between atoms: C_9  and  N_1 
REMARK    2  A    between atoms: C_4  and  C_3 
REMARK    3  A    between atoms: C_7  and  C_4 
REMARK    4  A    between atoms: O_16  and  C_8 
ROOT
ATOM      1  N   UNL d   1      -1.920  -0.942  -0.079  0.00  0.00    -0.297 N 
ATOM      2  C   UNL d   1      -1.524   0.385  -0.253  0.00  0.00     0.260 C 
ATOM      3  C   UNL d   1      -0.764  -1.847   0.002  0.00  0.00     0.202 C 
ATOM      4  C   UNL d   1       0.396  -0.888   0.043  0.00  0.00    -0.012 A 
ATOM      5  C   UNL d   1      -0.063   0.412  -0.148  0.00  0.00     0.041 A 
ATOM      6  O   UNL d   1      -2.174   1.403  -0.387  0.00  0.00    -0.267 OA
ATOM      7  C   UNL d   1       1.748  -1.118   0.246  0.00  0.00     0.011 A 
ATOM      8  C   UNL d   1       0.772   1.514  -0.162  0.00  0.00     0.017 A 
ATOM      9  C   UNL d   1       2.616  -0.016   0.238  0.00  0.00     0.001 A 
ATOM     10  C   UNL d   1       2.133   1.289   0.030  0.00  0.00     0.001 A 
ENDROOT
BRANCH   3  11
ATOM     11  C   UNL d   1      -0.708  -2.721  -1.268  0.00  0.00     0.190 C 
ATOM     12  O   UNL d   1      -1.007  -2.292  -2.388  0.00  0.00    -0.290 OA
BRANCH  11  13
ATOM     13  C   UNL d   1      -0.178  -4.117  -1.198  0.00  0.00     0.045 A 
ATOM     14  C   UNL d   1       0.355  -4.703  -2.359  0.00  0.00     0.080 A 
ATOM     15  C   UNL d   1       0.919  -5.978  -2.328  0.00  0.00     0.044 A 
ATOM     16  C   UNL d   1       0.934  -6.714  -1.141  0.00  0.00    -0.059 A 
ATOM     17  C   UNL d   1       0.351  -6.162   0.004  0.00  0.00     0.008 A 
ATOM     18  C   UNL d   1       1.540  -8.087  -1.122  0.00  0.00     0.048 C 
ATOM     19  C   UNL d   1      -0.198  -4.872  -0.020  0.00  0.00     0.018 A 
BRANCH  14  20
ATOM     20  O   UNL d   1       0.358  -4.082  -3.581  0.00  0.00    -0.360 OA
ATOM     21  H   UNL d   1      -0.227  -3.291  -3.521  0.00  0.00     0.217 HD
ENDBRANCH  14  20
ENDBRANCH  11  13
ENDBRANCH   3  11
BRANCH   1  22
ATOM     22  C   UNL d   1      -3.261  -1.406  -0.088  0.00  0.00     0.038 A 
ATOM     23  C   UNL d   1      -4.286  -0.634  -0.645  0.00  0.00     0.030 A 
ATOM     24  C   UNL d   1      -5.605  -1.097  -0.678  0.00  0.00     0.009 A 
ATOM     25  C   UNL d   1      -5.933  -2.340  -0.135  0.00  0.00    -0.062 A 
ATOM     26  C   UNL d   1      -4.920  -3.117   0.430  0.00  0.00     0.009 A 
ATOM     27  C   UNL d   1      -7.350  -2.826  -0.184  0.00  0.00     0.048 C 
ATOM     28  C   UNL d   1      -3.598  -2.657   0.447  0.00  0.00     0.030 A 
ENDBRANCH   1  22
TORSDOF 4
