REMARK  4 active torsions:
REMARK  status: ('A' for Active; 'I' for Inactive)
REMARK    1  A    between atoms: C_3  and  C_1 
REMARK    2  A    between atoms: N_5  and  C_1 
REMARK       I    between atoms: C_2  and  N_6 
REMARK    3  A    between atoms: C_4  and  C_2 
REMARK    4  A    between atoms: N_6  and  N_5 
ROOT
ATOM      1  N   UNL d   1       0.354  -1.131  -0.539  0.00  0.00    -0.282 N 
ATOM      2  H   UNL d   1       0.899  -1.667  -1.219  0.00  0.00     0.188 HD
ENDROOT
BRANCH   1   3
ATOM      3  C   UNL d   1       0.890   0.005   0.035  0.00  0.00     0.125 C 
ATOM      4  N   UNL d   1       0.109   0.998   0.362  0.00  0.00    -0.384 N 
ATOM      5  H   UNL d   1       0.636   1.747   0.821  0.00  0.00     0.157 HD
ATOM      6  HN  UNL d   1      -0.895   1.025   0.184  1.00  0.00     0.157 HD
BRANCH   3   7
ATOM      7  C   UNL d   1       2.350   0.051   0.312  0.00  0.00     0.024 A 
ATOM      8  C   UNL d   1       3.024  -1.103   0.693  0.00  0.00     0.102 A 
ATOM      9  N   UNL d   1       4.339  -1.136   1.021  0.00  0.00    -0.374 N 
ATOM     10  C   UNL d   1       5.006   0.038   0.973  0.00  0.00     0.087 A 
ATOM     11  HN  UNL d   1       4.801  -2.004   1.292  1.00  0.00     0.164 HD
ATOM     12  C   UNL d   1       4.425   1.238   0.596  0.00  0.00     0.018 A 
ATOM     13  C   UNL d   1       3.073   1.244   0.255  0.00  0.00     0.018 A 
ENDBRANCH   3   7
ENDBRANCH   1   3
BRANCH   1  14
ATOM     14  N   UNL d   1      -1.004  -1.035  -0.851  0.00  0.00    -0.264 N 
ATOM     15  C   UNL d   1      -1.546  -1.973  -1.699  0.00  0.00     0.271 C 
ATOM     16  O   UNL d   1      -0.863  -2.806  -2.288  0.00  0.00    -0.266 OA
ATOM     17  H   UNL d   1      -1.502  -0.337  -0.301  0.00  0.00     0.190 HD
BRANCH  15  18
ATOM     18  C   UNL d   1      -3.022  -1.960  -1.853  0.00  0.00     0.049 A 
ATOM     19  C   UNL d   1      -3.640  -3.090  -2.378  0.00  0.00     0.104 A 
ATOM     20  N   UNL d   1      -4.981  -3.219  -2.535  0.00  0.00    -0.374 N 
ATOM     21  C   UNL d   1      -5.741  -2.169  -2.158  0.00  0.00     0.087 A 
ATOM     22  HN  UNL d   1      -5.395  -4.069  -2.918  1.00  0.00     0.164 HD
ATOM     23  C   UNL d   1      -5.222  -0.992  -1.642  0.00  0.00     0.018 A 
ATOM     24  C   UNL d   1      -3.839  -0.885  -1.489  0.00  0.00     0.020 A 
ENDBRANCH  15  18
ENDBRANCH   1  14
TORSDOF 4
