REMARK  1 active torsions:
REMARK  status: ('A' for Active; 'I' for Inactive)
REMARK    1  A    between atoms: C_7  and  C_4 
ROOT
ATOM      1  C   UNL d   1       1.217  -1.418   0.031  0.00  0.00     0.189 C 
ATOM      2  C   UNL d   1       2.244  -0.712  -0.780  0.00  0.00    -0.006 C 
ATOM      3  C   UNL d   1      -0.135  -0.802   0.067  0.00  0.00     0.021 A 
ATOM      4  C   UNL d   1       2.592  -1.326  -1.927  0.00  0.00     0.022 C 
ATOM      5  O   UNL d   1       1.428  -2.520   0.521  0.00  0.00    -0.287 OA
ATOM      6  C   UNL d   1      -0.364   0.552   0.372  0.00  0.00    -0.044 A 
ATOM      7  C   UNL d   1       2.810   0.573  -0.247  0.00  0.00     0.043 C 
ATOM      8  C   UNL d   1      -1.210  -1.639  -0.271  0.00  0.00     0.016 A 
ATOM      9  C   UNL d   1       1.801   1.715  -0.208  0.00  0.00     0.009 C 
ATOM     10  C   UNL d   1       0.724   1.481   0.843  0.00  0.00     0.040 C 
ATOM     11  C   UNL d   1      -1.677   1.049   0.281  0.00  0.00     0.008 A 
ATOM     12  C   UNL d   1      -2.504  -1.127  -0.354  0.00  0.00     0.001 A 
ATOM     13  C   UNL d   1      -2.735   0.219  -0.090  0.00  0.00     0.001 A 
ENDROOT
BRANCH   4  14
ATOM     14  C   UNL d   1       3.513  -0.706  -2.877  0.00  0.00    -0.035 A 
ATOM     15  C   UNL d   1       4.897  -0.869  -2.751  0.00  0.00     0.012 A 
ATOM     16  C   UNL d   1       5.763  -0.124  -3.553  0.00  0.00     0.020 A 
ATOM     17  C   UNL d   1       5.244   0.778  -4.482  0.00  0.00     0.011 A 
ATOM     18  C   UNL d   1       3.866   0.919  -4.640  0.00  0.00     0.020 A 
ATOM     19 BR   UNL d   1       6.415   1.850  -5.508  0.00  0.00    -0.051 Br
ATOM     20  C   UNL d   1       3.002   0.175  -3.838  0.00  0.00     0.012 A 
ENDBRANCH   4  14
TORSDOF 1
