REMARK  4 active torsions:
REMARK  status: ('A' for Active; 'I' for Inactive)
REMARK    1  A    between atoms: C_2  and  C_1 
REMARK    2  A    between atoms: O_7  and  C_2 
REMARK    3  A    between atoms: C_6  and  C_3 
REMARK    4  A    between atoms: C_12  and  O_7 
ROOT
ATOM      1  C   UNL d   1       1.055   0.062  -0.087  0.00  0.00     0.120 C 
ATOM      2  C   UNL d   1       0.404  -0.049   1.089  0.00  0.00     0.047 C 
ATOM      3  C   UNL d   1       0.390   0.223  -1.335  0.00  0.00     0.105 C 
ATOM      4  N   UNL d   1      -0.182   0.338  -2.339  0.00  0.00    -0.191 NA
ENDROOT
BRANCH   1   5
ATOM      5  C   UNL d   1       2.538  -0.005  -0.021  0.00  0.00     0.304 C 
ATOM      6  O   UNL d   1       3.151  -0.281   0.997  0.00  0.00    -0.258 OA
BRANCH   5   7
ATOM      7  O   UNL d   1       3.098   0.272  -1.227  0.00  0.00    -0.307 OA
BRANCH   7   8
ATOM      8  C   UNL d   1       4.544   0.228  -1.393  0.00  0.00     0.060 C 
ATOM      9  C   UNL d   1       5.099  -1.168  -1.083  0.00  0.00     0.046 C 
ATOM     10  C   UNL d   1       4.791   0.534  -2.878  0.00  0.00     0.046 C 
ATOM     11  C   UNL d   1       5.235   1.309  -0.553  0.00  0.00     0.046 C 
ENDBRANCH   7   8
ENDBRANCH   5   7
ENDBRANCH   1   5
BRANCH   2  12
ATOM     12  C   UNL d   1      -1.014   0.004   1.180  0.00  0.00     0.006 A 
ATOM     13  S   UNL d   1      -1.808   1.516   1.368  0.00  0.00    -0.102 SA
ATOM     14  C   UNL d   1      -3.353   0.788   1.332  0.00  0.00     0.050 A 
ATOM     15  C   UNL d   1      -3.275  -0.582   1.231  0.00  0.00     0.008 A 
ATOM     16  C   UNL d   1      -1.925  -1.036   1.161  0.00  0.00     0.019 A 
ENDBRANCH   2  12
TORSDOF 4
