REMARK  0 active torsions:
REMARK  status: ('A' for Active; 'I' for Inactive)
ROOT
ATOM      1  C   UNL d   1       0.177   0.612  -0.001  0.00  0.00     0.078 A 
ATOM      2  C   UNL d   1      -0.157  -0.683  -0.002  0.00  0.00     0.078 A 
ATOM      3  S   UNL d   1      -1.101   1.770   0.001  0.00  0.00    -0.031 SA
ATOM      4  S   UNL d   1       1.855   1.010   0.000  0.00  0.00    -0.031 SA
ATOM      5  S   UNL d   1      -1.834  -1.081  -0.002  0.00  0.00    -0.031 SA
ATOM      6  S   UNL d   1       1.121  -1.842  -0.003  0.00  0.00    -0.031 SA
ATOM      7  C   UNL d   1      -2.405   0.586   0.003  0.00  0.00     0.257 A 
ATOM      8  C   UNL d   1       2.425  -0.657   0.000  0.00  0.00     0.257 A 
ATOM      9  O   UNL d   1      -3.587   0.890   0.009  0.00  0.00    -0.272 OA
ATOM     10  O   UNL d   1       3.607  -0.961   0.002  0.00  0.00    -0.272 OA
ENDROOT
TORSDOF 0
