REMARK  2 active torsions:
REMARK  status: ('A' for Active; 'I' for Inactive)
REMARK    1  A    between atoms: C_3  and  C_1 
REMARK    2  A    between atoms: C_7  and  C_2 
REMARK       I    between atoms: N_4  and  C_3 
ROOT
ATOM      1  C   UNL d   1       0.081  -0.948   0.143  0.00  0.00     0.093 C 
ATOM      2  C   UNL d   1      -1.264  -0.504  -0.070  0.00  0.00     0.086 C 
ATOM      3  N   UNL d   1      -1.296   0.824  -0.260  0.00  0.00    -0.259 N 
ATOM      4  HN  UNL d   1      -2.102   1.383  -0.539  1.00  0.00     0.195 HD
ATOM      5  O   UNL d   1      -0.025   1.277  -0.003  0.00  0.00    -0.241 OA
ATOM      6  C   UNL d   1       0.783   0.230   0.301  0.00  0.00     0.090 C 
ATOM      7  C   UNL d   1       2.141   0.603   0.743  0.00  0.00     0.080 C 
ENDROOT
BRANCH   1   8
ATOM      8  C   UNL d   1       0.525  -2.320   0.336  0.00  0.00     0.264 C 
ATOM      9  N   UNL d   1       1.535  -2.841  -0.511  0.00  0.00    -0.303 N 
ATOM     10  C   UNL d   1       1.836  -4.207  -0.583  0.00  0.00     0.077 C 
ATOM     11  C   UNL d   1       2.363  -1.953  -1.326  0.00  0.00     0.135 C 
ATOM     12  N   UNL d   1       2.864  -4.703  -1.179  0.00  0.00    -0.380 N 
ATOM     13  C   UNL d   1       0.887  -5.208   0.038  0.00  0.00     0.089 C 
ATOM     14  C   UNL d   1       3.824  -3.835  -1.836  0.00  0.00     0.122 C 
ATOM     15  HN  UNL d   1       3.004  -5.713  -1.190  1.00  0.00     0.160 HD
ATOM     16  C   UNL d   1       3.108  -2.654  -2.441  0.00  0.00     0.040 C 
ATOM     17  O   UNL d   1      -0.030  -2.979   1.213  0.00  0.00    -0.267 OA
ENDBRANCH   1   8
BRANCH   2  18
ATOM     18  C   UNL d   1      -2.505  -1.278  -0.069  0.00  0.00     0.037 A 
ATOM     19  C   UNL d   1      -3.475  -1.056   0.932  0.00  0.00     0.048 A 
ATOM     20 CL   UNL d   1      -3.241   0.068   2.233  0.00  0.00    -0.083 Cl
ATOM     21  C   UNL d   1      -4.681  -1.767   0.937  0.00  0.00     0.025 A 
ATOM     22  C   UNL d   1      -4.936  -2.720  -0.044  0.00  0.00     0.003 A 
ATOM     23  C   UNL d   1      -3.982  -2.962  -1.030  0.00  0.00     0.025 A 
ATOM     24  C   UNL d   1      -2.777  -2.246  -1.049  0.00  0.00     0.048 A 
ATOM     25 CL   UNL d   1      -1.675  -2.600  -2.338  0.00  0.00    -0.083 Cl
ENDBRANCH   2  18
TORSDOF 2
