REMARK  5 active torsions:
REMARK  status: ('A' for Active; 'I' for Inactive)
REMARK    1  A    between atoms: N_2  and  C_1 
REMARK    2  A    between atoms: N_4  and  C_1 
REMARK    3  A    between atoms: C_3  and  C_9 
REMARK    4  A    between atoms: C_12  and  N_4 
REMARK    5  A    between atoms: C_9  and  N_6 
ROOT
ATOM      1  N   UNL d   1       0.059  -0.572  -0.872  0.00  0.00    -0.356 N 
ATOM      2  N   UNL d   1      -2.111  -0.985  -3.091  0.00  0.00     0.094 N 
ATOM      3  C   UNL d   1      -0.785   0.489  -1.430  0.00  0.00     0.155 C 
ATOM      4  C   UNL d   1      -2.127  -0.015  -1.988  0.00  0.00     0.292 C 
ATOM      5  C   UNL d   1      -0.156  -2.553  -2.432  0.00  0.00     0.050 C 
ATOM      6  C   UNL d   1       0.698  -1.425  -1.873  0.00  0.00     0.127 C 
ATOM      7  C   UNL d   1      -1.645  -2.302  -2.664  0.00  0.00     0.274 C 
ENDROOT
BRANCH   1   8
ATOM      8  C   UNL d   1       0.875  -0.261   0.217  0.00  0.00     0.174 C 
ATOM      9  S   UNL d   1       1.995   0.984   0.247  0.00  0.00    -0.041 SA
BRANCH   8  10
ATOM     10  N   UNL d   1       0.863  -1.179   1.240  0.00  0.00    -0.333 N 
ATOM     11  H   UNL d   1       1.705  -1.194   1.804  0.00  0.00     0.168 HD
BRANCH  10  12
ATOM     12  C   UNL d   1      -0.242  -1.888   1.747  0.00  0.00     0.034 A 
ATOM     13  C   UNL d   1       0.008  -2.974   2.594  0.00  0.00     0.032 A 
ATOM     14  C   UNL d   1      -1.056  -3.663   3.184  0.00  0.00     0.044 A 
ATOM     15  C   UNL d   1      -2.361  -3.245   2.953  0.00  0.00     0.116 A 
ATOM     16  C   UNL d   1      -2.624  -2.157   2.135  0.00  0.00     0.044 A 
ATOM     17  F   UNL d   1      -3.377  -3.892   3.540  0.00  0.00    -0.206 F 
ATOM     18  C   UNL d   1      -1.563  -1.480   1.535  0.00  0.00     0.032 A 
ENDBRANCH  10  12
ENDBRANCH   8  10
ENDBRANCH   1   8
BRANCH   2  19
ATOM     19  C   UNL d   1      -1.532  -0.497  -4.346  0.00  0.00     0.312 C 
BRANCH  19  20
ATOM     20  C   UNL d   1      -2.316   0.672  -4.922  0.00  0.00    -0.008 A 
ATOM     21  C   UNL d   1      -1.776   1.956  -5.105  0.00  0.00     0.043 A 
ATOM     22  C   UNL d   1      -2.574   3.008  -5.567  0.00  0.00     0.048 A 
ATOM     23 CL   UNL d   1      -0.120   2.322  -4.775  0.00  0.00    -0.084 Cl
ATOM     24  C   UNL d   1      -3.913   2.783  -5.871  0.00  0.00     0.035 A 
ATOM     25  C   UNL d   1      -4.465   1.515  -5.722  0.00  0.00     0.024 A 
ATOM     26 CL   UNL d   1      -4.893   4.081  -6.431  0.00  0.00    -0.084 Cl
ATOM     27  C   UNL d   1      -3.672   0.468  -5.251  0.00  0.00     0.012 A 
ENDBRANCH  19  20
ENDBRANCH   2  19
TORSDOF 5
