REMARK  3 active torsions:
REMARK  status: ('A' for Active; 'I' for Inactive)
REMARK    1  A    between atoms: C_11  and  N_1 
REMARK    2  A    between atoms: C_5  and  C_3 
REMARK    3  A    between atoms: C_8  and  C_4 
ROOT
ATOM      1  C   UNL d   1      -3.860  -1.128  -0.679  0.00  0.00    -0.026 A 
ATOM      2  C   UNL d   1      -3.139   0.064  -0.897  0.00  0.00     0.013 A 
ATOM      3  C   UNL d   1      -3.111  -2.284  -0.389  0.00  0.00     0.013 A 
ATOM      4  C   UNL d   1      -1.030  -1.062  -0.535  0.00  0.00    -0.021 A 
ATOM      5  C   UNL d   1      -1.717  -2.255  -0.311  0.00  0.00     0.013 A 
ATOM      6  C   UNL d   1      -1.739   0.101  -0.831  0.00  0.00     0.013 A 
ENDROOT
BRANCH   1   7
ATOM      7  C   UNL d   1      -5.341  -1.176  -0.755  0.00  0.00    -0.026 A 
ATOM      8  C   UNL d   1      -6.063  -0.363  -1.648  0.00  0.00     0.012 A 
ATOM      9  C   UNL d   1      -7.459  -0.423  -1.728  0.00  0.00     0.001 A 
ATOM     10  C   UNL d   1      -8.168  -1.309  -0.924  0.00  0.00     0.000 A 
ATOM     11  C   UNL d   1      -7.484  -2.125  -0.032  0.00  0.00     0.001 A 
ATOM     12  C   UNL d   1      -6.090  -2.052   0.057  0.00  0.00     0.012 A 
ENDBRANCH   1   7
BRANCH   4  13
ATOM     13  C   UNL d   1       0.444  -1.026  -0.448  0.00  0.00     0.094 C 
ATOM     14  N   UNL d   1       1.119  -2.092  -0.197  0.00  0.00    -0.394 N 
ATOM     15  HN  UNL d   1       0.670  -3.000  -0.074  1.00  0.00     0.159 HD
BRANCH  14  16
ATOM     16  C   UNL d   1       2.572  -1.925  -0.097  0.00  0.00     0.072 C 
ATOM     17  C   UNL d   1       3.075  -2.954   0.912  0.00  0.00     0.031 C 
ATOM     18  C   UNL d   1       3.201  -2.161  -1.465  0.00  0.00     0.031 C 
ENDBRANCH  14  16
ENDBRANCH   4  13
TORSDOF 3
