REMARK  6 active torsions:
REMARK  status: ('A' for Active; 'I' for Inactive)
REMARK    1  A    between atoms: C_4  and  C_1 
REMARK    2  A    between atoms: C_8  and  C_2 
REMARK    3  A    between atoms: O_14  and  C_3 
REMARK    4  A    between atoms: O_15  and  C_4 
REMARK    5  A    between atoms: O_16  and  C_7 
REMARK    6  A    between atoms: C_17  and  O_15 
ROOT
ATOM      1  C   UNL d   1       0.797   0.005   0.617  0.00  0.00     0.120 C 
ATOM      2  C   UNL d   1       0.342   1.160   0.091  0.00  0.00     0.040 C 
ATOM      3  C   UNL d   1       1.959  -0.062   1.435  0.00  0.00     0.105 C 
ATOM      4  N   UNL d   1       2.906  -0.102   2.107  0.00  0.00    -0.191 NA
ENDROOT
BRANCH   1   5
ATOM      5  C   UNL d   1      -0.023  -1.218   0.414  0.00  0.00     0.303 C 
ATOM      6  O   UNL d   1      -1.078  -1.247  -0.199  0.00  0.00    -0.258 OA
BRANCH   5   7
ATOM      7  O   UNL d   1       0.523  -2.254   1.100  0.00  0.00    -0.317 OA
BRANCH   7   8
ATOM      8  C   UNL d   1      -0.337  -3.371   1.364  0.00  0.00     0.174 C 
ATOM      9  C   UNL d   1      -1.103  -3.088   2.644  0.00  0.00     0.034 C 
ENDBRANCH   7   8
ENDBRANCH   5   7
ENDBRANCH   1   5
BRANCH   2  10
ATOM     10  C   UNL d   1       0.965   2.461   0.356  0.00  0.00    -0.030 A 
ATOM     11  C   UNL d   1       0.538   3.214   1.447  0.00  0.00     0.033 A 
ATOM     12  C   UNL d   1       1.184   4.411   1.757  0.00  0.00     0.047 A 
ATOM     13 BR   UNL d   1       0.546   5.377   3.269  0.00  0.00    -0.048 Br
ATOM     14  C   UNL d   1       2.261   4.883   0.982  0.00  0.00     0.116 A 
ATOM     15  C   UNL d   1       2.684   4.143  -0.131  0.00  0.00     0.103 A 
ATOM     16  C   UNL d   1       2.023   2.933  -0.426  0.00  0.00     0.051 A 
BRANCH  14  17
ATOM     17  O   UNL d   1       2.826   6.053   1.405  0.00  0.00    -0.357 OA
ATOM     18  H   UNL d   1       3.346   6.462   0.707  0.00  0.00     0.218 HD
ENDBRANCH  14  17
BRANCH  15  19
ATOM     19  O   UNL d   1       3.682   4.378  -1.034  0.00  0.00    -0.353 OA
ATOM     20  C   UNL d   1       4.567   5.473  -0.915  0.00  0.00     0.210 C 
ENDBRANCH  15  19
ENDBRANCH   2  10
TORSDOF 6
