REMARK  3 active torsions:
REMARK  status: ('A' for Active; 'I' for Inactive)
REMARK       I    between atoms: N_2  and  C_1 
REMARK       I    between atoms: N_5  and  C_1 
REMARK    1  A    between atoms: C_10  and  N_2 
REMARK    2  A    between atoms: C_12  and  N_5 
REMARK    3  A    between atoms: C_11  and  C_12 
ROOT
ATOM      1  C   UNL d   1       0.924  -0.131   0.059  0.00  0.00     0.320 C 
ATOM      2  N   UNL d   1       2.289  -0.096   0.245  0.00  0.00    -0.309 N 
ATOM      3  N   UNL d   1       0.288   0.921   0.674  0.00  0.00    -0.339 N 
ATOM      4  O   UNL d   1       0.298  -0.989  -0.552  0.00  0.00    -0.247 OA
ATOM      5  H   UNL d   1       2.627   0.532   0.957  0.00  0.00     0.170 HD
ATOM      6  H   UNL d   1       0.821   1.725   0.963  0.00  0.00     0.164 HD
ENDROOT
BRANCH   3   7
ATOM      7  C   UNL d   1      -1.154   1.051   0.618  0.00  0.00     0.162 C 
BRANCH   7   8
ATOM      8  C   UNL d   1      -1.587   2.299  -0.113  0.00  0.00    -0.040 A 
ATOM      9  C   UNL d   1      -1.312   2.456  -1.484  0.00  0.00     0.018 A 
ATOM     10  C   UNL d   1      -1.758   3.602  -2.123  0.00  0.00    -0.022 A 
ATOM     11  C   UNL d   1      -1.669   3.990  -3.549  0.00  0.00     0.068 C 
ATOM     12  C   UNL d   1      -2.478   4.565  -1.436  0.00  0.00     0.075 A 
ATOM     13  C   UNL d   1      -2.113   5.450  -3.433  0.00  0.00     0.180 C 
ATOM     14  O   UNL d   1      -2.873   5.622  -2.214  0.00  0.00    -0.350 OA
ATOM     15  C   UNL d   1      -2.781   4.434  -0.098  0.00  0.00     0.038 A 
ATOM     16  C   UNL d   1      -2.325   3.293   0.567  0.00  0.00     0.011 A 
ENDBRANCH   7   8
ENDBRANCH   3   7
BRANCH   2  17
ATOM     17  C   UNL d   1       3.228  -0.996  -0.309  0.00  0.00     0.036 A 
ATOM     18  C   UNL d   1       2.911  -1.900  -1.324  0.00  0.00     0.030 A 
ATOM     19  C   UNL d   1       3.873  -2.777  -1.830  0.00  0.00     0.009 A 
ATOM     20  C   UNL d   1       5.178  -2.766  -1.335  0.00  0.00    -0.062 A 
ATOM     21  C   UNL d   1       5.509  -1.849  -0.330  0.00  0.00     0.009 A 
ATOM     22  C   UNL d   1       6.189  -3.717  -1.899  0.00  0.00     0.048 C 
ATOM     23  C   UNL d   1       4.540  -0.969   0.175  0.00  0.00     0.030 A 
ENDBRANCH   2  17
TORSDOF 3
