REMARK  6 active torsions:
REMARK  status: ('A' for Active; 'I' for Inactive)
REMARK    1  A    between atoms: C_7  and  C_1 
REMARK    2  A    between atoms: N_3  and  C_8 
REMARK    3  A    between atoms: C_17  and  C_4 
REMARK    4  A    between atoms: O_20  and  C_7 
REMARK       I    between atoms: C_9  and  N_16 
REMARK    5  A    between atoms: C_10  and  C_9 
REMARK    6  A    between atoms: N_16  and  N_12 
ROOT
ATOM      1  N   UNL d   1      -3.771  -1.118  -0.032  0.00  0.00    -0.308 N 
ATOM      2  HN  UNL d   1      -3.933  -0.111  -0.002  1.00  0.00     0.186 HD
ATOM      3  C   UNL d   1      -2.579  -1.616  -0.029  0.00  0.00     0.120 C 
ENDROOT
BRANCH   1   4
ATOM      4  N   UNL d   1      -4.803  -2.010  -0.079  0.00  0.00    -0.266 N 
ATOM      5  C   UNL d   1      -6.105  -1.534  -0.095  0.00  0.00     0.270 C 
ATOM      6  O   UNL d   1      -6.436  -0.357   0.013  0.00  0.00    -0.266 OA
ATOM      7  H   UNL d   1      -4.597  -3.001  -0.062  0.00  0.00     0.190 HD
BRANCH   5   8
ATOM      8  C   UNL d   1      -7.174  -2.561  -0.250  0.00  0.00     0.036 A 
ATOM      9  C   UNL d   1      -6.974  -3.737  -0.984  0.00  0.00     0.053 A 
ATOM     10  C   UNL d   1      -8.042  -4.631  -1.151  0.00  0.00     0.103 A 
ATOM     11  C   UNL d   1      -9.299  -4.367  -0.591  0.00  0.00     0.036 A 
ATOM     12  C   UNL d   1      -9.492  -3.193   0.136  0.00  0.00     0.003 A 
ATOM     13  C   UNL d   1      -8.437  -2.292   0.300  0.00  0.00     0.017 A 
BRANCH  10  14
ATOM     14  N   UNL d   1      -7.843  -5.852  -1.943  0.00  0.00    -0.116 N 
ATOM     15  O   UNL d   1      -6.708  -6.061  -2.396  0.00  0.00    -0.532 OA
ATOM     16  O   UNL d   1      -8.815  -6.602  -2.105  0.00  0.00    -0.532 OA
ENDBRANCH  10  14
ENDBRANCH   5   8
ENDBRANCH   1   4
BRANCH   3  17
ATOM     17  C   UNL d   1      -1.452  -0.710  -0.008  0.00  0.00    -0.001 A 
ATOM     18  C   UNL d   1      -1.464   0.708   0.023  0.00  0.00     0.050 A 
ATOM     19  C   UNL d   1      -0.158   1.187   0.020  0.00  0.00     0.111 A 
ATOM     20  N   UNL d   1       0.651   0.067  -0.014  0.00  0.00    -0.355 N 
ATOM     21  C   UNL d   1      -0.123  -1.076  -0.024  0.00  0.00     0.104 A 
ATOM     22  C   UNL d   1       2.097   0.006  -0.051  0.00  0.00     0.156 C 
BRANCH  19  23
ATOM     23  C   UNL d   1       0.265   2.576   0.041  0.00  0.00     0.309 C 
ATOM     24  O   UNL d   1       1.420   2.983   0.039  0.00  0.00    -0.258 OA
BRANCH  23  25
ATOM     25  O   UNL d   1      -0.832   3.384   0.068  0.00  0.00    -0.321 OA
ATOM     26  C   UNL d   1      -0.551   4.782   0.091  0.00  0.00     0.213 C 
ENDBRANCH  23  25
ENDBRANCH  19  23
ENDBRANCH   3  17
TORSDOF 6
