REMARK  7 active torsions:
REMARK  status: ('A' for Active; 'I' for Inactive)
REMARK    1  A    between atoms: C_5  and  C_1 
REMARK    2  A    between atoms: C_8  and  C_2 
REMARK    3  A    between atoms: C_12  and  C_6 
REMARK    4  A    between atoms: O_15  and  C_8 
REMARK    5  A    between atoms: N_10  and  O_15 
REMARK    6  A    between atoms: O_20  and  C_12 
REMARK    7  A    between atoms: C_27  and  O_20 
ROOT
ATOM      1  C   UNL d   1      -2.736   2.354  -0.275  0.00  0.00     0.210 C 
ATOM      2  N   UNL d   1      -2.031   1.367  -0.755  0.00  0.00    -0.242 N 
ATOM      3  HN  UNL d   1      -1.765   1.301  -1.738  1.00  0.00     0.196 HD
ATOM      4  C   UNL d   1      -3.213   2.277   1.093  0.00  0.00     0.126 C 
ATOM      5  N   UNL d   1      -3.605   2.200   2.180  0.00  0.00    -0.190 NA
ENDROOT
BRANCH   1   6
ATOM      6  C   UNL d   1      -3.092   3.561  -1.132  0.00  0.00     0.322 C 
ATOM      7  O   UNL d   1      -3.616   4.555  -0.661  0.00  0.00    -0.257 OA
BRANCH   6   8
ATOM      8  O   UNL d   1      -2.775   3.349  -2.424  0.00  0.00    -0.316 OA
BRANCH   8   9
ATOM      9  C   UNL d   1      -3.291   4.287  -3.384  0.00  0.00     0.175 C 
ATOM     10  C   UNL d   1      -2.316   5.418  -3.660  0.00  0.00     0.034 C 
ENDBRANCH   8   9
ENDBRANCH   6   8
ENDBRANCH   1   6
BRANCH   2  11
ATOM     11  O   UNL d   1      -1.665   0.393   0.213  0.00  0.00    -0.193 OA
BRANCH  11  12
ATOM     12  C   UNL d   1      -1.463  -0.836  -0.397  0.00  0.00     0.320 C 
ATOM     13  O   UNL d   1      -2.288  -1.372  -1.131  0.00  0.00    -0.257 OA
BRANCH  12  14
ATOM     14  C   UNL d   1      -0.186  -1.432  -0.061  0.00  0.00     0.102 A 
ATOM     15  C   UNL d   1       0.209  -2.811   0.091  0.00  0.00     0.087 A 
ATOM     16  N   UNL d   1       1.515  -2.871   0.406  0.00  0.00    -0.259 N 
ATOM     17  O   UNL d   1       1.999  -1.596   0.382  0.00  0.00    -0.241 OA
ATOM     18  HN  UNL d   1       2.046  -3.714   0.624  1.00  0.00     0.195 HD
ATOM     19  C   UNL d   1       0.996  -0.729   0.117  0.00  0.00     0.091 A 
ATOM     20  C   UNL d   1       1.424   0.682   0.039  0.00  0.00     0.080 C 
BRANCH  15  21
ATOM     21  C   UNL d   1      -0.534  -4.084   0.044  0.00  0.00     0.037 A 
ATOM     22  C   UNL d   1      -0.015  -5.201  -0.660  0.00  0.00     0.048 A 
ATOM     23 CL   UNL d   1       1.373  -5.112  -1.701  0.00  0.00    -0.083 Cl
ATOM     24  C   UNL d   1      -0.605  -6.472  -0.560  0.00  0.00     0.025 A 
ATOM     25  C   UNL d   1      -1.747  -6.657   0.207  0.00  0.00     0.003 A 
ATOM     26  C   UNL d   1      -2.296  -5.570   0.881  0.00  0.00     0.025 A 
ATOM     27  C   UNL d   1      -1.690  -4.302   0.819  0.00  0.00     0.048 A 
ATOM     28 CL   UNL d   1      -2.395  -3.083   1.828  0.00  0.00    -0.083 Cl
ENDBRANCH  15  21
ENDBRANCH  12  14
ENDBRANCH  11  12
ENDBRANCH   2  11
TORSDOF 7
