REMARK  3 active torsions:
REMARK  status: ('A' for Active; 'I' for Inactive)
REMARK    1  A    between atoms: C_13  and  N_19 
REMARK    2  A    between atoms: O_22  and  C_14 
REMARK    3  A    between atoms: N_19  and  C_15 
ROOT
ATOM      1  S   UNL d   1      -1.188  -1.583   0.070  0.00  0.00     0.270 S 
ATOM      2  C   UNL d   1      -2.448  -0.509   0.517  0.00  0.00     0.146 C 
ATOM      3  N   UNL d   1      -1.708  -1.981  -1.498  0.00  0.00    -0.275 N 
ATOM      4  C   UNL d   1      -2.688   0.607  -0.409  0.00  0.00     0.209 C 
ATOM      5  C   UNL d   1      -2.403   0.388  -1.857  0.00  0.00     0.043 A 
ATOM      6  C   UNL d   1      -1.947  -0.848  -2.371  0.00  0.00     0.059 A 
ATOM      7  C   UNL d   1      -3.293  -0.816   1.512  0.00  0.00     0.135 C 
ATOM      8  O   UNL d   1       0.057  -0.853  -0.061  0.00  0.00    -0.200 OA
ATOM      9  O   UNL d   1      -1.238  -2.791   0.872  0.00  0.00    -0.200 OA
ATOM     10  O   UNL d   1      -3.183   1.661  -0.016  0.00  0.00    -0.286 OA
ATOM     11  C   UNL d   1      -1.360  -3.310  -2.014  0.00  0.00     0.170 C 
ATOM     12  C   UNL d   1      -2.702   1.449  -2.729  0.00  0.00     0.018 A 
ATOM     13  C   UNL d   1      -1.856  -0.995  -3.763  0.00  0.00     0.031 A 
ATOM     14  C   UNL d   1      -2.589   1.284  -4.107  0.00  0.00     0.001 A 
ATOM     15  C   UNL d   1      -2.172   0.062  -4.623  0.00  0.00     0.002 A 
ENDROOT
BRANCH   7  16
ATOM     16  N   UNL d   1      -4.450  -0.171   1.876  0.00  0.00    -0.200 N 
ATOM     17  H   UNL d   1      -4.712   0.679   1.386  0.00  0.00     0.183 HD
BRANCH  16  18
ATOM     18  C   UNL d   1      -5.370  -0.558   2.847  0.00  0.00     0.686 A 
ATOM     19  N   UNL d   1      -5.113  -1.614   3.616  0.00  0.00    -0.154 N 
ATOM     20  C   UNL d   1      -6.042  -1.891   4.525  0.00  0.00     0.238 A 
ATOM     21  HN  UNL d   1      -4.264  -2.170   3.515  1.00  0.00     0.188 HD
ATOM     22  N   UNL d   1      -7.177  -1.234   4.696  0.00  0.00    -0.311 N 
ATOM     23  C   UNL d   1      -7.351  -0.205   3.872  0.00  0.00     0.096 A 
ATOM     24  HN  UNL d   1      -7.864  -1.496   5.404  1.00  0.00     0.170 HD
ATOM     25  N   UNL d   1      -6.478   0.173   2.937  0.00  0.00    -0.181 N 
ATOM     26  C   UNL d   1      -8.623   0.575   3.992  0.00  0.00     0.089 C 
ATOM     27  HN  UNL d   1      -6.649   0.973   2.328  1.00  0.00     0.185 HD
BRANCH  20  28
ATOM     28  O   UNL d   1      -5.859  -2.946   5.394  0.00  0.00    -0.327 OA
ATOM     29  C   UNL d   1      -4.643  -3.647   5.182  0.00  0.00     0.213 C 
ENDBRANCH  20  28
ENDBRANCH  16  18
ENDBRANCH   7  16
TORSDOF 3
