REMARK  4 active torsions:
REMARK  status: ('A' for Active; 'I' for Inactive)
REMARK    1  A    between atoms: N_2  and  C_1 
REMARK    2  A    between atoms: S_7  and  C_3 
REMARK    3  A    between atoms: C_5  and  C_6 
REMARK    4  A    between atoms: C_14  and  S_7 
ROOT
ATOM      1  C   UNL d   1       1.043   0.076   0.554  0.00  0.00     0.120 C 
ATOM      2  C   UNL d   1       0.469  -1.083   0.022  0.00  0.00     0.034 C 
ATOM      3  C   UNL d   1       0.468   1.340   0.341  0.00  0.00     0.046 C 
ATOM      4  C   UNL d   1      -0.856   1.471  -0.110  0.00  0.00    -0.032 C 
ATOM      5  C   UNL d   1      -0.831  -0.935  -0.515  0.00  0.00     0.021 C 
ATOM      6  C   UNL d   1      -1.502   0.307  -0.537  0.00  0.00     0.011 C 
ENDROOT
BRANCH   2   7
ATOM      7  S   UNL d   1       1.065  -2.762   0.155  0.00  0.00    -0.123 SA
BRANCH   7   8
ATOM      8  C   UNL d   1       2.754  -2.901  -0.621  0.00  0.00     0.052 C 
ATOM      9  C   UNL d   1       3.920  -2.118  -0.007  0.00  0.00     0.015 C 
ATOM     10  C   UNL d   1       4.285  -0.803  -0.698  0.00  0.00     0.001 C 
ATOM     11  C   UNL d   1       4.247  -0.851  -2.216  0.00  0.00     0.000 C 
ATOM     12  C   UNL d   1       2.968  -1.492  -2.737  0.00  0.00     0.001 C 
ATOM     13  C   UNL d   1       2.773  -2.882  -2.151  0.00  0.00     0.015 C 
ENDBRANCH   7   8
ENDBRANCH   2   7
BRANCH   1  14
ATOM     14  N   UNL d   1       2.035   0.053   1.614  0.00  0.00    -0.114 N 
ATOM     15  O   UNL d   1       1.940  -0.831   2.483  0.00  0.00    -0.532 OA
ATOM     16  O   UNL d   1       2.872   0.965   1.644  0.00  0.00    -0.532 OA
ENDBRANCH   1  14
BRANCH   4  17
ATOM     17  C   UNL d   1      -1.499   2.830   0.113  0.00  0.00     0.141 C 
ATOM     18  S   UNL d   1      -1.541   3.181   1.919  0.00  0.00    -0.148 SA
ATOM     19  C   UNL d   1      -2.719   4.525   1.794  0.00  0.00     0.085 C 
ATOM     20  C   UNL d   1      -3.837   4.030   0.897  0.00  0.00     0.085 C 
ATOM     21  S   UNL d   1      -3.164   3.124  -0.542  0.00  0.00    -0.148 SA
ENDBRANCH   4  17
TORSDOF 4
