REMARK  4 active torsions:
REMARK  status: ('A' for Active; 'I' for Inactive)
REMARK    1  A    between atoms: N_6  and  C_1 
REMARK    2  A    between atoms: S_17  and  C_4 
REMARK    3  A    between atoms: C_12  and  C_5 
REMARK       I    between atoms: C_7  and  N_6 
REMARK       I    between atoms: N_10  and  C_7 
REMARK    4  A    between atoms: C_14  and  N_10 
ROOT
ATOM      1  C   UNL d   1       1.084  -1.269  -0.497  0.00  0.00     0.091 C 
ATOM      2  C   UNL d   1      -0.996  -0.235  -0.266  0.00  0.00     0.082 C 
ATOM      3  S   UNL d   1       1.356   0.266  -1.160  0.00  0.00    -0.063 SA
ATOM      4  C   UNL d   1      -0.244   0.788  -0.819  0.00  0.00     0.064 C 
ATOM      5  C   UNL d   1      -0.246  -1.474  -0.148  0.00  0.00     0.031 C 
ATOM      6  C   UNL d   1      -2.376  -0.093   0.105  0.00  0.00     0.102 C 
ATOM      7  N   UNL d   1      -3.486   0.015   0.420  0.00  0.00    -0.191 NA
ENDROOT
BRANCH   5   8
ATOM      8  C   UNL d   1      -0.808  -2.822   0.104  0.00  0.00    -0.021 A 
ATOM      9  C   UNL d   1      -1.992  -3.200  -0.557  0.00  0.00     0.014 A 
ATOM     10  C   UNL d   1      -2.490  -4.505  -0.472  0.00  0.00     0.024 A 
ATOM     11  C   UNL d   1      -1.785  -5.467   0.240  0.00  0.00     0.034 A 
ATOM     12  C   UNL d   1      -0.627  -5.114   0.923  0.00  0.00     0.024 A 
ATOM     13 CL   UNL d   1      -2.343  -7.092   0.275  0.00  0.00    -0.084 Cl
ATOM     14  C   UNL d   1      -0.169  -3.790   0.893  0.00  0.00     0.014 A 
ENDBRANCH   5   8
BRANCH   4  15
ATOM     15  S   UNL d   1      -0.719   2.425  -1.280  0.00  0.00    -0.126 SA
ATOM     16  C   UNL d   1      -1.583   3.045   0.178  0.00  0.00     0.096 C 
ENDBRANCH   4  15
BRANCH   1  17
ATOM     17  N   UNL d   1       2.155  -2.107  -0.276  0.00  0.00    -0.302 N 
ATOM     18  C   UNL d   1       3.384  -2.266  -0.831  0.00  0.00     0.325 C 
ATOM     19  N   UNL d   1       3.644  -1.701  -2.037  0.00  0.00    -0.309 N 
ATOM     20  O   UNL d   1       4.136  -3.035  -0.227  0.00  0.00    -0.247 OA
ATOM     21  H   UNL d   1       3.092  -0.886  -2.278  0.00  0.00     0.170 HD
ATOM     22  H   UNL d   1       2.065  -2.784   0.462  0.00  0.00     0.171 HD
BRANCH  19  23
ATOM     23  C   UNL d   1       4.690  -2.076  -2.912  0.00  0.00     0.038 A 
ATOM     24  C   UNL d   1       5.409  -3.276  -2.779  0.00  0.00     0.056 A 
ATOM     25  C   UNL d   1       6.399  -3.618  -3.702  0.00  0.00     0.074 A 
ATOM     26 CL   UNL d   1       7.244  -5.110  -3.530  0.00  0.00    -0.081 Cl
ATOM     27  C   UNL d   1       6.682  -2.764  -4.761  0.00  0.00     0.138 A 
ATOM     28  C   UNL d   1       5.980  -1.572  -4.909  0.00  0.00     0.046 A 
ATOM     29  F   UNL d   1       7.625  -3.073  -5.663  0.00  0.00    -0.204 F 
ATOM     30  C   UNL d   1       4.979  -1.233  -3.990  0.00  0.00     0.032 A 
ENDBRANCH  19  23
ENDBRANCH   1  17
TORSDOF 4
