REMARK  3 active torsions:
REMARK  status: ('A' for Active; 'I' for Inactive)
REMARK    1  A    between atoms: C_11  and  C_3 
REMARK    2  A    between atoms: C_13  and  C_11 
REMARK    3  A    between atoms: N_16  and  C_14 
ROOT
ATOM      1  N   UNL d   1      -0.358  -0.533   0.029  0.00  0.00    -0.243 N 
ATOM      2  C   UNL d   1      -0.223   0.844  -0.158  0.00  0.00     0.129 A 
ATOM      3  C   UNL d   1       2.005  -0.855  -0.038  0.00  0.00     0.054 A 
ATOM      4  C   UNL d   1       0.766  -1.384   0.121  0.00  0.00     0.048 A 
ATOM      5  N   UNL d   1      -1.667  -0.890   0.098  0.00  0.00    -0.297 N 
ATOM      6  HN  UNL d   1      -2.048  -1.829   0.216  1.00  0.00     0.187 HD
ATOM      7  N   UNL d   1       0.995   1.442  -0.274  0.00  0.00    -0.350 N 
ATOM      8  HN  UNL d   1       1.098   2.450  -0.399  1.00  0.00     0.166 HD
ATOM      9  C   UNL d   1      -1.496   1.360  -0.163  0.00  0.00     0.076 A 
ATOM     10  C   UNL d   1       2.018   0.643  -0.215  0.00  0.00     0.107 A 
ATOM     11  C   UNL d   1      -2.350   0.253  -0.024  0.00  0.00     0.026 A 
ATOM     12  C   UNL d   1       0.446  -2.817   0.447  0.00  0.00     0.071 C 
ATOM     13  C   UNL d   1      -3.833   0.242   0.007  0.00  0.00     0.070 C 
ENDROOT
BRANCH   3  14
ATOM     14  C   UNL d   1       3.336  -1.540  -0.016  0.00  0.00     0.186 C 
ATOM     15  O   UNL d   1       4.333  -0.911   0.336  0.00  0.00    -0.287 OA
BRANCH  14  16
ATOM     16  C   UNL d   1       3.446  -2.941  -0.510  0.00  0.00     0.072 C 
ATOM     17  C   UNL d   1       4.610  -3.601  -0.428  0.00  0.00     0.088 C 
BRANCH  17  18
ATOM     18  N   UNL d   1       4.936  -4.888  -0.843  0.00  0.00    -0.398 N 
ATOM     19  C   UNL d   1       4.001  -5.821  -1.470  0.00  0.00     0.148 C 
ATOM     20  C   UNL d   1       6.238  -5.486  -0.525  0.00  0.00     0.148 C 
ENDBRANCH  17  18
ENDBRANCH  14  16
ENDBRANCH   3  14
TORSDOF 3
