REMARK  6 active torsions:
REMARK  status: ('A' for Active; 'I' for Inactive)
REMARK    1  A    between atoms: S_12  and  C_3 
REMARK    2  A    between atoms: C_5  and  C_4 
REMARK    3  A    between atoms: O_16  and  C_6 
REMARK    4  A    between atoms: C_10  and  C_15 
REMARK    5  A    between atoms: C_17  and  S_12 
REMARK    6  A    between atoms: C_20  and  C_17 
ROOT
ATOM      1  C   UNL d   1      -8.024   1.723  -0.334  0.00  0.00    -0.036 A 
ATOM      2  C   UNL d   1      -5.203   1.646  -0.078  0.00  0.00    -0.048 A 
ATOM      3  C   UNL d   1      -7.349   0.504  -0.191  0.00  0.00     0.012 A 
ATOM      4  C   UNL d   1      -7.277   2.906  -0.277  0.00  0.00     0.012 A 
ATOM      5  C   UNL d   1      -5.957   0.465  -0.066  0.00  0.00     0.009 A 
ATOM      6  C   UNL d   1      -5.882   2.870  -0.155  0.00  0.00     0.009 A 
ENDROOT
BRANCH   2   7
ATOM      7  C   UNL d   1      -3.692   1.600  -0.006  0.00  0.00     0.121 C 
BRANCH   7   8
ATOM      8  S   UNL d   1      -2.970   0.789  -1.473  0.00  0.00    -0.089 SA
BRANCH   8   9
ATOM      9  C   UNL d   1      -1.242   0.906  -1.087  0.00  0.00     0.146 A 
ATOM     10  N   UNL d   1      -0.397   0.341  -1.963  0.00  0.00    -0.318 N 
ATOM     11  C   UNL d   1       0.896   0.463  -1.657  0.00  0.00     0.143 A 
ATOM     12  HN  UNL d   1      -0.719  -0.145  -2.800  1.00  0.00     0.170 HD
ATOM     13  C   UNL d   1       1.401   1.096  -0.555  0.00  0.00     0.080 A 
ATOM     14  C   UNL d   1       0.456   1.641   0.284  0.00  0.00     0.011 A 
ATOM     15  C   UNL d   1       0.853   2.367   1.533  0.00  0.00     0.068 C 
ATOM     16  N   UNL d   1      -0.868   1.552   0.033  0.00  0.00    -0.341 N 
ATOM     17  HN  UNL d   1      -1.557   1.958   0.666  1.00  0.00     0.167 HD
BRANCH  11  18
ATOM     18  O   UNL d   1       1.739  -0.110  -2.554  0.00  0.00    -0.346 OA
ATOM     19  H   UNL d   1       1.102  -0.463  -3.202  0.00  0.00     0.219 HD
ENDBRANCH  11  18
ENDBRANCH   8   9
ENDBRANCH   7   8
ENDBRANCH   2   7
BRANCH   1  20
ATOM     20  C   UNL d   1      -9.482   1.798  -0.523  0.00  0.00     0.012 C 
ATOM     21  C   UNL d   1     -10.178   0.892  -1.233  0.00  0.00     0.017 C 
BRANCH  21  22
ATOM     22  C   UNL d   1     -11.634   0.924  -1.498  0.00  0.00     0.024 A 
ATOM     23  C   UNL d   1     -12.321   2.133  -1.694  0.00  0.00     0.128 A 
ATOM     24  F   UNL d   1     -11.678   3.310  -1.609  0.00  0.00    -0.205 F 
ATOM     25  C   UNL d   1     -13.682   2.172  -2.004  0.00  0.00     0.043 A 
ATOM     26  C   UNL d   1     -14.400   0.988  -2.143  0.00  0.00     0.005 A 
ATOM     27  C   UNL d   1     -13.746  -0.229  -1.969  0.00  0.00     0.025 A 
ATOM     28  C   UNL d   1     -12.379  -0.263  -1.652  0.00  0.00     0.047 A 
ATOM     29 CL   UNL d   1     -11.672  -1.835  -1.454  0.00  0.00    -0.083 Cl
ENDBRANCH  21  22
ENDBRANCH   1  20
TORSDOF 6
