REMARK  4 active torsions:
REMARK  status: ('A' for Active; 'I' for Inactive)
REMARK    1  A    between atoms: C_9  and  N_6 
REMARK    2  A    between atoms: C_10  and  C_9 
REMARK       I    between atoms: N_13  and  C_10 
REMARK    3  A    between atoms: N_11  and  N_13 
REMARK    4  A    between atoms: C_18  and  C_17 
ROOT
ATOM      1  C   UNL d   1       3.061   0.157  -0.172  0.00  0.00     0.257 C 
ATOM      2  N   UNL d   1       3.285  -1.052   0.477  0.00  0.00    -0.269 N 
ATOM      3  O   UNL d   1       3.845   0.679  -0.967  0.00  0.00    -0.270 OA
ATOM      4  H   UNL d   1       2.478  -1.513   0.905  0.00  0.00     0.190 HD
ENDROOT
BRANCH   1   5
ATOM      5  C   UNL d   1       1.811   0.882   0.256  0.00  0.00     0.272 C 
BRANCH   5   6
ATOM      6  N   UNL d   1       0.599   0.096   0.184  0.00  0.00    -0.194 N 
ATOM      7  N   UNL d   1       0.573  -1.253   0.265  0.00  0.00    -0.115 N 
ATOM      8  C   UNL d   1      -0.746  -1.469   0.298  0.00  0.00     0.709 A 
ATOM      9  HN  UNL d   1       1.345  -1.920   0.292  1.00  0.00     0.207 HD
ATOM     10  N   UNL d   1      -1.468  -0.301   0.340  0.00  0.00    -0.113 N 
ATOM     11  N   UNL d   1      -1.361  -2.667   0.328  0.00  0.00    -0.215 N 
ATOM     12  N   UNL d   1      -0.599   0.696   0.278  0.00  0.00     0.011 NA
ATOM     13  HN  UNL d   1      -2.483  -0.218   0.407  1.00  0.00     0.203 HD
ATOM     14  C   UNL d   1      -2.807  -2.785   0.342  0.00  0.00     0.141 C 
ATOM     15  C   UNL d   1      -0.733  -3.868  -0.200  0.00  0.00     0.141 C 
ATOM     16  C   UNL d   1      -3.016  -4.287   0.479  0.00  0.00     0.022 C 
ATOM     17  C   UNL d   1      -1.881  -4.871  -0.351  0.00  0.00     0.022 C 
ENDBRANCH   5   6
ENDBRANCH   1   5
BRANCH   2  18
ATOM     18  N   UNL d   1       4.290  -1.849   0.017  0.00  0.00    -0.308 N 
ATOM     19  C   UNL d   1       4.322  -3.048   0.501  0.00  0.00     0.118 C 
ATOM     20  HN  UNL d   1       4.973  -1.521  -0.666  1.00  0.00     0.186 HD
BRANCH  19  21
ATOM     21  C   UNL d   1       5.246  -4.053  -0.053  0.00  0.00    -0.017 A 
ATOM     22  C   UNL d   1       6.059  -3.730  -1.137  0.00  0.00     0.030 A 
ATOM     23  C   UNL d   1       6.827  -4.737  -1.687  0.00  0.00     0.088 A 
ATOM     24  N   UNL d   1       6.834  -6.007  -1.226  0.00  0.00    -0.375 N 
ATOM     25  C   UNL d   1       6.045  -6.282  -0.164  0.00  0.00     0.088 A 
ATOM     26  HN  UNL d   1       7.412  -6.727  -1.660  1.00  0.00     0.164 HD
ATOM     27  C   UNL d   1       5.237  -5.347   0.458  0.00  0.00     0.030 A 
ENDBRANCH  19  21
ENDBRANCH   2  18
TORSDOF 4
