REMARK  5 active torsions:
REMARK  status: ('A' for Active; 'I' for Inactive)
REMARK    1  A    between atoms: C_9  and  C_1 
REMARK    2  A    between atoms: N_7  and  C_2 
REMARK       I    between atoms: C_8  and  N_7 
REMARK    3  A    between atoms: C_10  and  C_8 
REMARK    4  A    between atoms: O_17  and  C_9 
REMARK    5  A    between atoms: C_19  and  O_17 
ROOT
ATOM      1  C   UNL d   1      -0.223  -1.156   0.197  0.00  0.00     0.105 A 
ATOM      2  C   UNL d   1       0.689   1.083   0.228  0.00  0.00     0.152 A 
ATOM      3  N   UNL d   1      -0.619   1.149   0.151  0.00  0.00    -0.339 N 
ATOM      4  HN  UNL d   1      -1.160   2.012   0.124  1.00  0.00     0.168 HD
ATOM      5  S   UNL d   1       1.341  -0.475   0.379  0.00  0.00    -0.046 SA
ATOM      6  C   UNL d   1      -1.159  -0.134   0.114  0.00  0.00     0.030 A 
ATOM      7  C   UNL d   1      -2.635  -0.256  -0.036  0.00  0.00     0.070 C 
ENDROOT
BRANCH   2   8
ATOM      8  N   UNL d   1       1.460   2.214   0.205  0.00  0.00    -0.302 N 
ATOM      9  C   UNL d   1       2.834   2.285   0.134  0.00  0.00     0.264 C 
ATOM     10  O   UNL d   1       3.588   1.320   0.060  0.00  0.00    -0.267 OA
ATOM     11  H   UNL d   1       0.929   3.071   0.167  0.00  0.00     0.171 HD
BRANCH   9  12
ATOM     12  C   UNL d   1       3.376   3.646   0.126  0.00  0.00     0.072 A 
ATOM     13  S   UNL d   1       2.390   5.042   0.270  0.00  0.00    -0.097 SA
ATOM     14  C   UNL d   1       3.741   6.088   0.203  0.00  0.00     0.050 A 
ATOM     15  C   UNL d   1       4.923   5.398   0.063  0.00  0.00     0.009 A 
ATOM     16  C   UNL d   1       4.711   3.992   0.014  0.00  0.00     0.025 A 
ENDBRANCH   9  12
ENDBRANCH   2   8
BRANCH   1  17
ATOM     17  C   UNL d   1      -0.342  -2.592   0.101  0.00  0.00     0.302 C 
ATOM     18  O   UNL d   1       0.547  -3.408   0.316  0.00  0.00    -0.259 OA
BRANCH  17  19
ATOM     19  O   UNL d   1      -1.573  -2.922  -0.385  0.00  0.00    -0.317 OA
BRANCH  19  20
ATOM     20  C   UNL d   1      -1.676  -4.232  -0.959  0.00  0.00     0.174 C 
ATOM     21  C   UNL d   1      -1.268  -4.144  -2.419  0.00  0.00     0.034 C 
ENDBRANCH  19  20
ENDBRANCH  17  19
ENDBRANCH   1  17
TORSDOF 5
