REMARK  5 active torsions:
REMARK  status: ('A' for Active; 'I' for Inactive)
REMARK    1  A    between atoms: C_6  and  N_1 
REMARK    2  A    between atoms: C_12  and  C_4 
REMARK    3  A    between atoms: C_10  and  C_11 
REMARK    4  A    between atoms: O_22  and  C_12 
REMARK    5  A    between atoms: C_24  and  O_22 
ROOT
ATOM      1  N   UNL d   1      -0.355  -1.093  -0.007  0.00  0.00    -0.256 N 
ATOM      2  N   UNL d   1       0.939  -0.697  -0.084  0.00  0.00    -0.297 N 
ATOM      3  HN  UNL d   1       1.760  -1.300  -0.146  1.00  0.00     0.187 HD
ATOM      4  C   UNL d   1      -0.381   1.150  -0.076  0.00  0.00     0.087 A 
ATOM      5  C   UNL d   1      -1.199   0.024   0.015  0.00  0.00     0.049 A 
ATOM      6  C   UNL d   1       0.929   0.632  -0.064  0.00  0.00     0.041 A 
ATOM      7  C   UNL d   1      -2.677   0.000   0.210  0.00  0.00     0.071 C 
ATOM      8  C   UNL d   1       2.229   1.362  -0.038  0.00  0.00     0.071 C 
ENDROOT
BRANCH   1   9
ATOM      9  C   UNL d   1      -0.629  -2.496   0.064  0.00  0.00     0.100 A 
ATOM     10  C   UNL d   1       0.245  -3.362   0.770  0.00  0.00     0.065 A 
ATOM     11  C   UNL d   1      -0.021  -4.742   0.861  0.00  0.00     0.042 A 
ATOM     12 CL   UNL d   1       1.648  -2.869   1.666  0.00  0.00    -0.082 Cl
ATOM     13  C   UNL d   1      -1.171  -5.298   0.301  0.00  0.00     0.051 A 
ATOM     14  C   UNL d   1      -2.025  -4.455  -0.412  0.00  0.00     0.042 A 
ATOM     15  C   UNL d   1      -1.731  -3.088  -0.581  0.00  0.00     0.065 A 
ATOM     16 CL   UNL d   1      -2.659  -2.335  -1.833  0.00  0.00    -0.082 Cl
BRANCH  13  17
ATOM     17  C   UNL d   1      -1.442  -6.778   0.419  0.00  0.00     0.417 C 
ATOM     18  F   UNL d   1      -2.647  -7.148  -0.094  0.00  0.00    -0.166 F 
ATOM     19  F   UNL d   1      -0.511  -7.526  -0.233  0.00  0.00    -0.166 F 
ATOM     20  F   UNL d   1      -1.437  -7.208   1.710  0.00  0.00    -0.166 F 
ENDBRANCH  13  17
ENDBRANCH   1   9
BRANCH   4  21
ATOM     21  C   UNL d   1      -0.807   2.540  -0.165  0.00  0.00     0.297 C 
ATOM     22  O   UNL d   1      -1.975   2.890  -0.310  0.00  0.00    -0.259 OA
BRANCH  21  23
ATOM     23  O   UNL d   1       0.249   3.407  -0.169  0.00  0.00    -0.318 OA
BRANCH  23  24
ATOM     24  C   UNL d   1      -0.010   4.704  -0.703  0.00  0.00     0.174 C 
ATOM     25  C   UNL d   1       0.137   4.637  -2.216  0.00  0.00     0.034 C 
ENDBRANCH  23  24
ENDBRANCH  21  23
ENDBRANCH   4  21
TORSDOF 5
