REMARK  3 active torsions:
REMARK  status: ('A' for Active; 'I' for Inactive)
REMARK    1  A    between atoms: C_15  and  C_5 
REMARK    2  A    between atoms: O_23  and  C_20 
REMARK    3  A    between atoms: C_28  and  O_23 
ROOT
ATOM      1  C   UNL d   1       1.246   0.667  -0.026  0.00  0.00     0.030 A 
ATOM      2  C   UNL d   1      -1.262   0.686   0.007  0.00  0.00     0.030 A 
ATOM      3  C   UNL d   1      -1.208  -0.634   0.269  0.00  0.00     0.065 A 
ATOM      4  C   UNL d   1       1.185  -0.644   0.266  0.00  0.00     0.065 A 
ATOM      5  C   UNL d   1      -0.005   1.512  -0.227  0.00  0.00     0.097 A 
ATOM      6  O   UNL d   1      -0.014  -1.323   0.376  0.00  0.00    -0.318 OA
ATOM      7  C   UNL d   1       2.596   1.300  -0.132  0.00  0.00     0.159 C 
ATOM      8  C   UNL d   1      -2.607   1.339  -0.051  0.00  0.00     0.159 C 
ATOM      9  C   UNL d   1      -2.403  -1.524   0.458  0.00  0.00     0.075 C 
ATOM     10  C   UNL d   1       2.377  -1.531   0.493  0.00  0.00     0.075 C 
ATOM     11  C   UNL d   1       3.688  -0.959  -0.074  0.00  0.00    -0.035 C 
ATOM     12  C   UNL d   1      -3.700  -0.946  -0.131  0.00  0.00    -0.035 C 
ATOM     13  C   UNL d   1      -3.830   0.518   0.319  0.00  0.00     0.092 C 
ATOM     14  C   UNL d   1       3.798   0.511   0.347  0.00  0.00     0.092 C 
ATOM     15  O   UNL d   1      -2.728   2.524  -0.353  0.00  0.00    -0.293 OA
ATOM     16  O   UNL d   1       2.736   2.436  -0.585  0.00  0.00    -0.293 OA
ATOM     17  C   UNL d   1       3.718  -1.079  -1.613  0.00  0.00     0.015 C 
ATOM     18  C   UNL d   1       4.873  -1.754   0.496  0.00  0.00     0.015 C 
ATOM     19  C   UNL d   1      -4.894  -1.760   0.396  0.00  0.00     0.015 C 
ATOM     20  C   UNL d   1      -3.696  -1.031  -1.670  0.00  0.00     0.015 C 
ENDROOT
BRANCH   5  21
ATOM     21  C   UNL d   1       0.041   2.759   0.649  0.00  0.00    -0.045 A 
ATOM     22  C   UNL d   1       0.026   2.670   2.048  0.00  0.00     0.011 A 
ATOM     23  C   UNL d   1       0.117   3.820   2.827  0.00  0.00     0.037 A 
ATOM     24  C   UNL d   1       0.206   5.072   2.221  0.00  0.00     0.068 A 
ATOM     25  C   UNL d   1       0.242   5.174   0.833  0.00  0.00     0.037 A 
ATOM     26  C   UNL d   1       0.146   4.028   0.051  0.00  0.00     0.011 A 
BRANCH  24  27
ATOM     27  O   UNL d   1       0.288   6.261   2.893  0.00  0.00    -0.352 OA
BRANCH  27  28
ATOM     28  C   UNL d   1      -0.348   6.279   4.170  0.00  0.00     0.171 C 
ATOM     29  C   UNL d   1      -0.778   7.704   4.450  0.00  0.00     0.034 C 
ENDBRANCH  27  28
ENDBRANCH  24  27
ENDBRANCH   5  21
TORSDOF 3
