REMARK  3 active torsions:
REMARK  status: ('A' for Active; 'I' for Inactive)
REMARK    1  A    between atoms: N_12  and  C_1 
REMARK    2  A    between atoms: N_10  and  C_6 
REMARK    3  A    between atoms: N_11  and  C_7 
REMARK       I    between atoms: C_13  and  N_10 
REMARK       I    between atoms: C_14  and  N_11 
ROOT
ATOM      1  C   UNL d   1      -1.416  -0.184  -0.107  0.00  0.00     0.709 A 
ATOM      2  N   UNL d   1      -0.629  -1.253  -0.034  0.00  0.00    -0.021 N 
ATOM      3  HN  UNL d   1      -1.004  -2.201  -0.055  1.00  0.00     0.203 HD
ATOM      4  N   UNL d   1      -0.933   1.045  -0.085  0.00  0.00    -0.021 N 
ATOM      5  HN  UNL d   1      -1.549   1.855  -0.154  1.00  0.00     0.203 HD
ATOM      6  C   UNL d   1       0.675  -1.015   0.069  0.00  0.00     0.714 A 
ATOM      7  C   UNL d   1       0.371   1.190   0.030  0.00  0.00     0.714 A 
ATOM      8  N   UNL d   1       1.229   0.187   0.074  0.00  0.00    -0.021 N 
ATOM      9  HN  UNL d   1       2.239   0.327   0.110  1.00  0.00     0.203 HD
ENDROOT
BRANCH   1  10
ATOM     10  N   UNL d   1      -2.780  -0.341  -0.183  0.00  0.00    -0.217 N 
ATOM     11  C   UNL d   1      -3.404  -1.643  -0.070  0.00  0.00     0.141 C 
ATOM     12  C   UNL d   1      -4.037  -2.023  -1.406  0.00  0.00     0.020 C 
ATOM     13  C   UNL d   1      -4.973  -0.922  -1.907  0.00  0.00     0.003 C 
ATOM     14  C   UNL d   1      -4.256   0.427  -1.963  0.00  0.00     0.020 C 
ATOM     15  C   UNL d   1      -3.616   0.775  -0.617  0.00  0.00     0.141 C 
ENDBRANCH   1  10
BRANCH   6  16
ATOM     16  N   UNL d   1       1.454  -2.163   0.160  0.00  0.00    -0.159 N 
ATOM     17  C   UNL d   1       2.788  -2.191   0.474  0.00  0.00     0.231 C 
ATOM     18  O   UNL d   1       3.484  -1.229   0.789  0.00  0.00    -0.273 OA
ATOM     19  C   UNL d   1       3.391  -3.570   0.425  0.00  0.00     0.118 C 
ATOM     20  H   UNL d   1       0.923  -3.014   0.068  0.00  0.00     0.187 HD
ENDBRANCH   6  16
BRANCH   7  21
ATOM     21  N   UNL d   1       0.934   2.460   0.107  0.00  0.00    -0.159 N 
ATOM     22  C   UNL d   1       0.217   3.607   0.348  0.00  0.00     0.231 C 
ATOM     23  O   UNL d   1      -0.990   3.694   0.550  0.00  0.00    -0.273 OA
ATOM     24  C   UNL d   1       1.066   4.851   0.393  0.00  0.00     0.118 C 
ATOM     25  H   UNL d   1       1.942   2.455   0.112  0.00  0.00     0.187 HD
ENDBRANCH   7  21
TORSDOF 3
