REMARK  2 active torsions:
REMARK  status: ('A' for Active; 'I' for Inactive)
REMARK    1  A    between atoms: C_6  and  C_1 
REMARK    2  A    between atoms: O_8  and  C_2 
ROOT
ATOM      1  C   UNL d   1      -2.512   0.016  -0.050  0.00  0.00     0.059 A 
ATOM      2  C   UNL d   1      -1.693   1.084  -0.046  0.00  0.00     0.091 A 
ATOM      3  C   UNL d   1      -1.639  -1.192  -0.011  0.00  0.00     0.197 A 
ATOM      4  C   UNL d   1      -0.302   0.674  -0.030  0.00  0.00     0.012 A 
ATOM      5  C   UNL d   1      -0.255  -0.713  -0.012  0.00  0.00     0.028 A 
ATOM      6  O   UNL d   1      -1.991  -2.351   0.031  0.00  0.00    -0.286 OA
ATOM      7  C   UNL d   1       0.871   1.410  -0.023  0.00  0.00     0.015 A 
ATOM      8  C   UNL d   1       0.929  -1.426   0.011  0.00  0.00     0.016 A 
ATOM      9  C   UNL d   1       2.087   0.716  -0.002  0.00  0.00     0.001 A 
ATOM     10  C   UNL d   1       2.116  -0.691   0.013  0.00  0.00     0.001 A 
ENDROOT
BRANCH   1  11
ATOM     11  C   UNL d   1      -3.969   0.020  -0.059  0.00  0.00    -0.019 A 
ATOM     12  C   UNL d   1      -4.672   0.037  -1.271  0.00  0.00     0.014 A 
ATOM     13  C   UNL d   1      -6.065   0.155  -1.279  0.00  0.00     0.019 A 
ATOM     14  C   UNL d   1      -6.760   0.248  -0.073  0.00  0.00     0.006 A 
ATOM     15  C   UNL d   1      -6.074   0.193   1.139  0.00  0.00     0.019 A 
ATOM     16  I   UNL d   1      -8.823   0.502  -0.085  0.00  0.00    -0.045 I 
ATOM     17  C   UNL d   1      -4.680   0.080   1.145  0.00  0.00     0.014 A 
ENDBRANCH   1  11
BRANCH   2  18
ATOM     18  O   UNL d   1      -2.005   2.410  -0.036  0.00  0.00    -0.359 OA
ATOM     19  H   UNL d   1      -2.973   2.493   0.035  0.00  0.00     0.217 HD
ENDBRANCH   2  18
TORSDOF 2
