REMARK  7 active torsions:
REMARK  status: ('A' for Active; 'I' for Inactive)
REMARK    1  A    between atoms: C_9  and  N_1 
REMARK    2  A    between atoms: N_7  and  C_2 
REMARK    3  A    between atoms: C_10  and  N_6 
REMARK    4  A    between atoms: C_14  and  N_7 
REMARK    5  A    between atoms: C_11  and  C_10 
REMARK    6  A    between atoms: C_12  and  C_11 
REMARK    7  A    between atoms: O_15  and  C_12 
ROOT
ATOM      1  N   UNL d   1      -0.245  -1.167   0.009  0.00  0.00    -0.119 N 
ATOM      2  C   UNL d   1       1.022  -0.627   0.128  0.00  0.00     0.706 A 
ATOM      3  C   UNL d   1      -1.113  -0.072  -0.072  0.00  0.00     0.216 A 
ATOM      4  N   UNL d   1       1.018   0.679   0.068  0.00  0.00    -0.127 N 
ATOM      5  HN  UNL d   1       1.828   1.294   0.141  1.00  0.00     0.206 HD
ATOM      6  N   UNL d   1      -0.279   1.059  -0.111  0.00  0.00    -0.252 N 
ATOM      7  S   UNL d   1      -2.784  -0.012  -0.024  0.00  0.00    -0.038 SA
ENDROOT
BRANCH   2   8
ATOM      8  N   UNL d   1       2.163  -1.385   0.236  0.00  0.00    -0.190 N 
ATOM      9  H   UNL d   1       2.127  -2.324  -0.134  0.00  0.00     0.184 HD
BRANCH   8  10
ATOM     10  C   UNL d   1       3.428  -0.972   0.701  0.00  0.00     0.049 A 
ATOM     11  C   UNL d   1       3.645   0.242   1.364  0.00  0.00     0.030 A 
ATOM     12  C   UNL d   1       4.920   0.628   1.786  0.00  0.00     0.002 A 
ATOM     13  C   UNL d   1       6.008  -0.208   1.563  0.00  0.00     0.000 A 
ATOM     14  C   UNL d   1       5.816  -1.431   0.928  0.00  0.00     0.002 A 
ATOM     15  C   UNL d   1       4.537  -1.809   0.501  0.00  0.00     0.030 A 
ENDBRANCH   8  10
ENDBRANCH   2   8
BRANCH   1  16
ATOM     16  C   UNL d   1      -0.595  -2.548   0.048  0.00  0.00     0.059 A 
ATOM     17  C   UNL d   1       0.111  -3.459   0.851  0.00  0.00     0.030 A 
ATOM     18  C   UNL d   1      -0.196  -4.826   0.841  0.00  0.00     0.002 A 
ATOM     19  C   UNL d   1      -1.233  -5.304   0.047  0.00  0.00     0.000 A 
ATOM     20  C   UNL d   1      -1.964  -4.416  -0.734  0.00  0.00     0.002 A 
ATOM     21  C   UNL d   1      -1.641  -3.055  -0.739  0.00  0.00     0.030 A 
ENDBRANCH   1  16
BRANCH   6  22
ATOM     22  C   UNL d   1      -0.635   2.473  -0.027  0.00  0.00     0.162 C 
BRANCH  22  23
ATOM     23  C   UNL d   1       0.398   3.376  -0.692  0.00  0.00     0.132 C 
BRANCH  23  24
ATOM     24  C   UNL d   1      -0.026   4.815  -0.614  0.00  0.00     0.141 C 
ATOM     25  O   UNL d   1      -1.042   5.224  -0.076  0.00  0.00    -0.650 OA
BRANCH  24  26
ATOM     26  O   UNL d   1       0.856   5.647  -1.216  0.00  0.00    -0.776 OA
ATOM     27  H   UNL d   1       1.628   5.189  -1.601  0.00  0.00     0.167 HD
ENDBRANCH  24  26
ENDBRANCH  23  24
ENDBRANCH  22  23
ENDBRANCH   6  22
TORSDOF 7
