REMARK  3 active torsions:
REMARK  status: ('A' for Active; 'I' for Inactive)
REMARK    1  A    between atoms: N_14  and  C_3 
REMARK    2  A    between atoms: N_9  and  N_14 
REMARK    3  A    between atoms: C_16  and  C_15 
ROOT
ATOM      1  N   UNL d   1       2.039   2.725   0.020  0.00  0.00    -0.285 N 
ATOM      2  H   UNL d   1       1.257   3.370   0.058  0.00  0.00     0.188 HD
ENDROOT
BRANCH   1   3
ATOM      3  N   UNL d   1       3.334   3.078   0.110  0.00  0.00    -0.309 N 
ATOM      4  C   UNL d   1       3.615   4.326  -0.066  0.00  0.00     0.118 C 
ATOM      5  HN  UNL d   1       4.062   2.390   0.308  1.00  0.00     0.186 HD
BRANCH   4   6
ATOM      6  C   UNL d   1       5.023   4.770  -0.057  0.00  0.00    -0.019 A 
ATOM      7  C   UNL d   1       5.361   5.983  -0.656  0.00  0.00     0.013 A 
ATOM      8  C   UNL d   1       6.701   6.377  -0.706  0.00  0.00     0.007 A 
ATOM      9  C   UNL d   1       7.706   5.569  -0.151  0.00  0.00    -0.062 A 
ATOM     10  C   UNL d   1       7.353   4.357   0.453  0.00  0.00     0.007 A 
ATOM     11  C   UNL d   1       9.140   6.007  -0.212  0.00  0.00     0.048 C 
ATOM     12  C   UNL d   1       6.018   3.957   0.498  0.00  0.00     0.013 A 
ENDBRANCH   4   6
ENDBRANCH   1   3
BRANCH   1  13
ATOM     13  C   UNL d   1       1.668   1.371   0.036  0.00  0.00     0.134 A 
ATOM     14  C   UNL d   1       2.571   0.283   0.002  0.00  0.00     0.044 A 
ATOM     15  C   UNL d   1       2.007  -0.982   0.023  0.00  0.00     0.088 A 
ATOM     16  C   UNL d   1       4.006   0.180  -0.064  0.00  0.00     0.025 A 
ATOM     17  N   UNL d   1       0.696  -1.272   0.067  0.00  0.00    -0.346 N 
ATOM     18  S   UNL d   1       3.166  -2.235  -0.014  0.00  0.00    -0.083 SA
ATOM     19  C   UNL d   1      -0.062  -0.174   0.085  0.00  0.00     0.182 A 
ATOM     20  HN  UNL d   1       0.323  -2.221   0.085  1.00  0.00     0.167 HD
ATOM     21  N   UNL d   1       0.338   1.107   0.072  0.00  0.00    -0.337 N 
ATOM     22  HN  UNL d   1      -0.343   1.865   0.090  1.00  0.00     0.168 HD
ATOM     23  C   UNL d   1       4.458  -1.120  -0.072  0.00  0.00     0.053 A 
ENDBRANCH   1  13
TORSDOF 3
