REMARK  12 active torsions:
REMARK  status: ('A' for Active; 'I' for Inactive)
REMARK    1  A    between atoms: C_7  and  C_1 
REMARK    2  A    between atoms: N_8  and  C_2 
REMARK    3  A    between atoms: C_9  and  C_3 
REMARK    4  A    between atoms: C_10  and  C_3 
REMARK    5  A    between atoms: C_5  and  N_8 
REMARK    6  A    between atoms: O_15  and  C_7 
REMARK    7  A    between atoms: O_17  and  C_9 
REMARK    8  A    between atoms: O_16  and  C_10 
REMARK    9  A    between atoms: C_18  and  C_11 
REMARK   10  A    between atoms: C_19  and  O_15 
REMARK   11  A    between atoms: C_21  and  O_16 
REMARK   12  A    between atoms: C_20  and  O_17 
ROOT
ATOM      1  N   UNL d   1      -0.055   2.772  -0.055  0.00  0.00    -0.358 N 
ATOM      2  H   UNL d   1      -1.056   2.915   0.108  0.00  0.00     0.166 HD
ENDROOT
BRANCH   1   3
ATOM      3  C   UNL d   1       0.628   3.952  -0.260  0.00  0.00     0.112 C 
ATOM      4  C   UNL d   1       0.196   5.231  -0.270  0.00  0.00     0.129 C 
BRANCH   4   5
ATOM      5  C   UNL d   1      -1.206   5.671  -0.073  0.00  0.00     0.300 C 
ATOM      6  O   UNL d   1      -1.611   6.789  -0.345  0.00  0.00    -0.259 OA
BRANCH   5   7
ATOM      7  O   UNL d   1      -1.955   4.691   0.500  0.00  0.00    -0.318 OA
BRANCH   7   8
ATOM      8  C   UNL d   1      -3.209   5.123   1.053  0.00  0.00     0.174 C 
ATOM      9  C   UNL d   1      -2.974   5.538   2.495  0.00  0.00     0.034 C 
ENDBRANCH   7   8
ENDBRANCH   5   7
ENDBRANCH   4   5
BRANCH   4  10
ATOM     10  C   UNL d   1       1.273   6.243  -0.423  0.00  0.00     0.300 C 
ATOM     11  O   UNL d   1       2.328   6.035  -1.003  0.00  0.00    -0.259 OA
BRANCH  10  12
ATOM     12  O   UNL d   1       0.982   7.349   0.307  0.00  0.00    -0.318 OA
BRANCH  12  13
ATOM     13  C   UNL d   1       2.060   8.267   0.538  0.00  0.00     0.174 C 
ATOM     14  C   UNL d   1       2.566   8.035   1.949  0.00  0.00     0.034 C 
ENDBRANCH  12  13
ENDBRANCH  10  12
ENDBRANCH   4  10
ENDBRANCH   1   3
BRANCH   1  15
ATOM     15  C   UNL d   1       0.360   1.471  -0.020  0.00  0.00     0.090 A 
ATOM     16  C   UNL d   1       1.593   0.831  -0.129  0.00  0.00     0.074 A 
ATOM     17  C   UNL d   1       1.441  -0.607  -0.111  0.00  0.00     0.035 A 
ATOM     18  C   UNL d   1       0.148  -1.030   0.069  0.00  0.00    -0.015 A 
ATOM     19  S   UNL d   1      -0.908   0.297   0.186  0.00  0.00    -0.076 SA
BRANCH  16  20
ATOM     20  C   UNL d   1       2.932   1.402  -0.246  0.00  0.00     0.296 C 
ATOM     21  O   UNL d   1       3.788   0.911  -0.974  0.00  0.00    -0.259 OA
BRANCH  20  22
ATOM     22  O   UNL d   1       3.186   2.374   0.677  0.00  0.00    -0.318 OA
BRANCH  22  23
ATOM     23  C   UNL d   1       4.574   2.653   0.916  0.00  0.00     0.174 C 
ATOM     24  C   UNL d   1       5.084   3.781   0.041  0.00  0.00     0.034 C 
ENDBRANCH  22  23
ENDBRANCH  20  22
ENDBRANCH  16  20
BRANCH  18  25
ATOM     25  C   UNL d   1      -0.346  -2.444   0.148  0.00  0.00     0.042 C 
ATOM     26  C   UNL d   1      -0.323  -2.984   1.570  0.00  0.00     0.010 C 
ENDBRANCH  18  25
ENDBRANCH   1  15
TORSDOF 12
