REMARK  1 active torsions:
REMARK  status: ('A' for Active; 'I' for Inactive)
REMARK    1  A    between atoms: C_9  and  N_6 
ROOT
ATOM      1  C   UNL d   1      -0.584  -1.050  -0.105  0.00  0.00     0.125 C 
ATOM      2  S   UNL d   1       1.123  -1.220   0.294  0.00  0.00    -0.063 SA
ATOM      3  N   UNL d   1      -0.970   0.249   0.105  0.00  0.00    -0.260 NA
ATOM      4  C   UNL d   1       1.379   0.501   0.116  0.00  0.00    -0.001 C 
ATOM      5  C   UNL d   1       0.077   1.238  -0.188  0.00  0.00     0.043 C 
ATOM      6  N   UNL d   1      -1.388  -1.927  -0.624  0.00  0.00    -0.341 N 
ATOM      7  HN  UNL d   1      -2.374  -1.685  -0.726  1.00  0.00     0.167 HD
ATOM      8  C   UNL d   1       2.602   1.030   0.274  0.00  0.00     0.029 C 
ATOM      9  C   UNL d   1      -0.121   2.475   0.689  0.00  0.00     0.038 C 
ATOM     10  C   UNL d   1      -0.025   1.618  -1.675  0.00  0.00     0.038 C 
ATOM     11  H   UNL d   1      -1.882   0.444  -0.292  0.00  0.00     0.130 HD
ENDROOT
BRANCH   6  12
ATOM     12  C   UNL d   1      -0.959  -3.197  -1.052  0.00  0.00     0.033 A 
ATOM     13  C   UNL d   1      -1.749  -4.312  -0.754  0.00  0.00     0.030 A 
ATOM     14  C   UNL d   1      -1.419  -5.576  -1.260  0.00  0.00     0.009 A 
ATOM     15  C   UNL d   1      -0.286  -5.749  -2.065  0.00  0.00    -0.062 A 
ATOM     16  C   UNL d   1       0.495  -4.634  -2.375  0.00  0.00     0.009 A 
ATOM     17  C   UNL d   1       0.063  -7.096  -2.623  0.00  0.00     0.048 C 
ATOM     18  C   UNL d   1       0.136  -3.373  -1.901  0.00  0.00     0.030 A 
ENDBRANCH   6  12
TORSDOF 1
