REMARK  4 active torsions:
REMARK  status: ('A' for Active; 'I' for Inactive)
REMARK    1  A    between atoms: O_3  and  S_1 
REMARK    2  A    between atoms: C_4  and  S_1 
REMARK    3  A    between atoms: S_2  and  O_3 
REMARK    4  A    between atoms: C_5  and  S_2 
ROOT
ATOM      1  O   UNL d   1       0.580   1.023   0.903  0.00  0.00    -0.139 OA
ENDROOT
BRANCH   1   2
ATOM      2  S   UNL d   1       1.063   1.036   2.437  0.00  0.00     0.312 S 
ATOM      3  O   UNL d   1       0.529  -0.128   3.113  0.00  0.00    -0.192 OA
ATOM      4  O   UNL d   1       2.478   1.346   2.489  0.00  0.00    -0.192 OA
BRANCH   2   5
ATOM      5  C   UNL d   1       0.225   2.444   3.151  0.00  0.00     0.087 A 
ATOM      6  C   UNL d   1      -1.007   2.265   3.788  0.00  0.00     0.026 A 
ATOM      7  C   UNL d   1      -1.588   3.332   4.477  0.00  0.00     0.008 A 
ATOM      8  C   UNL d   1      -0.940   4.573   4.546  0.00  0.00    -0.062 A 
ATOM      9  C   UNL d   1       0.288   4.742   3.893  0.00  0.00     0.008 A 
ATOM     10  C   UNL d   1      -1.555   5.696   5.331  0.00  0.00     0.048 C 
ATOM     11  C   UNL d   1       0.875   3.681   3.200  0.00  0.00     0.026 A 
ENDBRANCH   2   5
ENDBRANCH   1   2
BRANCH   1  12
ATOM     12  S   UNL d   1       1.134  -0.117  -0.089  0.00  0.00     0.312 S 
ATOM     13  O   UNL d   1       0.638  -1.409   0.339  0.00  0.00    -0.192 OA
ATOM     14  O   UNL d   1       2.545   0.111  -0.320  0.00  0.00    -0.192 OA
BRANCH  12  15
ATOM     15  C   UNL d   1       0.311   0.208  -1.639  0.00  0.00     0.087 A 
ATOM     16  C   UNL d   1       1.062   0.470  -2.789  0.00  0.00     0.026 A 
ATOM     17  C   UNL d   1       0.413   0.610  -4.018  0.00  0.00     0.008 A 
ATOM     18  C   UNL d   1      -0.981   0.484  -4.104  0.00  0.00    -0.062 A 
ATOM     19  C   UNL d   1      -1.721   0.234  -2.940  0.00  0.00     0.008 A 
ATOM     20  C   UNL d   1      -1.658   0.582  -5.440  0.00  0.00     0.048 C 
ATOM     21  C   UNL d   1      -1.079   0.092  -1.707  0.00  0.00     0.026 A 
ENDBRANCH  12  15
ENDBRANCH   1  12
TORSDOF 4
