REMARK  5 active torsions:
REMARK  status: ('A' for Active; 'I' for Inactive)
REMARK    1  A    between atoms: C_3  and  C_1 
REMARK       I    between atoms: N_7  and  C_3 
REMARK    2  A    between atoms: C_12  and  N_7 
REMARK    3  A    between atoms: C_13  and  N_8 
REMARK    4  A    between atoms: C_20  and  C_13 
REMARK    5  A    between atoms: O_21  and  C_18 
ROOT
ATOM      1  C   UNL d   1      -5.909  -1.331  -0.170  0.00  0.00     0.268 C 
ATOM      2  N   UNL d   1      -4.606  -1.491   0.227  0.00  0.00    -0.351 N 
ATOM      3  O   UNL d   1      -6.482  -2.128  -0.909  0.00  0.00    -0.266 OA
ATOM      4  H   UNL d   1      -4.241  -0.809   0.875  0.00  0.00     0.163 HD
ENDROOT
BRANCH   2   5
ATOM      5  C   UNL d   1      -3.622  -2.428  -0.336  0.00  0.00     0.088 C 
ATOM      6  C   UNL d   1      -3.163  -2.035  -1.742  0.00  0.00     0.055 C 
ATOM      7  C   UNL d   1      -3.741  -2.902  -2.850  0.00  0.00     0.275 C 
ATOM      8  N   UNL d   1      -3.447  -4.317  -2.576  0.00  0.00     0.092 N 
ATOM      9  C   UNL d   1      -4.249  -4.729  -1.412  0.00  0.00     0.275 C 
ATOM     10  C   UNL d   1      -3.933  -3.920  -0.145  0.00  0.00     0.055 C 
BRANCH   8  11
ATOM     11  C   UNL d   1      -3.770  -5.117  -3.779  0.00  0.00     0.311 C 
BRANCH  11  12
ATOM     12  C   UNL d   1      -3.437  -6.593  -3.676  0.00  0.00    -0.030 A 
ATOM     13  C   UNL d   1      -4.449  -7.557  -3.799  0.00  0.00     0.009 A 
ATOM     14  C   UNL d   1      -4.152  -8.918  -3.713  0.00  0.00     0.001 A 
ATOM     15  C   UNL d   1      -2.837  -9.334  -3.512  0.00  0.00     0.000 A 
ATOM     16  C   UNL d   1      -1.819  -8.388  -3.405  0.00  0.00     0.001 A 
ATOM     17  C   UNL d   1      -2.115  -7.025  -3.488  0.00  0.00     0.009 A 
ENDBRANCH  11  12
ENDBRANCH   8  11
ENDBRANCH   2   5
BRANCH   1  18
ATOM     18  C   UNL d   1      -6.566  -0.126   0.324  0.00  0.00     0.102 A 
ATOM     19  N   UNL d   1      -7.918   0.099   0.145  0.00  0.00    -0.351 N 
ATOM     20  C   UNL d   1      -8.280   1.359   0.567  0.00  0.00     0.043 A 
ATOM     21  H   UNL d   1      -8.537  -0.565  -0.303  0.00  0.00     0.166 HD
ATOM     22  C   UNL d   1      -9.518   2.020   0.530  0.00  0.00     0.033 A 
ATOM     23  C   UNL d   1      -7.131   1.965   1.062  0.00  0.00    -0.004 A 
ATOM     24  C   UNL d   1      -9.567   3.353   0.971  0.00  0.00     0.039 A 
ATOM     25  C   UNL d   1      -8.424   4.001   1.439  0.00  0.00     0.069 A 
ATOM     26  C   UNL d   1      -7.208   3.304   1.502  0.00  0.00     0.050 A 
ATOM     27  C   UNL d   1      -6.080   1.006   0.967  0.00  0.00     0.049 A 
BRANCH  25  28
ATOM     28  O   UNL d   1      -8.348   5.304   1.855  0.00  0.00    -0.356 OA
ATOM     29  C   UNL d   1      -9.540   6.078   1.819  0.00  0.00     0.210 C 
ENDBRANCH  25  28
ENDBRANCH   1  18
TORSDOF 5
