REMARK  7 active torsions:
REMARK  status: ('A' for Active; 'I' for Inactive)
REMARK    1  A    between atoms: N_2  and  S_1 
REMARK    2  A    between atoms: C_3  and  S_1 
REMARK    3  A    between atoms: C_4  and  N_2 
REMARK       I    between atoms: C_5  and  N_10 
REMARK    4  A    between atoms: C_9  and  C_5 
REMARK    5  A    between atoms: N_8  and  C_17 
REMARK    6  A    between atoms: C_17  and  C_9 
REMARK    7  A    between atoms: N_10  and  C_21 
ROOT
ATOM      1  C   UNL d   1       0.240  -0.123  -1.459  0.00  0.00     0.080 A 
ATOM      2  C   UNL d   1      -0.048  -1.488  -1.531  0.00  0.00     0.027 A 
ATOM      3  C   UNL d   1      -0.083   0.720  -2.518  0.00  0.00     0.027 A 
ATOM      4  C   UNL d   1      -0.845  -1.201  -3.815  0.00  0.00     0.034 A 
ATOM      5  C   UNL d   1      -0.594  -2.022  -2.707  0.00  0.00     0.031 A 
ATOM      6  C   UNL d   1      -0.615   0.176  -3.692  0.00  0.00     0.031 A 
ENDROOT
BRANCH   1   7
ATOM      7  S   UNL d   1       1.012   0.545  -0.003  0.00  0.00     0.263 S 
ATOM      8  O   UNL d   1       0.696   1.955   0.077  0.00  0.00    -0.200 OA
ATOM      9  O   UNL d   1       0.719  -0.358   1.091  0.00  0.00    -0.200 OA
BRANCH   7  10
ATOM     10  N   UNL d   1       2.660   0.356  -0.337  0.00  0.00    -0.281 N 
ATOM     11  H   UNL d   1       2.970  -0.605  -0.201  0.00  0.00     0.179 HD
BRANCH  10  12
ATOM     12  C   UNL d   1       3.247   1.097  -1.401  0.00  0.00     0.045 A 
ATOM     13  C   UNL d   1       3.616   2.427  -1.191  0.00  0.00     0.054 A 
ATOM     14  C   UNL d   1       4.217   3.146  -2.224  0.00  0.00     0.037 A 
ATOM     15 CL   UNL d   1       4.725   4.768  -1.953  0.00  0.00    -0.084 Cl
ATOM     16  C   UNL d   1       4.426   2.559  -3.470  0.00  0.00     0.048 A 
ATOM     17  C   UNL d   1       4.030   1.240  -3.675  0.00  0.00     0.037 A 
ATOM     18  C   UNL d   1       3.446   0.500  -2.644  0.00  0.00     0.054 A 
ATOM     19 CL   UNL d   1       4.272   0.506  -5.213  0.00  0.00    -0.084 Cl
ENDBRANCH  10  12
ENDBRANCH   7  10
ENDBRANCH   1   7
BRANCH   4  20
ATOM     20  N   UNL d   1      -1.286  -1.821  -5.009  0.00  0.00    -0.327 N 
ATOM     21  C   UNL d   1      -1.336  -1.234  -6.257  0.00  0.00     0.223 C 
ATOM     22  O   UNL d   1      -1.118  -0.048  -6.501  0.00  0.00    -0.273 OA
ATOM     23  H   UNL d   1      -1.492  -2.818  -4.967  0.00  0.00     0.169 HD
BRANCH  21  24
ATOM     24  C   UNL d   1      -1.732  -2.143  -7.405  0.00  0.00     0.133 C 
BRANCH  24  25
ATOM     25  C   UNL d   1      -1.304  -3.609  -7.327  0.00  0.00     0.282 C 
BRANCH  25  26
ATOM     26  N   UNL d   1      -2.129  -4.478  -6.459  0.00  0.00     0.093 N 
ATOM     27  C   UNL d   1      -3.554  -4.558  -6.880  0.00  0.00     0.298 C 
ATOM     28  C   UNL d   1      -3.789  -5.307  -8.205  0.00  0.00     0.198 C 
ATOM     29  O   UNL d   1      -3.257  -6.635  -8.150  0.00  0.00    -0.388 OA
ATOM     30  C   UNL d   1      -1.863  -6.619  -7.822  0.00  0.00     0.198 C 
ATOM     31  C   UNL d   1      -1.606  -5.876  -6.494  0.00  0.00     0.298 C 
ENDBRANCH  25  26
ENDBRANCH  24  25
ENDBRANCH  21  24
ENDBRANCH   4  20
TORSDOF 7
