REMARK  2 active torsions:
REMARK  status: ('A' for Active; 'I' for Inactive)
REMARK    1  A    between atoms: C_2  and  C_1 
REMARK       I    between atoms: N_3  and  C_1 
REMARK    2  A    between atoms: C_4  and  N_3 
ROOT
ATOM      1  C   UNL d   1       0.898  -0.016   0.033  0.00  0.00     0.257 C 
ATOM      2  N   UNL d   1       0.090  -1.048   0.472  0.00  0.00    -0.320 N 
ATOM      3  O   UNL d   1       2.123  -0.027   0.021  0.00  0.00    -0.267 OA
ATOM      4  H   UNL d   1      -0.878  -1.013   0.180  0.00  0.00     0.169 HD
ENDROOT
BRANCH   2   5
ATOM      5  C   UNL d   1       0.527  -2.265   1.041  0.00  0.00     0.074 A 
ATOM      6  C   UNL d   1       1.718  -2.426   1.765  0.00  0.00     0.146 A 
ATOM      7  C   UNL d   1       2.092  -3.671   2.266  0.00  0.00     0.086 A 
ATOM      8  F   UNL d   1       2.487  -1.378   2.093  0.00  0.00    -0.204 F 
ATOM      9  C   UNL d   1       1.267  -4.764   2.053  0.00  0.00     0.119 A 
ATOM     10  C   UNL d   1       0.062  -4.627   1.374  0.00  0.00     0.044 A 
ATOM     11  F   UNL d   1       1.624  -5.965   2.524  0.00  0.00    -0.206 F 
ATOM     12  C   UNL d   1      -0.315  -3.375   0.881  0.00  0.00     0.036 A 
ENDBRANCH   2   5
BRANCH   1  13
ATOM     13  C   UNL d   1       0.202   1.204  -0.489  0.00  0.00     0.048 A 
ATOM     14  C   UNL d   1      -1.008   1.248  -1.202  0.00  0.00     0.022 A 
ATOM     15  I   UNL d   1      -2.104  -0.429  -1.847  0.00  0.00    -0.043 I 
ATOM     16  C   UNL d   1      -1.540   2.486  -1.604  0.00  0.00     0.019 A 
ATOM     17  C   UNL d   1      -0.868   3.677  -1.326  0.00  0.00     0.001 A 
ATOM     18  C   UNL d   1       0.344   3.642  -0.650  0.00  0.00     0.001 A 
ATOM     19  C   UNL d   1       0.873   2.418  -0.234  0.00  0.00     0.018 A 
ENDBRANCH   1  13
TORSDOF 2
