REMARK  4 active torsions:
REMARK  status: ('A' for Active; 'I' for Inactive)
REMARK       I    between atoms: C_2  and  N_1 
REMARK    1  A    between atoms: C_4  and  N_1 
REMARK    2  A    between atoms: C_9  and  N_1 
REMARK    3  A    between atoms: C_8  and  C_2 
REMARK    4  A    between atoms: C_3  and  C_4 
ROOT
ATOM      1  N   UNL d   1       0.955  -0.124  -0.041  0.00  0.00    -0.309 N 
ATOM      2  C   UNL d   1       0.250  -1.309  -0.336  0.00  0.00     0.258 C 
ATOM      3  O   UNL d   1      -0.959  -1.302  -0.586  0.00  0.00    -0.267 OA
ENDROOT
BRANCH   1   4
ATOM      4  C   UNL d   1       0.229   1.180  -0.078  0.00  0.00     0.093 C 
ATOM      5  C   UNL d   1      -1.049   1.222   0.769  0.00  0.00     0.033 C 
BRANCH   4   6
ATOM      6  C   UNL d   1      -0.058   1.586  -1.512  0.00  0.00     0.009 A 
ATOM      7  C   UNL d   1       1.046   2.041  -2.443  0.00  0.00     0.007 A 
ATOM      8  C   UNL d   1       0.045   3.034  -1.932  0.00  0.00     0.007 A 
ENDBRANCH   4   6
ENDBRANCH   1   4
BRANCH   1   9
ATOM      9  C   UNL d   1       2.375   0.008  -0.129  0.00  0.00     0.037 A 
ATOM     10  C   UNL d   1       3.092  -0.499  -1.217  0.00  0.00     0.030 A 
ATOM     11  C   UNL d   1       4.474  -0.310  -1.301  0.00  0.00     0.002 A 
ATOM     12  C   UNL d   1       5.147   0.388  -0.297  0.00  0.00     0.000 A 
ATOM     13  C   UNL d   1       4.441   0.898   0.787  0.00  0.00     0.002 A 
ATOM     14  C   UNL d   1       3.060   0.716   0.869  0.00  0.00     0.030 A 
ENDBRANCH   1   9
BRANCH   2  15
ATOM     15  C   UNL d   1       0.904  -2.663  -0.337  0.00  0.00     0.032 A 
ATOM     16  C   UNL d   1       2.071  -2.993   0.363  0.00  0.00     0.017 A 
ATOM     17  C   UNL d   1       2.659  -4.255   0.213  0.00  0.00     0.001 A 
ATOM     18  C   UNL d   1       2.046  -5.226  -0.576  0.00  0.00     0.000 A 
ATOM     19  C   UNL d   1       0.836  -4.945  -1.202  0.00  0.00     0.001 A 
ATOM     20  C   UNL d   1       0.273  -3.673  -1.086  0.00  0.00     0.017 A 
ENDBRANCH   2  15
TORSDOF 4
