REMARK  12 active torsions:
REMARK  status: ('A' for Active; 'I' for Inactive)
REMARK    1  A    between atoms: C_2  and  C_1 
REMARK       I    between atoms: N_4  and  C_1 
REMARK    2  A    between atoms: C_3  and  C_6 
REMARK       I    between atoms: N_5  and  C_3 
REMARK    3  A    between atoms: C_6  and  N_4 
REMARK    4  A    between atoms: C_9  and  N_5 
REMARK    5  A    between atoms: C_15  and  C_6 
REMARK    6  A    between atoms: S_16  and  C_7 
REMARK    7  A    between atoms: C_8  and  C_9 
REMARK    8  A    between atoms: O_17  and  C_8 
REMARK    9  A    between atoms: C_18  and  C_9 
REMARK   10  A    between atoms: C_21  and  C_15 
REMARK   11  A    between atoms: C_23  and  C_18 
REMARK   12  A    between atoms: S_19  and  C_23 
ROOT
ATOM      1  C   UNL d   1      -0.842   1.470  -0.402  0.00  0.00     0.177 C 
ENDROOT
BRANCH   1   2
ATOM      2  C   UNL d   1      -1.601   2.345   0.666  0.00  0.00     0.241 C 
ATOM      3  N   UNL d   1      -1.227   3.659   0.674  0.00  0.00    -0.345 N 
ATOM      4  H   UNL d   1      -0.273   3.783   0.349  0.00  0.00     0.163 HD
ATOM      5  O   UNL d   1      -2.547   1.882   1.286  0.00  0.00    -0.271 OA
BRANCH   3   6
ATOM      6  C   UNL d   1      -1.703   4.795   1.490  0.00  0.00     0.185 C 
BRANCH   6   7
ATOM      7  C   UNL d   1      -3.104   5.019   2.120  0.00  0.00     0.281 C 
ATOM      8  O   UNL d   1      -3.420   6.094   2.626  0.00  0.00    -0.263 OA
BRANCH   7   9
ATOM      9  O   UNL d   1      -3.885   3.919   2.172  0.00  0.00    -0.325 OA
ATOM     10  C   UNL d   1      -5.087   4.029   2.946  0.00  0.00     0.213 C 
ENDBRANCH   7   9
ENDBRANCH   6   7
BRANCH   6  11
ATOM     11  C   UNL d   1      -0.626   5.184   2.512  0.00  0.00     0.045 C 
BRANCH  11  12
ATOM     12  C   UNL d   1      -0.616   4.247   3.711  0.00  0.00     0.076 C 
BRANCH  12  13
ATOM     13  S   UNL d   1       0.748   4.665   4.831  0.00  0.00    -0.173 SA
ATOM     14  C   UNL d   1       0.434   3.385   6.063  0.00  0.00     0.089 C 
ENDBRANCH  12  13
ENDBRANCH  11  12
ENDBRANCH   6  11
ENDBRANCH   3   6
ENDBRANCH   1   2
BRANCH   1  15
ATOM     15  N   UNL d   1       0.625   1.345  -0.387  0.00  0.00    -0.344 N 
ATOM     16  C   UNL d   1       1.435   1.569   0.707  0.00  0.00     0.255 C 
ATOM     17  O   UNL d   1       1.042   2.136   1.714  0.00  0.00    -0.268 OA
ATOM     18  H   UNL d   1       1.004   0.778  -1.133  0.00  0.00     0.163 HD
BRANCH  16  19
ATOM     19  C   UNL d   1       2.841   1.089   0.585  0.00  0.00     0.065 A 
ATOM     20  C   UNL d   1       3.946   1.837   1.006  0.00  0.00     0.085 A 
ATOM     21  N   UNL d   1       5.221   1.366   0.889  0.00  0.00    -0.360 N 
ATOM     22  C   UNL d   1       5.411   0.137   0.368  0.00  0.00     0.089 A 
ATOM     23  HN  UNL d   1       6.015   1.932   1.189  1.00  0.00     0.166 HD
ATOM     24  C   UNL d   1       4.378  -0.674  -0.057  0.00  0.00     0.018 A 
ATOM     25  C   UNL d   1       3.077  -0.193   0.059  0.00  0.00     0.021 A 
BRANCH  20  26
ATOM     26  S   UNL d   1       3.841   3.514   1.618  0.00  0.00    -0.116 SA
ATOM     27  C   UNL d   1       5.248   3.513   2.767  0.00  0.00     0.097 C 
ENDBRANCH  20  26
ENDBRANCH  16  19
ENDBRANCH   1  15
BRANCH   1  28
ATOM     28  C   UNL d   1      -1.277   1.876  -1.843  0.00  0.00     0.038 C 
BRANCH  28  29
ATOM     29  C   UNL d   1      -0.877   3.292  -2.347  0.00  0.00    -0.020 C 
ATOM     30  C   UNL d   1       0.630   3.491  -2.529  0.00  0.00     0.009 C 
ATOM     31  C   UNL d   1      -1.604   3.607  -3.657  0.00  0.00     0.009 C 
ENDBRANCH  28  29
ENDBRANCH   1  28
TORSDOF 12
