REMARK  3 active torsions:
REMARK  status: ('A' for Active; 'I' for Inactive)
REMARK    1  A    between atoms: C_6  and  C_1 
REMARK    2  A    between atoms: C_7  and  C_3 
REMARK    3  A    between atoms: N_8  and  C_4 
ROOT
ATOM      1  C   UNL d   1      -0.288   1.020   0.001  0.00  0.00     0.077 A 
ATOM      2  S   UNL d   1       1.313   0.390  -0.061  0.00  0.00    -0.084 SA
ATOM      3  C   UNL d   1       0.788  -1.238   0.008  0.00  0.00     0.018 A 
ATOM      4  C   UNL d   1      -1.210  -0.006   0.055  0.00  0.00     0.048 A 
ATOM      5  C   UNL d   1      -0.592  -1.292   0.062  0.00  0.00     0.050 A 
ENDROOT
BRANCH   3   6
ATOM      6  C   UNL d   1       1.764  -2.341  -0.042  0.00  0.00    -0.019 A 
ATOM      7  C   UNL d   1       3.025  -2.244   0.572  0.00  0.00     0.014 A 
ATOM      8  C   UNL d   1       3.951  -3.289   0.489  0.00  0.00     0.024 A 
ATOM      9  C   UNL d   1       3.623  -4.450  -0.204  0.00  0.00     0.034 A 
ATOM     10  C   UNL d   1       2.374  -4.578  -0.804  0.00  0.00     0.024 A 
ATOM     11 CL   UNL d   1       4.766  -5.729  -0.321  0.00  0.00    -0.084 Cl
ATOM     12  C   UNL d   1       1.450  -3.530  -0.722  0.00  0.00     0.014 A 
ENDBRANCH   3   6
BRANCH   1  13
ATOM     13  C   UNL d   1      -0.406   2.476  -0.019  0.00  0.00     0.164 C 
ATOM     14  O   UNL d   1       0.434   3.216  -0.533  0.00  0.00    -0.292 OA
ATOM     15  C   UNL d   1      -1.591   3.133   0.647  0.00  0.00     0.097 C 
ENDBRANCH   1  13
BRANCH   4  16
ATOM     16  N   UNL d   1      -2.554   0.108   0.071  0.00  0.00    -0.398 N 
ATOM     17  H   UNL d   1      -3.050   0.960  -0.172  0.00  0.00     0.156 HD
ATOM     18  H   UNL d   1      -3.148  -0.716  -0.018  0.00  0.00     0.156 HD
ENDBRANCH   4  16
TORSDOF 3
