REMARK  6 active torsions:
REMARK  status: ('A' for Active; 'I' for Inactive)
REMARK       I    between atoms: N_2  and  C_1 
REMARK    1  A    between atoms: C_10  and  C_1 
REMARK    2  A    between atoms: C_3  and  N_2 
REMARK    3  A    between atoms: C_6  and  C_12 
REMARK    4  A    between atoms: O_15  and  C_6 
REMARK    5  A    between atoms: C_14  and  C_10 
REMARK    6  A    between atoms: C_12  and  C_14 
ROOT
ATOM      1  C   UNL d   1       0.886   0.120  -0.642  0.00  0.00     0.222 C 
ATOM      2  N   UNL d   1       0.230  -1.084  -0.426  0.00  0.00    -0.325 N 
ATOM      3  O   UNL d   1       0.399   1.117  -1.159  0.00  0.00    -0.273 OA
ATOM      4  H   UNL d   1       0.642  -1.702   0.264  0.00  0.00     0.169 HD
ENDROOT
BRANCH   1   5
ATOM      5  C   UNL d   1       2.301   0.118  -0.078  0.00  0.00     0.108 C 
BRANCH   5   6
ATOM      6  C   UNL d   1       3.088   1.406  -0.403  0.00  0.00    -0.000 C 
ATOM      7  C   UNL d   1       4.570   1.239  -0.050  0.00  0.00     0.011 C 
BRANCH   6   8
ATOM      8  C   UNL d   1       2.522   2.704   0.214  0.00  0.00     0.114 C 
BRANCH   8   9
ATOM      9  C   UNL d   1       2.385   2.723   1.720  0.00  0.00     0.139 C 
ATOM     10  O   UNL d   1       2.681   1.817   2.479  0.00  0.00    -0.650 OA
BRANCH   9  11
ATOM     11  O   UNL d   1       1.885   3.901   2.171  0.00  0.00    -0.776 OA
ATOM     12  H   UNL d   1       1.669   4.529   1.454  0.00  0.00     0.167 HD
ENDBRANCH   9  11
ENDBRANCH   8   9
ENDBRANCH   6   8
ENDBRANCH   5   6
ENDBRANCH   1   5
BRANCH   2  13
ATOM     13  C   UNL d   1      -1.097  -1.368  -0.828  0.00  0.00     0.073 A 
ATOM     14  C   UNL d   1      -1.757  -0.743  -1.900  0.00  0.00     0.145 A 
ATOM     15  C   UNL d   1      -3.097  -1.001  -2.173  0.00  0.00     0.086 A 
ATOM     16  F   UNL d   1      -1.107   0.057  -2.755  0.00  0.00    -0.204 F 
ATOM     17  C   UNL d   1      -3.781  -1.917  -1.392  0.00  0.00     0.119 A 
ATOM     18  C   UNL d   1      -3.138  -2.603  -0.368  0.00  0.00     0.044 A 
ATOM     19  F   UNL d   1      -5.075  -2.159  -1.638  0.00  0.00    -0.206 F 
ATOM     20  C   UNL d   1      -1.793  -2.338  -0.092  0.00  0.00     0.036 A 
ENDBRANCH   2  13
TORSDOF 6
