REMARK  6 active torsions:
REMARK  status: ('A' for Active; 'I' for Inactive)
REMARK    1  A    between atoms: N_4  and  C_1 
REMARK    2  A    between atoms: N_2  and  N_4 
REMARK    3  A    between atoms: C_5  and  N_2 
REMARK    4  A    between atoms: C_7  and  C_5 
REMARK    5  A    between atoms: C_14  and  C_11 
REMARK    6  A    between atoms: C_16  and  C_14 
ROOT
ATOM      1  C   UNL d   1       0.417   3.293   1.691  0.00  0.00     0.032 C 
ATOM      2  C   UNL d   1       1.084   4.647   1.527  0.00  0.00     0.070 C 
ENDROOT
BRANCH   1   3
ATOM      3  N   UNL d   1       1.041   2.156   1.834  0.00  0.00    -0.302 N 
ATOM      4  HN  UNL d   1       0.507   1.292   1.933  1.00  0.00     0.186 HD
BRANCH   3   5
ATOM      5  N   UNL d   1       2.402   2.116   1.853  0.00  0.00    -0.276 N 
ATOM      6  H   UNL d   1       2.963   2.950   1.755  0.00  0.00     0.189 HD
BRANCH   5   7
ATOM      7  C   UNL d   1       3.079   0.943   2.037  0.00  0.00     0.184 C 
ATOM      8  S   UNL d   1       4.737   0.881   2.092  0.00  0.00    -0.040 SA
ATOM      9  N   UNL d   1       2.318  -0.166   2.176  0.00  0.00    -0.375 N 
ATOM     10  H   UNL d   1       1.315  -0.045   2.109  0.00  0.00     0.158 HD
ATOM     11  H   UNL d   1       2.725  -1.080   2.303  0.00  0.00     0.158 HD
ENDBRANCH   5   7
ENDBRANCH   3   5
ENDBRANCH   1   3
BRANCH   1  12
ATOM     12  C   UNL d   1      -1.093   3.275   1.703  0.00  0.00    -0.013 A 
ATOM     13  C   UNL d   1      -1.764   2.061   1.898  0.00  0.00     0.014 A 
ATOM     14  C   UNL d   1      -3.160   2.019   1.971  0.00  0.00     0.008 A 
ATOM     15  C   UNL d   1      -3.917   3.190   1.852  0.00  0.00    -0.058 A 
ATOM     16  C   UNL d   1      -3.249   4.401   1.639  0.00  0.00     0.008 A 
ATOM     17  C   UNL d   1      -1.851   4.443   1.557  0.00  0.00     0.014 A 
BRANCH  15  18
ATOM     18  C   UNL d   1      -5.422   3.144   2.001  0.00  0.00     0.042 C 
BRANCH  18  19
ATOM     19  C   UNL d   1      -6.217   3.681   0.795  0.00  0.00    -0.019 C 
ATOM     20  C   UNL d   1      -5.968   2.864  -0.474  0.00  0.00     0.010 C 
ATOM     21  C   UNL d   1      -7.715   3.679   1.119  0.00  0.00     0.010 C 
ENDBRANCH  18  19
ENDBRANCH  15  18
ENDBRANCH   1  12
TORSDOF 6
