REMARK  2 active torsions:
REMARK  status: ('A' for Active; 'I' for Inactive)
REMARK    1  A    between atoms: N_2  and  C_1 
REMARK    2  A    between atoms: C_9  and  C_4 
ROOT
ATOM      1  C   UNL d   1       2.362  -0.839  -0.028  0.00  0.00     0.115 C 
ATOM      2  C   UNL d   1       1.227  -1.547  -0.049  0.00  0.00     0.049 C 
ATOM      3  C   UNL d   1       2.462   0.651   0.033  0.00  0.00     0.218 C 
ATOM      4  O   UNL d   1       1.189   1.348  -0.059  0.00  0.00    -0.334 OA
ATOM      5  C   UNL d   1      -0.010  -0.781  -0.018  0.00  0.00     0.001 A 
ATOM      6  C   UNL d   1       0.032   0.619  -0.027  0.00  0.00     0.080 A 
ATOM      7  C   UNL d   1      -1.248  -1.435  -0.001  0.00  0.00     0.038 A 
ATOM      8  C   UNL d   1      -1.154   1.357  -0.014  0.00  0.00     0.039 A 
ATOM      9  C   UNL d   1      -2.427  -0.691   0.008  0.00  0.00     0.035 A 
ATOM     10  C   UNL d   1      -2.386   0.702   0.004  0.00  0.00     0.026 A 
ATOM     11 CL   UNL d   1      -3.945  -1.501   0.020  0.00  0.00    -0.084 Cl
ENDROOT
BRANCH   3  12
ATOM     12  C   UNL d   1       3.130   1.169   1.304  0.00  0.00    -0.023 A 
ATOM     13  C   UNL d   1       4.314   1.922   1.230  0.00  0.00     0.012 A 
ATOM     14  C   UNL d   1       4.921   2.409   2.392  0.00  0.00     0.024 A 
ATOM     15  C   UNL d   1       4.349   2.151   3.635  0.00  0.00     0.034 A 
ATOM     16  C   UNL d   1       3.176   1.407   3.728  0.00  0.00     0.024 A 
ATOM     17 CL   UNL d   1       5.092   2.755   5.064  0.00  0.00    -0.084 Cl
ATOM     18  C   UNL d   1       2.569   0.917   2.569  0.00  0.00     0.012 A 
ENDBRANCH   3  12
BRANCH   1  19
ATOM     19  N   UNL d   1       3.612  -1.560  -0.126  0.00  0.00    -0.117 N 
ATOM     20  O   UNL d   1       3.651  -2.719   0.307  0.00  0.00    -0.532 OA
ATOM     21  O   UNL d   1       4.562  -0.972  -0.660  0.00  0.00    -0.532 OA
ENDBRANCH   1  19
TORSDOF 2
