REMARK  7 active torsions:
REMARK  status: ('A' for Active; 'I' for Inactive)
REMARK    1  A    between atoms: C_19  and  N_2 
REMARK    2  A    between atoms: S_4  and  O_15 
REMARK    3  A    between atoms: N_16  and  S_4 
REMARK    4  A    between atoms: C_21  and  C_10 
REMARK    5  A    between atoms: C_20  and  C_11 
REMARK    6  A    between atoms: O_15  and  C_24 
REMARK    7  A    between atoms: C_25  and  C_19 
ROOT
ATOM      1  C   UNL d   1      -0.566  -1.214   0.076  0.00  0.00     0.106 A 
ATOM      2  N   UNL d   1       0.736  -0.788   0.116  0.00  0.00    -0.284 N 
ATOM      3  C   UNL d   1      -1.045  -2.553   0.011  0.00  0.00     0.200 A 
ATOM      4  N   UNL d   1      -2.166  -2.849  -0.608  0.00  0.00    -0.317 N 
ATOM      5  HN  UNL d   1      -2.786  -2.225  -1.124  1.00  0.00     0.169 HD
ATOM      6  N   UNL d   1       0.843   0.566   0.102  0.00  0.00    -0.301 N 
ATOM      7  HN  UNL d   1       1.699   1.122   0.114  1.00  0.00     0.187 HD
ATOM      8  C   UNL d   1      -1.330  -0.066   0.054  0.00  0.00     0.063 A 
ATOM      9  C   UNL d   1      -2.303  -4.198  -0.396  0.00  0.00     0.138 A 
ATOM     10  C   UNL d   1      -0.418   1.012   0.070  0.00  0.00     0.036 A 
ATOM     11  N   UNL d   1      -1.310  -4.738   0.328  0.00  0.00    -0.242 N 
ATOM     12  HN  UNL d   1      -1.198  -5.709   0.621  1.00  0.00     0.196 HD
ATOM     13  O   UNL d   1      -0.464  -3.651   0.585  0.00  0.00    -0.215 OA
ENDROOT
BRANCH   2  14
ATOM     14  C   UNL d   1       1.963  -1.573   0.007  0.00  0.00     0.187 C 
BRANCH  14  15
ATOM     15  C   UNL d   1       2.506  -1.989   1.352  0.00  0.00    -0.038 A 
ATOM     16  C   UNL d   1       2.746  -3.343   1.628  0.00  0.00     0.009 A 
ATOM     17  C   UNL d   1       3.241  -3.736   2.873  0.00  0.00     0.001 A 
ATOM     18  C   UNL d   1       3.513  -2.782   3.851  0.00  0.00     0.000 A 
ATOM     19  C   UNL d   1       3.312  -1.431   3.578  0.00  0.00     0.001 A 
ATOM     20  C   UNL d   1       2.821  -1.036   2.333  0.00  0.00     0.009 A 
ENDBRANCH  14  15
ENDBRANCH   2  14
BRANCH   9  21
ATOM     21  C   UNL d   1      -3.446  -4.922  -0.935  0.00  0.00     0.010 A 
ATOM     22  C   UNL d   1      -4.060  -4.468  -2.113  0.00  0.00     0.018 A 
ATOM     23  C   UNL d   1      -5.202  -5.099  -2.614  0.00  0.00     0.039 A 
ATOM     24  C   UNL d   1      -5.760  -6.179  -1.928  0.00  0.00     0.090 A 
ATOM     25  C   UNL d   1      -5.127  -6.671  -0.785  0.00  0.00     0.039 A 
ATOM     26  C   UNL d   1      -3.978  -6.042  -0.287  0.00  0.00     0.018 A 
BRANCH  24  27
ATOM     27  O   UNL d   1      -6.926  -6.689  -2.446  0.00  0.00    -0.221 OA
BRANCH  27  28
ATOM     28  S   UNL d   1      -8.044  -7.382  -1.478  0.00  0.00     0.344 S 
ATOM     29  O   UNL d   1      -7.745  -8.794  -1.381  0.00  0.00    -0.180 OA
ATOM     30  O   UNL d   1      -8.197  -6.575  -0.281  0.00  0.00    -0.180 OA
BRANCH  28  31
ATOM     31  N   UNL d   1      -9.502  -7.223  -2.349  0.00  0.00    -0.196 NA
ATOM     32  C   UNL d   1      -9.932  -5.835  -2.591  0.00  0.00     0.131 C 
ATOM     33  C   UNL d   1      -9.644  -8.094  -3.524  0.00  0.00     0.131 C 
ENDBRANCH  28  31
ENDBRANCH  27  28
ENDBRANCH  24  27
ENDBRANCH   9  21
BRANCH  10  34
ATOM     34  C   UNL d   1      -0.753   2.493   0.028  0.00  0.00    -0.007 C 
ATOM     35  C   UNL d   1      -1.593   2.875   1.264  0.00  0.00     0.021 C 
ATOM     36  C   UNL d   1       0.511   3.375   0.014  0.00  0.00     0.021 C 
ATOM     37  C   UNL d   1      -1.569   2.808  -1.243  0.00  0.00     0.021 C 
ENDBRANCH  10  34
TORSDOF 7
