REMARK  0 active torsions:
REMARK  status: ('A' for Active; 'I' for Inactive)
ROOT
ATOM      1  C   UNL d   1      -0.080   0.543  -0.199  0.00  0.00     0.141 A 
ATOM      2  C   UNL d   1      -0.189  -0.854  -0.225  0.00  0.00     0.120 A 
ATOM      3  N   UNL d   1       1.156   1.191  -0.228  0.00  0.00    -0.339 N 
ATOM      4  S   UNL d   1       1.218  -1.931  -0.343  0.00  0.00    -0.067 SA
ATOM      5  N   UNL d   1      -1.183   1.328  -0.116  0.00  0.00    -0.338 N 
ATOM      6  HN  UNL d   1      -1.112   2.345  -0.114  1.00  0.00     0.167 HD
ATOM      7  N   UNL d   1      -1.388  -1.484  -0.152  0.00  0.00    -0.346 N 
ATOM      8  HN  UNL d   1      -1.459  -2.501  -0.177  1.00  0.00     0.167 HD
ATOM      9  C   UNL d   1      -2.379   0.706  -0.034  0.00  0.00     0.062 A 
ATOM     10  C   UNL d   1       2.417   0.595  -0.082  0.00  0.00     0.051 A 
ATOM     11  C   UNL d   1       2.580  -0.804  -0.097  0.00  0.00     0.034 A 
ATOM     12  C   UNL d   1      -2.472  -0.707  -0.046  0.00  0.00     0.060 A 
ATOM     13  C   UNL d   1      -3.546   1.452   0.076  0.00  0.00     0.055 A 
ATOM     14  C   UNL d   1      -3.715  -1.316   0.062  0.00  0.00     0.033 A 
ATOM     15  C   UNL d   1      -4.788   0.827   0.184  0.00  0.00     0.036 A 
ATOM     16  C   UNL d   1      -4.879  -0.559   0.180  0.00  0.00     0.026 A 
ATOM     17 CL   UNL d   1      -6.217   1.772   0.328  0.00  0.00    -0.084 Cl
ATOM     18  C   UNL d   1       3.551   1.403   0.083  0.00  0.00     0.031 A 
ATOM     19  C   UNL d   1       3.853  -1.364   0.080  0.00  0.00     0.021 A 
ATOM     20  C   UNL d   1       4.966  -0.547   0.268  0.00  0.00     0.002 A 
ATOM     21  C   UNL d   1       4.816   0.836   0.264  0.00  0.00     0.002 A 
ATOM     22  H   UNL d   1       1.074   2.195  -0.149  0.00  0.00     0.167 HD
ENDROOT
TORSDOF 0
