REMARK  5 active torsions:
REMARK  status: ('A' for Active; 'I' for Inactive)
REMARK    1  A    between atoms: C_7  and  N_1 
REMARK    2  A    between atoms: N_18  and  C_4 
REMARK    3  A    between atoms: C_12  and  C_5 
REMARK    4  A    between atoms: C_8  and  C_10 
REMARK    5  A    between atoms: C_9  and  C_11 
ROOT
ATOM      1  N   UNL d   1       0.891  -0.658   0.053  0.00  0.00    -0.240 N 
ATOM      2  N   UNL d   1      -0.260  -1.173  -0.461  0.00  0.00    -0.289 N 
ATOM      3  HN  UNL d   1      -0.374  -2.032  -0.998  1.00  0.00     0.188 HD
ATOM      4  C   UNL d   1       0.678   0.611   0.607  0.00  0.00     0.123 A 
ATOM      5  C   UNL d   1      -1.208  -0.300  -0.104  0.00  0.00     0.086 A 
ATOM      6  C   UNL d   1      -0.676   0.831   0.543  0.00  0.00     0.083 A 
ENDROOT
BRANCH   1   7
ATOM      7  C   UNL d   1       2.101  -1.404  -0.037  0.00  0.00     0.060 A 
ATOM      8  C   UNL d   1       2.250  -2.356  -1.057  0.00  0.00     0.047 A 
ATOM      9  C   UNL d   1       3.458  -3.055  -1.212  0.00  0.00     0.051 A 
ATOM     10  C   UNL d   1       4.500  -2.823  -0.298  0.00  0.00     0.032 A 
ATOM     11  C   UNL d   1       4.352  -1.907   0.756  0.00  0.00     0.051 A 
ATOM     12  C   UNL d   1       3.144  -1.203   0.879  0.00  0.00     0.047 A 
BRANCH   9  13
ATOM     13  C   UNL d   1       3.661  -4.021  -2.356  0.00  0.00     0.417 C 
ATOM     14  F   UNL d   1       2.596  -4.113  -3.197  0.00  0.00    -0.166 F 
ATOM     15  F   UNL d   1       4.723  -3.674  -3.136  0.00  0.00    -0.166 F 
ATOM     16  F   UNL d   1       3.914  -5.288  -1.927  0.00  0.00    -0.166 F 
ENDBRANCH   9  13
BRANCH  11  17
ATOM     17  C   UNL d   1       5.482  -1.685   1.736  0.00  0.00     0.417 C 
ATOM     18  F   UNL d   1       5.219  -0.716   2.656  0.00  0.00    -0.166 F 
ATOM     19  F   UNL d   1       5.787  -2.805   2.444  0.00  0.00    -0.166 F 
ATOM     20  F   UNL d   1       6.633  -1.305   1.116  0.00  0.00    -0.166 F 
ENDBRANCH  11  17
ENDBRANCH   1   7
BRANCH   4  21
ATOM     21  N   UNL d   1       1.644   1.457   1.053  0.00  0.00    -0.384 N 
ATOM     22  H   UNL d   1       2.586   1.399   0.673  0.00  0.00     0.157 HD
ATOM     23  H   UNL d   1       1.389   2.424   1.254  0.00  0.00     0.157 HD
ENDBRANCH   4  21
BRANCH   5  24
ATOM     24  C   UNL d   1      -2.658  -0.510  -0.378  0.00  0.00     0.103 A 
ATOM     25  O   UNL d   1      -3.638   0.405  -0.099  0.00  0.00    -0.320 OA
ATOM     26  C   UNL d   1      -4.821  -0.144  -0.473  0.00  0.00     0.142 A 
ATOM     27  C   UNL d   1      -4.629  -1.406  -0.980  0.00  0.00     0.027 A 
ATOM     28  C   UNL d   1      -3.233  -1.641  -0.925  0.00  0.00     0.041 A 
ENDBRANCH   5  24
TORSDOF 5
