REMARK  6 active torsions:
REMARK  status: ('A' for Active; 'I' for Inactive)
REMARK    1  A    between atoms: C_5  and  C_1 
REMARK    2  A    between atoms: N_4  and  C_2 
REMARK    3  A    between atoms: C_3  and  N_4 
REMARK    4  A    between atoms: N_9  and  C_3 
REMARK    5  A    between atoms: O_13  and  C_5 
REMARK    6  A    between atoms: C_12  and  N_9 
ROOT
ATOM      1  C   UNL d   1       2.940   2.406  -0.804  0.00  0.00     0.176 C 
ATOM      2  S   UNL d   1       4.487   2.884  -0.391  0.00  0.00    -0.041 SA
ENDROOT
BRANCH   1   3
ATOM      3  N   UNL d   1       2.501   1.117  -1.044  0.00  0.00    -0.332 N 
ATOM      4  H   UNL d   1       1.596   0.949  -0.620  0.00  0.00     0.168 HD
BRANCH   3   5
ATOM      5  C   UNL d   1       3.253  -0.025  -1.292  0.00  0.00     0.058 C 
ATOM      6  C   UNL d   1       4.258  -0.194  -2.236  0.00  0.00     0.106 C 
ATOM      7  S   UNL d   1       4.921  -1.787  -2.133  0.00  0.00    -0.094 SA
ATOM      8  C   UNL d   1       3.761  -2.286  -0.995  0.00  0.00     0.053 C 
ATOM      9  C   UNL d   1       2.921  -1.258  -0.643  0.00  0.00     0.038 C 
BRANCH   6  10
ATOM     10  C   UNL d   1       4.681   0.703  -3.305  0.00  0.00     0.302 C 
ATOM     11  O   UNL d   1       4.085   1.713  -3.667  0.00  0.00    -0.259 OA
BRANCH  10  12
ATOM     12  O   UNL d   1       5.791   0.222  -3.945  0.00  0.00    -0.322 OA
ATOM     13  C   UNL d   1       6.160   0.913  -5.139  0.00  0.00     0.213 C 
ENDBRANCH  10  12
ENDBRANCH   6  10
ENDBRANCH   3   5
ENDBRANCH   1   3
BRANCH   1  14
ATOM     14  N   UNL d   1       1.909   3.328  -0.716  0.00  0.00    -0.333 N 
ATOM     15  H   UNL d   1       2.103   4.159  -0.171  0.00  0.00     0.168 HD
BRANCH  14  16
ATOM     16  C   UNL d   1       0.665   3.259  -1.382  0.00  0.00     0.034 A 
ATOM     17  C   UNL d   1      -0.445   3.885  -0.817  0.00  0.00     0.030 A 
ATOM     18  C   UNL d   1      -1.693   3.792  -1.444  0.00  0.00     0.009 A 
ATOM     19  C   UNL d   1      -1.829   3.124  -2.668  0.00  0.00    -0.062 A 
ATOM     20  C   UNL d   1      -0.705   2.532  -3.247  0.00  0.00     0.009 A 
ATOM     21  C   UNL d   1      -3.171   2.995  -3.333  0.00  0.00     0.048 C 
ATOM     22  C   UNL d   1       0.532   2.602  -2.609  0.00  0.00     0.030 A 
ENDBRANCH  14  16
ENDBRANCH   1  14
TORSDOF 6
