REMARK  3 active torsions:
REMARK  status: ('A' for Active; 'I' for Inactive)
REMARK    1  A    between atoms: C_11  and  C_3 
REMARK    2  A    between atoms: C_7  and  C_4 
REMARK    3  A    between atoms: C_8  and  C_14 
ROOT
ATOM      1  N   UNL d   1       1.300  -0.583   0.421  0.00  0.00    -0.349 N 
ATOM      2  HN  UNL d   1       2.085  -1.088   0.832  1.00  0.00     0.166 HD
ATOM      3  C   UNL d   1       0.229  -1.154  -0.099  0.00  0.00     0.084 A 
ATOM      4  C   UNL d   1       1.210   0.798   0.332  0.00  0.00     0.050 A 
ATOM      5  S   UNL d   1      -0.948  -0.046  -0.706  0.00  0.00    -0.081 SA
ATOM      6  C   UNL d   1       0.056   1.265  -0.263  0.00  0.00     0.082 A 
ENDROOT
BRANCH   3   7
ATOM      7  C   UNL d   1      -0.025  -2.607  -0.127  0.00  0.00    -0.002 A 
ATOM      8  C   UNL d   1       0.513  -3.421   0.880  0.00  0.00     0.015 A 
ATOM      9  C   UNL d   1       0.258  -4.798   0.909  0.00  0.00     0.010 A 
ATOM     10  C   UNL d   1      -0.534  -5.410  -0.077  0.00  0.00    -0.035 A 
ATOM     11  C   UNL d   1      -1.053  -4.600  -1.097  0.00  0.00     0.010 A 
ATOM     12  C   UNL d   1      -0.797  -3.222  -1.124  0.00  0.00     0.015 A 
BRANCH  10  13
ATOM     13  C   UNL d   1      -0.818  -6.896  -0.000  0.00  0.00     0.141 C 
ATOM     14  S   UNL d   1      -0.357  -7.810  -1.501  0.00  0.00    -0.148 SA
ATOM     15  C   UNL d   1      -1.470  -9.196  -1.184  0.00  0.00     0.085 C 
ATOM     16  C   UNL d   1      -2.811  -8.610  -0.786  0.00  0.00     0.085 C 
ATOM     17  S   UNL d   1      -2.563  -7.256   0.403  0.00  0.00    -0.148 SA
ENDBRANCH  10  13
ENDBRANCH   3   7
BRANCH   4  18
ATOM     18  C   UNL d   1       2.282   1.666   0.810  0.00  0.00    -0.006 A 
ATOM     19  C   UNL d   1       3.606   1.206   0.789  0.00  0.00     0.059 A 
ATOM     20  C   UNL d   1       4.640   2.035   1.215  0.00  0.00     0.155 A 
ATOM     21  F   UNL d   1       5.903   1.588   1.172  0.00  0.00    -0.203 F 
ATOM     22  C   UNL d   1       4.372   3.319   1.674  0.00  0.00     0.154 A 
ATOM     23  C   UNL d   1       3.066   3.789   1.719  0.00  0.00     0.046 A 
ATOM     24  F   UNL d   1       5.370   4.116   2.079  0.00  0.00    -0.203 F 
ATOM     25  C   UNL d   1       2.022   2.964   1.289  0.00  0.00     0.017 A 
ENDBRANCH   4  18
TORSDOF 3
