REMARK  10 active torsions:
REMARK  status: ('A' for Active; 'I' for Inactive)
REMARK    1  A    between atoms: C_6  and  C_1 
REMARK    2  A    between atoms: C_7  and  C_1 
REMARK    3  A    between atoms: C_12  and  C_1 
REMARK    4  A    between atoms: O_32  and  C_1 
REMARK    5  A    between atoms: C_2  and  C_8 
REMARK    6  A    between atoms: C_3  and  C_9 
REMARK    7  A    between atoms: C_4  and  C_10 
REMARK    8  A    between atoms: C_5  and  C_11 
REMARK    9  A    between atoms: O_33  and  C_12 
REMARK   10  A    between atoms: C_34  and  O_33 
ROOT
ATOM      1  C   UNL d   1       0.972   0.113  -0.093  0.00  0.00     0.201 C 
ENDROOT
BRANCH   1   2
ATOM      2  C   UNL d   1       0.668  -0.963   0.976  0.00  0.00    -0.008 A 
ATOM      3  C   UNL d   1      -0.650  -1.287   1.350  0.00  0.00     0.027 A 
ATOM      4  C   UNL d   1      -0.929  -2.366   2.215  0.00  0.00     0.049 A 
ATOM      5  C   UNL d   1       0.135  -3.104   2.759  0.00  0.00     0.032 A 
ATOM      6  C   UNL d   1       1.457  -2.816   2.409  0.00  0.00     0.049 A 
ATOM      7  C   UNL d   1       1.702  -1.772   1.503  0.00  0.00     0.027 A 
BRANCH   4   8
ATOM      8  C   UNL d   1      -2.349  -2.780   2.534  0.00  0.00     0.417 C 
ATOM      9  F   UNL d   1      -3.293  -2.047   1.880  0.00  0.00    -0.166 F 
ATOM     10  F   UNL d   1      -2.593  -4.080   2.213  0.00  0.00    -0.166 F 
ATOM     11  F   UNL d   1      -2.634  -2.662   3.860  0.00  0.00    -0.166 F 
ENDBRANCH   4   8
BRANCH   6  12
ATOM     12  C   UNL d   1       2.598  -3.627   2.983  0.00  0.00     0.417 C 
ATOM     13  F   UNL d   1       3.817  -3.269   2.489  0.00  0.00    -0.166 F 
ATOM     14  F   UNL d   1       2.693  -3.494   4.334  0.00  0.00    -0.166 F 
ATOM     15  F   UNL d   1       2.471  -4.958   2.741  0.00  0.00    -0.166 F 
ENDBRANCH   6  12
ENDBRANCH   1   2
BRANCH   1  16
ATOM     16  C   UNL d   1       0.398   1.524   0.171  0.00  0.00    -0.008 A 
ATOM     17  C   UNL d   1       1.198   2.521   0.769  0.00  0.00     0.027 A 
ATOM     18  C   UNL d   1       0.819   3.872   0.794  0.00  0.00     0.049 A 
ATOM     19  C   UNL d   1      -0.434   4.229   0.282  0.00  0.00     0.032 A 
ATOM     20  C   UNL d   1      -1.292   3.258  -0.259  0.00  0.00     0.049 A 
ATOM     21  C   UNL d   1      -0.872   1.913  -0.302  0.00  0.00     0.027 A 
BRANCH  18  22
ATOM     22  C   UNL d   1       1.783   4.935   1.273  0.00  0.00     0.417 C 
ATOM     23  F   UNL d   1       2.961   4.428   1.734  0.00  0.00    -0.166 F 
ATOM     24  F   UNL d   1       2.118   5.808   0.283  0.00  0.00    -0.166 F 
ATOM     25  F   UNL d   1       1.276   5.687   2.286  0.00  0.00    -0.166 F 
ENDBRANCH  18  22
BRANCH  20  26
ATOM     26  C   UNL d   1      -2.621   3.689  -0.849  0.00  0.00     0.417 C 
ATOM     27  F   UNL d   1      -3.339   2.665  -1.376  0.00  0.00    -0.166 F 
ATOM     28  F   UNL d   1      -3.425   4.285   0.072  0.00  0.00    -0.166 F 
ATOM     29  F   UNL d   1      -2.462   4.598  -1.852  0.00  0.00    -0.166 F 
ENDBRANCH  20  26
ENDBRANCH   1  16
BRANCH   1  30
ATOM     30  C   UNL d   1       0.556  -0.405  -1.510  0.00  0.00     0.303 C 
ATOM     31  O   UNL d   1      -0.287  -1.272  -1.733  0.00  0.00    -0.261 OA
BRANCH  30  32
ATOM     32  O   UNL d   1       1.273   0.231  -2.486  0.00  0.00    -0.319 OA
BRANCH  32  33
ATOM     33  C   UNL d   1       1.334  -0.444  -3.746  0.00  0.00     0.174 C 
ATOM     34  C   UNL d   1       2.415  -1.508  -3.664  0.00  0.00     0.034 C 
ENDBRANCH  32  33
ENDBRANCH  30  32
ENDBRANCH   1  30
BRANCH   1  35
ATOM     35  O   UNL d   1       2.413   0.284  -0.171  0.00  0.00    -0.371 OA
ATOM     36  H   UNL d   1       2.753   0.329   0.735  0.00  0.00     0.212 HD
ENDBRANCH   1  35
TORSDOF 10
