REMARK  2 active torsions:
REMARK  status: ('A' for Active; 'I' for Inactive)
REMARK    1  A    between atoms: C_3  and  C_1 
REMARK       I    between atoms: N_11  and  C_1 
REMARK    2  A    between atoms: C_2  and  C_4 
ROOT
ATOM      1  C   UNL d   1       0.260   1.133  -0.474  0.00  0.00     0.031 A 
ATOM      2  C   UNL d   1      -1.228   3.421  -1.266  0.00  0.00    -0.023 A 
ATOM      3  C   UNL d   1       0.675   1.903  -1.562  0.00  0.00     0.018 A 
ATOM      4  C   UNL d   1      -0.881   1.510   0.234  0.00  0.00     0.018 A 
ATOM      5  C   UNL d   1      -1.618   2.631  -0.168  0.00  0.00     0.013 A 
ATOM      6  C   UNL d   1      -0.060   3.031  -1.950  0.00  0.00     0.013 A 
ENDROOT
BRANCH   2   7
ATOM      7  C   UNL d   1      -2.014   4.610  -1.683  0.00  0.00     0.013 A 
ATOM      8  C   UNL d   1      -2.679   5.437  -0.758  0.00  0.00     0.127 A 
ATOM      9  F   UNL d   1      -2.601   5.192   0.560  0.00  0.00    -0.205 F 
ATOM     10  C   UNL d   1      -3.433   6.543  -1.155  0.00  0.00     0.043 A 
ATOM     11  C   UNL d   1      -3.533   6.868  -2.502  0.00  0.00     0.003 A 
ATOM     12  C   UNL d   1      -2.882   6.080  -3.446  0.00  0.00     0.001 A 
ATOM     13  C   UNL d   1      -2.139   4.963  -3.042  0.00  0.00     0.015 A 
ENDBRANCH   2   7
BRANCH   1  14
ATOM     14  C   UNL d   1       1.060  -0.059  -0.094  0.00  0.00     0.249 C 
ATOM     15  O   UNL d   1       2.248  -0.155  -0.375  0.00  0.00    -0.268 OA
ATOM     16  N   UNL d   1       0.402  -1.071   0.547  0.00  0.00    -0.366 N 
ATOM     17  H   UNL d   1      -0.606  -1.134   0.567  0.00  0.00     0.159 HD
ATOM     18  H   UNL d   1       0.929  -1.921   0.702  0.00  0.00     0.159 HD
ENDBRANCH   1  14
TORSDOF 2
