REMARK  2 active torsions:
REMARK  status: ('A' for Active; 'I' for Inactive)
REMARK    1  A    between atoms: C_9  and  C_1 
REMARK    2  A    between atoms: N_3  and  C_8 
ROOT
ATOM      1  C   UNL d   1       2.572   1.435  -0.042  0.00  0.00     0.051 A 
ATOM      2  C   UNL d   1       3.029   0.017  -0.048  0.00  0.00     0.299 A 
ATOM      3  C   UNL d   1       1.266   1.748  -0.018  0.00  0.00     0.032 A 
ATOM      4  O   UNL d   1       2.039  -0.961  -0.031  0.00  0.00    -0.274 OA
ATOM      5  C   UNL d   1       0.259   0.699  -0.004  0.00  0.00     0.001 A 
ATOM      6  C   UNL d   1       0.672  -0.631  -0.013  0.00  0.00     0.089 A 
ATOM      7  O   UNL d   1       4.218  -0.283  -0.067  0.00  0.00    -0.259 OA
ATOM      8  C   UNL d   1      -1.108   0.982   0.011  0.00  0.00     0.038 A 
ATOM      9  C   UNL d   1      -0.241  -1.683  -0.008  0.00  0.00     0.040 A 
ATOM     10  C   UNL d   1      -2.033  -0.067   0.015  0.00  0.00     0.035 A 
ATOM     11  C   UNL d   1      -1.606  -1.396   0.005  0.00  0.00     0.026 A 
ATOM     12 CL   UNL d   1      -3.717   0.285   0.028  0.00  0.00    -0.084 Cl
ENDROOT
BRANCH   1  13
ATOM     13  C   UNL d   1       3.556   2.529  -0.065  0.00  0.00    -0.020 A 
ATOM     14  C   UNL d   1       4.060   3.051   1.135  0.00  0.00     0.015 A 
ATOM     15  C   UNL d   1       4.980   4.103   1.118  0.00  0.00     0.037 A 
ATOM     16  C   UNL d   1       5.398   4.636  -0.109  0.00  0.00     0.102 A 
ATOM     17  C   UNL d   1       4.903   4.120  -1.314  0.00  0.00     0.037 A 
ATOM     18  C   UNL d   1       3.982   3.068  -1.288  0.00  0.00     0.015 A 
BRANCH  16  19
ATOM     19  N   UNL d   1       6.356   5.748  -0.131  0.00  0.00    -0.116 N 
ATOM     20  O   UNL d   1       6.699   6.192  -1.237  0.00  0.00    -0.532 OA
ATOM     21  O   UNL d   1       6.759   6.184   0.957  0.00  0.00    -0.532 OA
ENDBRANCH  16  19
ENDBRANCH   1  13
TORSDOF 2
