REMARK  7 active torsions:
REMARK  status: ('A' for Active; 'I' for Inactive)
REMARK    1  A    between atoms: O_4  and  C_1 
REMARK    2  A    between atoms: C_3  and  C_2 
REMARK       I    between atoms: N_8  and  C_3 
REMARK    3  A    between atoms: C_10  and  O_4 
REMARK    4  A    between atoms: C_19  and  N_8 
REMARK    5  A    between atoms: C_9  and  S_11 
REMARK    6  A    between atoms: S_11  and  C_20 
REMARK    7  A    between atoms: C_20  and  C_19 
ROOT
ATOM      1  C   UNL d   1      -0.577   1.118   0.325  0.00  0.00     0.163 A 
ATOM      2  C   UNL d   1       0.812   1.224   0.253  0.00  0.00     0.083 A 
ATOM      3  N   UNL d   1      -1.226  -0.077   0.225  0.00  0.00    -0.346 N 
ATOM      4  HN  UNL d   1      -2.235  -0.137   0.365  1.00  0.00     0.167 HD
ATOM      5  C   UNL d   1       1.530   0.053  -0.053  0.00  0.00     0.023 A 
ATOM      6  C   UNL d   1      -0.505  -1.176  -0.064  0.00  0.00     0.090 A 
ATOM      7  C   UNL d   1       0.863  -1.157  -0.239  0.00  0.00     0.018 A 
ENDROOT
BRANCH   2   8
ATOM      8  C   UNL d   1       1.561   2.460   0.613  0.00  0.00     0.255 C 
ATOM      9  O   UNL d   1       1.086   3.267   1.407  0.00  0.00    -0.268 OA
ATOM     10  N   UNL d   1       2.838   2.590   0.088  0.00  0.00    -0.356 N 
ATOM     11  H   UNL d   1       3.082   2.087  -0.758  0.00  0.00     0.162 HD
BRANCH  10  12
ATOM     12  C   UNL d   1       3.719   3.682   0.474  0.00  0.00     0.133 C 
BRANCH  12  13
ATOM     13  C   UNL d   1       5.208   3.329   0.342  0.00  0.00     0.099 C 
BRANCH  13  14
ATOM     14  S   UNL d   1       5.649   2.975  -1.400  0.00  0.00    -0.128 SA
BRANCH  14  15
ATOM     15  C   UNL d   1       7.402   2.611  -1.333  0.00  0.00     0.000 A 
ATOM     16  C   UNL d   1       8.182   2.609  -0.174  0.00  0.00     0.019 A 
ATOM     17  C   UNL d   1       9.546   2.291  -0.230  0.00  0.00     0.008 A 
ATOM     18  C   UNL d   1      10.156   1.970  -1.447  0.00  0.00    -0.062 A 
ATOM     19  C   UNL d   1       9.384   1.978  -2.610  0.00  0.00     0.008 A 
ATOM     20  C   UNL d   1      11.614   1.620  -1.488  0.00  0.00     0.048 C 
ATOM     21  C   UNL d   1       8.021   2.296  -2.551  0.00  0.00     0.019 A 
ENDBRANCH  14  15
ENDBRANCH  13  14
ENDBRANCH  12  13
ENDBRANCH  10  12
ENDBRANCH   2   8
BRANCH   1  22
ATOM     22  O   UNL d   1      -1.378   2.263   0.416  0.00  0.00    -0.293 OA
BRANCH  22  23
ATOM     23  C   UNL d   1      -2.647   2.166  -0.137  0.00  0.00     0.077 A 
ATOM     24  C   UNL d   1      -3.719   2.728   0.555  0.00  0.00     0.037 A 
ATOM     25  C   UNL d   1      -5.026   2.561   0.075  0.00  0.00     0.003 A 
ATOM     26  C   UNL d   1      -5.261   1.838  -1.097  0.00  0.00     0.000 A 
ATOM     27  C   UNL d   1      -4.188   1.329  -1.822  0.00  0.00     0.003 A 
ATOM     28  C   UNL d   1      -2.886   1.524  -1.363  0.00  0.00     0.037 A 
ENDBRANCH  22  23
ENDBRANCH   1  22
TORSDOF 7
