REMARK  7 active torsions:
REMARK  status: ('A' for Active; 'I' for Inactive)
REMARK    1  A    between atoms: S_6  and  C_1 
REMARK    2  A    between atoms: N_3  and  C_2 
REMARK    3  A    between atoms: C_11  and  S_6 
REMARK    4  A    between atoms: S_8  and  C_7 
REMARK    5  A    between atoms: C_15  and  S_8 
REMARK    6  A    between atoms: N_9  and  C_13 
REMARK       I    between atoms: C_17  and  N_9 
REMARK    7  A    between atoms: N_10  and  C_14 
REMARK       I    between atoms: C_18  and  N_10 
ROOT
ATOM      1  C   UNL d   1      -0.553   1.166   0.297  0.00  0.00     0.109 A 
ATOM      2  C   UNL d   1       0.834   1.180   0.359  0.00  0.00     0.136 A 
ATOM      3  N   UNL d   1      -1.222   0.034  -0.051  0.00  0.00    -0.343 N 
ATOM      4  HN  UNL d   1      -2.241   0.028  -0.103  1.00  0.00     0.167 HD
ATOM      5  C   UNL d   1      -0.511  -1.088  -0.330  0.00  0.00     0.075 A 
ATOM      6  C   UNL d   1       1.570   0.030   0.070  0.00  0.00     0.042 A 
ATOM      7  C   UNL d   1       0.880  -1.126  -0.281  0.00  0.00     0.040 A 
ENDROOT
BRANCH   1   8
ATOM      8  S   UNL d   1      -1.575   2.597   0.652  0.00  0.00    -0.068 SA
BRANCH   8   9
ATOM      9  C   UNL d   1      -2.607   1.937   1.959  0.00  0.00     0.034 A 
ATOM     10  C   UNL d   1      -2.288   2.102   3.320  0.00  0.00     0.051 A 
ATOM     11  C   UNL d   1      -3.100   1.494   4.286  0.00  0.00     0.031 A 
ATOM     12  C   UNL d   1      -4.207   0.731   3.911  0.00  0.00     0.002 A 
ATOM     13  C   UNL d   1      -4.524   0.574   2.567  0.00  0.00     0.002 A 
ATOM     14  C   UNL d   1      -3.732   1.180   1.594  0.00  0.00     0.021 A 
BRANCH  10  15
ATOM     15  N   UNL d   1      -1.184   2.908   3.689  0.00  0.00    -0.326 N 
ATOM     16  C   UNL d   1      -0.457   2.781   4.855  0.00  0.00     0.218 C 
ATOM     17  O   UNL d   1      -0.574   1.873   5.680  0.00  0.00    -0.274 OA
ATOM     18  C   UNL d   1       0.539   3.887   5.076  0.00  0.00     0.117 C 
ATOM     19  H   UNL d   1      -0.817   3.518   2.966  0.00  0.00     0.169 HD
ENDBRANCH  10  15
ENDBRANCH   8   9
ENDBRANCH   1   8
BRANCH   2  20
ATOM     20  N   UNL d   1       1.544   2.361   0.764  0.00  0.00    -0.113 N 
ATOM     21  O   UNL d   1       1.564   3.311  -0.027  0.00  0.00    -0.532 OA
ATOM     22  O   UNL d   1       2.100   2.326   1.868  0.00  0.00    -0.532 OA
ENDBRANCH   2  20
BRANCH   5  23
ATOM     23  S   UNL d   1      -1.402  -2.590  -0.708  0.00  0.00    -0.070 SA
BRANCH  23  24
ATOM     24  C   UNL d   1      -2.512  -2.000  -1.986  0.00  0.00     0.033 A 
ATOM     25  C   UNL d   1      -2.180  -2.074  -3.354  0.00  0.00     0.051 A 
ATOM     26  C   UNL d   1      -3.062  -1.541  -4.300  0.00  0.00     0.031 A 
ATOM     27  C   UNL d   1      -4.256  -0.937  -3.901  0.00  0.00     0.002 A 
ATOM     28  C   UNL d   1      -4.584  -0.866  -2.550  0.00  0.00     0.002 A 
ATOM     29  C   UNL d   1      -3.720  -1.402  -1.598  0.00  0.00     0.021 A 
BRANCH  25  30
ATOM     30  N   UNL d   1      -0.988  -2.730  -3.746  0.00  0.00    -0.326 N 
ATOM     31  C   UNL d   1      -0.282  -2.468  -4.904  0.00  0.00     0.218 C 
ATOM     32  O   UNL d   1      -0.497  -1.550  -5.686  0.00  0.00    -0.274 OA
ATOM     33  C   UNL d   1       0.841  -3.441  -5.155  0.00  0.00     0.117 C 
ATOM     34  H   UNL d   1      -0.550  -3.303  -3.035  0.00  0.00     0.169 HD
ENDBRANCH  25  30
ENDBRANCH  23  24
ENDBRANCH   5  23
TORSDOF 7
