REMARK  3 active torsions:
REMARK  status: ('A' for Active; 'I' for Inactive)
REMARK    1  A    between atoms: N_2  and  C_1 
REMARK    2  A    between atoms: C_3  and  N_2 
REMARK    3  A    between atoms: C_12  and  N_8 
ROOT
ATOM      1  C   UNL d   1       0.923  -1.543   1.907  0.00  0.00     0.040 A 
ATOM      2  C   UNL d   1       1.832  -0.902   2.764  0.00  0.00    -0.035 A 
ATOM      3  C   UNL d   1       2.576  -1.681   3.672  0.00  0.00     0.015 A 
ATOM      4  C   UNL d   1       0.731  -2.927   2.016  0.00  0.00     0.030 A 
ATOM      5  C   UNL d   1       2.409  -3.069   3.754  0.00  0.00    -0.061 A 
ATOM      6  C   UNL d   1       1.468  -3.684   2.929  0.00  0.00     0.009 A 
ATOM      7  C   UNL d   1       2.050   0.586   2.780  0.00  0.00     0.050 C 
ATOM      8  C   UNL d   1       3.266  -3.880   4.678  0.00  0.00     0.048 C 
ENDROOT
BRANCH   1   9
ATOM      9  N   UNL d   1       0.310  -0.834   0.847  0.00  0.00    -0.333 N 
ATOM     10  H   UNL d   1       0.739   0.037   0.569  0.00  0.00     0.168 HD
BRANCH   9  11
ATOM     11  C   UNL d   1      -0.901  -1.091   0.266  0.00  0.00     0.172 C 
ATOM     12  S   UNL d   1      -2.304  -1.547   1.054  0.00  0.00    -0.041 SA
ATOM     13  N   UNL d   1      -0.961  -0.899  -1.085  0.00  0.00    -0.367 N 
ATOM     14  H   UNL d   1      -1.874  -1.117  -1.468  0.00  0.00     0.161 HD
BRANCH  13  15
ATOM     15  C   UNL d   1       0.159  -1.004  -2.010  0.00  0.00     0.117 C 
ATOM     16  C   UNL d   1       0.658  -2.436  -2.129  0.00  0.00     0.026 C 
ENDBRANCH  13  15
ENDBRANCH   9  11
ENDBRANCH   1   9
TORSDOF 3
