REMARK  10 active torsions:
REMARK  status: ('A' for Active; 'I' for Inactive)
REMARK    1  A    between atoms: C_12  and  N_1 
REMARK    2  A    between atoms: N_2  and  C_11 
REMARK    3  A    between atoms: C_11  and  C_24 
REMARK    4  A    between atoms: C_23  and  C_12 
REMARK    5  A    between atoms: N_13  and  C_26 
REMARK    6  A    between atoms: C_25  and  N_14 
REMARK    7  A    between atoms: C_26  and  C_23 
REMARK    8  A    between atoms: O_44  and  C_23 
REMARK    9  A    between atoms: C_24  and  C_25 
REMARK   10  A    between atoms: O_43  and  C_24 
ROOT
ATOM      1  N   UNL d   1       1.940  -2.306   2.422  0.00  0.00     0.094 N 
ATOM      2  N   UNL d   1       1.543   0.728   2.151  0.00  0.00     0.094 N 
ATOM      3  C   UNL d   1       1.379   0.031   3.465  0.00  0.00     0.302 C 
ATOM      4  C   UNL d   1       1.639  -1.562   1.187  0.00  0.00     0.302 C 
ATOM      5  C   UNL d   1       1.297  -1.560   3.535  0.00  0.00     0.302 C 
ATOM      6  C   UNL d   1       2.267  -0.167   1.258  0.00  0.00     0.302 C 
ENDROOT
BRANCH   1   7
ATOM      7  C   UNL d   1       1.497  -3.709   2.251  0.00  0.00     0.305 C 
BRANCH   7   8
ATOM      8  C   UNL d   1       2.327  -4.876   2.903  0.00  0.00     0.164 C 
BRANCH   8   9
ATOM      9  C   UNL d   1       2.104  -6.130   1.994  0.00  0.00     0.163 C 
BRANCH   9  10
ATOM     10  N   UNL d   1       2.487  -7.473   2.421  0.00  0.00    -0.343 N 
ATOM     11  C   UNL d   1       1.671  -8.273   3.212  0.00  0.00     0.046 A 
ATOM     12  C   UNL d   1       2.161  -9.573   3.144  0.00  0.00     0.005 A 
ATOM     13  C   UNL d   1       0.499  -7.976   3.928  0.00  0.00     0.032 A 
ATOM     14  C   UNL d   1       1.528 -10.603   3.878  0.00  0.00     0.033 A 
ATOM     15  C   UNL d   1       3.235  -9.583   2.204  0.00  0.00     0.005 A 
ATOM     16  C   UNL d   1       0.380 -10.298   4.607  0.00  0.00     0.011 A 
ATOM     17  C   UNL d   1      -0.140  -9.011   4.619  0.00  0.00     0.021 A 
ATOM     18 BR   UNL d   1      -0.502 -11.672   5.560  0.00  0.00    -0.051 Br
ATOM     19  C   UNL d   1       3.438  -8.265   1.778  0.00  0.00     0.046 A 
ATOM     20  C   UNL d   1       3.992 -10.631   1.630  0.00  0.00     0.033 A 
ATOM     21  C   UNL d   1       4.420  -7.965   0.814  0.00  0.00     0.032 A 
ATOM     22  C   UNL d   1       5.139  -9.021   0.240  0.00  0.00     0.021 A 
ATOM     23  C   UNL d   1       4.917 -10.335   0.631  0.00  0.00     0.011 A 
ATOM     24 BR   UNL d   1       5.829 -11.748  -0.236  0.00  0.00    -0.051 Br
ENDBRANCH   9  10
ENDBRANCH   8   9
BRANCH   8  25
ATOM     25  O   UNL d   1       1.910  -5.105   4.248  0.00  0.00    -0.392 OA
ATOM     26  H   UNL d   1       1.018  -4.747   4.380  0.00  0.00     0.210 HD
ENDBRANCH   8  25
ENDBRANCH   7   8
ENDBRANCH   1   7
BRANCH   2  27
ATOM     27  C   UNL d   1       0.306   1.283   1.574  0.00  0.00     0.305 C 
BRANCH  27  28
ATOM     28  C   UNL d   1       0.356   2.339   0.390  0.00  0.00     0.164 C 
BRANCH  28  29
ATOM     29  C   UNL d   1       0.670   1.888  -1.068  0.00  0.00     0.163 C 
BRANCH  29  30
ATOM     30  N   UNL d   1       2.043   1.999  -1.548  0.00  0.00    -0.343 N 
ATOM     31  C   UNL d   1       2.824   3.139  -1.491  0.00  0.00     0.046 A 
ATOM     32  C   UNL d   1       4.147   2.718  -1.647  0.00  0.00     0.005 A 
ATOM     33  C   UNL d   1       2.494   4.484  -1.259  0.00  0.00     0.032 A 
ATOM     34  C   UNL d   1       5.189   3.650  -1.461  0.00  0.00     0.033 A 
ATOM     35  C   UNL d   1       4.117   1.336  -2.006  0.00  0.00     0.005 A 
ATOM     36  C   UNL d   1       4.867   4.975  -1.160  0.00  0.00     0.011 A 
ATOM     37  C   UNL d   1       3.542   5.396  -1.091  0.00  0.00     0.021 A 
ATOM     38 BR   UNL d   1       6.260   6.212  -0.824  0.00  0.00    -0.051 Br
ATOM     39  C   UNL d   1       2.776   0.960  -2.104  0.00  0.00     0.046 A 
ATOM     40  C   UNL d   1       5.117   0.378  -2.278  0.00  0.00     0.033 A 
ATOM     41  C   UNL d   1       2.390  -0.300  -2.593  0.00  0.00     0.032 A 
ATOM     42  C   UNL d   1       3.398  -1.229  -2.873  0.00  0.00     0.021 A 
ATOM     43  C   UNL d   1       4.736  -0.905  -2.676  0.00  0.00     0.011 A 
ATOM     44 BR   UNL d   1       6.064  -2.229  -2.926  0.00  0.00    -0.051 Br
ENDBRANCH  29  30
ENDBRANCH  28  29
BRANCH  28  45
ATOM     45  O   UNL d   1      -0.972   2.932   0.277  0.00  0.00    -0.392 OA
ATOM     46  H   UNL d   1      -1.448   2.821   1.120  0.00  0.00     0.210 HD
ENDBRANCH  28  45
ENDBRANCH  27  28
ENDBRANCH   2  27
TORSDOF 10
