REMARK  1 active torsions:
REMARK  status: ('A' for Active; 'I' for Inactive)
REMARK       I    between atoms: C_2  and  N_1 
REMARK    1  A    between atoms: C_11  and  C_2 
ROOT
ATOM      1  N   UNL d   1       2.523   0.705  -0.145  0.00  0.00    -0.302 N 
ATOM      2  C   UNL d   1       3.789   1.321  -0.293  0.00  0.00     0.259 C 
ATOM      3  C   UNL d   1       1.254   1.458   0.065  0.00  0.00     0.233 C 
ATOM      4  C   UNL d   1       2.486  -0.687  -0.085  0.00  0.00     0.097 C 
ATOM      5  C   UNL d   1      -0.021   0.628   0.007  0.00  0.00    -0.011 A 
ATOM      6  C   UNL d   1       1.358  -1.408   0.009  0.00  0.00     0.029 C 
ATOM      7  C   UNL d   1       1.289   2.243   1.325  0.00  0.00     0.090 C 
ATOM      8  N   UNL d   1       1.303   2.899   2.283  0.00  0.00    -0.195 NA
ATOM      9  C   UNL d   1       0.049  -0.768   0.011  0.00  0.00    -0.026 A 
ATOM     10  O   UNL d   1       4.841   0.681  -0.372  0.00  0.00    -0.267 OA
ATOM     11  C   UNL d   1      -1.280   1.257  -0.042  0.00  0.00     0.011 A 
ATOM     12  C   UNL d   1      -1.129  -1.525  -0.008  0.00  0.00     0.012 A 
ATOM     13  C   UNL d   1      -2.448   0.500  -0.064  0.00  0.00     0.001 A 
ATOM     14  C   UNL d   1      -2.373  -0.890  -0.042  0.00  0.00     0.001 A 
ENDROOT
BRANCH   2  15
ATOM     15  C   UNL d   1       3.930   2.805  -0.295  0.00  0.00     0.032 A 
ATOM     16  C   UNL d   1       4.902   3.370   0.541  0.00  0.00     0.017 A 
ATOM     17  C   UNL d   1       5.026   4.758   0.638  0.00  0.00     0.001 A 
ATOM     18  C   UNL d   1       4.173   5.585  -0.090  0.00  0.00     0.000 A 
ATOM     19  C   UNL d   1       3.246   5.029  -0.969  0.00  0.00     0.001 A 
ATOM     20  C   UNL d   1       3.158   3.642  -1.107  0.00  0.00     0.017 A 
ENDBRANCH   2  15
TORSDOF 1
