REMARK  7 active torsions:
REMARK  status: ('A' for Active; 'I' for Inactive)
REMARK    1  A    between atoms: C_4  and  C_1 
REMARK    2  A    between atoms: C_7  and  C_1 
REMARK    3  A    between atoms: O_6  and  N_2 
REMARK    4  A    between atoms: C_9  and  C_4 
REMARK    5  A    between atoms: C_5  and  O_6 
REMARK    6  A    between atoms: O_11  and  C_5 
REMARK    7  A    between atoms: C_16  and  O_11 
ROOT
ATOM      1  C   UNL d   1       0.999  -0.177   0.141  0.00  0.00     0.116 C 
ATOM      2  N   UNL d   1       0.244  -1.214   0.381  0.00  0.00    -0.251 N 
ATOM      3  HN  UNL d   1      -0.772  -1.160   0.453  1.00  0.00     0.195 HD
ENDROOT
BRANCH   1   4
ATOM      4  C   UNL d   1       2.528  -0.246   0.074  0.00  0.00     0.211 C 
ATOM      5  O   UNL d   1       3.052  -1.194  -0.501  0.00  0.00    -0.285 OA
BRANCH   4   6
ATOM      6  C   UNL d   1       3.393   0.863   0.580  0.00  0.00     0.016 A 
ATOM      7  C   UNL d   1       2.977   1.797   1.536  0.00  0.00     0.015 A 
ATOM      8  C   UNL d   1       3.770   2.919   1.808  0.00  0.00     0.001 A 
ATOM      9  C   UNL d   1       4.994   3.093   1.158  0.00  0.00     0.000 A 
ATOM     10  C   UNL d   1       5.443   2.134   0.254  0.00  0.00     0.001 A 
ATOM     11  C   UNL d   1       4.647   1.023  -0.031  0.00  0.00     0.015 A 
ENDBRANCH   4   6
ENDBRANCH   1   4
BRANCH   1  12
ATOM     12  C   UNL d   1       0.311   1.129  -0.104  0.00  0.00    -0.004 A 
ATOM     13  C   UNL d   1      -0.924   1.366   0.517  0.00  0.00     0.014 A 
ATOM     14  C   UNL d   1      -1.563   2.598   0.367  0.00  0.00     0.001 A 
ATOM     15  C   UNL d   1      -0.973   3.600  -0.401  0.00  0.00     0.000 A 
ATOM     16  C   UNL d   1       0.241   3.363  -1.042  0.00  0.00     0.001 A 
ATOM     17  C   UNL d   1       0.875   2.125  -0.912  0.00  0.00     0.014 A 
ENDBRANCH   1  12
BRANCH   2  18
ATOM     18  O   UNL d   1       0.965  -2.417   0.532  0.00  0.00    -0.174 OA
BRANCH  18  19
ATOM     19  C   UNL d   1       0.097  -3.477   0.688  0.00  0.00     0.428 C 
ATOM     20  O   UNL d   1      -1.123  -3.435   0.663  0.00  0.00    -0.227 OA
BRANCH  19  21
ATOM     21  O   UNL d   1       0.836  -4.591   0.963  0.00  0.00    -0.297 OA
BRANCH  21  22
ATOM     22  C   UNL d   1       0.122  -5.701   1.524  0.00  0.00     0.177 C 
ATOM     23  C   UNL d   1       0.074  -6.869   0.558  0.00  0.00     0.034 C 
ENDBRANCH  21  22
ENDBRANCH  19  21
ENDBRANCH  18  19
ENDBRANCH   2  18
TORSDOF 7
