REMARK  3 active torsions:
REMARK  status: ('A' for Active; 'I' for Inactive)
REMARK    1  A    between atoms: C_5  and  C_1 
REMARK       I    between atoms: N_6  and  C_1 
REMARK    2  A    between atoms: C_2  and  N_7 
REMARK    3  A    between atoms: N_7  and  N_6 
ROOT
ATOM      1  N   UNL d   1      -1.242  -0.285  -1.194  0.00  0.00    -0.181 NA
ATOM      2  C   UNL d   1      -1.973  -0.171  -2.461  0.00  0.00     0.144 C 
ENDROOT
BRANCH   1   3
ATOM      3  C   UNL d   1      -2.036   0.067  -0.073  0.00  0.00     0.116 A 
ATOM      4  N   UNL d   1      -1.844   1.253   0.559  0.00  0.00    -0.343 N 
ATOM      5  C   UNL d   1      -2.523   1.457   1.710  0.00  0.00     0.060 A 
ATOM      6  HN  UNL d   1      -1.214   1.961   0.182  1.00  0.00     0.167 HD
ATOM      7  C   UNL d   1      -2.362   2.654   2.400  0.00  0.00     0.032 A 
ATOM      8  C   UNL d   1      -3.379   0.467   2.255  0.00  0.00     0.059 A 
ATOM      9  C   UNL d   1      -2.969   2.868   3.640  0.00  0.00     0.002 A 
ATOM     10  C   UNL d   1      -3.760   1.873   4.198  0.00  0.00     0.002 A 
ATOM     11  C   UNL d   1      -3.972   0.688   3.492  0.00  0.00     0.032 A 
ATOM     12  N   UNL d   1      -3.607  -0.690   1.612  0.00  0.00    -0.361 N 
ATOM     13  C   UNL d   1      -2.925  -0.869   0.455  0.00  0.00     0.132 A 
ATOM     14  HN  UNL d   1      -4.253  -1.392   1.973  1.00  0.00     0.165 HD
ENDBRANCH   1   3
BRANCH   1  15
ATOM     15  N   UNL d   1      -0.028   0.446  -1.204  0.00  0.00    -0.279 N 
ATOM     16  C   UNL d   1       1.067  -0.074  -1.869  0.00  0.00     0.268 C 
ATOM     17  O   UNL d   1       1.014  -1.068  -2.586  0.00  0.00    -0.266 OA
ATOM     18  H   UNL d   1       0.015   1.216  -0.533  0.00  0.00     0.184 HD
BRANCH  16  19
ATOM     19  C   UNL d   1       2.376   0.616  -1.695  0.00  0.00     0.057 A 
ATOM     20  C   UNL d   1       2.559   1.935  -1.266  0.00  0.00     0.065 A 
ATOM     21 CL   UNL d   1       1.295   3.043  -0.887  0.00  0.00    -0.082 Cl
ATOM     22  C   UNL d   1       3.861   2.408  -1.177  0.00  0.00     0.112 A 
ATOM     23  N   UNL d   1       4.969   1.681  -1.478  0.00  0.00    -0.374 N 
ATOM     24  C   UNL d   1       4.766   0.419  -1.897  0.00  0.00     0.088 A 
ATOM     25  HN  UNL d   1       5.907   2.072  -1.391  1.00  0.00     0.164 HD
ATOM     26  C   UNL d   1       3.510  -0.150  -2.019  0.00  0.00     0.036 A 
ENDBRANCH  16  19
ENDBRANCH   1  15
TORSDOF 3
