REMARK  3 active torsions:
REMARK  status: ('A' for Active; 'I' for Inactive)
REMARK    1  A    between atoms: C_8  and  C_3 
REMARK    2  A    between atoms: C_10  and  C_4 
REMARK    3  A    between atoms: C_11  and  C_12 
ROOT
ATOM      1  N   UNL d   1       6.178   5.002   2.618  0.00  0.00    -0.191 NA
ATOM      2  C   UNL d   1       5.351   4.294   2.219  0.00  0.00     0.099 C 
ATOM      3  C   UNL d   1       2.280   1.740   0.771  0.00  0.00    -0.009 A 
ATOM      4  C   UNL d   1       2.536   2.974   0.152  0.00  0.00     0.015 A 
ATOM      5  C   UNL d   1       3.076   1.352   1.857  0.00  0.00     0.015 A 
ATOM      6  C   UNL d   1       4.323   3.426   1.724  0.00  0.00     0.044 A 
ATOM      7  C   UNL d   1       3.549   3.813   0.627  0.00  0.00     0.023 A 
ATOM      8  C   UNL d   1       4.088   2.192   2.335  0.00  0.00     0.023 A 
ENDROOT
BRANCH   3   9
ATOM      9  C   UNL d   1       1.210   0.862   0.310  0.00  0.00     0.050 A 
ATOM     10  N   UNL d   1       1.264  -0.512   0.499  0.00  0.00    -0.349 N 
ATOM     11  C   UNL d   1       0.201  -1.092  -0.029  0.00  0.00     0.084 A 
ATOM     12  HN  UNL d   1       2.017  -1.005   0.978  1.00  0.00     0.166 HD
ATOM     13  S   UNL d   1      -0.955   0.003  -0.697  0.00  0.00    -0.081 SA
ATOM     14  C   UNL d   1       0.061   1.317  -0.304  0.00  0.00     0.082 A 
BRANCH  11  15
ATOM     15  C   UNL d   1      -0.050  -2.543  -0.043  0.00  0.00    -0.002 A 
ATOM     16  C   UNL d   1       0.463  -3.358   0.972  0.00  0.00     0.015 A 
ATOM     17  C   UNL d   1       0.236  -4.744   0.971  0.00  0.00     0.009 A 
ATOM     18  C   UNL d   1      -0.494  -5.368  -0.058  0.00  0.00    -0.051 A 
ATOM     19  C   UNL d   1      -1.004  -4.540  -1.069  0.00  0.00     0.009 A 
ATOM     20  C   UNL d   1      -0.781  -3.159  -1.065  0.00  0.00     0.015 A 
BRANCH  18  21
ATOM     21  C   UNL d   1      -0.682  -6.896  -0.081  0.00  0.00    -0.024 C 
ATOM     22  C   UNL d   1      -1.473  -7.395  -1.313  0.00  0.00     0.019 C 
ATOM     23  C   UNL d   1       0.701  -7.582  -0.118  0.00  0.00     0.019 C 
ATOM     24  C   UNL d   1      -1.445  -7.369   1.173  0.00  0.00     0.019 C 
ENDBRANCH  18  21
ENDBRANCH  11  15
ENDBRANCH   3   9
TORSDOF 3
