REMARK  6 active torsions:
REMARK  status: ('A' for Active; 'I' for Inactive)
REMARK    1  A    between atoms: N_8  and  C_2 
REMARK    2  A    between atoms: C_15  and  N_8 
REMARK    3  A    between atoms: O_21  and  C_9 
REMARK    4  A    between atoms: O_22  and  C_10 
REMARK    5  A    between atoms: C_16  and  N_11 
REMARK    6  A    between atoms: C_23  and  C_16 
ROOT
ATOM      1  C   UNL d   1      -2.396   3.074  -2.380  0.00  0.00     0.037 A 
ATOM      2  C   UNL d   1      -1.681   2.214  -1.514  0.00  0.00     0.115 A 
ATOM      3  C   UNL d   1      -3.056   2.461  -3.440  0.00  0.00     0.050 A 
ATOM      4  C   UNL d   1      -2.522   4.479  -2.275  0.00  0.00     0.057 A 
ATOM      5  N   UNL d   1      -1.746   0.874  -1.669  0.00  0.00    -0.338 N 
ATOM      6  HN  UNL d   1      -1.258   0.244  -1.032  1.00  0.00     0.168 HD
ATOM      7  C   UNL d   1      -3.706   3.249  -4.391  0.00  0.00     0.070 A 
ATOM      8  C   UNL d   1      -3.165   5.278  -3.230  0.00  0.00     0.102 A 
ATOM      9  C   UNL d   1      -3.771   4.654  -4.305  0.00  0.00     0.103 A 
ATOM     10  N   UNL d   1      -3.104   1.136  -3.605  0.00  0.00    -0.351 N 
ATOM     11  HN  UNL d   1      -3.595   0.707  -4.389  1.00  0.00     0.166 HD
ATOM     12  C   UNL d   1      -2.472   0.406  -2.682  0.00  0.00     0.182 A 
ENDROOT
BRANCH   2  13
ATOM     13  N   UNL d   1      -0.892   2.549  -0.444  0.00  0.00    -0.371 N 
ATOM     14  H   UNL d   1      -0.435   1.698  -0.120  0.00  0.00     0.161 HD
BRANCH  13  15
ATOM     15  C   UNL d   1      -0.212   3.795  -0.101  0.00  0.00     0.086 C 
ATOM     16  C   UNL d   1       1.008   4.099  -0.962  0.00  0.00     0.055 C 
ATOM     17  C   UNL d   1       2.312   3.444  -0.497  0.00  0.00     0.275 C 
ATOM     18  N   UNL d   1       2.515   3.334   0.948  0.00  0.00     0.092 N 
ATOM     19  C   UNL d   1       1.331   2.945   1.708  0.00  0.00     0.275 C 
ATOM     20  C   UNL d   1       0.138   3.825   1.383  0.00  0.00     0.055 C 
BRANCH  18  21
ATOM     21  C   UNL d   1       3.696   2.515   1.301  0.00  0.00     0.311 C 
BRANCH  21  22
ATOM     22  C   UNL d   1       3.608   1.022   1.023  0.00  0.00    -0.030 A 
ATOM     23  C   UNL d   1       3.951   0.498  -0.234  0.00  0.00     0.009 A 
ATOM     24  C   UNL d   1       3.841  -0.869  -0.496  0.00  0.00     0.001 A 
ATOM     25  C   UNL d   1       3.406  -1.738   0.501  0.00  0.00     0.000 A 
ATOM     26  C   UNL d   1       3.082  -1.240   1.760  0.00  0.00     0.001 A 
ATOM     27  C   UNL d   1       3.180   0.130   2.020  0.00  0.00     0.009 A 
ENDBRANCH  21  22
ENDBRANCH  18  21
ENDBRANCH  13  15
ENDBRANCH   2  13
BRANCH   8  28
ATOM     28  O   UNL d   1      -3.034   6.593  -2.897  0.00  0.00    -0.353 OA
ATOM     29  C   UNL d   1      -3.689   7.639  -3.582  0.00  0.00     0.210 C 
ENDBRANCH   8  28
BRANCH   9  30
ATOM     30  O   UNL d   1      -4.381   5.416  -5.267  0.00  0.00    -0.353 OA
ATOM     31  C   UNL d   1      -5.412   4.791  -6.024  0.00  0.00     0.210 C 
ENDBRANCH   9  30
TORSDOF 6
