REMARK  7 active torsions:
REMARK  status: ('A' for Active; 'I' for Inactive)
REMARK    1  A    between atoms: C_2  and  S_1 
REMARK    2  A    between atoms: C_6  and  S_1 
REMARK    3  A    between atoms: C_4  and  C_2 
REMARK    4  A    between atoms: C_3  and  O_9 
REMARK    5  A    between atoms: C_5  and  C_3 
REMARK    6  A    between atoms: N_19  and  C_4 
REMARK    7  A    between atoms: O_9  and  N_7 
ROOT
ATOM      1  C   UNL d   1       0.942  -2.734   0.646  0.00  0.00     0.110 C 
ATOM      2  N   UNL d   1       1.773  -2.856  -0.343  0.00  0.00    -0.245 N 
ATOM      3  HN  UNL d   1       2.249  -3.725  -0.587  1.00  0.00     0.196 HD
ENDROOT
BRANCH   1   4
ATOM      4  C   UNL d   1       0.640  -3.977   1.444  0.00  0.00     0.224 C 
BRANCH   4   5
ATOM      5  S   UNL d   1       1.756  -4.165   2.805  0.00  0.00     0.197 S 
ATOM      6  O   UNL d   1       3.123  -4.095   2.323  0.00  0.00    -0.221 OA
ATOM      7  O   UNL d   1       1.331  -5.312   3.591  0.00  0.00    -0.221 OA
BRANCH   5   8
ATOM      8  C   UNL d   1       1.475  -2.715   3.808  0.00  0.00     0.128 A 
ATOM      9  N   UNL d   1       0.176  -2.534   4.173  0.00  0.00    -0.357 N 
ATOM     10  C   UNL d   1      -0.060  -1.502   5.012  0.00  0.00     0.089 A 
ATOM     11  HN  UNL d   1      -0.571  -3.140   3.835  1.00  0.00     0.166 HD
ATOM     12  C   UNL d   1       0.918  -0.609   5.426  0.00  0.00     0.017 A 
ATOM     13  C   UNL d   1       2.223  -0.789   4.972  0.00  0.00     0.004 A 
ATOM     14  C   UNL d   1       2.520  -1.873   4.153  0.00  0.00     0.042 A 
ENDBRANCH   5   8
ENDBRANCH   4   5
ENDBRANCH   1   4
BRANCH   1  15
ATOM     15  N   UNL d   1       0.303  -1.564   0.980  0.00  0.00    -0.387 N 
ATOM     16  H   UNL d   1      -0.093  -1.450   1.910  0.00  0.00     0.157 HD
ATOM     17  H   UNL d   1       0.686  -0.720   0.566  0.00  0.00     0.157 HD
ENDBRANCH   1  15
BRANCH   2  18
ATOM     18  O   UNL d   1       1.939  -1.639  -1.041  0.00  0.00    -0.193 OA
BRANCH  18  19
ATOM     19  C   UNL d   1       2.791  -1.815  -2.116  0.00  0.00     0.322 C 
ATOM     20  O   UNL d   1       3.352  -2.864  -2.416  0.00  0.00    -0.257 OA
BRANCH  19  21
ATOM     21  C   UNL d   1       2.949  -0.577  -2.871  0.00  0.00     0.082 A 
ATOM     22  S   UNL d   1       2.112   0.869  -2.481  0.00  0.00    -0.096 SA
ATOM     23  C   UNL d   1       2.836   1.724  -3.774  0.00  0.00     0.050 A 
ATOM     24  C   UNL d   1       3.698   0.933  -4.497  0.00  0.00     0.009 A 
ATOM     25  C   UNL d   1       3.760  -0.392  -3.979  0.00  0.00     0.026 A 
ENDBRANCH  19  21
ENDBRANCH  18  19
ENDBRANCH   2  18
TORSDOF 7
