REMARK  10 active torsions:
REMARK  status: ('A' for Active; 'I' for Inactive)
REMARK    1  A    between atoms: C_10  and  C_1 
REMARK    2  A    between atoms: C_13  and  N_4 
REMARK    3  A    between atoms: C_8  and  C_12 
REMARK    4  A    between atoms: C_9  and  C_11 
REMARK    5  A    between atoms: C_14  and  C_13 
REMARK       I    between atoms: N_20  and  C_14 
REMARK    6  A    between atoms: C_15  and  N_19 
REMARK    7  A    between atoms: N_19  and  N_20 
REMARK    8  A    between atoms: C_34  and  N_25 
REMARK    9  A    between atoms: C_32  and  C_33 
REMARK   10  A    between atoms: C_33  and  C_34 
ROOT
ATOM      1  C   UNL d   1      -0.915   0.801   2.082  0.00  0.00     0.144 A 
ATOM      2  N   UNL d   1      -0.124   1.647   1.399  0.00  0.00    -0.268 N 
ATOM      3  HN  UNL d   1      -0.081   2.665   1.427  1.00  0.00     0.190 HD
ATOM      4  N   UNL d   1       0.593   0.778   0.670  0.00  0.00    -0.207 N 
ATOM      5  N   UNL d   1      -0.699  -0.513   1.736  0.00  0.00    -0.266 N 
ATOM      6  HN  UNL d   1      -1.179  -1.329   2.115  1.00  0.00     0.186 HD
ATOM      7  N   UNL d   1       0.256  -0.515   0.813  0.00  0.00    -0.002 NA
ENDROOT
BRANCH   4   8
ATOM      8  C   UNL d   1       1.583   1.209  -0.282  0.00  0.00     0.271 C 
BRANCH   8   9
ATOM      9  C   UNL d   1       2.969   0.968   0.247  0.00  0.00     0.257 C 
ATOM     10  N   UNL d   1       3.352  -0.360   0.313  0.00  0.00    -0.266 N 
ATOM     11  H   UNL d   1       2.789  -1.136  -0.034  0.00  0.00     0.190 HD
ATOM     12  O   UNL d   1       3.705   1.901   0.567  0.00  0.00    -0.270 OA
BRANCH  10  13
ATOM     13  N   UNL d   1       4.676  -0.653   0.671  0.00  0.00    -0.274 N 
ATOM     14  H   UNL d   1       5.016  -0.225   1.532  0.00  0.00     0.189 HD
BRANCH  13  15
ATOM     15  C   UNL d   1       5.508  -1.336  -0.152  0.00  0.00     0.186 C 
ATOM     16  S   UNL d   1       4.997  -2.368  -1.371  0.00  0.00    -0.040 SA
ATOM     17  N   UNL d   1       6.845  -1.151  -0.003  0.00  0.00    -0.366 N 
ATOM     18  H   UNL d   1       7.385  -1.788  -0.578  0.00  0.00     0.161 HD
BRANCH  17  19
ATOM     19  C   UNL d   1       7.646  -0.188   0.761  0.00  0.00     0.128 C 
BRANCH  19  20
ATOM     20  C   UNL d   1       7.061   1.201   1.059  0.00  0.00     0.076 C 
BRANCH  20  21
ATOM     21  C   UNL d   1       6.494   1.385   2.452  0.00  0.00     0.010 A 
ATOM     22  N   UNL d   1       6.436   0.311   3.277  0.00  0.00    -0.369 N 
ATOM     23  C   UNL d   1       5.973   0.510   4.533  0.00  0.00     0.088 A 
ATOM     24  HN  UNL d   1       6.731  -0.614   2.963  1.00  0.00     0.165 HD
ATOM     25  C   UNL d   1       5.526   1.731   5.007  0.00  0.00     0.017 A 
ATOM     26  C   UNL d   1       5.550   2.814   4.138  0.00  0.00     0.003 A 
ATOM     27  C   UNL d   1       6.040   2.642   2.846  0.00  0.00     0.025 A 
ENDBRANCH  20  21
ENDBRANCH  19  20
ENDBRANCH  17  19
ENDBRANCH  13  15
ENDBRANCH  10  13
ENDBRANCH   8   9
ENDBRANCH   4   8
BRANCH   1  28
ATOM     28  C   UNL d   1      -1.873   1.233   3.089  0.00  0.00     0.012 A 
ATOM     29  C   UNL d   1      -2.051   2.603   3.335  0.00  0.00     0.031 A 
ATOM     30  C   UNL d   1      -2.927   3.063   4.327  0.00  0.00     0.049 A 
ATOM     31  C   UNL d   1      -3.634   2.126   5.090  0.00  0.00     0.032 A 
ATOM     32  C   UNL d   1      -3.496   0.745   4.848  0.00  0.00     0.049 A 
ATOM     33  C   UNL d   1      -2.606   0.310   3.851  0.00  0.00     0.031 A 
BRANCH  30  34
ATOM     34  C   UNL d   1      -3.047   4.545   4.592  0.00  0.00     0.417 C 
ATOM     35  F   UNL d   1      -2.943   5.297   3.461  0.00  0.00    -0.166 F 
ATOM     36  F   UNL d   1      -4.232   4.892   5.164  0.00  0.00    -0.166 F 
ATOM     37  F   UNL d   1      -2.076   4.994   5.433  0.00  0.00    -0.166 F 
ENDBRANCH  30  34
BRANCH  32  38
ATOM     38  C   UNL d   1      -4.256  -0.252   5.698  0.00  0.00     0.417 C 
ATOM     39  F   UNL d   1      -4.548  -1.405   5.033  0.00  0.00    -0.166 F 
ATOM     40  F   UNL d   1      -3.561  -0.617   6.808  0.00  0.00    -0.166 F 
ATOM     41  F   UNL d   1      -5.446   0.230   6.144  0.00  0.00    -0.166 F 
ENDBRANCH  32  38
ENDBRANCH   1  28
TORSDOF 10
