REMARK  8 active torsions:
REMARK  status: ('A' for Active; 'I' for Inactive)
REMARK    1  A    between atoms: C_7  and  N_1 
REMARK       I    between atoms: C_2  and  N_3 
REMARK    2  A    between atoms: C_16  and  C_2 
REMARK    3  A    between atoms: N_3  and  C_10 
REMARK    4  A    between atoms: C_4  and  C_17 
REMARK    5  A    between atoms: O_14  and  C_4 
REMARK    6  A    between atoms: C_15  and  C_7 
REMARK    7  A    between atoms: S_11  and  C_16 
REMARK    8  A    between atoms: C_17  and  S_11 
ROOT
ATOM      1  N   UNL d   1       1.343  -0.033   0.212  0.00  0.00     0.092 N 
ATOM      2  C   UNL d   1      -0.733   1.335   0.198  0.00  0.00     0.055 C 
ATOM      3  C   UNL d   1      -0.892  -1.161   0.171  0.00  0.00     0.055 C 
ATOM      4  C   UNL d   1      -1.571   0.141  -0.256  0.00  0.00     0.087 C 
ATOM      5  C   UNL d   1       0.721   1.214  -0.261  0.00  0.00     0.275 C 
ATOM      6  C   UNL d   1       0.584  -1.215  -0.228  0.00  0.00     0.275 C 
ENDROOT
BRANCH   4   7
ATOM      7  N   UNL d   1      -1.825   0.175  -1.696  0.00  0.00    -0.356 N 
ATOM      8  C   UNL d   1      -2.846   0.912  -2.254  0.00  0.00     0.227 C 
ATOM      9  O   UNL d   1      -3.691   1.527  -1.600  0.00  0.00    -0.273 OA
ATOM     10  H   UNL d   1      -1.153  -0.263  -2.315  0.00  0.00     0.162 HD
BRANCH   8  11
ATOM     11  C   UNL d   1      -2.932   0.849  -3.769  0.00  0.00     0.177 C 
BRANCH  11  12
ATOM     12  S   UNL d   1      -4.008  -0.527  -4.285  0.00  0.00    -0.149 SA
BRANCH  12  13
ATOM     13  C   UNL d   1      -5.560  -0.111  -3.415  0.00  0.00     0.184 C 
BRANCH  13  14
ATOM     14  C   UNL d   1      -6.126   1.225  -3.840  0.00  0.00     0.149 C 
ATOM     15  O   UNL d   1      -6.829   1.386  -4.827  0.00  0.00    -0.649 OA
BRANCH  14  16
ATOM     16  O   UNL d   1      -5.771   2.260  -3.042  0.00  0.00    -0.776 OA
ATOM     17  H   UNL d   1      -5.163   2.030  -2.296  0.00  0.00     0.167 HD
ENDBRANCH  14  16
ENDBRANCH  13  14
ENDBRANCH  12  13
ENDBRANCH  11  12
ENDBRANCH   8  11
ENDBRANCH   4   7
BRANCH   1  18
ATOM     18  C   UNL d   1       2.741  -0.152  -0.263  0.00  0.00     0.311 C 
BRANCH  18  19
ATOM     19  C   UNL d   1       3.664   0.956   0.201  0.00  0.00    -0.030 A 
ATOM     20  C   UNL d   1       3.882   1.185   1.566  0.00  0.00     0.009 A 
ATOM     21  C   UNL d   1       4.734   2.208   1.986  0.00  0.00     0.001 A 
ATOM     22  C   UNL d   1       5.381   3.010   1.046  0.00  0.00     0.000 A 
ATOM     23  C   UNL d   1       5.179   2.788  -0.314  0.00  0.00     0.001 A 
ATOM     24  C   UNL d   1       4.327   1.764  -0.736  0.00  0.00     0.009 A 
ENDBRANCH  18  19
ENDBRANCH   1  18
TORSDOF 8
