REMARK  7 active torsions:
REMARK  status: ('A' for Active; 'I' for Inactive)
REMARK    1  A    between atoms: C_3  and  N_1 
REMARK    2  A    between atoms: C_2  and  C_3 
REMARK    3  A    between atoms: S_4  and  C_2 
REMARK    4  A    between atoms: C_5  and  C_2 
REMARK    5  A    between atoms: C_6  and  S_4 
REMARK    6  A    between atoms: O_12  and  C_9 
REMARK    7  A    between atoms: N_11  and  C_10 
ROOT
ATOM      1  C   UNL d   1       0.941  -2.056  -0.706  0.00  0.00     0.112 C 
ENDROOT
BRANCH   1   2
ATOM      2  C   UNL d   1      -0.112  -0.954  -0.516  0.00  0.00     0.221 C 
BRANCH   2   3
ATOM      3  N   UNL d   1       0.494   0.310   0.016  0.00  0.00    -0.154 N 
ATOM      4  O   UNL d   1       1.582   0.672  -0.451  0.00  0.00    -0.536 OA
ATOM      5  O   UNL d   1      -0.187   0.965   0.816  0.00  0.00    -0.536 OA
ENDBRANCH   2   3
ENDBRANCH   1   2
BRANCH   1   6
ATOM      6  S   UNL d   1       1.705  -2.595   0.910  0.00  0.00    -0.117 SA
BRANCH   6   7
ATOM      7  C   UNL d   1       0.319  -3.438   1.660  0.00  0.00     0.022 C 
ATOM      8  C   UNL d   1      -0.487  -2.779   2.611  0.00  0.00     0.022 C 
ATOM      9  C   UNL d   1      -1.666  -3.399   3.034  0.00  0.00     0.024 C 
ATOM     10  C   UNL d   1      -1.974  -4.700   2.622  0.00  0.00     0.002 C 
ATOM     11  C   UNL d   1      -1.111  -5.387   1.776  0.00  0.00     0.001 C 
ATOM     12  C   UNL d   1       0.040  -4.761   1.305  0.00  0.00     0.020 C 
BRANCH   8  13
ATOM     13  N   UNL d   1      -0.263  -1.429   2.947  0.00  0.00    -0.302 NA
ATOM     14  H   UNL d   1       0.723  -1.178   2.870  0.00  0.00     0.124 HD
ATOM     15  H   UNL d   1      -0.643  -1.163   3.852  0.00  0.00     0.124 HD
ENDBRANCH   8  13
ENDBRANCH   6   7
ENDBRANCH   1   6
BRANCH   1  16
ATOM     16  C   UNL d   1       0.456  -3.246  -1.552  0.00  0.00    -0.009 A 
ATOM     17  C   UNL d   1       1.353  -4.237  -2.004  0.00  0.00     0.075 A 
ATOM     18  C   UNL d   1       0.912  -5.352  -2.724  0.00  0.00     0.037 A 
ATOM     19  C   UNL d   1      -0.433  -5.485  -3.053  0.00  0.00     0.003 A 
ATOM     20  C   UNL d   1      -1.337  -4.510  -2.648  0.00  0.00     0.001 A 
ATOM     21  C   UNL d   1      -0.901  -3.409  -1.902  0.00  0.00     0.011 A 
BRANCH  17  22
ATOM     22  O   UNL d   1       2.667  -4.234  -1.621  0.00  0.00    -0.355 OA
ATOM     23  C   UNL d   1       3.483  -3.467  -2.502  0.00  0.00     0.210 C 
ENDBRANCH  17  22
ENDBRANCH   1  16
TORSDOF 7
