REMARK  6 active torsions:
REMARK  status: ('A' for Active; 'I' for Inactive)
REMARK    1  A    between atoms: C_17  and  C_2 
REMARK    2  A    between atoms: C_9  and  C_14 
REMARK    3  A    between atoms: O_16  and  C_9 
REMARK    4  A    between atoms: O_13  and  C_12 
REMARK    5  A    between atoms: C_14  and  O_13 
REMARK    6  A    between atoms: C_18  and  C_17 
ROOT
ATOM      1  C   UNL d   1       0.338   0.587  -0.047  0.00  0.00     0.092 A 
ATOM      2  C   UNL d   1      -0.535  -1.724  -0.022  0.00  0.00    -0.039 A 
ATOM      3  O   UNL d   1      -0.981   1.083  -0.076  0.00  0.00    -0.275 OA
ATOM      4  C   UNL d   1      -2.068   0.228  -0.047  0.00  0.00     0.288 A 
ATOM      5  C   UNL d   1       0.600  -0.786   0.007  0.00  0.00     0.004 A 
ATOM      6  C   UNL d   1      -1.775  -1.213  -0.052  0.00  0.00     0.090 A 
ATOM      7  C   UNL d   1       1.352   1.551  -0.061  0.00  0.00     0.075 A 
ATOM      8  C   UNL d   1       1.940  -1.177   0.081  0.00  0.00     0.017 A 
ATOM      9  O   UNL d   1      -3.223   0.633  -0.035  0.00  0.00    -0.260 OA
ATOM     10  C   UNL d   1       2.680   1.142  -0.010  0.00  0.00     0.072 A 
ATOM     11  C   UNL d   1       2.968  -0.221   0.080  0.00  0.00     0.038 A 
ENDROOT
BRANCH  10  12
ATOM     12  O   UNL d   1       3.766   1.976   0.010  0.00  0.00    -0.341 OA
BRANCH  12  13
ATOM     13  C   UNL d   1       3.592   3.234  -0.655  0.00  0.00     0.285 C 
BRANCH  13  14
ATOM     14  C   UNL d   1       4.902   4.005  -0.600  0.00  0.00     0.164 C 
ATOM     15  O   UNL d   1       5.073   5.096  -1.122  0.00  0.00    -0.648 OA
BRANCH  14  16
ATOM     16  O   UNL d   1       5.871   3.371   0.104  0.00  0.00    -0.775 OA
ATOM     17  H   UNL d   1       5.527   2.515   0.440  0.00  0.00     0.167 HD
ENDBRANCH  14  16
ENDBRANCH  13  14
ENDBRANCH  12  13
ENDBRANCH  10  12
BRANCH   2  18
ATOM     18  C   UNL d   1      -0.321  -3.219  -0.081  0.00  0.00     0.039 C 
BRANCH  18  19
ATOM     19  C   UNL d   1      -0.204  -3.855   1.306  0.00  0.00     0.000 C 
ATOM     20  C   UNL d   1       0.038  -5.354   1.207  0.00  0.00     0.005 C 
ENDBRANCH  18  19
ENDBRANCH   2  18
TORSDOF 6
