REMARK  12 active torsions:
REMARK  status: ('A' for Active; 'I' for Inactive)
REMARK    1  A    between atoms: C_7  and  S_1 
REMARK    2  A    between atoms: N_24  and  S_1 
REMARK    3  A    between atoms: S_2  and  N_23 
REMARK    4  A    between atoms: C_8  and  S_2 
REMARK    5  A    between atoms: C_3  and  C_12 
REMARK    6  A    between atoms: C_4  and  C_11 
REMARK    7  A    between atoms: C_5  and  C_9 
REMARK    8  A    between atoms: C_6  and  C_10 
REMARK    9  A    between atoms: N_23  and  C_39 
REMARK   10  A    between atoms: C_38  and  N_24 
REMARK   11  A    between atoms: C_37  and  C_38 
REMARK   12  A    between atoms: C_39  and  C_37 
ROOT
ATOM      1  C   UNL d   1       4.624  -1.342  -0.418  0.00  0.00     0.041 C 
ENDROOT
BRANCH   1   2
ATOM      2  C   UNL d   1       3.100  -1.249  -0.370  0.00  0.00     0.134 C 
BRANCH   2   3
ATOM      3  N   UNL d   1       2.527  -2.320   0.454  0.00  0.00    -0.315 N 
ATOM      4  H   UNL d   1       2.934  -3.254   0.420  0.00  0.00     0.172 HD
BRANCH   3   5
ATOM      5  S   UNL d   1       0.850  -2.466   0.501  0.00  0.00     0.258 S 
ATOM      6  O   UNL d   1       0.312  -1.931  -0.726  0.00  0.00    -0.201 OA
ATOM      7  O   UNL d   1       0.603  -3.830   0.913  0.00  0.00    -0.201 OA
BRANCH   5   8
ATOM      8  C   UNL d   1       0.412  -1.389   1.842  0.00  0.00     0.081 A 
ATOM      9  C   UNL d   1       0.210  -0.030   1.584  0.00  0.00     0.041 A 
ATOM     10  C   UNL d   1      -0.212   0.825   2.610  0.00  0.00     0.050 A 
ATOM     11  C   UNL d   1      -0.454   0.284   3.887  0.00  0.00     0.032 A 
ATOM     12  C   UNL d   1      -0.287  -1.091   4.143  0.00  0.00     0.050 A 
ATOM     13  C   UNL d   1       0.171  -1.922   3.111  0.00  0.00     0.041 A 
BRANCH  10  14
ATOM     14  C   UNL d   1      -0.438   2.298   2.349  0.00  0.00     0.417 C 
ATOM     15  F   UNL d   1      -0.214   2.656   1.055  0.00  0.00    -0.166 F 
ATOM     16  F   UNL d   1      -1.711   2.685   2.633  0.00  0.00    -0.166 F 
ATOM     17  F   UNL d   1       0.376   3.086   3.102  0.00  0.00    -0.166 F 
ENDBRANCH  10  14
BRANCH  12  18
ATOM     18  C   UNL d   1      -0.655  -1.660   5.495  0.00  0.00     0.417 C 
ATOM     19  F   UNL d   1      -0.495  -3.009   5.578  0.00  0.00    -0.166 F 
ATOM     20  F   UNL d   1       0.086  -1.129   6.505  0.00  0.00    -0.166 F 
ATOM     21  F   UNL d   1      -1.956  -1.417   5.813  0.00  0.00    -0.166 F 
ENDBRANCH  12  18
ENDBRANCH   5   8
ENDBRANCH   3   5
ENDBRANCH   2   3
ENDBRANCH   1   2
BRANCH   1  22
ATOM     22  C   UNL d   1       5.163  -2.675  -0.939  0.00  0.00     0.134 C 
BRANCH  22  23
ATOM     23  N   UNL d   1       4.667  -2.956  -2.289  0.00  0.00    -0.315 N 
ATOM     24  H   UNL d   1       3.714  -2.702  -2.542  0.00  0.00     0.172 HD
BRANCH  23  25
ATOM     25  S   UNL d   1       5.121  -4.396  -3.031  0.00  0.00     0.258 S 
ATOM     26  O   UNL d   1       4.603  -4.349  -4.377  0.00  0.00    -0.201 OA
ATOM     27  O   UNL d   1       6.519  -4.639  -2.744  0.00  0.00    -0.201 OA
BRANCH  25  28
ATOM     28  C   UNL d   1       4.161  -5.604  -2.136  0.00  0.00     0.081 A 
ATOM     29  C   UNL d   1       2.892  -5.955  -2.612  0.00  0.00     0.041 A 
ATOM     30  C   UNL d   1       2.174  -6.997  -2.006  0.00  0.00     0.050 A 
ATOM     31  C   UNL d   1       2.744  -7.662  -0.904  0.00  0.00     0.032 A 
ATOM     32  C   UNL d   1       4.023  -7.321  -0.424  0.00  0.00     0.050 A 
ATOM     33  C   UNL d   1       4.729  -6.283  -1.052  0.00  0.00     0.041 A 
BRANCH  30  34
ATOM     34  C   UNL d   1       0.841  -7.451  -2.563  0.00  0.00     0.417 C 
ATOM     35  F   UNL d   1       0.456  -6.761  -3.671  0.00  0.00    -0.166 F 
ATOM     36  F   UNL d   1       0.861  -8.763  -2.927  0.00  0.00    -0.166 F 
ATOM     37  F   UNL d   1      -0.172  -7.324  -1.666  0.00  0.00    -0.166 F 
ENDBRANCH  30  34
BRANCH  32  38
ATOM     38  C   UNL d   1       4.639  -8.107   0.713  0.00  0.00     0.417 C 
ATOM     39  F   UNL d   1       5.896  -7.694   1.032  0.00  0.00    -0.166 F 
ATOM     40  F   UNL d   1       3.913  -8.016   1.859  0.00  0.00    -0.166 F 
ATOM     41  F   UNL d   1       4.738  -9.433   0.429  0.00  0.00    -0.166 F 
ENDBRANCH  32  38
ENDBRANCH  25  28
ENDBRANCH  23  25
ENDBRANCH  22  23
ENDBRANCH   1  22
TORSDOF 12
