REMARK  4 active torsions:
REMARK  status: ('A' for Active; 'I' for Inactive)
REMARK       I    between atoms: N_2  and  C_1 
REMARK    1  A    between atoms: C_4  and  C_1 
REMARK       I    between atoms: C_3  and  N_2 
REMARK    2  A    between atoms: O_7  and  C_3 
REMARK    3  A    between atoms: C_9  and  O_7 
REMARK    4  A    between atoms: C_14  and  C_9 
ROOT
ATOM      1  C   UNL d   1       2.801   2.267   3.440  0.00  0.00    -0.079 C 
ATOM      2  C   UNL d   1       2.724   1.730   4.512  0.00  0.00     0.015 C 
ATOM      3  C   UNL d   1       2.843   2.893   2.098  0.00  0.00     0.130 C 
ATOM      4  C   UNL d   1       2.375   4.357   2.149  0.00  0.00     0.061 C 
ENDROOT
BRANCH   3   5
ATOM      5  O   UNL d   1       2.046   2.105   1.171  0.00  0.00    -0.284 OA
BRANCH   5   6
ATOM      6  C   UNL d   1       0.711   2.005   1.348  0.00  0.00     0.346 C 
ATOM      7  N   UNL d   1       0.086   1.223   0.419  0.00  0.00    -0.169 NA
ATOM      8  C   UNL d   1       0.411  -0.113   0.261  0.00  0.00     0.242 C 
ATOM      9  H   UNL d   1      -0.908   1.378   0.525  0.00  0.00     0.142 HD
ATOM     10  O   UNL d   1       1.544  -0.569   0.241  0.00  0.00    -0.273 OA
ATOM     11  O   UNL d   1       0.046   2.567   2.212  0.00  0.00    -0.245 OA
BRANCH   8  12
ATOM     12  C   UNL d   1      -0.752  -1.032   0.071  0.00  0.00     0.065 A 
ATOM     13  C   UNL d   1      -1.978  -0.579  -0.426  0.00  0.00     0.131 A 
ATOM     14  F   UNL d   1      -2.122   0.691  -0.833  0.00  0.00    -0.205 F 
ATOM     15  C   UNL d   1      -3.091  -1.412  -0.478  0.00  0.00     0.043 A 
ATOM     16  C   UNL d   1      -2.986  -2.728  -0.036  0.00  0.00     0.003 A 
ATOM     17  C   UNL d   1      -1.759  -3.212   0.422  0.00  0.00     0.001 A 
ATOM     18  C   UNL d   1      -0.640  -2.372   0.467  0.00  0.00     0.020 A 
ENDBRANCH   8  12
ENDBRANCH   5   6
ENDBRANCH   3   5
BRANCH   3  19
ATOM     19  C   UNL d   1       4.282   2.812   1.525  0.00  0.00     0.047 C 
ATOM     20  C   UNL d   1       5.321   3.701   2.200  0.00  0.00     0.009 C 
ENDBRANCH   3  19
TORSDOF 4
