REMARK  4 active torsions:
REMARK  status: ('A' for Active; 'I' for Inactive)
REMARK    1  A    between atoms: C_6  and  C_1 
REMARK    2  A    between atoms: C_10  and  C_3 
REMARK    3  A    between atoms: S_12  and  C_5 
REMARK       I    between atoms: N_8  and  C_6 
REMARK    4  A    between atoms: C_13  and  N_8 
ROOT
ATOM      1  C   UNL d   1       0.636  -1.047   0.176  0.00  0.00     0.081 C 
ATOM      2  C   UNL d   1      -1.264   0.350   0.160  0.00  0.00     0.081 C 
ATOM      3  C   UNL d   1      -0.765  -1.025   0.186  0.00  0.00     0.019 C 
ATOM      4  S   UNL d   1       1.237   0.555  -0.197  0.00  0.00    -0.076 SA
ATOM      5  C   UNL d   1      -0.282   1.287  -0.021  0.00  0.00     0.063 C 
ATOM      6  C   UNL d   1      -2.648   0.714   0.319  0.00  0.00     0.102 C 
ATOM      7  N   UNL d   1      -3.765   1.010   0.456  0.00  0.00    -0.191 NA
ENDROOT
BRANCH   3   8
ATOM      8  C   UNL d   1      -1.709  -2.148   0.285  0.00  0.00    -0.023 A 
ATOM      9  C   UNL d   1      -2.752  -2.226  -0.666  0.00  0.00     0.014 A 
ATOM     10  C   UNL d   1      -3.743  -3.206  -0.587  0.00  0.00     0.024 A 
ATOM     11  C   UNL d   1      -3.667  -4.168   0.411  0.00  0.00     0.034 A 
ATOM     12  C   UNL d   1      -2.648  -4.111   1.359  0.00  0.00     0.024 A 
ATOM     13 CL   UNL d   1      -4.849  -5.415   0.483  0.00  0.00    -0.084 Cl
ATOM     14  C   UNL d   1      -1.704  -3.071   1.327  0.00  0.00     0.014 A 
ENDBRANCH   3   8
BRANCH   5  15
ATOM     15  S   UNL d   1      -0.450   3.039  -0.128  0.00  0.00    -0.126 SA
ATOM     16  C   UNL d   1      -0.945   3.436   1.569  0.00  0.00     0.096 C 
ENDBRANCH   5  15
BRANCH   1  17
ATOM     17  C   UNL d   1       1.760  -1.953   0.486  0.00  0.00     0.239 C 
ATOM     18  N   UNL d   1       2.137  -3.053  -0.272  0.00  0.00    -0.250 NA
ATOM     19  H   UNL d   1       3.108  -3.202  -0.004  0.00  0.00     0.131 HD
ATOM     20  O   UNL d   1       2.591  -1.647   1.343  0.00  0.00    -0.273 OA
BRANCH  18  21
ATOM     21  C   UNL d   1       1.444  -4.351  -0.321  0.00  0.00     0.007 C 
ATOM     22  C   UNL d   1       0.321  -4.300  -1.359  0.00  0.00     0.032 C 
ATOM     23  C   UNL d   1       2.412  -5.452  -0.818  0.00  0.00     0.032 C 
ATOM     24  C   UNL d   1       1.023  -4.790   1.088  0.00  0.00     0.032 C 
ENDBRANCH  18  21
ENDBRANCH   1  17
TORSDOF 4
