REMARK  6 active torsions:
REMARK  status: ('A' for Active; 'I' for Inactive)
REMARK    1  A    between atoms: C_6  and  C_1 
REMARK    2  A    between atoms: N_3  and  C_2 
REMARK       I    between atoms: C_8  and  N_3 
REMARK    3  A    between atoms: C_17  and  C_8 
REMARK    4  A    between atoms: S_11  and  C_17 
REMARK    5  A    between atoms: C_20  and  S_11 
REMARK    6  A    between atoms: C_13  and  C_20 
ROOT
ATOM      1  N   UNL d   1       1.751   3.513   0.982  0.00  0.00    -0.325 N 
ATOM      2  C   UNL d   1       2.966   2.923   0.693  0.00  0.00     0.231 C 
ATOM      3  O   UNL d   1       3.240   1.743   0.914  0.00  0.00    -0.272 OA
ATOM      4  H   UNL d   1       1.569   4.409   0.538  0.00  0.00     0.169 HD
ENDROOT
BRANCH   2   5
ATOM      5  C   UNL d   1       4.007   3.830   0.048  0.00  0.00     0.177 C 
BRANCH   5   6
ATOM      6  S   UNL d   1       3.360   5.447  -0.491  0.00  0.00    -0.155 SA
BRANCH   6   7
ATOM      7  C   UNL d   1       4.924   6.170  -1.085  0.00  0.00     0.112 C 
BRANCH   7   8
ATOM      8  C   UNL d   1       4.717   7.560  -1.631  0.00  0.00    -0.049 A 
ATOM      9  C   UNL d   1       4.783   8.678  -0.786  0.00  0.00     0.009 A 
ATOM     10  C   UNL d   1       4.585   9.966  -1.293  0.00  0.00     0.024 A 
ATOM     11  C   UNL d   1       4.314  10.141  -2.650  0.00  0.00     0.034 A 
ATOM     12  C   UNL d   1       4.237   9.042  -3.500  0.00  0.00     0.024 A 
ATOM     13 CL   UNL d   1       4.071  11.725  -3.275  0.00  0.00    -0.084 Cl
ATOM     14  C   UNL d   1       4.434   7.755  -2.993  0.00  0.00     0.009 A 
ENDBRANCH   7   8
ENDBRANCH   6   7
ENDBRANCH   5   6
ENDBRANCH   2   5
BRANCH   1  15
ATOM     15  C   UNL d   1       0.725   2.884   1.682  0.00  0.00     0.056 A 
ATOM     16  C   UNL d   1      -0.624   3.155   1.498  0.00  0.00     0.077 A 
ATOM     17  S   UNL d   1      -1.602   2.279   2.611  0.00  0.00    -0.096 SA
ATOM     18  C   UNL d   1      -0.254   1.495   3.293  0.00  0.00     0.053 A 
ATOM     19  C   UNL d   1       0.922   1.903   2.708  0.00  0.00     0.038 A 
BRANCH  16  20
ATOM     20  C   UNL d   1      -1.314   3.965   0.504  0.00  0.00     0.164 C 
ATOM     21  O   UNL d   1      -2.385   4.542   0.720  0.00  0.00    -0.292 OA
ATOM     22  C   UNL d   1      -0.693   4.090  -0.865  0.00  0.00     0.097 C 
ENDBRANCH  16  20
ENDBRANCH   1  15
TORSDOF 6
