REMARK  5 active torsions:
REMARK  status: ('A' for Active; 'I' for Inactive)
REMARK    1  A    between atoms: C_2  and  S_1 
REMARK    2  A    between atoms: C_5  and  S_1 
REMARK    3  A    between atoms: C_6  and  C_2 
REMARK    4  A    between atoms: N_7  and  C_3 
REMARK    5  A    between atoms: C_4  and  N_7 
ROOT
ATOM      1  C   UNL d   1       0.445  -1.689  -0.521  0.00  0.00     0.125 C 
ATOM      2  C   UNL d   1      -0.173  -2.473   0.385  0.00  0.00     0.133 C 
ENDROOT
BRANCH   1   3
ATOM      3  S   UNL d   1       0.870  -2.291  -2.085  0.00  0.00     0.211 S 
ATOM      4  O   UNL d   1       2.312  -2.263  -2.220  0.00  0.00    -0.217 OA
ATOM      5  O   UNL d   1       0.046  -1.617  -3.082  0.00  0.00    -0.217 OA
BRANCH   3   6
ATOM      6  C   UNL d   1       0.384  -4.007  -2.188  0.00  0.00     0.064 A 
ATOM      7  C   UNL d   1      -0.912  -4.327  -2.619  0.00  0.00     0.025 A 
ATOM      8  C   UNL d   1      -1.273  -5.665  -2.786  0.00  0.00     0.025 A 
ATOM      9  C   UNL d   1      -0.339  -6.671  -2.539  0.00  0.00     0.034 A 
ATOM     10  C   UNL d   1       0.956  -6.351  -2.127  0.00  0.00     0.025 A 
ATOM     11 CL   UNL d   1      -0.783  -8.318  -2.761  0.00  0.00    -0.084 Cl
ATOM     12  C   UNL d   1       1.325  -5.015  -1.955  0.00  0.00     0.025 A 
ENDBRANCH   3   6
ENDBRANCH   1   3
BRANCH   1  13
ATOM     13  C   UNL d   1       0.774  -0.271  -0.180  0.00  0.00     0.168 C 
ATOM     14  O   UNL d   1       0.744   0.107   0.996  0.00  0.00    -0.292 OA
ATOM     15  C   UNL d   1       1.147   0.735  -1.244  0.00  0.00     0.097 C 
ENDBRANCH   1  13
BRANCH   2  16
ATOM     16  N   UNL d   1      -0.719  -2.115   1.595  0.00  0.00    -0.200 N 
ATOM     17  H   UNL d   1      -0.830  -1.128   1.806  0.00  0.00     0.183 HD
BRANCH  16  18
ATOM     18  C   UNL d   1      -1.348  -2.941   2.520  0.00  0.00     0.681 A 
ATOM     19  N   UNL d   1      -0.970  -4.226   2.635  0.00  0.00    -0.202 N 
ATOM     20  C   UNL d   1      -1.576  -4.957   3.590  0.00  0.00     0.107 A 
ATOM     21  HN  UNL d   1      -0.256  -4.629   2.028  1.00  0.00     0.183 HD
ATOM     22  C   UNL d   1      -2.594  -4.482   4.378  0.00  0.00     0.035 A 
ATOM     23  C   UNL d   1      -2.939  -3.173   4.156  0.00  0.00     0.107 A 
ATOM     24  N   UNL d   1      -2.313  -2.380   3.265  0.00  0.00    -0.202 N 
ATOM     25  HN  UNL d   1      -2.562  -1.397   3.160  1.00  0.00     0.183 HD
ENDBRANCH  16  18
ENDBRANCH   2  16
TORSDOF 5
