REMARK  4 active torsions:
REMARK  status: ('A' for Active; 'I' for Inactive)
REMARK    1  A    between atoms: C_3  and  C_1 
REMARK    2  A    between atoms: C_4  and  C_1 
REMARK    3  A    between atoms: N_5  and  C_2 
REMARK    4  A    between atoms: C_8  and  N_5 
ROOT
ATOM      1  N   UNL d   1       0.795  -2.364  -0.722  0.00  0.00    -0.365 N 
ATOM      2  H   UNL d   1       1.818  -2.438  -0.659  0.00  0.00     0.165 HD
ENDROOT
BRANCH   1   3
ATOM      3  C   UNL d   1       0.292  -1.119  -0.424  0.00  0.00     0.107 C 
ATOM      4  C   UNL d   1       0.960  -0.031   0.003  0.00  0.00     0.070 C 
BRANCH   4   5
ATOM      5  C   UNL d   1       0.206   1.222   0.307  0.00  0.00     0.160 C 
ATOM      6  O   UNL d   1       0.739   2.317   0.126  0.00  0.00    -0.293 OA
ATOM      7  C   UNL d   1      -1.201   1.149   0.854  0.00  0.00     0.097 C 
ENDBRANCH   4   5
BRANCH   4   8
ATOM      8  C   UNL d   1       2.456  -0.098   0.134  0.00  0.00     0.160 C 
ATOM      9  O   UNL d   1       3.095  -1.026  -0.372  0.00  0.00    -0.293 OA
ATOM     10  C   UNL d   1       3.177   0.964   0.924  0.00  0.00     0.097 C 
ENDBRANCH   4   8
ENDBRANCH   1   3
BRANCH   1  11
ATOM     11  C   UNL d   1       0.147  -3.472  -1.287  0.00  0.00     0.032 A 
ATOM     12  C   UNL d   1      -1.113  -3.402  -1.896  0.00  0.00     0.031 A 
ATOM     13  C   UNL d   1      -1.745  -4.552  -2.382  0.00  0.00     0.021 A 
ATOM     14  C   UNL d   1      -1.132  -5.792  -2.240  0.00  0.00     0.011 A 
ATOM     15  C   UNL d   1       0.109  -5.892  -1.620  0.00  0.00     0.021 A 
ATOM     16 BR   UNL d   1      -1.993  -7.346  -2.884  0.00  0.00    -0.051 Br
ATOM     17  C   UNL d   1       0.740  -4.738  -1.147  0.00  0.00     0.031 A 
ENDBRANCH   1  11
TORSDOF 4
