REMARK  9 active torsions:
REMARK  status: ('A' for Active; 'I' for Inactive)
REMARK    1  A    between atoms: C_3  and  C_1 
REMARK    2  A    between atoms: O_16  and  C_4 
REMARK    3  A    between atoms: O_17  and  C_6 
REMARK    4  A    between atoms: O_18  and  C_7 
REMARK    5  A    between atoms: O_20  and  C_11 
REMARK    6  A    between atoms: O_21  and  C_12 
REMARK    7  A    between atoms: C_23  and  O_16 
REMARK    8  A    between atoms: C_24  and  O_17 
REMARK    9  A    between atoms: C_25  and  O_18 
ROOT
ATOM      1  C   UNL d   1       2.356  -1.305   0.462  0.00  0.00    -0.003 A 
ATOM      2  C   UNL d   1      -0.421  -0.562   0.116  0.00  0.00     0.135 A 
ATOM      3  C   UNL d   1       0.013  -1.907   0.051  0.00  0.00     0.105 A 
ATOM      4  C   UNL d   1       0.543   0.419   0.328  0.00  0.00     0.105 A 
ATOM      5  C   UNL d   1       1.370  -2.276   0.252  0.00  0.00     0.053 A 
ATOM      6  C   UNL d   1       1.888   0.038   0.426  0.00  0.00     0.053 A 
ENDROOT
BRANCH   1   7
ATOM      7  C   UNL d   1       3.818  -1.502   0.774  0.00  0.00     0.053 A 
ATOM      8  C   UNL d   1       4.696  -2.597   0.485  0.00  0.00     0.004 A 
ATOM      9  C   UNL d   1       4.396  -3.844  -0.133  0.00  0.00     0.054 A 
ATOM     10  C   UNL d   1       6.067  -2.410   0.842  0.00  0.00    -0.019 A 
ATOM     11  C   UNL d   1       5.384  -4.823  -0.365  0.00  0.00     0.102 A 
ATOM     12  C   UNL d   1       6.706  -4.603   0.007  0.00  0.00     0.102 A 
ATOM     13  C   UNL d   1       7.038  -3.386   0.589  0.00  0.00     0.052 A 
ATOM     14  C   UNL d   1       6.508  -1.236   1.442  0.00  0.00     0.029 A 
ATOM     15  C   UNL d   1       5.592  -0.257   1.709  0.00  0.00     0.089 A 
ATOM     16  N   UNL d   1       4.296  -0.379   1.407  0.00  0.00    -0.364 N 
ATOM     17  HN  UNL d   1       3.651   0.373   1.650  1.00  0.00     0.165 HD
BRANCH  11  18
ATOM     18  O   UNL d   1       4.982  -6.004  -0.933  0.00  0.00    -0.353 OA
ATOM     19  C   UNL d   1       5.331  -6.051  -2.317  0.00  0.00     0.210 C 
ENDBRANCH  11  18
BRANCH  12  20
ATOM     20  O   UNL d   1       7.768  -5.430  -0.238  0.00  0.00    -0.353 OA
ATOM     21  C   UNL d   1       7.599  -6.767   0.222  0.00  0.00     0.210 C 
ENDBRANCH  12  20
ENDBRANCH   1   7
BRANCH   3  22
ATOM     22  O   UNL d   1      -0.941  -2.832  -0.309  0.00  0.00    -0.349 OA
BRANCH  22  23
ATOM     23  C   UNL d   1      -1.004  -3.998   0.505  0.00  0.00     0.171 C 
ATOM     24  C   UNL d   1      -2.438  -4.501   0.466  0.00  0.00     0.034 C 
ENDBRANCH  22  23
ENDBRANCH   3  22
BRANCH   4  25
ATOM     25  O   UNL d   1       0.214   1.753   0.369  0.00  0.00    -0.349 OA
BRANCH  25  26
ATOM     26  C   UNL d   1       0.831   2.468   1.449  0.00  0.00     0.171 C 
ATOM     27  C   UNL d   1       0.178   3.835   1.558  0.00  0.00     0.034 C 
ENDBRANCH  25  26
ENDBRANCH   4  25
BRANCH   2  28
ATOM     28  O   UNL d   1      -1.775  -0.371  -0.031  0.00  0.00    -0.346 OA
BRANCH  28  29
ATOM     29  C   UNL d   1      -2.332   0.868   0.406  0.00  0.00     0.171 C 
ATOM     30  C   UNL d   1      -3.846   0.742   0.439  0.00  0.00     0.034 C 
ENDBRANCH  28  29
ENDBRANCH   2  28
TORSDOF 9
