REMARK  7 active torsions:
REMARK  status: ('A' for Active; 'I' for Inactive)
REMARK    1  A    between atoms: N_4  and  C_1 
REMARK    2  A    between atoms: N_9  and  C_1 
REMARK    3  A    between atoms: O_14  and  C_2 
REMARK    4  A    between atoms: C_3  and  C_11 
REMARK    5  A    between atoms: C_10  and  N_4 
REMARK    6  A    between atoms: N_5  and  N_9 
REMARK    7  A    between atoms: O_16  and  C_13 
ROOT
ATOM      1  N   UNL d   1       3.295   0.905  -0.926  0.00  0.00    -0.309 N 
ATOM      2  HN  UNL d   1       2.777   1.486  -1.586  1.00  0.00     0.186 HD
ATOM      3  C   UNL d   1       4.591   0.913  -0.841  0.00  0.00     0.121 C 
ENDROOT
BRANCH   1   4
ATOM      4  N   UNL d   1       2.686   0.047  -0.052  0.00  0.00    -0.277 N 
ATOM      5  H   UNL d   1       3.241  -0.566   0.538  0.00  0.00     0.189 HD
BRANCH   4   6
ATOM      6  C   UNL d   1       1.315  -0.080   0.049  0.00  0.00     0.187 C 
ATOM      7  S   UNL d   1       0.719  -1.222   1.106  0.00  0.00    -0.040 SA
BRANCH   6   8
ATOM      8  N   UNL d   1       0.621   0.805  -0.731  0.00  0.00    -0.358 N 
ATOM      9  H   UNL d   1       1.248   1.318  -1.339  0.00  0.00     0.162 HD
BRANCH   8  10
ATOM     10  C   UNL d   1      -0.790   1.249  -0.692  0.00  0.00     0.021 C 
ATOM     11  C   UNL d   1      -1.176   1.716   0.722  0.00  0.00     0.037 C 
ATOM     12  C   UNL d   1      -0.927   2.460  -1.641  0.00  0.00     0.037 C 
ATOM     13  C   UNL d   1      -1.754   0.160  -1.183  0.00  0.00     0.037 C 
ENDBRANCH   8  10
ENDBRANCH   6   8
ENDBRANCH   4   6
ENDBRANCH   1   4
BRANCH   3  14
ATOM     14  C   UNL d   1       5.425   1.675  -1.792  0.00  0.00     0.014 A 
ATOM     15  C   UNL d   1       4.865   2.462  -2.804  0.00  0.00     0.080 A 
ATOM     16  C   UNL d   1       5.675   3.062  -3.763  0.00  0.00     0.074 A 
ATOM     17  C   UNL d   1       7.055   2.876  -3.705  0.00  0.00     0.068 A 
ATOM     18  C   UNL d   1       7.633   2.132  -2.681  0.00  0.00     0.037 A 
ATOM     19  C   UNL d   1       6.819   1.528  -1.718  0.00  0.00     0.018 A 
BRANCH  15  20
ATOM     20  O   UNL d   1       3.518   2.678  -2.919  0.00  0.00    -0.360 OA
ATOM     21  H   UNL d   1       3.090   2.169  -2.199  0.00  0.00     0.217 HD
ENDBRANCH  15  20
BRANCH  17  22
ATOM     22  O   UNL d   1       7.809   3.442  -4.689  0.00  0.00    -0.361 OA
ATOM     23  H   UNL d   1       8.730   3.153  -4.588  0.00  0.00     0.217 HD
ENDBRANCH  17  22
ENDBRANCH   3  14
TORSDOF 7
