REMARK  3 active torsions:
REMARK  status: ('A' for Active; 'I' for Inactive)
REMARK    1  A    between atoms: C_2  and  S_1 
REMARK    2  A    between atoms: N_11  and  S_1 
REMARK    3  A    between atoms: C_3  and  C_6 
ROOT
ATOM      1  C   UNL d   1       0.400  -0.679   1.484  0.00  0.00     0.117 A 
ATOM      2  C   UNL d   1      -0.187   0.005   2.556  0.00  0.00     0.059 A 
ATOM      3  C   UNL d   1       0.599  -2.067   1.597  0.00  0.00     0.059 A 
ATOM      4  C   UNL d   1      -0.296  -2.059   3.865  0.00  0.00     0.051 A 
ATOM      5  C   UNL d   1       0.254  -2.744   2.779  0.00  0.00     0.041 A 
ATOM      6  C   UNL d   1      -0.520  -0.685   3.735  0.00  0.00     0.041 A 
ATOM      7 CL   UNL d   1      -0.590   1.685   2.581  0.00  0.00    -0.083 Cl
ATOM      8 CL   UNL d   1       1.260  -3.070   0.348  0.00  0.00    -0.083 Cl
ENDROOT
BRANCH   1   9
ATOM      9  S   UNL d   1       0.897   0.146   0.004  0.00  0.00     0.242 S 
ATOM     10  O   UNL d   1       0.877   1.582   0.148  0.00  0.00    -0.206 OA
ATOM     11  O   UNL d   1       0.276  -0.502  -1.125  0.00  0.00    -0.206 OA
BRANCH   9  12
ATOM     12  N   UNL d   1       2.544  -0.195  -0.077  0.00  0.00    -0.225 NA
ATOM     13  H   UNL d   1       3.072   0.677   0.003  0.00  0.00     0.136 HD
ATOM     14  H   UNL d   1       2.745  -0.717  -0.932  0.00  0.00     0.136 HD
ENDBRANCH   9  12
ENDBRANCH   1   9
BRANCH   4  15
ATOM     15  C   UNL d   1      -0.648  -2.764   5.152  0.00  0.00     0.417 C 
ATOM     16  F   UNL d   1      -0.386  -4.099   5.128  0.00  0.00    -0.166 F 
ATOM     17  F   UNL d   1       0.039  -2.264   6.214  0.00  0.00    -0.166 F 
ATOM     18  F   UNL d   1      -1.967  -2.644   5.463  0.00  0.00    -0.166 F 
ENDBRANCH   4  15
TORSDOF 3
