REMARK  4 active torsions:
REMARK  status: ('A' for Active; 'I' for Inactive)
REMARK    1  A    between atoms: C_2  and  S_1 
REMARK    2  A    between atoms: C_3  and  S_1 
REMARK    3  A    between atoms: N_13  and  C_4 
REMARK    4  A    between atoms: C_15  and  N_13 
ROOT
ATOM      1  C   UNL d   1       0.541   1.582   0.600  0.00  0.00     0.160 C 
ATOM      2  C   UNL d   1      -0.239   2.361  -0.174  0.00  0.00     0.123 C 
ATOM      3  C   UNL d   1       1.001   0.311   0.188  0.00  0.00     0.113 C 
ATOM      4  N   UNL d   1       1.337  -0.727  -0.205  0.00  0.00    -0.191 NA
ENDROOT
BRANCH   1   5
ATOM      5  S   UNL d   1       0.859   2.106   2.219  0.00  0.00     0.233 S 
ATOM      6  O   UNL d   1      -0.185   1.562   3.075  0.00  0.00    -0.215 OA
ATOM      7  O   UNL d   1       1.113   3.538   2.240  0.00  0.00    -0.215 OA
BRANCH   5   8
ATOM      8  C   UNL d   1       2.385   1.303   2.695  0.00  0.00     0.134 A 
ATOM      9  N   UNL d   1       3.436   1.584   1.882  0.00  0.00    -0.356 N 
ATOM     10  C   UNL d   1       4.618   1.043   2.250  0.00  0.00     0.089 A 
ATOM     11  HN  UNL d   1       3.340   2.166   1.050  1.00  0.00     0.166 HD
ATOM     12  C   UNL d   1       4.782   0.228   3.362  0.00  0.00     0.017 A 
ATOM     13  C   UNL d   1       3.672  -0.054   4.155  0.00  0.00     0.004 A 
ATOM     14  C   UNL d   1       2.439   0.497   3.824  0.00  0.00     0.042 A 
ENDBRANCH   5   8
ENDBRANCH   1   5
BRANCH   2  15
ATOM     15  N   UNL d   1      -0.733   2.080  -1.431  0.00  0.00    -0.364 N 
ATOM     16  H   UNL d   1      -0.572   1.138  -1.792  0.00  0.00     0.165 HD
BRANCH  15  17
ATOM     17  C   UNL d   1      -1.455   2.914  -2.301  0.00  0.00     0.033 A 
ATOM     18  C   UNL d   1      -2.327   2.317  -3.228  0.00  0.00     0.056 A 
ATOM     19  C   UNL d   1      -3.115   3.095  -4.078  0.00  0.00     0.074 A 
ATOM     20 CL   UNL d   1      -4.182   2.321  -5.186  0.00  0.00    -0.081 Cl
ATOM     21  C   UNL d   1      -3.038   4.482  -4.015  0.00  0.00     0.138 A 
ATOM     22  C   UNL d   1      -2.186   5.096  -3.105  0.00  0.00     0.046 A 
ATOM     23  F   UNL d   1      -3.784   5.249  -4.824  0.00  0.00    -0.204 F 
ATOM     24  C   UNL d   1      -1.409   4.315  -2.240  0.00  0.00     0.032 A 
ENDBRANCH  15  17
ENDBRANCH   2  15
TORSDOF 4
