REMARK  2 active torsions:
REMARK  status: ('A' for Active; 'I' for Inactive)
REMARK    1  A    between atoms: C_13  and  N_1 
REMARK    2  A    between atoms: N_14  and  C_7 
ROOT
ATOM      1  N   UNL d   1      -1.548  -1.112  -0.054  0.00  0.00    -0.239 N 
ATOM      2  C   UNL d   1      -0.232  -0.654   0.011  0.00  0.00     0.143 A 
ATOM      3  N   UNL d   1      -2.430  -0.066  -0.143  0.00  0.00    -0.302 N 
ATOM      4  HN  UNL d   1      -3.444  -0.112  -0.240  1.00  0.00     0.186 HD
ATOM      5  C   UNL d   1      -0.298   0.731   0.021  0.00  0.00     0.070 A 
ATOM      6  C   UNL d   1      -1.666   1.023  -0.073  0.00  0.00     0.127 A 
ATOM      7  C   UNL d   1       0.903   1.437   0.117  0.00  0.00     0.115 A 
ATOM      8  N   UNL d   1       0.909  -1.373   0.060  0.00  0.00    -0.336 N 
ATOM      9  HN  UNL d   1       0.938  -2.393   0.048  1.00  0.00     0.168 HD
ATOM     10  N   UNL d   1       2.058   0.746   0.158  0.00  0.00    -0.338 N 
ATOM     11  HN  UNL d   1       2.955   1.229   0.211  1.00  0.00     0.168 HD
ATOM     12  C   UNL d   1       2.000  -0.597   0.127  0.00  0.00     0.183 A 
ENDROOT
BRANCH   1  13
ATOM     13  C   UNL d   1      -2.040  -2.454  -0.032  0.00  0.00     0.058 A 
ATOM     14  C   UNL d   1      -1.185  -3.552   0.129  0.00  0.00     0.031 A 
ATOM     15  C   UNL d   1      -1.700  -4.852   0.159  0.00  0.00     0.002 A 
ATOM     16  C   UNL d   1      -3.068  -5.068   0.028  0.00  0.00     0.000 A 
ATOM     17  C   UNL d   1      -3.928  -3.984  -0.131  0.00  0.00     0.002 A 
ATOM     18  C   UNL d   1      -3.421  -2.683  -0.159  0.00  0.00     0.031 A 
ENDBRANCH   1  13
BRANCH   7  19
ATOM     19  N   UNL d   1       0.991   2.817   0.175  0.00  0.00    -0.385 N 
ATOM     20  H   UNL d   1       0.228   3.350  -0.215  0.00  0.00     0.157 HD
ATOM     21  H   UNL d   1       1.930   3.141  -0.027  0.00  0.00     0.157 HD
ENDBRANCH   7  19
TORSDOF 2
