REMARK  6 active torsions:
REMARK  status: ('A' for Active; 'I' for Inactive)
REMARK    1  A    between atoms: C_19  and  C_5 
REMARK    2  A    between atoms: C_6  and  C_13 
REMARK    3  A    between atoms: O_18  and  C_7 
REMARK    4  A    between atoms: N_11  and  C_20 
REMARK    5  A    between atoms: C_21  and  C_19 
REMARK    6  A    between atoms: C_20  and  C_21 
ROOT
ATOM      1  N   UNL d   1      -1.529   5.342   2.522  0.00  0.00    -0.398 N 
ATOM      2  HN  UNL d   1      -2.172   5.489   1.745  1.00  0.00     0.158 HD
ATOM      3  C   UNL d   1      -1.484   6.126   3.546  0.00  0.00     0.097 C 
ENDROOT
BRANCH   1   4
ATOM      4  C   UNL d   1      -0.588   4.227   2.563  0.00  0.00     0.119 C 
BRANCH   4   5
ATOM      5  C   UNL d   1      -0.786   3.410   1.286  0.00  0.00     0.021 C 
BRANCH   5   6
ATOM      6  C   UNL d   1      -0.549   4.203  -0.007  0.00  0.00     0.021 C 
BRANCH   6   7
ATOM      7  C   UNL d   1       0.831   4.841  -0.113  0.00  0.00     0.119 A 
ATOM      8  C   UNL d   1       1.949   3.831  -0.159  0.00  0.00     0.245 A 
ATOM      9  N   UNL d   1       2.517   3.990  -1.413  0.00  0.00    -0.270 N 
ATOM     10  O   UNL d   1       2.287   3.050   0.711  0.00  0.00    -0.271 OA
ATOM     11  N   UNL d   1       1.965   4.979  -2.176  0.00  0.00    -0.312 N 
ATOM     12  H   UNL d   1       3.304   3.443  -1.748  0.00  0.00     0.190 HD
ATOM     13  C   UNL d   1       1.010   5.485  -1.462  0.00  0.00     0.094 A 
ATOM     14  HN  UNL d   1       2.247   5.261  -3.114  1.00  0.00     0.185 HD
ENDBRANCH   6   7
ENDBRANCH   5   6
ENDBRANCH   4   5
ENDBRANCH   1   4
BRANCH   3  15
ATOM     15  C   UNL d   1      -2.380   7.296   3.618  0.00  0.00     0.013 A 
ATOM     16  C   UNL d   1      -3.317   7.565   2.608  0.00  0.00     0.077 A 
ATOM     17  C   UNL d   1      -4.143   8.681   2.688  0.00  0.00     0.039 A 
ATOM     18  C   UNL d   1      -4.027   9.546   3.778  0.00  0.00     0.022 A 
ATOM     19  C   UNL d   1      -3.087   9.285   4.777  0.00  0.00     0.011 A 
ATOM     20  C   UNL d   1      -2.267   8.157   4.710  0.00  0.00     0.034 A 
ATOM     21 BR   UNL d   1      -2.921  10.475   6.236  0.00  0.00    -0.051 Br
BRANCH  16  22
ATOM     22  O   UNL d   1      -3.470   6.768   1.508  0.00  0.00    -0.360 OA
ATOM     23  H   UNL d   1      -2.824   6.029   1.602  0.00  0.00     0.217 HD
ENDBRANCH  16  22
ENDBRANCH   3  15
TORSDOF 6
