REMARK  4 active torsions:
REMARK  status: ('A' for Active; 'I' for Inactive)
REMARK    1  A    between atoms: C_10  and  N_3 
REMARK    2  A    between atoms: C_9  and  N_4 
REMARK    3  A    between atoms: C_15  and  C_7 
REMARK    4  A    between atoms: N_14  and  C_13 
ROOT
ATOM      1  C   UNL d   1      -1.381   0.001  -0.020  0.00  0.00     0.196 C 
ATOM      2  C   UNL d   1       1.504  -0.091   0.102  0.00  0.00     0.102 C 
ATOM      3  N   UNL d   1      -0.650  -1.214   0.062  0.00  0.00    -0.254 N 
ATOM      4  N   UNL d   1      -0.583   1.174  -0.141  0.00  0.00    -0.254 N 
ATOM      5  C   UNL d   1       0.817   1.215  -0.051  0.00  0.00     0.270 C 
ATOM      6  C   UNL d   1       0.742  -1.355   0.058  0.00  0.00     0.270 C 
ATOM      7  C   UNL d   1       2.848  -0.040   0.242  0.00  0.00     0.034 C 
ATOM      8  S   UNL d   1      -3.087   0.040   0.104  0.00  0.00    -0.039 SA
ATOM      9  O   UNL d   1       1.483   2.249  -0.120  0.00  0.00    -0.266 OA
ATOM     10  O   UNL d   1       1.311  -2.442   0.010  0.00  0.00    -0.266 OA
ENDROOT
BRANCH   7  11
ATOM     11  C   UNL d   1       3.790  -1.158   0.375  0.00  0.00    -0.035 A 
ATOM     12  C   UNL d   1       4.415  -1.692  -0.749  0.00  0.00     0.013 A 
ATOM     13  C   UNL d   1       5.344  -2.739  -0.618  0.00  0.00     0.030 A 
ATOM     14  C   UNL d   1       5.695  -3.285   0.627  0.00  0.00     0.029 A 
ATOM     15  C   UNL d   1       5.041  -2.726   1.740  0.00  0.00     0.030 A 
ATOM     16  C   UNL d   1       4.104  -1.684   1.624  0.00  0.00     0.013 A 
BRANCH  14  17
ATOM     17  N   UNL d   1       6.651  -4.280   0.766  0.00  0.00    -0.390 N 
ATOM     18  C   UNL d   1       6.591  -5.261   1.849  0.00  0.00     0.149 C 
ATOM     19  C   UNL d   1       7.621  -4.595  -0.279  0.00  0.00     0.149 C 
ENDBRANCH  14  17
ENDBRANCH   7  11
BRANCH   4  20
ATOM     20  C   UNL d   1      -1.206   2.460  -0.358  0.00  0.00     0.045 A 
ATOM     21  C   UNL d   1      -1.982   2.698  -1.506  0.00  0.00     0.030 A 
ATOM     22  C   UNL d   1      -2.543   3.958  -1.732  0.00  0.00     0.002 A 
ATOM     23  C   UNL d   1      -2.340   4.989  -0.817  0.00  0.00     0.000 A 
ATOM     24  C   UNL d   1      -1.576   4.764   0.326  0.00  0.00     0.002 A 
ATOM     25  C   UNL d   1      -1.005   3.509   0.550  0.00  0.00     0.030 A 
ENDBRANCH   4  20
BRANCH   3  26
ATOM     26  C   UNL d   1      -1.354  -2.463   0.081  0.00  0.00     0.045 A 
ATOM     27  C   UNL d   1      -1.637  -3.095   1.299  0.00  0.00     0.030 A 
ATOM     28  C   UNL d   1      -2.314  -4.316   1.304  0.00  0.00     0.002 A 
ATOM     29  C   UNL d   1      -2.699  -4.909   0.100  0.00  0.00     0.000 A 
ATOM     30  C   UNL d   1      -2.408  -4.284  -1.113  0.00  0.00     0.002 A 
ATOM     31  C   UNL d   1      -1.732  -3.064  -1.127  0.00  0.00     0.030 A 
ENDBRANCH   3  26
TORSDOF 4
