REMARK  6 active torsions:
REMARK  status: ('A' for Active; 'I' for Inactive)
REMARK    1  A    between atoms: O_6  and  C_1 
REMARK       I    between atoms: N_7  and  C_1 
REMARK    2  A    between atoms: C_2  and  O_8 
REMARK    3  A    between atoms: N_3  and  C_4 
REMARK    4  A    between atoms: C_5  and  O_6 
REMARK    5  A    between atoms: C_14  and  N_7 
REMARK    6  A    between atoms: O_8  and  C_15 
ROOT
ATOM      1  C   UNL d   1       0.790  -1.747  -1.276  0.00  0.00     0.370 C 
ATOM      2  N   UNL d   1       1.255  -2.701  -0.403  0.00  0.00    -0.302 N 
ATOM      3  O   UNL d   1       0.948  -1.882  -2.487  0.00  0.00    -0.238 OA
ATOM      4  H   UNL d   1       1.754  -3.434  -0.890  0.00  0.00     0.171 HD
ENDROOT
BRANCH   1   5
ATOM      5  O   UNL d   1       0.167  -0.662  -0.687  0.00  0.00    -0.259 OA
BRANCH   5   6
ATOM      6  C   UNL d   1      -1.046  -0.117  -1.197  0.00  0.00     0.107 A 
ATOM      7  C   UNL d   1      -1.486   1.123  -0.673  0.00  0.00     0.064 A 
ATOM      8  C   UNL d   1      -2.818   1.462  -0.988  0.00  0.00     0.032 A 
ATOM      9  C   UNL d   1      -3.643   0.648  -1.774  0.00  0.00     0.002 A 
ATOM     10  C   UNL d   1      -3.160  -0.534  -2.306  0.00  0.00     0.003 A 
ATOM     11  C   UNL d   1      -1.859  -0.925  -2.011  0.00  0.00     0.040 A 
BRANCH   7  12
ATOM     12  N   UNL d   1      -0.705   2.010   0.058  0.00  0.00    -0.375 N 
ATOM     13  C   UNL d   1      -1.264   2.822   1.159  0.00  0.00     0.149 C 
ATOM     14  C   UNL d   1      -0.607   4.211   1.153  0.00  0.00     0.187 C 
ATOM     15  O   UNL d   1       0.819   4.107   1.291  0.00  0.00    -0.388 OA
ATOM     16  C   UNL d   1       1.363   3.359   0.192  0.00  0.00     0.187 C 
ATOM     17  C   UNL d   1       0.768   1.940   0.091  0.00  0.00     0.149 C 
ENDBRANCH   7  12
ENDBRANCH   5   6
ENDBRANCH   1   5
BRANCH   2  18
ATOM     18  C   UNL d   1       1.139  -2.812   0.993  0.00  0.00     0.037 A 
ATOM     19  C   UNL d   1       0.400  -1.951   1.806  0.00  0.00     0.032 A 
ATOM     20  C   UNL d   1       0.414  -2.086   3.197  0.00  0.00     0.039 A 
ATOM     21  C   UNL d   1       1.193  -3.068   3.798  0.00  0.00     0.078 A 
ATOM     22  C   UNL d   1       1.846  -3.999   2.996  0.00  0.00     0.039 A 
ATOM     23  C   UNL d   1       1.825  -3.872   1.603  0.00  0.00     0.032 A 
BRANCH  21  24
ATOM     24  O   UNL d   1       1.290  -3.236   5.144  0.00  0.00    -0.255 OA
BRANCH  24  25
ATOM     25  C   UNL d   1       1.555  -2.071   5.926  0.00  0.00     0.530 C 
ATOM     26  F   UNL d   1       1.516  -0.911   5.238  0.00  0.00    -0.144 F 
ATOM     27  F   UNL d   1       0.647  -2.002   6.924  0.00  0.00    -0.144 F 
ATOM     28  F   UNL d   1       2.782  -2.186   6.480  0.00  0.00    -0.144 F 
ENDBRANCH  24  25
ENDBRANCH  21  24
ENDBRANCH   2  18
TORSDOF 6
