REMARK  3 active torsions:
REMARK  status: ('A' for Active; 'I' for Inactive)
REMARK    1  A    between atoms: C_7  and  N_2 
REMARK    2  A    between atoms: C_10  and  N_3 
REMARK    3  A    between atoms: C_11  and  C_5 
ROOT
ATOM      1  C   UNL d   1       0.890  -1.035  -0.316  0.00  0.00     0.157 A 
ATOM      2  N   UNL d   1      -0.509  -1.299  -0.189  0.00  0.00    -0.293 N 
ATOM      3  N   UNL d   1       2.004  -1.642  -0.484  0.00  0.00    -0.322 N 
ATOM      4  HN  UNL d   1       2.851  -1.074  -0.486  1.00  0.00     0.169 HD
ATOM      5  C   UNL d   1      -1.293  -0.081   0.019  0.00  0.00     0.033 A 
ATOM      6  S   UNL d   1       1.159   0.742  -0.165  0.00  0.00    -0.063 SA
ATOM      7  C   UNL d   1      -0.524   1.032   0.028  0.00  0.00     0.079 A 
ENDROOT
BRANCH   2   8
ATOM      8  C   UNL d   1      -0.962  -2.623   0.108  0.00  0.00     0.063 C 
ATOM      9  C   UNL d   1      -1.901  -3.346  -0.665  0.00  0.00     0.062 C 
ATOM     10  C   UNL d   1      -2.344  -4.623  -0.280  0.00  0.00     0.050 C 
ATOM     11 CL   UNL d   1      -2.491  -2.819  -2.194  0.00  0.00    -0.082 Cl
ATOM     12  C   UNL d   1      -1.747  -5.273   0.787  0.00  0.00     0.035 C 
ATOM     13  C   UNL d   1      -0.739  -4.641   1.506  0.00  0.00     0.026 C 
ATOM     14 CL   UNL d   1      -2.212  -6.881   1.179  0.00  0.00    -0.084 Cl
ATOM     15  C   UNL d   1      -0.386  -3.320   1.198  0.00  0.00     0.033 C 
ENDBRANCH   2   8
BRANCH   3  16
ATOM     16  C   UNL d   1       2.152  -3.004  -0.662  0.00  0.00     0.106 A 
ATOM     17  N   UNL d   1       1.254  -3.640  -1.438  0.00  0.00    -0.352 N 
ATOM     18  C   UNL d   1       1.380  -4.981  -1.538  0.00  0.00     0.089 A 
ATOM     19  HN  UNL d   1       0.516  -3.134  -1.927  1.00  0.00     0.166 HD
ATOM     20  C   UNL d   1       2.393  -5.710  -0.939  0.00  0.00     0.017 A 
ATOM     21  C   UNL d   1       3.352  -5.025  -0.210  0.00  0.00     0.005 A 
ATOM     22  C   UNL d   1       3.231  -3.646  -0.070  0.00  0.00     0.048 A 
ENDBRANCH   3  16
BRANCH   5  23
ATOM     23  C   UNL d   1      -2.834   0.080   0.132  0.00  0.00    -0.008 C 
ATOM     24  C   UNL d   1      -3.553  -0.966   1.012  0.00  0.00     0.021 C 
ATOM     25  C   UNL d   1      -3.266   1.430   0.803  0.00  0.00     0.021 C 
ATOM     26  C   UNL d   1      -3.426   0.180  -1.296  0.00  0.00     0.021 C 
ENDBRANCH   5  23
TORSDOF 3
