REMARK  2 active torsions:
REMARK  status: ('A' for Active; 'I' for Inactive)
REMARK       I    between atoms: N_2  and  C_1 
REMARK       I    between atoms: N_3  and  C_1 
REMARK    1  A    between atoms: C_4  and  N_3 
REMARK    2  A    between atoms: O_15  and  C_12 
ROOT
ATOM      1  C   UNL d   1       0.912   0.024   0.147  0.00  0.00     0.322 C 
ATOM      2  N   UNL d   1       0.210  -1.095   0.594  0.00  0.00    -0.334 N 
ATOM      3  N   UNL d   1       0.304   0.670  -0.913  0.00  0.00    -0.308 N 
ATOM      4  O   UNL d   1       2.010   0.318   0.606  0.00  0.00    -0.247 OA
ATOM      5  C   UNL d   1      -1.244  -1.255   0.535  0.00  0.00     0.130 C 
ATOM      6  C   UNL d   1       0.929  -2.108   1.353  0.00  0.00     0.130 C 
ATOM      7  C   UNL d   1       0.400  -2.223   2.777  0.00  0.00     0.051 C 
ATOM      8  C   UNL d   1      -1.833  -1.351   1.944  0.00  0.00     0.051 C 
ATOM      9  C   UNL d   1      -1.119  -2.394   2.806  0.00  0.00     0.121 C 
ATOM     10  H   UNL d   1      -0.283   0.052  -1.445  0.00  0.00     0.170 HD
ENDROOT
BRANCH   3  11
ATOM     11  C   UNL d   1       0.851   1.787  -1.595  0.00  0.00     0.043 A 
ATOM     12  C   UNL d   1       0.653   1.947  -2.987  0.00  0.00    -0.013 A 
ATOM     13  C   UNL d   1       1.322   3.010  -3.634  0.00  0.00     0.042 A 
ATOM     14  C   UNL d   1      -0.147   0.971  -3.813  0.00  0.00     0.052 C 
ATOM     15 CL   UNL d   1       1.265   3.214  -5.354  0.00  0.00    -0.084 Cl
ATOM     16  C   UNL d   1       2.092   3.930  -2.918  0.00  0.00     0.024 A 
ATOM     17  C   UNL d   1       2.215   3.807  -1.542  0.00  0.00     0.004 A 
ATOM     18  C   UNL d   1       1.601   2.740  -0.888  0.00  0.00     0.030 A 
ENDBRANCH   3  11
BRANCH   9  19
ATOM     19  O   UNL d   1      -1.493  -3.709   2.398  0.00  0.00    -0.395 OA
ATOM     20  H   UNL d   1      -1.121  -3.894   1.521  0.00  0.00     0.210 HD
ENDBRANCH   9  19
TORSDOF 2
