REMARK  3 active torsions:
REMARK  status: ('A' for Active; 'I' for Inactive)
REMARK    1  A    between atoms: C_4  and  C_1 
REMARK    2  A    between atoms: C_2  and  C_4 
REMARK       I    between atoms: N_6  and  C_2 
REMARK    3  A    between atoms: N_8  and  N_6 
ROOT
ATOM      1  C   UNL d   1       1.305  -1.340   0.029  0.00  0.00    -0.038 A 
ATOM      2  C   UNL d   1       0.028  -0.709   0.013  0.00  0.00    -0.019 A 
ATOM      3  C   UNL d   1      -0.031   0.710   0.020  0.00  0.00    -0.025 A 
ATOM      4  C   UNL d   1       2.472  -0.552   0.028  0.00  0.00     0.008 A 
ATOM      5  C   UNL d   1       2.396   0.836   0.024  0.00  0.00     0.001 A 
ATOM      6  C   UNL d   1      -1.202  -1.408  -0.016  0.00  0.00     0.013 A 
ATOM      7  C   UNL d   1       1.153   1.461   0.025  0.00  0.00     0.012 A 
ATOM      8  C   UNL d   1      -1.273   1.365   0.018  0.00  0.00     0.012 A 
ATOM      9  C   UNL d   1      -2.429  -0.741  -0.012  0.00  0.00     0.001 A 
ATOM     10  C   UNL d   1      -2.466   0.646   0.005  0.00  0.00     0.001 A 
ENDROOT
BRANCH   1  11
ATOM     11  C   UNL d   1       1.474  -2.849   0.008  0.00  0.00     0.143 C 
BRANCH  11  12
ATOM     12  C   UNL d   1       0.854  -3.609   1.167  0.00  0.00     0.235 C 
ATOM     13  O   UNL d   1       0.345  -4.721   1.014  0.00  0.00    -0.272 OA
ATOM     14  N   UNL d   1       0.948  -3.004   2.411  0.00  0.00    -0.294 N 
ATOM     15  H   UNL d   1       1.386  -2.091   2.522  0.00  0.00     0.183 HD
BRANCH  14  16
ATOM     16  N   UNL d   1       0.392  -3.648   3.539  0.00  0.00    -0.247 NA
ATOM     17  H   UNL d   1       0.263  -4.637   3.279  0.00  0.00     0.143 HD
ATOM     18  H   UNL d   1      -0.567  -3.304   3.652  0.00  0.00     0.143 HD
ENDBRANCH  14  16
ENDBRANCH  11  12
ENDBRANCH   1  11
TORSDOF 3
