REMARK  4 active torsions:
REMARK  status: ('A' for Active; 'I' for Inactive)
REMARK       I    between atoms: N_3  and  C_1 
REMARK    1  A    between atoms: O_7  and  C_1 
REMARK    2  A    between atoms: C_2  and  C_6 
REMARK    3  A    between atoms: C_11  and  N_3 
REMARK    4  A    between atoms: C_12  and  O_7 
ROOT
ATOM      1  O   UNL d   1       0.294  -0.247   0.774  0.00  0.00    -0.261 OA
ENDROOT
BRANCH   1   2
ATOM      2  C   UNL d   1       1.118  -1.127   0.084  0.00  0.00     0.370 C 
ATOM      3  N   UNL d   1       2.167  -0.416  -0.439  0.00  0.00    -0.302 N 
ATOM      4  H   UNL d   1       2.166   0.562  -0.185  0.00  0.00     0.171 HD
ATOM      5  O   UNL d   1       0.900  -2.328  -0.032  0.00  0.00    -0.238 OA
BRANCH   3   6
ATOM      6  C   UNL d   1       3.198  -0.883  -1.271  0.00  0.00     0.036 A 
ATOM      7  C   UNL d   1       3.254  -2.184  -1.777  0.00  0.00     0.031 A 
ATOM      8  C   UNL d   1       4.338  -2.596  -2.559  0.00  0.00     0.026 A 
ATOM      9  C   UNL d   1       5.369  -1.706  -2.840  0.00  0.00     0.034 A 
ATOM     10  C   UNL d   1       5.309  -0.395  -2.374  0.00  0.00     0.026 A 
ATOM     11 CL   UNL d   1       6.727  -2.228  -3.759  0.00  0.00    -0.084 Cl
ATOM     12  C   UNL d   1       4.221   0.017  -1.598  0.00  0.00     0.031 A 
ENDBRANCH   3   6
ENDBRANCH   1   2
BRANCH   1  13
ATOM     13  C   UNL d   1      -1.065  -0.590   0.851  0.00  0.00     0.081 A 
ATOM     14  C   UNL d   1      -1.725  -0.377   2.057  0.00  0.00     0.038 A 
ATOM     15  C   UNL d   1      -3.114  -0.529   2.115  0.00  0.00     0.012 A 
ATOM     16  C   UNL d   1      -3.853  -0.882   0.969  0.00  0.00    -0.035 A 
ATOM     17  C   UNL d   1      -3.154  -1.116  -0.229  0.00  0.00     0.012 A 
ATOM     18  C   UNL d   1      -1.770  -0.963  -0.292  0.00  0.00     0.038 A 
BRANCH  16  19
ATOM     19  C   UNL d   1      -5.368  -0.943   1.030  0.00  0.00     0.141 C 
ATOM     20  S   UNL d   1      -6.034  -2.566   0.533  0.00  0.00    -0.148 SA
ATOM     21  C   UNL d   1      -7.391  -1.938  -0.488  0.00  0.00     0.085 C 
ATOM     22  C   UNL d   1      -6.893  -0.704  -1.211  0.00  0.00     0.085 C 
ATOM     23  S   UNL d   1      -6.134   0.380   0.024  0.00  0.00    -0.148 SA
ENDBRANCH  16  19
ENDBRANCH   1  13
TORSDOF 4
