REMARK  2 active torsions:
REMARK  status: ('A' for Active; 'I' for Inactive)
REMARK    1  A    between atoms: C_10  and  C_4 
REMARK    2  A    between atoms: C_13  and  C_8 
ROOT
ATOM      1  C   UNL d   1      -2.061   0.312   0.065  0.00  0.00    -0.006 C 
ATOM      2  C   UNL d   1      -1.073  -0.820   0.034  0.00  0.00     0.189 C 
ATOM      3  C   UNL d   1       0.364  -0.423   0.023  0.00  0.00     0.021 A 
ATOM      4  C   UNL d   1      -3.267   0.098  -0.491  0.00  0.00     0.022 C 
ATOM      5  C   UNL d   1       0.745   0.933  -0.026  0.00  0.00    -0.044 A 
ATOM      6  C   UNL d   1      -1.559   1.587   0.674  0.00  0.00     0.047 C 
ATOM      7  O   UNL d   1      -1.421  -1.992  -0.000  0.00  0.00    -0.287 OA
ATOM      8  C   UNL d   1      -0.292   2.027  -0.049  0.00  0.00     0.044 C 
ATOM      9  C   UNL d   1       1.343  -1.423   0.029  0.00  0.00     0.016 A 
ATOM     10  C   UNL d   1       2.105   1.262  -0.105  0.00  0.00     0.008 A 
ATOM     11  C   UNL d   1       2.695  -1.082  -0.026  0.00  0.00     0.001 A 
ATOM     12  C   UNL d   1       3.074   0.258  -0.099  0.00  0.00     0.001 A 
ENDROOT
BRANCH   4  13
ATOM     13  C   UNL d   1      -4.297   1.125  -0.653  0.00  0.00    -0.036 A 
ATOM     14  C   UNL d   1      -4.325   1.898  -1.816  0.00  0.00     0.012 A 
ATOM     15  C   UNL d   1      -5.332   2.847  -2.010  0.00  0.00     0.008 A 
ATOM     16  C   UNL d   1      -6.331   3.042  -1.046  0.00  0.00    -0.055 A 
ATOM     17  C   UNL d   1      -6.275   2.284   0.135  0.00  0.00     0.008 A 
ATOM     18  C   UNL d   1      -5.264   1.334   0.331  0.00  0.00     0.012 A 
BRANCH  16  19
ATOM     19  C   UNL d   1      -7.463   4.033  -1.268  0.00  0.00     0.010 C 
ATOM     20  C   UNL d   1      -6.940   5.462  -1.438  0.00  0.00     0.015 C 
ATOM     21  C   UNL d   1      -8.333   3.639  -2.466  0.00  0.00     0.015 C 
ENDBRANCH  16  19
ENDBRANCH   4  13
TORSDOF 2
