REMARK  6 active torsions:
REMARK  status: ('A' for Active; 'I' for Inactive)
REMARK    1  A    between atoms: N_4  and  S_1 
REMARK    2  A    between atoms: C_6  and  S_1 
REMARK    3  A    between atoms: C_5  and  C_2 
REMARK    4  A    between atoms: N_7  and  C_3 
REMARK    5  A    between atoms: C_13  and  N_4 
REMARK    6  A    between atoms: O_18  and  C_5 
ROOT
ATOM      1  C   UNL d   1       2.490  -3.483   2.129  0.00  0.00     0.068 A 
ATOM      2  C   UNL d   1       1.563  -4.351   2.773  0.00  0.00     0.046 A 
ATOM      3  C   UNL d   1       2.125  -2.170   1.758  0.00  0.00     0.050 A 
ATOM      4  C   UNL d   1       0.241  -3.864   2.871  0.00  0.00     0.033 A 
ATOM      5  C   UNL d   1       0.829  -1.718   1.950  0.00  0.00     0.043 A 
ATOM      6  C   UNL d   1      -0.127  -2.575   2.470  0.00  0.00     0.032 A 
ENDROOT
BRANCH   5   7
ATOM      7  N   UNL d   1       0.459  -0.419   1.511  0.00  0.00    -0.281 N 
ATOM      8  H   UNL d   1      -0.132   0.138   2.124  0.00  0.00     0.179 HD
BRANCH   7   9
ATOM      9  S   UNL d   1       0.069  -0.205  -0.122  0.00  0.00     0.263 S 
ATOM     10  O   UNL d   1       1.130  -0.737  -0.945  0.00  0.00    -0.200 OA
ATOM     11  O   UNL d   1      -0.372   1.170  -0.251  0.00  0.00    -0.200 OA
BRANCH   9  12
ATOM     12  C   UNL d   1      -1.365  -1.237  -0.334  0.00  0.00     0.081 A 
ATOM     13  C   UNL d   1      -1.202  -2.576  -0.704  0.00  0.00     0.049 A 
ATOM     14  C   UNL d   1      -2.332  -3.375  -0.864  0.00  0.00     0.035 A 
ATOM     15 CL   UNL d   1      -2.150  -5.035  -1.277  0.00  0.00    -0.084 Cl
ATOM     16  C   UNL d   1      -3.610  -2.845  -0.686  0.00  0.00     0.024 A 
ATOM     17  C   UNL d   1      -3.767  -1.500  -0.341  0.00  0.00     0.003 A 
ATOM     18  C   UNL d   1      -2.643  -0.692  -0.163  0.00  0.00     0.025 A 
ENDBRANCH   9  12
ENDBRANCH   7   9
ENDBRANCH   5   7
BRANCH   1  19
ATOM     19  C   UNL d   1       3.820  -3.954   1.646  0.00  0.00     0.295 C 
ATOM     20  O   UNL d   1       4.046  -5.080   1.224  0.00  0.00    -0.259 OA
BRANCH  19  21
ATOM     21  O   UNL d   1       4.737  -2.955   1.742  0.00  0.00    -0.322 OA
ATOM     22  C   UNL d   1       6.036  -3.296   1.240  0.00  0.00     0.213 C 
ENDBRANCH  19  21
ENDBRANCH   1  19
BRANCH   2  23
ATOM     23  N   UNL d   1       1.876  -5.576   3.339  0.00  0.00    -0.376 N 
ATOM     24  C   UNL d   1       3.210  -5.882   3.895  0.00  0.00     0.149 C 
ATOM     25  C   UNL d   1       3.080  -6.336   5.357  0.00  0.00     0.187 C 
ATOM     26  O   UNL d   1       2.190  -7.454   5.492  0.00  0.00    -0.388 OA
ATOM     27  C   UNL d   1       0.882  -7.107   5.010  0.00  0.00     0.187 C 
ATOM     28  C   UNL d   1       0.912  -6.678   3.532  0.00  0.00     0.149 C 
ENDBRANCH   2  23
TORSDOF 6
