REMARK  8 active torsions:
REMARK  status: ('A' for Active; 'I' for Inactive)
REMARK    1  A    between atoms: C_9  and  N_1 
REMARK    2  A    between atoms: C_5  and  C_2 
REMARK    3  A    between atoms: C_3  and  N_10 
REMARK    4  A    between atoms: N_6  and  C_3 
REMARK    5  A    between atoms: C_4  and  N_6 
REMARK    6  A    between atoms: O_21  and  C_5 
REMARK    7  A    between atoms: C_7  and  C_14 
REMARK       I    between atoms: N_8  and  C_7 
REMARK    8  A    between atoms: N_10  and  N_8 
ROOT
ATOM      1  N   UNL d   1      -3.582  -2.840   3.463  0.00  0.00    -0.273 N 
ATOM      2  H   UNL d   1      -3.441  -2.250   4.276  0.00  0.00     0.189 HD
ENDROOT
BRANCH   1   3
ATOM      3  C   UNL d   1      -4.626  -3.736   3.459  0.00  0.00     0.191 C 
ATOM      4  S   UNL d   1      -4.930  -4.859   2.255  0.00  0.00    -0.039 SA
BRANCH   3   5
ATOM      5  N   UNL d   1      -5.370  -3.797   4.613  0.00  0.00    -0.331 N 
ATOM      6  H   UNL d   1      -5.862  -4.681   4.737  0.00  0.00     0.168 HD
BRANCH   5   7
ATOM      7  C   UNL d   1      -5.667  -2.807   5.582  0.00  0.00     0.050 A 
ATOM      8  C   UNL d   1      -6.143  -3.163   6.864  0.00  0.00     0.066 A 
ATOM      9  C   UNL d   1      -6.457  -2.152   7.794  0.00  0.00     0.020 A 
ATOM     10  C   UNL d   1      -6.329  -0.805   7.460  0.00  0.00     0.001 A 
ATOM     11  C   UNL d   1      -5.892  -0.451   6.191  0.00  0.00     0.002 A 
ATOM     12  C   UNL d   1      -5.573  -1.442   5.258  0.00  0.00     0.030 A 
BRANCH   8  13
ATOM     13  C   UNL d   1      -6.285  -4.562   7.372  0.00  0.00     0.295 C 
ATOM     14  O   UNL d   1      -6.403  -4.833   8.556  0.00  0.00    -0.259 OA
BRANCH  13  15
ATOM     15  O   UNL d   1      -6.283  -5.470   6.362  0.00  0.00    -0.322 OA
ATOM     16  C   UNL d   1      -6.372  -6.827   6.796  0.00  0.00     0.213 C 
ENDBRANCH  13  15
ENDBRANCH   8  13
ENDBRANCH   5   7
ENDBRANCH   3   5
ENDBRANCH   1   3
BRANCH   1  17
ATOM     17  N   UNL d   1      -2.918  -2.439   2.293  0.00  0.00    -0.264 N 
ATOM     18  C   UNL d   1      -3.522  -1.493   1.483  0.00  0.00     0.270 C 
ATOM     19  O   UNL d   1      -4.684  -1.117   1.637  0.00  0.00    -0.266 OA
ATOM     20  H   UNL d   1      -1.979  -2.794   2.156  0.00  0.00     0.190 HD
BRANCH  18  21
ATOM     21  C   UNL d   1      -2.692  -0.850   0.421  0.00  0.00     0.033 A 
ATOM     22  C   UNL d   1      -1.290  -0.833   0.448  0.00  0.00     0.019 A 
ATOM     23  C   UNL d   1      -0.577  -0.041  -0.464  0.00  0.00     0.037 A 
ATOM     24  C   UNL d   1      -1.269   0.734  -1.407  0.00  0.00     0.102 A 
ATOM     25  C   UNL d   1      -2.664   0.682  -1.478  0.00  0.00     0.037 A 
ATOM     26  C   UNL d   1      -3.368  -0.110  -0.566  0.00  0.00     0.019 A 
BRANCH  24  27
ATOM     27  N   UNL d   1      -0.529   1.645  -2.291  0.00  0.00    -0.116 N 
ATOM     28  O   UNL d   1      -1.180   2.320  -3.100  0.00  0.00    -0.532 OA
ATOM     29  O   UNL d   1       0.703   1.696  -2.161  0.00  0.00    -0.532 OA
ENDBRANCH  24  27
ENDBRANCH  18  21
ENDBRANCH   1  17
TORSDOF 8
