REMARK  4 active torsions:
REMARK  status: ('A' for Active; 'I' for Inactive)
REMARK    1  A    between atoms: O_9  and  C_2 
REMARK    2  A    between atoms: C_8  and  C_14 
REMARK       I    between atoms: N_11  and  C_8 
REMARK    3  A    between atoms: C_14  and  O_9 
REMARK    4  A    between atoms: C_15  and  N_11 
ROOT
ATOM      1  C   UNL d   1       0.100   0.283   1.387  0.00  0.00     0.101 A 
ATOM      2  C   UNL d   1      -0.503   1.443   0.915  0.00  0.00     0.164 A 
ATOM      3  N   UNL d   1      -1.814   1.524   0.576  0.00  0.00    -0.340 N 
ATOM      4  HN  UNL d   1      -2.217   2.398   0.239  1.00  0.00     0.167 HD
ATOM      5  C   UNL d   1      -0.675  -0.886   1.448  0.00  0.00    -0.035 A 
ATOM      6  C   UNL d   1       1.461   0.309   1.827  0.00  0.00     0.104 C 
ATOM      7  N   UNL d   1       2.554   0.282   2.223  0.00  0.00    -0.191 NA
ATOM      8  C   UNL d   1      -2.568   0.409   0.700  0.00  0.00     0.008 A 
ATOM      9  C   UNL d   1      -2.033  -0.808   1.106  0.00  0.00     0.033 A 
ATOM     10  C   UNL d   1      -0.124  -2.200   1.928  0.00  0.00     0.050 C 
ATOM     11  C   UNL d   1      -4.026   0.542   0.373  0.00  0.00     0.068 C 
ENDROOT
BRANCH   2  12
ATOM     12  O   UNL d   1       0.280   2.575   0.792  0.00  0.00    -0.325 OA
BRANCH  12  13
ATOM     13  C   UNL d   1      -0.432   3.684   0.253  0.00  0.00     0.280 C 
BRANCH  13  14
ATOM     14  C   UNL d   1       0.480   4.904   0.088  0.00  0.00     0.246 C 
ATOM     15  N   UNL d   1      -0.086   6.144  -0.093  0.00  0.00    -0.325 N 
ATOM     16  H   UNL d   1       0.539   6.789  -0.561  0.00  0.00     0.169 HD
ATOM     17  O   UNL d   1       1.704   4.801  -0.030  0.00  0.00    -0.271 OA
BRANCH  15  18
ATOM     18  C   UNL d   1      -1.418   6.535   0.092  0.00  0.00     0.034 A 
ATOM     19  C   UNL d   1      -2.149   6.177   1.227  0.00  0.00     0.029 A 
ATOM     20  C   UNL d   1      -3.484   6.565   1.358  0.00  0.00     0.002 A 
ATOM     21  C   UNL d   1      -4.085   7.328   0.360  0.00  0.00     0.000 A 
ATOM     22  C   UNL d   1      -3.342   7.734  -0.748  0.00  0.00     0.002 A 
ATOM     23  C   UNL d   1      -2.002   7.361  -0.870  0.00  0.00     0.029 A 
ENDBRANCH  15  18
ENDBRANCH  13  14
ENDBRANCH  12  13
ENDBRANCH   2  12
TORSDOF 4
