REMARK  5 active torsions:
REMARK  status: ('A' for Active; 'I' for Inactive)
REMARK    1  A    between atoms: C_5  and  C_3 
REMARK    2  A    between atoms: C_11  and  C_4 
REMARK    3  A    between atoms: C_9  and  O_13 
REMARK    4  A    between atoms: O_13  and  C_21 
REMARK    5  A    between atoms: O_26  and  C_20 
ROOT
ATOM      1  N   UNL d   1       1.252   0.189  -0.096  0.00  0.00    -0.318 N 
ATOM      2  HN  UNL d   1       2.250   0.355  -0.224  1.00  0.00     0.169 HD
ATOM      3  C   UNL d   1       0.622  -0.956   0.020  0.00  0.00     0.183 A 
ATOM      4  C   UNL d   1       0.234   1.109  -0.002  0.00  0.00     0.138 A 
ATOM      5  N   UNL d   1      -0.986   0.563   0.121  0.00  0.00    -0.242 N 
ATOM      6  HN  UNL d   1      -1.886   1.038   0.189  1.00  0.00     0.196 HD
ATOM      7  O   UNL d   1      -0.730  -0.810   0.135  0.00  0.00    -0.217 OA
ENDROOT
BRANCH   4   8
ATOM      8  C   UNL d   1       0.511   2.538  -0.028  0.00  0.00     0.010 A 
ATOM      9  C   UNL d   1       1.831   2.989  -0.176  0.00  0.00     0.018 A 
ATOM     10  C   UNL d   1       2.126   4.355  -0.202  0.00  0.00     0.038 A 
ATOM     11  C   UNL d   1       1.099   5.290  -0.121  0.00  0.00     0.078 A 
ATOM     12  C   UNL d   1      -0.214   4.846   0.069  0.00  0.00     0.038 A 
ATOM     13  C   UNL d   1      -0.510   3.481   0.110  0.00  0.00     0.018 A 
BRANCH  11  14
ATOM     14  O   UNL d   1       1.244   6.641  -0.157  0.00  0.00    -0.255 OA
BRANCH  14  15
ATOM     15  C   UNL d   1       2.308   7.217  -0.902  0.00  0.00     0.530 C 
ATOM     16  F   UNL d   1       3.013   6.339  -1.647  0.00  0.00    -0.144 F 
ATOM     17  F   UNL d   1       1.790   8.141  -1.743  0.00  0.00    -0.144 F 
ATOM     18  F   UNL d   1       3.153   7.845  -0.057  0.00  0.00    -0.144 F 
ENDBRANCH  14  15
ENDBRANCH  11  14
ENDBRANCH   4   8
BRANCH   3  19
ATOM     19  C   UNL d   1       1.151  -2.313   0.043  0.00  0.00     0.037 A 
ATOM     20  C   UNL d   1       2.416  -2.618   0.576  0.00  0.00     0.025 A 
ATOM     21  C   UNL d   1       2.897  -3.929   0.546  0.00  0.00     0.023 A 
ATOM     22 BR   UNL d   1       3.545  -1.334   1.419  0.00  0.00    -0.050 Br
ATOM     23  C   UNL d   1       2.124  -4.944  -0.014  0.00  0.00     0.038 A 
ATOM     24  C   UNL d   1       0.863  -4.667  -0.541  0.00  0.00     0.069 A 
ATOM     25  C   UNL d   1       0.382  -3.358  -0.511  0.00  0.00     0.054 A 
BRANCH  24  26
ATOM     26  O   UNL d   1       0.213  -5.753  -1.057  0.00  0.00    -0.356 OA
ATOM     27  C   UNL d   1      -1.077  -5.534  -1.613  0.00  0.00     0.210 C 
ENDBRANCH  24  26
ENDBRANCH   3  19
TORSDOF 5
