REMARK  4 active torsions:
REMARK  status: ('A' for Active; 'I' for Inactive)
REMARK    1  A    between atoms: C_9  and  C_1 
REMARK    2  A    between atoms: S_10  and  C_2 
REMARK    3  A    between atoms: N_11  and  C_2 
REMARK    4  A    between atoms: N_3  and  N_5 
ROOT
ATOM      1  N   UNL d   1      -0.026   5.065  -0.148  0.00  0.00    -0.309 N 
ATOM      2  HN  UNL d   1      -0.104   6.079  -0.220  1.00  0.00     0.186 HD
ATOM      3  C   UNL d   1       1.102   4.442  -0.033  0.00  0.00     0.122 C 
ENDROOT
BRANCH   1   4
ATOM      4  N   UNL d   1      -1.127   4.200  -0.163  0.00  0.00    -0.285 N 
ATOM      5  C   UNL d   1      -2.240   4.866  -0.091  0.00  0.00     0.130 C 
ATOM      6  HN  UNL d   1      -1.064   3.184  -0.223  1.00  0.00     0.188 HD
BRANCH   5   7
ATOM      7  S   UNL d   1      -3.797   4.080  -0.185  0.00  0.00    -0.103 SA
ATOM      8  C   UNL d   1      -3.313   2.347  -0.249  0.00  0.00     0.098 C 
ENDBRANCH   5   7
BRANCH   5   9
ATOM      9  N   UNL d   1      -2.328   6.223   0.025  0.00  0.00    -0.282 NA
ATOM     10  H   UNL d   1      -1.423   6.633  -0.193  0.00  0.00     0.126 HD
ATOM     11  H   UNL d   1      -3.104   6.626  -0.479  0.00  0.00     0.126 HD
ENDBRANCH   5   9
ENDBRANCH   1   4
BRANCH   3  12
ATOM     12  C   UNL d   1       2.410   5.149   0.005  0.00  0.00     0.024 A 
ATOM     13  C   UNL d   1       2.524   6.555   0.008  0.00  0.00     0.047 A 
ATOM     14 CL   UNL d   1       1.193   7.664  -0.019  0.00  0.00    -0.083 Cl
ATOM     15  C   UNL d   1       3.789   7.166   0.038  0.00  0.00     0.025 A 
ATOM     16  C   UNL d   1       4.949   6.401   0.068  0.00  0.00     0.003 A 
ATOM     17  C   UNL d   1       4.851   5.013   0.069  0.00  0.00     0.025 A 
ATOM     18  C   UNL d   1       3.595   4.389   0.039  0.00  0.00     0.047 A 
ATOM     19 CL   UNL d   1       3.619   2.656   0.038  0.00  0.00    -0.083 Cl
ENDBRANCH   3  12
TORSDOF 4
