REMARK  9 active torsions:
REMARK  status: ('A' for Active; 'I' for Inactive)
REMARK       I    between atoms: N_2  and  C_1 
REMARK    1  A    between atoms: C_6  and  C_1 
REMARK    2  A    between atoms: C_5  and  N_2 
REMARK    3  A    between atoms: C_3  and  S_8 
REMARK    4  A    between atoms: S_7  and  C_9 
REMARK    5  A    between atoms: C_16  and  S_7 
REMARK    6  A    between atoms: S_8  and  C_18 
REMARK    7  A    between atoms: C_17  and  C_16 
REMARK    8  A    between atoms: C_18  and  C_17 
REMARK    9  A    between atoms: O_23  and  C_17 
ROOT
ATOM      1  C   UNL d   1       0.615  -1.911   1.824  0.00  0.00     0.051 A 
ATOM      2  C   UNL d   1       1.739  -1.475   2.554  0.00  0.00     0.027 A 
ATOM      3  C   UNL d   1       0.220  -3.252   1.901  0.00  0.00     0.031 A 
ATOM      4  C   UNL d   1       2.443  -2.393   3.347  0.00  0.00     0.021 A 
ATOM      5  C   UNL d   1       0.925  -4.156   2.694  0.00  0.00     0.002 A 
ATOM      6  C   UNL d   1       2.035  -3.728   3.417  0.00  0.00     0.002 A 
ENDROOT
BRANCH   2   7
ATOM      7  S   UNL d   1       2.238   0.253   2.609  0.00  0.00    -0.125 SA
BRANCH   7   8
ATOM      8  C   UNL d   1       0.802   0.915   3.527  0.00  0.00     0.112 C 
BRANCH   8   9
ATOM      9  C   UNL d   1       0.922   2.372   4.002  0.00  0.00     0.137 C 
BRANCH   9  10
ATOM     10  C   UNL d   1       1.210   3.385   2.877  0.00  0.00     0.112 C 
BRANCH  10  11
ATOM     11  S   UNL d   1       1.253   5.083   3.552  0.00  0.00    -0.120 SA
BRANCH  11  12
ATOM     12  C   UNL d   1       1.611   6.050   2.132  0.00  0.00     0.041 A 
ATOM     13  S   UNL d   1       3.018   5.847   1.182  0.00  0.00    -0.095 SA
ATOM     14  C   UNL d   1       2.627   7.191   0.197  0.00  0.00     0.051 A 
ATOM     15  C   UNL d   1       1.438   7.777   0.573  0.00  0.00     0.009 A 
ATOM     16  C   UNL d   1       0.852   7.116   1.693  0.00  0.00     0.026 A 
ENDBRANCH  11  12
ENDBRANCH  10  11
ENDBRANCH   9  10
BRANCH   9  17
ATOM     17  O   UNL d   1      -0.321   2.682   4.661  0.00  0.00    -0.394 OA
ATOM     18  H   UNL d   1      -0.998   2.846   3.983  0.00  0.00     0.210 HD
ENDBRANCH   9  17
ENDBRANCH   8   9
ENDBRANCH   7   8
ENDBRANCH   2   7
BRANCH   1  19
ATOM     19  N   UNL d   1      -0.076  -0.997   0.999  0.00  0.00    -0.322 N 
ATOM     20  C   UNL d   1      -1.440  -1.045   0.769  0.00  0.00     0.256 C 
ATOM     21  O   UNL d   1      -2.226  -1.799   1.340  0.00  0.00    -0.267 OA
ATOM     22  H   UNL d   1       0.414  -0.136   0.790  0.00  0.00     0.169 HD
BRANCH  20  23
ATOM     23  C   UNL d   1      -1.989  -0.058  -0.196  0.00  0.00     0.032 A 
ATOM     24  C   UNL d   1      -1.222   0.460  -1.246  0.00  0.00     0.018 A 
ATOM     25  C   UNL d   1      -1.815   1.312  -2.184  0.00  0.00     0.025 A 
ATOM     26  C   UNL d   1      -3.167   1.639  -2.075  0.00  0.00     0.034 A 
ATOM     27  C   UNL d   1      -3.934   1.135  -1.027  0.00  0.00     0.025 A 
ATOM     28 CL   UNL d   1      -3.898   2.653  -3.256  0.00  0.00    -0.084 Cl
ATOM     29  C   UNL d   1      -3.345   0.286  -0.089  0.00  0.00     0.018 A 
ENDBRANCH  20  23
ENDBRANCH   1  19
TORSDOF 9
