REMARK  3 active torsions:
REMARK  status: ('A' for Active; 'I' for Inactive)
REMARK    1  A    between atoms: N_4  and  C_1 
REMARK    2  A    between atoms: N_3  and  C_2 
REMARK    3  A    between atoms: N_5  and  N_4 
ROOT
ATOM      1  C   UNL d   1      -0.482   1.263   0.294  0.00  0.00     0.134 A 
ATOM      2  C   UNL d   1       0.837   1.373   0.748  0.00  0.00     0.142 A 
ATOM      3  N   UNL d   1      -0.861   0.092  -0.298  0.00  0.00    -0.353 N 
ATOM      4  HN  UNL d   1      -1.822  -0.035  -0.617  1.00  0.00     0.166 HD
ATOM      5  C   UNL d   1       1.777   0.348   0.565  0.00  0.00     0.041 A 
ATOM      6  C   UNL d   1       0.049  -0.902  -0.459  0.00  0.00     0.089 A 
ATOM      7  C   UNL d   1       1.369  -0.820  -0.057  0.00  0.00     0.020 A 
ENDROOT
BRANCH   1   8
ATOM      8  N   UNL d   1      -1.458   2.292   0.470  0.00  0.00    -0.183 NA
ATOM      9  C   UNL d   1      -1.033   3.590  -0.091  0.00  0.00     0.144 C 
BRANCH   8  10
ATOM     10  N   UNL d   1      -2.769   2.039   0.143  0.00  0.00    -0.323 N 
ATOM     11  C   UNL d   1      -3.507   1.309   0.924  0.00  0.00    -0.009 C 
ATOM     12  C   UNL d   1      -3.061   0.603   2.179  0.00  0.00     0.064 C 
ATOM     13  C   UNL d   1      -4.986   1.266   0.612  0.00  0.00     0.064 C 
ATOM     14  HN  UNL d   1      -3.163   2.425  -0.715  1.00  0.00     0.180 HD
ENDBRANCH   8  10
ENDBRANCH   1   8
BRANCH   2  15
ATOM     15  N   UNL d   1       1.281   2.534   1.474  0.00  0.00    -0.112 N 
ATOM     16  O   UNL d   1       0.793   2.736   2.593  0.00  0.00    -0.532 OA
ATOM     17  O   UNL d   1       2.153   3.228   0.934  0.00  0.00    -0.532 OA
ENDBRANCH   2  15
TORSDOF 3
