REMARK  2 active torsions:
REMARK  status: ('A' for Active; 'I' for Inactive)
REMARK    1  A    between atoms: C_10  and  C_3 
REMARK    2  A    between atoms: C_7  and  C_4 
ROOT
ATOM      1  N   UNL d   1       1.416  -0.593  -0.084  0.00  0.00    -0.349 N 
ATOM      2  HN  UNL d   1       2.297  -1.103  -0.153  1.00  0.00     0.166 HD
ATOM      3  C   UNL d   1       0.222  -1.157  -0.042  0.00  0.00     0.084 A 
ATOM      4  C   UNL d   1       1.305   0.788  -0.022  0.00  0.00     0.050 A 
ATOM      5  S   UNL d   1      -1.095  -0.041  -0.025  0.00  0.00    -0.081 SA
ATOM      6  C   UNL d   1       0.008   1.263  -0.006  0.00  0.00     0.082 A 
ENDROOT
BRANCH   4   7
ATOM      7  C   UNL d   1       2.482   1.647  -0.006  0.00  0.00    -0.007 A 
ATOM      8  C   UNL d   1       3.660   1.224  -0.639  0.00  0.00     0.039 A 
ATOM      9  C   UNL d   1       4.798   2.038  -0.646  0.00  0.00     0.056 A 
ATOM     10 CL   UNL d   1       6.201   1.453  -1.469  0.00  0.00    -0.083 Cl
ATOM     11  C   UNL d   1       4.772   3.282  -0.007  0.00  0.00     0.055 A 
ATOM     12  C   UNL d   1       3.609   3.704   0.639  0.00  0.00     0.026 A 
ATOM     13 CL   UNL d   1       6.136   4.341   0.025  0.00  0.00    -0.083 Cl
ATOM     14  C   UNL d   1       2.471   2.892   0.640  0.00  0.00     0.015 A 
ENDBRANCH   4   7
BRANCH   3  15
ATOM     15  C   UNL d   1      -0.019  -2.611  -0.059  0.00  0.00    -0.002 A 
ATOM     16  C   UNL d   1      -1.158  -3.193   0.527  0.00  0.00     0.016 A 
ATOM     17  C   UNL d   1      -1.365  -4.576   0.483  0.00  0.00     0.024 A 
ATOM     18  C   UNL d   1      -0.430  -5.395  -0.143  0.00  0.00     0.034 A 
ATOM     19  C   UNL d   1       0.714  -4.846  -0.713  0.00  0.00     0.024 A 
ATOM     20 CL   UNL d   1      -0.693  -7.094  -0.206  0.00  0.00    -0.084 Cl
ATOM     21  C   UNL d   1       0.920  -3.462  -0.666  0.00  0.00     0.016 A 
ENDBRANCH   3  15
TORSDOF 2
