REMARK  4 active torsions:
REMARK  status: ('A' for Active; 'I' for Inactive)
REMARK    1  A    between atoms: C_2  and  N_1 
REMARK    2  A    between atoms: N_3  and  C_4 
REMARK    3  A    between atoms: C_7  and  C_12 
REMARK    4  A    between atoms: C_11  and  C_7 
ROOT
ATOM      1  N   UNL d   1      -2.264   2.299   4.058  0.00  0.00    -0.367 N 
ATOM      2  C   UNL d   1      -4.873   2.862   5.174  0.00  0.00     0.064 C 
ATOM      3  C   UNL d   1      -2.607   1.675   5.329  0.00  0.00     0.125 C 
ATOM      4  C   UNL d   1      -2.876   3.593   3.775  0.00  0.00     0.125 C 
ATOM      5  C   UNL d   1      -4.131   1.540   5.435  0.00  0.00     0.032 C 
ATOM      6  C   UNL d   1      -4.396   3.468   3.847  0.00  0.00     0.032 C 
ENDROOT
BRANCH   1   7
ATOM      7  C   UNL d   1      -1.377   1.749   3.162  0.00  0.00     0.103 A 
ATOM      8  C   UNL d   1      -0.430   0.794   3.548  0.00  0.00     0.051 A 
ATOM      9  C   UNL d   1       0.428   0.216   2.611  0.00  0.00     0.041 A 
ATOM     10  C   UNL d   1       0.327   0.620   1.285  0.00  0.00     0.118 A 
ATOM     11  C   UNL d   1      -0.609   1.578   0.957  0.00  0.00     0.125 A 
ATOM     12  N   UNL d   1      -1.446   2.139   1.867  0.00  0.00    -0.350 N 
ATOM     13  HN  UNL d   1      -2.120   2.848   1.578  1.00  0.00     0.166 HD
BRANCH  10  14
ATOM     14  N   UNL d   1       1.199   0.057   0.264  0.00  0.00    -0.114 N 
ATOM     15  O   UNL d   1       1.067   0.469  -0.896  0.00  0.00    -0.532 OA
ATOM     16  O   UNL d   1       2.023  -0.796   0.617  0.00  0.00    -0.532 OA
ENDBRANCH  10  14
ENDBRANCH   1   7
BRANCH   2  17
ATOM     17  C   UNL d   1      -4.698   3.796   6.372  0.00  0.00     0.163 C 
ATOM     18  O   UNL d   1      -3.688   3.791   7.074  0.00  0.00    -0.292 OA
BRANCH  17  19
ATOM     19  C   UNL d   1      -5.791   4.723   6.769  0.00  0.00     0.010 A 
ATOM     20  C   UNL d   1      -5.909   5.040   8.133  0.00  0.00     0.018 A 
ATOM     21  C   UNL d   1      -6.855   5.970   8.561  0.00  0.00     0.043 A 
ATOM     22  C   UNL d   1      -7.672   6.587   7.624  0.00  0.00     0.116 A 
ATOM     23  C   UNL d   1      -7.577   6.272   6.271  0.00  0.00     0.043 A 
ATOM     24  F   UNL d   1      -8.556   7.508   8.025  0.00  0.00    -0.206 F 
ATOM     25  C   UNL d   1      -6.643   5.327   5.840  0.00  0.00     0.018 A 
ENDBRANCH  17  19
ENDBRANCH   2  17
TORSDOF 4
