REMARK  6 active torsions:
REMARK  status: ('A' for Active; 'I' for Inactive)
REMARK    1  A    between atoms: C_9  and  C_1 
REMARK    2  A    between atoms: O_12  and  C_3 
REMARK    3  A    between atoms: N_10  and  N_7 
REMARK    4  A    between atoms: C_14  and  N_10 
REMARK    5  A    between atoms: C_16  and  C_14 
REMARK    6  A    between atoms: O_15  and  C_16 
ROOT
ATOM      1  C   UNL d   1      -0.045   2.025  -0.004  0.00  0.00     0.017 A 
ATOM      2  C   UNL d   1      -0.963  -0.211   0.039  0.00  0.00     0.069 A 
ATOM      3  C   UNL d   1      -1.154   1.175   0.004  0.00  0.00     0.099 A 
ATOM      4  C   UNL d   1       0.322  -0.752   0.067  0.00  0.00     0.050 A 
ATOM      5  C   UNL d   1       1.248   1.486   0.033  0.00  0.00     0.039 A 
ATOM      6  C   UNL d   1       1.421   0.103   0.067  0.00  0.00     0.036 A 
ATOM      7 CL   UNL d   1      -2.321  -1.277   0.036  0.00  0.00    -0.081 Cl
ATOM      8 CL   UNL d   1       3.010  -0.556   0.093  0.00  0.00    -0.084 Cl
ENDROOT
BRANCH   1   9
ATOM      9  C   UNL d   1      -0.222   3.490  -0.100  0.00  0.00     0.115 C 
ATOM     10  N   UNL d   1       0.801   4.288  -0.082  0.00  0.00    -0.332 N 
ATOM     11  HN  UNL d   1       1.756   3.958   0.059  1.00  0.00     0.179 HD
BRANCH  10  12
ATOM     12  N   UNL d   1       0.496   5.590  -0.265  0.00  0.00    -0.239 NA
ATOM     13  H   UNL d   1      -0.331   5.914   0.245  0.00  0.00     0.146 HD
BRANCH  12  14
ATOM     14  C   UNL d   1       1.585   6.547  -0.050  0.00  0.00     0.136 C 
BRANCH  14  15
ATOM     15  C   UNL d   1       1.213   7.910  -0.636  0.00  0.00     0.180 C 
BRANCH  15  16
ATOM     16  O   UNL d   1       0.098   8.470   0.056  0.00  0.00    -0.400 OA
ATOM     17  H   UNL d   1      -0.123   9.297  -0.401  0.00  0.00     0.209 HD
ENDBRANCH  15  16
ENDBRANCH  14  15
ENDBRANCH  12  14
ENDBRANCH  10  12
ENDBRANCH   1   9
BRANCH   3  18
ATOM     18  O   UNL d   1      -2.418   1.704  -0.028  0.00  0.00    -0.358 OA
ATOM     19  H   UNL d   1      -3.053   0.961  -0.017  0.00  0.00     0.217 HD
ENDBRANCH   3  18
TORSDOF 6
