REMARK  4 active torsions:
REMARK  status: ('A' for Active; 'I' for Inactive)
REMARK    1  A    between atoms: C_5  and  C_1 
REMARK    2  A    between atoms: N_13  and  C_4 
REMARK    3  A    between atoms: C_7  and  C_14 
REMARK    4  A    between atoms: N_8  and  N_13 
ROOT
ATOM      1  N   UNL d   1      -1.559  -2.787  -3.038  0.00  0.00    -0.175 NA
ATOM      2  H   UNL d   1      -2.244  -2.053  -2.879  0.00  0.00     0.156 HD
ENDROOT
BRANCH   1   3
ATOM      3  N   UNL d   1      -1.982  -4.048  -3.327  0.00  0.00    -0.325 N 
ATOM      4  C   UNL d   1      -2.886  -4.149  -4.248  0.00  0.00     0.115 C 
ATOM      5  HN  UNL d   1      -1.609  -4.866  -2.846  1.00  0.00     0.180 HD
BRANCH   4   6
ATOM      6  C   UNL d   1      -3.408  -5.484  -4.622  0.00  0.00     0.002 A 
ATOM      7  C   UNL d   1      -4.362  -5.662  -5.630  0.00  0.00     0.047 A 
ATOM      8  C   UNL d   1      -4.829  -6.947  -5.931  0.00  0.00     0.048 A 
ATOM      9 CL   UNL d   1      -5.010  -4.349  -6.547  0.00  0.00    -0.083 Cl
ATOM     10  C   UNL d   1      -4.343  -8.049  -5.229  0.00  0.00     0.035 A 
ATOM     11  C   UNL d   1      -3.390  -7.885  -4.228  0.00  0.00     0.025 A 
ATOM     12 CL   UNL d   1      -4.927  -9.625  -5.596  0.00  0.00    -0.084 Cl
ATOM     13  C   UNL d   1      -2.923  -6.606  -3.927  0.00  0.00     0.016 A 
ENDBRANCH   4   6
ENDBRANCH   1   3
BRANCH   1  14
ATOM     14  C   UNL d   1      -0.574  -2.673  -2.037  0.00  0.00     0.176 A 
ATOM     15  N   UNL d   1      -0.576  -1.541  -1.315  0.00  0.00    -0.328 N 
ATOM     16  C   UNL d   1       0.350  -1.421  -0.323  0.00  0.00     0.120 A 
ATOM     17  HN  UNL d   1      -1.248  -0.796  -1.502  1.00  0.00     0.168 HD
ATOM     18  C   UNL d   1       1.274  -2.416  -0.058  0.00  0.00     0.051 A 
ATOM     19  C   UNL d   1       1.203  -3.529  -0.852  0.00  0.00     0.093 A 
ATOM     20  N   UNL d   1       0.301  -3.674  -1.832  0.00  0.00    -0.341 N 
ATOM     21  HN  UNL d   1       0.279  -4.518  -2.405  1.00  0.00     0.167 HD
BRANCH  16  22
ATOM     22  C   UNL d   1       0.379  -0.165   0.531  0.00  0.00     0.432 C 
ATOM     23  F   UNL d   1      -0.581   0.751   0.221  0.00  0.00    -0.165 F 
ATOM     24  F   UNL d   1       1.570   0.496   0.441  0.00  0.00    -0.165 F 
ATOM     25  F   UNL d   1       0.217  -0.439   1.859  0.00  0.00    -0.165 F 
ENDBRANCH  16  22
ENDBRANCH   1  14
TORSDOF 4
