REMARK  3 active torsions:
REMARK  status: ('A' for Active; 'I' for Inactive)
REMARK    1  A    between atoms: C_8  and  C_2 
REMARK    2  A    between atoms: C_9  and  C_3 
REMARK    3  A    between atoms: N_10  and  C_4 
ROOT
ATOM      1  C   UNL d   1      -0.287  -1.293   0.162  0.00  0.00     0.109 A 
ATOM      2  C   UNL d   1       0.992   0.535  -0.024  0.00  0.00     0.101 A 
ATOM      3  C   UNL d   1       1.071  -0.849   0.128  0.00  0.00     0.034 A 
ATOM      4  C   UNL d   1      -1.082  -0.175   0.079  0.00  0.00     0.163 A 
ATOM      5  O   UNL d   1      -0.313   0.936  -0.029  0.00  0.00    -0.291 OA
ATOM      6  C   UNL d   1      -0.787  -2.624   0.281  0.00  0.00     0.105 C 
ATOM      7  N   UNL d   1      -1.195  -3.703   0.347  0.00  0.00    -0.191 NA
ENDROOT
BRANCH   3   8
ATOM      8  C   UNL d   1       2.318  -1.611   0.231  0.00  0.00    -0.021 A 
ATOM      9  C   UNL d   1       3.427  -1.095   0.926  0.00  0.00     0.012 A 
ATOM     10  C   UNL d   1       4.646  -1.778   0.951  0.00  0.00     0.001 A 
ATOM     11  C   UNL d   1       4.757  -3.022   0.340  0.00  0.00     0.000 A 
ATOM     12  C   UNL d   1       3.652  -3.577  -0.300  0.00  0.00     0.001 A 
ATOM     13  C   UNL d   1       2.445  -2.871  -0.364  0.00  0.00     0.012 A 
ENDBRANCH   3   8
BRANCH   4  14
ATOM     14  N   UNL d   1      -2.404   0.030   0.090  0.00  0.00    -0.378 N 
ATOM     15  H   UNL d   1      -3.076  -0.724  -0.013  0.00  0.00     0.158 HD
ATOM     16  H   UNL d   1      -2.768   0.959  -0.115  0.00  0.00     0.158 HD
ENDBRANCH   4  14
BRANCH   2  17
ATOM     17  C   UNL d   1       1.971   1.615  -0.145  0.00  0.00    -0.001 A 
ATOM     18  C   UNL d   1       3.110   1.455  -0.952  0.00  0.00     0.014 A 
ATOM     19  C   UNL d   1       4.150   2.389  -0.908  0.00  0.00     0.001 A 
ATOM     20  C   UNL d   1       4.043   3.509  -0.088  0.00  0.00     0.000 A 
ATOM     21  C   UNL d   1       2.888   3.714   0.662  0.00  0.00     0.001 A 
ATOM     22  C   UNL d   1       1.854   2.774   0.631  0.00  0.00     0.014 A 
ENDBRANCH   2  17
TORSDOF 3
