REMARK  9 active torsions:
REMARK  status: ('A' for Active; 'I' for Inactive)
REMARK    1  A    between atoms: C_2  and  S_1 
REMARK    2  A    between atoms: N_4  and  S_1 
REMARK    3  A    between atoms: C_9  and  C_3 
REMARK    4  A    between atoms: C_14  and  N_5 
REMARK    5  A    between atoms: C_15  and  C_6 
REMARK    6  A    between atoms: C_10  and  C_8 
REMARK    7  A    between atoms: O_21  and  C_9 
REMARK    8  A    between atoms: O_22  and  C_10 
REMARK    9  A    between atoms: C_27  and  O_21 
ROOT
ATOM      1  C   UNL d   1       0.628  -1.754   0.916  0.00  0.00     0.120 A 
ATOM      2  C   UNL d   1      -0.187  -1.728   2.091  0.00  0.00     0.087 A 
ATOM      3  N   UNL d   1       0.142  -3.883   1.480  0.00  0.00    -0.312 N 
ATOM      4  C   UNL d   1       0.868  -3.089   0.560  0.00  0.00     0.074 A 
ATOM      5  C   UNL d   1      -0.539  -3.048   2.358  0.00  0.00     0.031 A 
ATOM      6  C   UNL d   1      -1.436  -3.533   3.464  0.00  0.00     0.070 C 
ENDROOT
BRANCH   1   7
ATOM      7  S   UNL d   1       1.011  -0.331  -0.020  0.00  0.00     0.248 S 
ATOM      8  O   UNL d   1       0.419   0.781   0.688  0.00  0.00    -0.206 OA
ATOM      9  O   UNL d   1       0.544  -0.653  -1.348  0.00  0.00    -0.206 OA
BRANCH   7  10
ATOM     10  N   UNL d   1       2.669  -0.020  -0.132  0.00  0.00    -0.182 NA
ATOM     11  C   UNL d   1       3.457   0.052   1.120  0.00  0.00     0.235 C 
ATOM     12  S   UNL d   1       3.867   1.794   1.376  0.00  0.00    -0.137 SA
ATOM     13  C   UNL d   1       3.970   2.098  -0.395  0.00  0.00     0.091 C 
ATOM     14  C   UNL d   1       2.978   1.136  -1.039  0.00  0.00     0.120 C 
BRANCH  11  15
ATOM     15  C   UNL d   1       4.780  -0.727   0.900  0.00  0.00     0.287 C 
ATOM     16  O   UNL d   1       5.461  -0.685  -0.122  0.00  0.00    -0.262 OA
BRANCH  15  17
ATOM     17  O   UNL d   1       5.094  -1.486   1.992  0.00  0.00    -0.325 OA
ATOM     18  C   UNL d   1       6.303  -2.243   1.854  0.00  0.00     0.213 C 
ENDBRANCH  15  17
ENDBRANCH  11  15
ENDBRANCH   7  10
ENDBRANCH   1   7
BRANCH   2  19
ATOM     19  C   UNL d   1      -0.657  -0.579   2.866  0.00  0.00     0.296 C 
ATOM     20  O   UNL d   1      -1.829  -0.426   3.186  0.00  0.00    -0.259 OA
BRANCH  19  21
ATOM     21  O   UNL d   1       0.370   0.226   3.263  0.00  0.00    -0.318 OA
BRANCH  21  22
ATOM     22  C   UNL d   1      -0.011   1.465   3.884  0.00  0.00     0.174 C 
ATOM     23  C   UNL d   1       0.202   1.381   5.383  0.00  0.00     0.034 C 
ENDBRANCH  21  22
ENDBRANCH  19  21
ENDBRANCH   2  19
BRANCH   4  24
ATOM     24  C   UNL d   1       1.613  -3.631  -0.611  0.00  0.00    -0.007 A 
ATOM     25  C   UNL d   1       1.125  -4.671  -1.415  0.00  0.00     0.014 A 
ATOM     26  C   UNL d   1       1.910  -5.231  -2.434  0.00  0.00     0.001 A 
ATOM     27  C   UNL d   1       3.167  -4.709  -2.723  0.00  0.00     0.000 A 
ATOM     28  C   UNL d   1       3.645  -3.640  -1.982  0.00  0.00     0.001 A 
ATOM     29  C   UNL d   1       2.883  -3.137  -0.925  0.00  0.00     0.014 A 
ENDBRANCH   4  24
BRANCH   3  30
ATOM     30  C   UNL d   1       0.118  -5.318   1.524  0.00  0.00     0.040 A 
ATOM     31  C   UNL d   1       1.309  -6.047   1.368  0.00  0.00     0.030 A 
ATOM     32  C   UNL d   1       1.278  -7.443   1.328  0.00  0.00     0.002 A 
ATOM     33  C   UNL d   1       0.071  -8.123   1.475  0.00  0.00     0.000 A 
ATOM     34  C   UNL d   1      -1.112  -7.409   1.656  0.00  0.00     0.002 A 
ATOM     35  C   UNL d   1      -1.091  -6.011   1.671  0.00  0.00     0.030 A 
ENDBRANCH   3  30
TORSDOF 9
