REMARK  2 active torsions:
REMARK  status: ('A' for Active; 'I' for Inactive)
REMARK    1  A    between atoms: C_5  and  N_1 
REMARK    2  A    between atoms: C_12  and  N_3 
ROOT
ATOM      1  N   UNL d   1      -0.227  -1.342  -0.154  0.00  0.00    -0.223 N 
ATOM      2  C   UNL d   1       1.048  -0.750  -0.190  0.00  0.00     0.348 A 
ATOM      3  N   UNL d   1       0.946   0.653  -0.083  0.00  0.00    -0.222 N 
ATOM      4  C   UNL d   1      -0.346   1.125   0.046  0.00  0.00     0.315 A 
ATOM      5  S   UNL d   1      -1.466  -0.223   0.076  0.00  0.00     0.060 SA
ATOM      6  O   UNL d   1       2.093  -1.392  -0.210  0.00  0.00    -0.245 OA
ATOM      7  O   UNL d   1      -0.764   2.270   0.102  0.00  0.00    -0.257 OA
ENDROOT
BRANCH   1   8
ATOM      8  C   UNL d   1      -0.453  -2.716  -0.094  0.00  0.00     0.106 A 
ATOM      9  C   UNL d   1       0.212  -3.715  -0.783  0.00  0.00     0.102 A 
ATOM     10  O   UNL d   1      -0.314  -4.923  -0.447  0.00  0.00    -0.240 OA
ATOM     11  C   UNL d   1       1.255  -3.785  -1.826  0.00  0.00     0.081 C 
ATOM     12  N   UNL d   1      -1.333  -4.756   0.460  0.00  0.00    -0.263 N 
ATOM     13  C   UNL d   1      -1.425  -3.439   0.671  0.00  0.00     0.059 A 
ATOM     14  HN  UNL d   1      -1.904  -5.488   0.884  1.00  0.00     0.194 HD
ATOM     15  C   UNL d   1      -2.392  -2.948   1.684  0.00  0.00     0.072 C 
ENDBRANCH   1   8
BRANCH   3  16
ATOM     16  C   UNL d   1       2.091   1.525  -0.048  0.00  0.00     0.048 A 
ATOM     17  C   UNL d   1       3.342   1.128  -0.554  0.00  0.00     0.033 A 
ATOM     18  C   UNL d   1       4.455   1.976  -0.508  0.00  0.00     0.044 A 
ATOM     19  C   UNL d   1       4.333   3.240   0.047  0.00  0.00     0.116 A 
ATOM     20  C   UNL d   1       3.119   3.669   0.554  0.00  0.00     0.044 A 
ATOM     21  F   UNL d   1       5.397   4.051   0.092  0.00  0.00    -0.206 F 
ATOM     22  C   UNL d   1       2.009   2.819   0.506  0.00  0.00     0.033 A 
ENDBRANCH   3  16
TORSDOF 2
