REMARK  3 active torsions:
REMARK  status: ('A' for Active; 'I' for Inactive)
REMARK       I    between atoms: N_2  and  C_1 
REMARK    1  A    between atoms: C_4  and  C_1 
REMARK       I    between atoms: C_5  and  N_2 
REMARK    2  A    between atoms: C_3  and  N_6 
REMARK       I    between atoms: N_9  and  C_5 
REMARK    3  A    between atoms: N_6  and  N_9 
ROOT
ATOM      1  C   UNL d   1      -0.835   0.842  -0.348  0.00  0.00     0.264 C 
ATOM      2  N   UNL d   1       0.517   1.147  -0.403  0.00  0.00    -0.274 N 
ATOM      3  C   UNL d   1       1.038   2.360  -0.807  0.00  0.00     0.337 C 
ATOM      4  N   UNL d   1       2.422   2.414  -0.771  0.00  0.00    -0.268 N 
ATOM      5  O   UNL d   1      -1.735   1.653  -0.516  0.00  0.00    -0.267 OA
ATOM      6  O   UNL d   1       0.410   3.350  -1.151  0.00  0.00    -0.246 OA
ATOM      7  H   UNL d   1       1.188   0.396  -0.432  0.00  0.00     0.173 HD
ATOM      8  H   UNL d   1       2.857   3.236  -1.186  0.00  0.00     0.185 HD
ENDROOT
BRANCH   4   9
ATOM      9  N   UNL d   1       3.210   1.329  -0.380  0.00  0.00    -0.199 NA
ATOM     10  H   UNL d   1       2.931   0.990   0.550  0.00  0.00     0.153 HD
BRANCH   9  11
ATOM     11  C   UNL d   1       4.632   1.532  -0.333  0.00  0.00     0.071 A 
ATOM     12  C   UNL d   1       5.369   0.677   0.531  0.00  0.00     0.060 A 
ATOM     13  C   UNL d   1       6.764   0.687   0.589  0.00  0.00     0.049 A 
ATOM     14 CL   UNL d   1       4.537  -0.426   1.584  0.00  0.00    -0.082 Cl
ATOM     15  C   UNL d   1       7.469   1.551  -0.234  0.00  0.00     0.037 A 
ATOM     16  C   UNL d   1       6.794   2.399  -1.105  0.00  0.00     0.049 A 
ATOM     17 CL   UNL d   1       9.188   1.557  -0.191  0.00  0.00    -0.084 Cl
ATOM     18  C   UNL d   1       5.390   2.381  -1.170  0.00  0.00     0.060 A 
ATOM     19 CL   UNL d   1       4.689   3.459  -2.330  0.00  0.00    -0.082 Cl
ENDBRANCH   9  11
ENDBRANCH   4   9
BRANCH   1  20
ATOM     20  C   UNL d   1      -1.189  -0.578  -0.049  0.00  0.00     0.092 A 
ATOM     21  C   UNL d   1      -2.369  -0.933   0.628  0.00  0.00     0.052 A 
ATOM     22 CL   UNL d   1      -3.459   0.209   1.335  0.00  0.00    -0.083 Cl
ATOM     23  C   UNL d   1      -2.697  -2.286   0.822  0.00  0.00     0.025 A 
ATOM     24  C   UNL d   1      -1.857  -3.296   0.357  0.00  0.00     0.005 A 
ATOM     25  C   UNL d   1      -0.677  -2.955  -0.294  0.00  0.00     0.043 A 
ATOM     26  C   UNL d   1      -0.354  -1.612  -0.491  0.00  0.00     0.133 A 
ATOM     27  F   UNL d   1       0.801  -1.336  -1.116  0.00  0.00    -0.205 F 
ENDBRANCH   1  20
TORSDOF 3
