REMARK  6 active torsions:
REMARK  status: ('A' for Active; 'I' for Inactive)
REMARK    1  A    between atoms: C_3  and  C_1 
REMARK    2  A    between atoms: C_2  and  C_3 
REMARK    3  A    between atoms: C_16  and  C_3 
REMARK    4  A    between atoms: C_17  and  C_3 
REMARK    5  A    between atoms: O_14  and  C_8 
REMARK    6  A    between atoms: O_15  and  C_9 
ROOT
ATOM      1  C   UNL d   1       0.347  -3.574  -0.006  0.00  0.00     0.013 C 
ENDROOT
BRANCH   1   2
ATOM      2  C   UNL d   1       1.109  -4.066  -1.294  0.00  0.00    -0.044 A 
ATOM      3  C   UNL d   1       2.375  -3.541  -1.618  0.00  0.00     0.017 A 
ATOM      4  C   UNL d   1       3.069  -3.927  -2.776  0.00  0.00    -0.028 A 
ATOM      5  C   UNL d   1       4.422  -3.334  -3.076  0.00  0.00     0.051 C 
ATOM      6  C   UNL d   1       2.496  -4.861  -3.646  0.00  0.00     0.077 A 
ATOM      7  C   UNL d   1       1.232  -5.394  -3.378  0.00  0.00    -0.028 A 
ATOM      8  C   UNL d   1       0.553  -4.981  -2.218  0.00  0.00     0.017 A 
ATOM      9  C   UNL d   1       0.573  -6.384  -4.300  0.00  0.00     0.051 C 
BRANCH   6  10
ATOM     10  O   UNL d   1       3.211  -5.212  -4.761  0.00  0.00    -0.360 OA
ATOM     11  H   UNL d   1       2.704  -5.841  -5.288  0.00  0.00     0.217 HD
ENDBRANCH   6  10
ENDBRANCH   1   2
BRANCH   1  12
ATOM     12  C   UNL d   1       0.149  -2.030  -0.032  0.00  0.00    -0.044 A 
ATOM     13  C   UNL d   1      -0.035  -1.350  -1.255  0.00  0.00     0.017 A 
ATOM     14  C   UNL d   1      -0.192   0.045  -1.318  0.00  0.00    -0.028 A 
ATOM     15  C   UNL d   1      -0.326   0.728  -2.651  0.00  0.00     0.051 C 
ATOM     16  C   UNL d   1      -0.216   0.779  -0.131  0.00  0.00     0.077 A 
ATOM     17  C   UNL d   1      -0.080   0.143   1.109  0.00  0.00    -0.028 A 
ATOM     18  C   UNL d   1       0.099  -1.254   1.139  0.00  0.00     0.017 A 
ATOM     19  C   UNL d   1      -0.115   0.905   2.405  0.00  0.00     0.051 C 
BRANCH  16  20
ATOM     20  O   UNL d   1      -0.380   2.132  -0.237  0.00  0.00    -0.360 OA
ATOM     21  H   UNL d   1      -0.372   2.534   0.645  0.00  0.00     0.217 HD
ENDBRANCH  16  20
ENDBRANCH   1  12
BRANCH   1  22
ATOM     22  C   UNL d   1       1.104  -4.116   1.271  0.00  0.00     0.015 C 
ATOM     23  C   UNL d   1       2.522  -3.643   1.576  0.00  0.00     0.006 C 
ENDBRANCH   1  22
BRANCH   1  24
ATOM     24  C   UNL d   1      -1.094  -4.228   0.049  0.00  0.00     0.015 C 
ATOM     25  C   UNL d   1      -1.983  -3.933   1.258  0.00  0.00     0.006 C 
ENDBRANCH   1  24
TORSDOF 6
