REMARK  7 active torsions:
REMARK  status: ('A' for Active; 'I' for Inactive)
REMARK    1  A    between atoms: C_2  and  O_9 
REMARK    2  A    between atoms: C_4  and  O_15 
REMARK       I    between atoms: N_8  and  C_4 
REMARK    3  A    between atoms: C_21  and  C_5 
REMARK    4  A    between atoms: C_14  and  N_8 
REMARK    5  A    between atoms: O_9  and  C_16 
REMARK    6  A    between atoms: O_15  and  C_22 
REMARK    7  A    between atoms: C_22  and  C_21 
ROOT
ATOM      1  C   UNL d   1      -1.427  -5.754   0.278  0.00  0.00     0.365 C 
ATOM      2  N   UNL d   1      -1.358  -7.088   0.576  0.00  0.00    -0.303 N 
ATOM      3  O   UNL d   1      -2.508  -5.185   0.144  0.00  0.00    -0.238 OA
ATOM      4  H   UNL d   1      -2.280  -7.492   0.687  0.00  0.00     0.171 HD
ENDROOT
BRANCH   1   5
ATOM      5  O   UNL d   1      -0.233  -5.133   0.225  0.00  0.00    -0.303 OA
BRANCH   5   6
ATOM      6  C   UNL d   1      -0.201  -3.708   0.344  0.00  0.00     0.185 C 
BRANCH   6   7
ATOM      7  C   UNL d   1       1.033  -3.365   1.185  0.00  0.00     0.067 C 
BRANCH   7   8
ATOM      8  C   UNL d   1       2.369  -3.647   0.527  0.00  0.00    -0.038 A 
ATOM      9  C   UNL d   1       2.641  -3.473  -0.816  0.00  0.00     0.058 A 
ATOM     10  S   UNL d   1       4.253  -3.824  -1.231  0.00  0.00    -0.101 SA
ATOM     11  C   UNL d   1       4.662  -4.213   0.391  0.00  0.00     0.015 A 
ATOM     12  C   UNL d   1       3.555  -4.103   1.240  0.00  0.00    -0.012 A 
ATOM     13  C   UNL d   1       5.932  -4.599   0.867  0.00  0.00     0.019 A 
ATOM     14  C   UNL d   1       3.755  -4.419   2.610  0.00  0.00     0.013 A 
ATOM     15  C   UNL d   1       5.012  -4.809   3.086  0.00  0.00     0.001 A 
ATOM     16  C   UNL d   1       6.092  -4.890   2.221  0.00  0.00     0.001 A 
ENDBRANCH   7   8
ENDBRANCH   6   7
ENDBRANCH   5   6
ENDBRANCH   1   5
BRANCH   2  17
ATOM     17  C   UNL d   1      -0.254  -7.886   0.946  0.00  0.00     0.037 A 
ATOM     18  C   UNL d   1       1.085  -7.509   0.820  0.00  0.00     0.032 A 
ATOM     19  C   UNL d   1       2.119  -8.324   1.302  0.00  0.00     0.039 A 
ATOM     20  C   UNL d   1       1.829  -9.538   1.912  0.00  0.00     0.078 A 
ATOM     21  C   UNL d   1       0.496  -9.947   1.992  0.00  0.00     0.039 A 
ATOM     22  C   UNL d   1      -0.536  -9.133   1.509  0.00  0.00     0.032 A 
BRANCH  20  23
ATOM     23  O   UNL d   1       2.726 -10.403   2.469  0.00  0.00    -0.255 OA
BRANCH  23  24
ATOM     24  C   UNL d   1       4.092 -10.021   2.479  0.00  0.00     0.530 C 
ATOM     25  F   UNL d   1       4.271  -8.823   3.076  0.00  0.00    -0.144 F 
ATOM     26  F   UNL d   1       4.790 -10.941   3.181  0.00  0.00    -0.144 F 
ATOM     27  F   UNL d   1       4.590  -9.983   1.225  0.00  0.00    -0.144 F 
ENDBRANCH  23  24
ENDBRANCH  20  23
ENDBRANCH   2  17
TORSDOF 7
