REMARK  4 active torsions:
REMARK  status: ('A' for Active; 'I' for Inactive)
REMARK    1  A    between atoms: C_8  and  C_1 
REMARK    2  A    between atoms: N_6  and  C_2 
REMARK       I    between atoms: C_7  and  N_6 
REMARK    3  A    between atoms: C_11  and  C_7 
REMARK    4  A    between atoms: O_19  and  C_8 
ROOT
ATOM      1  C   UNL d   1       0.005   1.289  -0.374  0.00  0.00     0.107 A 
ATOM      2  C   UNL d   1       1.262   0.906   0.077  0.00  0.00     0.059 A 
ATOM      3  S   UNL d   1      -1.044  -0.065  -0.525  0.00  0.00    -0.081 SA
ATOM      4  C   UNL d   1       0.162  -1.171  -0.040  0.00  0.00     0.025 A 
ATOM      5  C   UNL d   1       1.339  -0.514   0.251  0.00  0.00     0.051 A 
ATOM      6  C   UNL d   1      -0.092  -2.590   0.020  0.00  0.00     0.022 A 
ATOM      7  S   UNL d   1       1.073  -3.733  -0.514  0.00  0.00    -0.101 SA
ATOM      8  C   UNL d   1      -1.234  -3.224   0.478  0.00  0.00     0.021 A 
ATOM      9  C   UNL d   1       0.051  -5.054  -0.149  0.00  0.00     0.050 A 
ATOM     10  C   UNL d   1      -1.149  -4.645   0.383  0.00  0.00     0.008 A 
ENDROOT
BRANCH   2  11
ATOM     11  N   UNL d   1       2.305   1.814   0.287  0.00  0.00    -0.321 N 
ATOM     12  C   UNL d   1       3.489   1.514   0.937  0.00  0.00     0.256 C 
ATOM     13  O   UNL d   1       3.689   0.487   1.580  0.00  0.00    -0.267 OA
ATOM     14  H   UNL d   1       2.120   2.761  -0.017  0.00  0.00     0.169 HD
BRANCH  12  15
ATOM     15  C   UNL d   1       4.601   2.516   0.842  0.00  0.00     0.032 A 
ATOM     16  C   UNL d   1       4.516   3.728   0.145  0.00  0.00     0.017 A 
ATOM     17  C   UNL d   1       5.646   4.545   0.010  0.00  0.00     0.007 A 
ATOM     18  C   UNL d   1       6.875   4.164   0.560  0.00  0.00    -0.062 A 
ATOM     19  C   UNL d   1       6.952   2.979   1.294  0.00  0.00     0.007 A 
ATOM     20  C   UNL d   1       8.095   5.014   0.349  0.00  0.00     0.048 C 
ATOM     21  C   UNL d   1       5.826   2.166   1.433  0.00  0.00     0.017 A 
ENDBRANCH  12  15
ENDBRANCH   2  11
BRANCH   1  22
ATOM     22  C   UNL d   1      -0.544   2.597  -0.691  0.00  0.00     0.302 C 
ATOM     23  O   UNL d   1      -1.685   2.839  -1.065  0.00  0.00    -0.259 OA
BRANCH  22  24
ATOM     24  O   UNL d   1       0.407   3.569  -0.505  0.00  0.00    -0.322 OA
ATOM     25  C   UNL d   1      -0.079   4.897  -0.721  0.00  0.00     0.213 C 
ENDBRANCH  22  24
ENDBRANCH   1  22
TORSDOF 4
