REMARK  5 active torsions:
REMARK  status: ('A' for Active; 'I' for Inactive)
REMARK    1  A    between atoms: C_6  and  C_1 
REMARK    2  A    between atoms: C_5  and  C_2 
REMARK       I    between atoms: N_9  and  C_5 
REMARK    3  A    between atoms: C_12  and  N_9 
REMARK    4  A    between atoms: O_10  and  C_14 
REMARK    5  A    between atoms: C_11  and  O_10 
ROOT
ATOM      1  C   UNL d   1       0.162  -2.242   0.745  0.00  0.00     0.261 C 
ATOM      2  N   UNL d   1      -0.625  -3.383   0.635  0.00  0.00    -0.320 N 
ATOM      3  O   UNL d   1      -0.086  -1.150   0.242  0.00  0.00    -0.267 OA
ATOM      4  H   UNL d   1      -0.554  -4.074   1.373  0.00  0.00     0.169 HD
ENDROOT
BRANCH   1   5
ATOM      5  C   UNL d   1       1.348  -2.428   1.554  0.00  0.00     0.093 A 
ATOM      6  C   UNL d   1       1.898  -1.647   2.626  0.00  0.00     0.086 A 
ATOM      7  N   UNL d   1       3.027  -2.227   3.071  0.00  0.00    -0.259 N 
ATOM      8  O   UNL d   1       3.284  -3.294   2.249  0.00  0.00    -0.241 OA
ATOM      9  HN  UNL d   1       3.587  -1.929   3.869  1.00  0.00     0.195 HD
ATOM     10  C   UNL d   1       2.288  -3.419   1.341  0.00  0.00     0.090 A 
ATOM     11  C   UNL d   1       2.466  -4.499   0.353  0.00  0.00     0.080 C 
BRANCH   6  12
ATOM     12  C   UNL d   1       1.413  -0.436   3.312  0.00  0.00     0.037 A 
ATOM     13  C   UNL d   1       0.112  -0.356   3.845  0.00  0.00     0.048 A 
ATOM     14 CL   UNL d   1      -1.053  -1.632   3.711  0.00  0.00    -0.083 Cl
ATOM     15  C   UNL d   1      -0.297   0.758   4.601  0.00  0.00     0.025 A 
ATOM     16  C   UNL d   1       0.586   1.797   4.871  0.00  0.00     0.003 A 
ATOM     17  C   UNL d   1       1.877   1.742   4.362  0.00  0.00     0.025 A 
ATOM     18  C   UNL d   1       2.283   0.650   3.572  0.00  0.00     0.048 A 
ATOM     19 CL   UNL d   1       3.901   0.747   2.950  0.00  0.00    -0.083 Cl
ENDBRANCH   6  12
ENDBRANCH   1   5
BRANCH   2  20
ATOM     20  C   UNL d   1      -1.690  -3.562  -0.286  0.00  0.00     0.069 C 
ATOM     21  C   UNL d   1      -2.716  -4.489  -0.019  0.00  0.00     0.102 C 
ATOM     22  C   UNL d   1      -3.809  -4.567  -0.899  0.00  0.00     0.039 C 
ATOM     23  C   UNL d   1      -3.811  -3.868  -2.104  0.00  0.00     0.003 C 
ATOM     24  C   UNL d   1      -2.743  -3.036  -2.418  0.00  0.00     0.002 C 
ATOM     25  C   UNL d   1      -1.707  -2.859  -1.498  0.00  0.00     0.032 C 
BRANCH  21  26
ATOM     26  O   UNL d   1      -2.599  -5.287   1.120  0.00  0.00    -0.307 OA
BRANCH  26  27
ATOM     27  C   UNL d   1      -3.482  -6.345   1.252  0.00  0.00     0.098 A 
ATOM     28  C   UNL d   1      -3.531  -7.433   0.364  0.00  0.00     0.069 A 
ATOM     29  C   UNL d   1      -4.573  -8.363   0.460  0.00  0.00     0.050 A 
ATOM     30 CL   UNL d   1      -2.355  -7.665  -0.879  0.00  0.00    -0.081 Cl
ATOM     31  C   UNL d   1      -5.503  -8.249   1.487  0.00  0.00     0.035 A 
ATOM     32  C   UNL d   1      -5.391  -7.238   2.442  0.00  0.00     0.026 A 
ATOM     33 CL   UNL d   1      -6.815  -9.362   1.574  0.00  0.00    -0.084 Cl
ATOM     34  C   UNL d   1      -4.379  -6.280   2.321  0.00  0.00     0.041 A 
ENDBRANCH  26  27
ENDBRANCH  21  26
ENDBRANCH   2  20
TORSDOF 5
