REMARK  6 active torsions:
REMARK  status: ('A' for Active; 'I' for Inactive)
REMARK    1  A    between atoms: N_3  and  C_1 
REMARK    2  A    between atoms: N_10  and  C_1 
REMARK    3  A    between atoms: C_2  and  N_3 
REMARK    4  A    between atoms: C_14  and  N_10 
REMARK    5  A    between atoms: O_13  and  C_15 
REMARK    6  A    between atoms: C_15  and  C_14 
ROOT
ATOM      1  N   UNL d   1       0.556  -0.441  -1.044  0.00  0.00    -0.333 N 
ATOM      2  H   UNL d   1      -0.447  -0.281  -0.932  0.00  0.00     0.168 HD
ENDROOT
BRANCH   1   3
ATOM      3  C   UNL d   1       1.042  -0.570  -2.360  0.00  0.00     0.037 A 
ATOM      4  C   UNL d   1       2.261  -1.197  -2.637  0.00  0.00     0.053 A 
ATOM      5  C   UNL d   1       2.685  -1.349  -3.957  0.00  0.00     0.037 A 
ATOM      6 CL   UNL d   1       4.168  -2.159  -4.287  0.00  0.00    -0.084 Cl
ATOM      7  C   UNL d   1       1.910  -0.872  -5.010  0.00  0.00     0.048 A 
ATOM      8  C   UNL d   1       0.691  -0.263  -4.730  0.00  0.00     0.037 A 
ATOM      9  C   UNL d   1       0.239  -0.131  -3.415  0.00  0.00     0.053 A 
ATOM     10 CL   UNL d   1      -0.271   0.340  -6.026  0.00  0.00    -0.084 Cl
ENDBRANCH   1   3
BRANCH   1  11
ATOM     11  C   UNL d   1       1.270  -0.186   0.101  0.00  0.00     0.172 C 
ATOM     12  S   UNL d   1       2.769   0.543   0.228  0.00  0.00    -0.041 SA
BRANCH  11  13
ATOM     13  N   UNL d   1       0.648  -0.538   1.266  0.00  0.00    -0.365 N 
ATOM     14  H   UNL d   1       1.194  -0.332   2.097  0.00  0.00     0.161 HD
BRANCH  13  15
ATOM     15  C   UNL d   1      -0.487  -1.441   1.414  0.00  0.00     0.148 C 
BRANCH  15  16
ATOM     16  C   UNL d   1      -1.835  -0.730   1.298  0.00  0.00     0.183 C 
BRANCH  16  17
ATOM     17  O   UNL d   1      -2.062  -0.293  -0.044  0.00  0.00    -0.399 OA
ATOM     18  H   UNL d   1      -2.943   0.124  -0.045  0.00  0.00     0.209 HD
ENDBRANCH  16  17
ENDBRANCH  15  16
ENDBRANCH  13  15
ENDBRANCH  11  13
ENDBRANCH   1  11
TORSDOF 6
