REMARK  3 active torsions:
REMARK  status: ('A' for Active; 'I' for Inactive)
REMARK    1  A    between atoms: C_4  and  C_1 
REMARK       I    between atoms: N_9  and  C_4 
REMARK       I    between atoms: C_8  and  N_10 
REMARK    2  A    between atoms: C_11  and  C_8 
REMARK    3  A    between atoms: N_10  and  N_9 
ROOT
ATOM      1  C   UNL d   1      -0.092   2.454   0.177  0.00  0.00     0.274 C 
ATOM      2  N   UNL d   1      -1.138   3.358   0.267  0.00  0.00    -0.263 N 
ATOM      3  O   UNL d   1      -0.296   1.356  -0.341  0.00  0.00    -0.266 OA
ATOM      4  H   UNL d   1      -1.076   4.314   0.599  0.00  0.00     0.190 HD
ENDROOT
BRANCH   2   5
ATOM      5  N   UNL d   1      -2.366   2.965  -0.329  0.00  0.00    -0.263 N 
ATOM      6  C   UNL d   1      -3.559   3.413   0.209  0.00  0.00     0.270 C 
ATOM      7  O   UNL d   1      -3.627   4.231   1.120  0.00  0.00    -0.266 OA
ATOM      8  H   UNL d   1      -2.332   2.059  -0.801  0.00  0.00     0.190 HD
BRANCH   6   9
ATOM      9  C   UNL d   1      -4.798   2.834  -0.394  0.00  0.00     0.035 A 
ATOM     10  C   UNL d   1      -5.931   2.649   0.407  0.00  0.00     0.041 A 
ATOM     11  C   UNL d   1      -7.104   2.143  -0.159  0.00  0.00     0.035 A 
ATOM     12 CL   UNL d   1      -8.496   1.898   0.825  0.00  0.00    -0.084 Cl
ATOM     13  C   UNL d   1      -7.165   1.836  -1.518  0.00  0.00     0.024 A 
ATOM     14  C   UNL d   1      -6.043   2.033  -2.322  0.00  0.00     0.003 A 
ATOM     15  C   UNL d   1      -4.861   2.528  -1.763  0.00  0.00     0.017 A 
ENDBRANCH   6   9
ENDBRANCH   2   5
BRANCH   1  16
ATOM     16  C   UNL d   1       1.225   2.836   0.665  0.00  0.00     0.089 A 
ATOM     17  C   UNL d   1       2.329   2.009   0.521  0.00  0.00     0.090 A 
ATOM     18  O   UNL d   1       3.428   2.595   1.051  0.00  0.00    -0.242 OA
ATOM     19  C   UNL d   1       2.543   0.674  -0.080  0.00  0.00     0.080 C 
ATOM     20  N   UNL d   1       3.085   3.821   1.567  0.00  0.00    -0.265 N 
ATOM     21  C   UNL d   1       1.771   3.969   1.343  0.00  0.00     0.047 A 
ATOM     22  HN  UNL d   1       3.706   4.486   2.028  1.00  0.00     0.194 HD
ATOM     23  C   UNL d   1       1.146   5.223   1.826  0.00  0.00     0.071 C 
ENDBRANCH   1  16
TORSDOF 3
