REMARK  2 active torsions:
REMARK  status: ('A' for Active; 'I' for Inactive)
REMARK    1  A    between atoms: O_8  and  C_2 
REMARK    2  A    between atoms: C_9  and  O_8 
ROOT
ATOM      1  C   UNL d   1      -0.300  -0.667  -0.145  0.00  0.00     0.062 A 
ATOM      2  C   UNL d   1      -1.545  -1.306  -0.239  0.00  0.00     0.094 A 
ATOM      3  C   UNL d   1      -0.277   0.718   0.059  0.00  0.00     0.031 A 
ATOM      4  C   UNL d   1       0.979  -1.410  -0.254  0.00  0.00     0.186 A 
ATOM      5  C   UNL d   1       1.003   1.450   0.162  0.00  0.00     0.183 A 
ATOM      6  C   UNL d   1       2.234  -0.654  -0.046  0.00  0.00     0.059 A 
ATOM      7  C   UNL d   1       2.247   0.665   0.145  0.00  0.00     0.059 A 
ATOM      8  O   UNL d   1       1.039  -2.606  -0.500  0.00  0.00    -0.287 OA
ATOM      9  O   UNL d   1       1.044   2.670   0.261  0.00  0.00    -0.288 OA
ATOM     10  C   UNL d   1      -2.738  -0.575  -0.144  0.00  0.00     0.038 A 
ATOM     11  C   UNL d   1      -1.472   1.448   0.161  0.00  0.00     0.017 A 
ATOM     12  C   UNL d   1      -2.700   0.799   0.066  0.00  0.00     0.004 A 
ENDROOT
BRANCH   2  13
ATOM     13  O   UNL d   1      -1.636  -2.669  -0.564  0.00  0.00    -0.278 OA
BRANCH  13  14
ATOM     14  C   UNL d   1      -2.351  -3.463   0.329  0.00  0.00     0.260 C 
ATOM     15  O   UNL d   1      -2.734  -3.137   1.444  0.00  0.00    -0.265 OA
ATOM     16  C   UNL d   1      -2.607  -4.800  -0.300  0.00  0.00     0.126 C 
ENDBRANCH  13  14
ENDBRANCH   2  13
TORSDOF 2
