REMARK  5 active torsions:
REMARK  status: ('A' for Active; 'I' for Inactive)
REMARK    1  A    between atoms: N_2  and  C_1 
REMARK    2  A    between atoms: N_9  and  C_1 
REMARK    3  A    between atoms: C_3  and  N_2 
REMARK    4  A    between atoms: N_5  and  N_9 
REMARK    5  A    between atoms: C_12  and  C_15 
ROOT
ATOM      1  N   UNL d   1       3.345   1.473   3.838  0.00  0.00    -0.309 N 
ATOM      2  HN  UNL d   1       3.007   0.703   4.414  1.00  0.00     0.186 HD
ATOM      3  C   UNL d   1       4.113   2.421   4.288  0.00  0.00     0.119 C 
ENDROOT
BRANCH   1   4
ATOM      4  N   UNL d   1       3.038   1.614   2.509  0.00  0.00    -0.277 N 
ATOM      5  H   UNL d   1       3.414   2.394   1.977  0.00  0.00     0.189 HD
BRANCH   4   6
ATOM      6  C   UNL d   1       2.360   0.661   1.790  0.00  0.00     0.186 C 
ATOM      7  S   UNL d   1       2.170   0.886   0.146  0.00  0.00    -0.040 SA
BRANCH   6   8
ATOM      8  N   UNL d   1       1.927  -0.407   2.530  0.00  0.00    -0.361 N 
ATOM      9  H   UNL d   1       2.220  -0.335   3.500  0.00  0.00     0.162 HD
BRANCH   8  10
ATOM     10  C   UNL d   1       1.539  -1.703   1.990  0.00  0.00     0.088 C 
ATOM     11  C   UNL d   1       0.960  -2.654   3.062  0.00  0.00     0.009 C 
ATOM     12  C   UNL d   1       2.214  -3.324   3.629  0.00  0.00     0.011 C 
ATOM     13  C   UNL d   1       0.287  -3.838   2.340  0.00  0.00     0.007 C 
ATOM     14  C   UNL d   1       2.691  -3.808   2.262  0.00  0.00    -0.012 C 
ATOM     15  C   UNL d   1       2.764  -2.491   1.472  0.00  0.00     0.030 C 
ATOM     16  C   UNL d   1       1.480  -4.619   1.769  0.00  0.00     0.005 C 
ENDBRANCH   8  10
ENDBRANCH   6   8
ENDBRANCH   4   6
ENDBRANCH   1   4
BRANCH   3  17
ATOM     17  C   UNL d   1       4.588   2.497   5.692  0.00  0.00    -0.008 A 
ATOM     18  C   UNL d   1       5.394   3.587   6.147  0.00  0.00    -0.014 A 
ATOM     19  C   UNL d   1       5.835   3.565   7.497  0.00  0.00    -0.025 A 
ATOM     20  C   UNL d   1       5.796   4.698   5.361  0.00  0.00     0.013 A 
ATOM     21  C   UNL d   1       6.637   4.602   7.999  0.00  0.00     0.012 A 
ATOM     22  C   UNL d   1       5.466   2.506   8.340  0.00  0.00     0.012 A 
ATOM     23  C   UNL d   1       7.016   5.676   7.197  0.00  0.00     0.001 A 
ATOM     24  C   UNL d   1       6.592   5.727   5.878  0.00  0.00     0.001 A 
ATOM     25  C   UNL d   1       4.669   1.460   7.879  0.00  0.00     0.002 A 
ATOM     26  C   UNL d   1       4.231   1.454   6.560  0.00  0.00     0.014 A 
ENDBRANCH   3  17
TORSDOF 5
