REMARK  9 active torsions:
REMARK  status: ('A' for Active; 'I' for Inactive)
REMARK    1  A    between atoms: C_5  and  C_2 
REMARK    2  A    between atoms: C_6  and  C_3 
REMARK    3  A    between atoms: O_16  and  C_5 
REMARK    4  A    between atoms: O_17  and  C_6 
REMARK    5  A    between atoms: S_9  and  C_8 
REMARK    6  A    between atoms: C_15  and  S_9 
REMARK    7  A    between atoms: C_10  and  C_15 
REMARK    8  A    between atoms: O_18  and  C_10 
REMARK    9  A    between atoms: C_22  and  O_18 
ROOT
ATOM      1  C   UNL d   1      -0.012  -0.729   0.012  0.00  0.00     0.009 A 
ATOM      2  C   UNL d   1       1.276  -1.363   0.082  0.00  0.00     0.050 A 
ATOM      3  C   UNL d   1      -1.299  -1.373  -0.033  0.00  0.00     0.049 A 
ATOM      4  C   UNL d   1      -0.017   0.704  -0.002  0.00  0.00    -0.007 A 
ATOM      5  C   UNL d   1       2.468  -0.626   0.048  0.00  0.00     0.020 A 
ATOM      6  C   UNL d   1       1.215   1.430   0.016  0.00  0.00     0.012 A 
ATOM      7  C   UNL d   1       2.439   0.759   0.018  0.00  0.00     0.020 A 
ATOM      8  C   UNL d   1      -2.506  -0.657  -0.033  0.00  0.00     0.019 A 
ATOM      9  C   UNL d   1      -1.261   1.383  -0.026  0.00  0.00     0.014 A 
ATOM     10  C   UNL d   1      -2.485   0.723  -0.031  0.00  0.00     0.002 A 
ENDROOT
BRANCH   6  11
ATOM     11  S   UNL d   1       1.284   3.232   0.179  0.00  0.00    -0.119 SA
BRANCH  11  12
ATOM     12  C   UNL d   1       2.082   3.701  -1.390  0.00  0.00     0.190 C 
BRANCH  12  13
ATOM     13  C   UNL d   1       1.257   3.278  -2.582  0.00  0.00     0.268 C 
ATOM     14  O   UNL d   1       0.084   3.573  -2.767  0.00  0.00    -0.264 OA
BRANCH  13  15
ATOM     15  O   UNL d   1       2.023   2.531  -3.429  0.00  0.00    -0.321 OA
BRANCH  15  16
ATOM     16  C   UNL d   1       1.357   2.035  -4.600  0.00  0.00     0.174 C 
ATOM     17  C   UNL d   1       0.575   0.778  -4.264  0.00  0.00     0.034 C 
ENDBRANCH  15  16
ENDBRANCH  13  15
ENDBRANCH  12  13
ENDBRANCH  11  12
ENDBRANCH   6  11
BRANCH   2  18
ATOM     18  C   UNL d   1       1.508  -2.821   0.225  0.00  0.00     0.177 C 
ATOM     19  O   UNL d   1       2.257  -3.446  -0.508  0.00  0.00    -0.646 OA
BRANCH  18  20
ATOM     20  O   UNL d   1       0.941  -3.351   1.327  0.00  0.00    -0.773 OA
ATOM     21  H   UNL d   1       0.392  -2.752   1.869  0.00  0.00     0.167 HD
ENDBRANCH  18  20
ENDBRANCH   2  18
BRANCH   3  22
ATOM     22  C   UNL d   1      -1.490  -2.834  -0.048  0.00  0.00     0.177 C 
ATOM     23  O   UNL d   1      -2.111  -3.463   0.783  0.00  0.00    -0.646 OA
BRANCH  22  24
ATOM     24  O   UNL d   1      -0.886  -3.389  -1.106  0.00  0.00    -0.773 OA
ATOM     25  H   UNL d   1      -0.945  -4.358  -0.964  0.00  0.00     0.167 HD
ENDBRANCH  22  24
ENDBRANCH   3  22
TORSDOF 9
