REMARK  6 active torsions:
REMARK  status: ('A' for Active; 'I' for Inactive)
REMARK    1  A    between atoms: N_2  and  S_1 
REMARK    2  A    between atoms: C_3  and  S_1 
REMARK    3  A    between atoms: O_19  and  C_12 
REMARK    4  A    between atoms: O_21  and  C_14 
REMARK    5  A    between atoms: O_22  and  C_15 
REMARK    6  A    between atoms: O_24  and  C_18 
ROOT
ATOM      1  N   UNL d   1       0.438  -1.526  -0.724  0.00  0.00    -0.298 N 
ATOM      2  C   UNL d   1       0.655  -4.003  -1.094  0.00  0.00    -0.026 C 
ATOM      3  C   UNL d   1       1.223  -2.755  -0.426  0.00  0.00     0.125 C 
ATOM      4  C   UNL d   1      -0.606  -4.029  -1.703  0.00  0.00    -0.045 C 
ATOM      5  C   UNL d   1       1.386  -5.194  -0.997  0.00  0.00     0.049 C 
ATOM      6  C   UNL d   1      -1.031  -1.742  -0.774  0.00  0.00     0.141 C 
ATOM      7  C   UNL d   1       0.827  -6.418  -1.355  0.00  0.00     0.102 C 
ATOM      8  C   UNL d   1      -1.119  -5.246  -2.188  0.00  0.00     0.047 C 
ATOM      9  C   UNL d   1      -0.417  -6.445  -2.000  0.00  0.00     0.102 C 
ATOM     10  C   UNL d   1      -1.373  -2.748  -1.875  0.00  0.00     0.060 C 
ATOM     11  C   UNL d   1       1.350  -3.032   1.081  0.00  0.00     0.038 C 
ENDROOT
BRANCH   1  12
ATOM     12  S   UNL d   1       0.915  -0.048  -0.055  0.00  0.00     0.264 S 
ATOM     13  O   UNL d   1       0.898  -0.188   1.391  0.00  0.00    -0.200 OA
ATOM     14  O   UNL d   1       0.147   1.011  -0.661  0.00  0.00    -0.200 OA
BRANCH  12  15
ATOM     15  C   UNL d   1       2.601   0.199  -0.566  0.00  0.00     0.115 A 
ATOM     16  C   UNL d   1       3.526   0.474   0.470  0.00  0.00     0.065 A 
ATOM     17  C   UNL d   1       4.850   0.801   0.188  0.00  0.00     0.069 A 
ATOM     18  C   UNL d   1       5.265   0.840  -1.138  0.00  0.00     0.039 A 
ATOM     19  C   UNL d   1       4.371   0.531  -2.163  0.00  0.00     0.041 A 
ATOM     20  C   UNL d   1       3.030   0.201  -1.899  0.00  0.00     0.091 A 
BRANCH  17  21
ATOM     21  O   UNL d   1       5.821   1.076   1.110  0.00  0.00    -0.356 OA
ATOM     22  C   UNL d   1       5.372   1.481   2.398  0.00  0.00     0.210 C 
ENDBRANCH  17  21
BRANCH  20  23
ATOM     23  O   UNL d   1       2.399  -0.258  -3.019  0.00  0.00    -0.354 OA
ATOM     24  C   UNL d   1       1.090   0.193  -3.329  0.00  0.00     0.210 C 
ENDBRANCH  20  23
ENDBRANCH  12  15
ENDBRANCH   1  12
BRANCH   7  25
ATOM     25  O   UNL d   1       1.471  -7.604  -1.093  0.00  0.00    -0.353 OA
ATOM     26  C   UNL d   1       2.240  -7.596   0.113  0.00  0.00     0.210 C 
ENDBRANCH   7  25
BRANCH   9  27
ATOM     27  O   UNL d   1      -0.909  -7.678  -2.348  0.00  0.00    -0.353 OA
ATOM     28  C   UNL d   1      -1.797  -7.702  -3.459  0.00  0.00     0.210 C 
ENDBRANCH   9  27
TORSDOF 6
