REMARK  3 active torsions:
REMARK  status: ('A' for Active; 'I' for Inactive)
REMARK    1  A    between atoms: C_6  and  N_1 
REMARK    2  A    between atoms: C_5  and  C_2 
REMARK    3  A    between atoms: C_16  and  C_9 
ROOT
ATOM      1  N   UNL d   1      -0.782  -0.952  -0.268  0.00  0.00    -0.299 N 
ATOM      2  C   UNL d   1      -0.761   0.416   0.201  0.00  0.00     0.190 C 
ATOM      3  S   UNL d   1       0.085   1.357  -1.098  0.00  0.00    -0.129 SA
ATOM      4  C   UNL d   1       0.147  -1.320  -1.242  0.00  0.00     0.235 C 
ATOM      5  C   UNL d   1       0.892  -0.113  -1.773  0.00  0.00     0.179 C 
ATOM      6  O   UNL d   1       0.381  -2.455  -1.634  0.00  0.00    -0.272 OA
ENDROOT
BRANCH   1   7
ATOM      7  C   UNL d   1      -1.607  -1.929   0.325  0.00  0.00     0.038 C 
ATOM      8  C   UNL d   1      -1.544  -2.231   1.682  0.00  0.00     0.030 C 
ATOM      9  C   UNL d   1      -2.283  -3.313   2.177  0.00  0.00     0.010 C 
ATOM     10  C   UNL d   1      -3.101  -4.084   1.331  0.00  0.00    -0.054 C 
ATOM     11  C   UNL d   1      -3.295  -3.621   0.021  0.00  0.00     0.010 C 
ATOM     12  C   UNL d   1      -2.514  -2.596  -0.492  0.00  0.00     0.030 C 
BRANCH  10  13
ATOM     13  C   UNL d   1      -3.708  -5.424   1.760  0.00  0.00     0.018 C 
ATOM     14  C   UNL d   1      -2.952  -6.143   2.899  0.00  0.00     0.009 C 
ATOM     15  C   UNL d   1      -1.535  -6.564   2.494  0.00  0.00     0.001 C 
ATOM     16  C   UNL d   1      -1.473  -7.346   1.182  0.00  0.00     0.000 C 
ATOM     17  C   UNL d   1      -2.394  -6.827   0.081  0.00  0.00     0.001 C 
ATOM     18  C   UNL d   1      -3.784  -6.452   0.602  0.00  0.00     0.009 C 
ENDBRANCH  10  13
ENDBRANCH   1   7
BRANCH   2  19
ATOM     19  C   UNL d   1      -2.124   0.985   0.525  0.00  0.00    -0.010 A 
ATOM     20  C   UNL d   1      -2.353   1.577   1.764  0.00  0.00     0.097 A 
ATOM     21  N   UNL d   1      -3.557   2.022   2.189  0.00  0.00    -0.375 N 
ATOM     22  C   UNL d   1      -4.595   1.871   1.339  0.00  0.00     0.087 A 
ATOM     23  HN  UNL d   1      -3.676   2.450   3.108  1.00  0.00     0.164 HD
ATOM     24  C   UNL d   1      -4.478   1.322   0.075  0.00  0.00     0.018 A 
ATOM     25  C   UNL d   1      -3.223   0.886  -0.340  0.00  0.00     0.013 A 
ENDBRANCH   2  19
TORSDOF 3
