REMARK  4 active torsions:
REMARK  status: ('A' for Active; 'I' for Inactive)
REMARK    1  A    between atoms: C_7  and  C_1 
REMARK    2  A    between atoms: S_10  and  C_3 
REMARK    3  A    between atoms: N_6  and  C_11 
REMARK    4  A    between atoms: C_14  and  S_10 
ROOT
ATOM      1  C   UNL d   1      -0.408  -2.961   3.838  0.00  0.00     0.207 A 
ATOM      2  N   UNL d   1      -1.121  -3.229   2.699  0.00  0.00    -0.317 N 
ATOM      3  C   UNL d   1      -0.399  -2.720   1.665  0.00  0.00     0.167 A 
ATOM      4  N   UNL d   1       0.708  -2.344   3.497  0.00  0.00    -0.280 N 
ATOM      5  HN  UNL d   1       1.437  -2.027   4.136  1.00  0.00     0.188 HD
ATOM      6  N   UNL d   1       0.716  -2.202   2.125  0.00  0.00    -0.278 N 
ATOM      7  HN  UNL d   1       1.455  -1.773   1.568  1.00  0.00     0.189 HD
ATOM      8  H   UNL d   1      -2.025  -3.678   2.617  0.00  0.00     0.169 HD
ENDROOT
BRANCH   3   9
ATOM      9  S   UNL d   1      -0.857  -2.851   0.010  0.00  0.00    -0.035 SA
BRANCH   9  10
ATOM     10  C   UNL d   1      -2.641  -2.843   0.068  0.00  0.00     0.077 A 
ATOM     11  N   UNL d   1      -3.273  -3.420   1.125  0.00  0.00    -0.358 N 
ATOM     12  C   UNL d   1      -4.634  -3.455   1.098  0.00  0.00     0.124 A 
ATOM     13  HN  UNL d   1      -2.748  -3.811   1.908  1.00  0.00     0.166 HD
ATOM     14  C   UNL d   1      -5.389  -2.942   0.055  0.00  0.00     0.118 A 
ATOM     15  C   UNL d   1      -4.734  -2.353  -1.025  0.00  0.00     0.040 A 
ATOM     16  C   UNL d   1      -3.337  -2.307  -1.016  0.00  0.00     0.040 A 
BRANCH  14  17
ATOM     17  N   UNL d   1      -6.842  -3.034   0.096  0.00  0.00    -0.114 N 
ATOM     18  O   UNL d   1      -7.353  -3.576   1.086  0.00  0.00    -0.532 OA
ATOM     19  O   UNL d   1      -7.474  -2.567  -0.860  0.00  0.00    -0.532 OA
ENDBRANCH  14  17
ENDBRANCH   9  10
ENDBRANCH   3   9
BRANCH   1  20
ATOM     20  C   UNL d   1      -0.898  -3.333   5.183  0.00  0.00     0.450 C 
ATOM     21  F   UNL d   1      -2.103  -3.966   5.111  0.00  0.00    -0.163 F 
ATOM     22  F   UNL d   1      -0.059  -4.180   5.830  0.00  0.00    -0.163 F 
ATOM     23  F   UNL d   1      -1.081  -2.254   5.985  0.00  0.00    -0.163 F 
ENDBRANCH   1  20
TORSDOF 4
