REMARK  7 active torsions:
REMARK  status: ('A' for Active; 'I' for Inactive)
REMARK    1  A    between atoms: C_9  and  N_1 
REMARK    2  A    between atoms: C_6  and  C_2 
REMARK    3  A    between atoms: S_21  and  C_5 
REMARK    4  A    between atoms: O_18  and  C_10 
REMARK    5  A    between atoms: C_11  and  C_13 
REMARK    6  A    between atoms: C_12  and  C_14 
REMARK    7  A    between atoms: C_28  and  O_18 
ROOT
ATOM      1  N   UNL d   1      -0.150  -1.272  -0.312  0.00  0.00    -0.275 N 
ATOM      2  C   UNL d   1       1.145  -0.734  -0.412  0.00  0.00     0.143 A 
ATOM      3  N   UNL d   1       1.042   0.547  -0.720  0.00  0.00    -0.282 N 
ATOM      4  HN  UNL d   1       1.825   1.184  -0.870  1.00  0.00     0.188 HD
ATOM      5  C   UNL d   1      -0.983  -0.187  -0.531  0.00  0.00     0.165 A 
ATOM      6  N   UNL d   1      -0.279   0.883  -0.807  0.00  0.00    -0.278 N 
ATOM      7  HN  UNL d   1      -0.651   1.802  -1.044  1.00  0.00     0.189 HD
ENDROOT
BRANCH   1   8
ATOM      8  C   UNL d   1      -0.523  -2.634  -0.078  0.00  0.00     0.044 A 
ATOM      9  C   UNL d   1       0.183  -3.421   0.843  0.00  0.00     0.046 A 
ATOM     10  C   UNL d   1      -0.111  -4.788   0.992  0.00  0.00     0.050 A 
ATOM     11  C   UNL d   1      -1.162  -5.345   0.245  0.00  0.00     0.032 A 
ATOM     12  C   UNL d   1      -1.904  -4.566  -0.655  0.00  0.00     0.050 A 
ATOM     13  C   UNL d   1      -1.565  -3.212  -0.822  0.00  0.00     0.046 A 
BRANCH  10  14
ATOM     14  C   UNL d   1       0.703  -5.670   1.914  0.00  0.00     0.417 C 
ATOM     15  F   UNL d   1       1.706  -5.010   2.551  0.00  0.00    -0.166 F 
ATOM     16  F   UNL d   1      -0.054  -6.244   2.887  0.00  0.00    -0.166 F 
ATOM     17  F   UNL d   1       1.296  -6.695   1.242  0.00  0.00    -0.166 F 
ENDBRANCH  10  14
BRANCH  12  18
ATOM     18  C   UNL d   1      -3.020  -5.200  -1.458  0.00  0.00     0.417 C 
ATOM     19  F   UNL d   1      -3.745  -4.301  -2.178  0.00  0.00    -0.166 F 
ATOM     20  F   UNL d   1      -2.555  -6.113  -2.352  0.00  0.00    -0.166 F 
ATOM     21  F   UNL d   1      -3.913  -5.860  -0.671  0.00  0.00    -0.166 F 
ENDBRANCH  12  18
ENDBRANCH   1   8
BRANCH   2  22
ATOM     22  C   UNL d   1       2.427  -1.440  -0.292  0.00  0.00     0.061 C 
ATOM     23  C   UNL d   1       3.502  -0.918   0.434  0.00  0.00     0.162 C 
ATOM     24  N   UNL d   1       4.643  -1.614   0.691  0.00  0.00    -0.346 N 
ATOM     25  C   UNL d   1       4.777  -2.827   0.123  0.00  0.00     0.090 C 
ATOM     26  HN  UNL d   1       5.371  -1.230   1.294  1.00  0.00     0.167 HD
ATOM     27  C   UNL d   1       3.822  -3.384  -0.703  0.00  0.00     0.018 C 
ATOM     28  C   UNL d   1       2.642  -2.676  -0.920  0.00  0.00     0.021 C 
BRANCH  23  29
ATOM     29  O   UNL d   1       3.406   0.363   0.965  0.00  0.00    -0.293 OA
BRANCH  29  30
ATOM     30  C   UNL d   1       4.551   1.137   0.964  0.00  0.00     0.077 A 
ATOM     31  C   UNL d   1       5.508   1.114  -0.058  0.00  0.00     0.037 A 
ATOM     32  C   UNL d   1       6.648   1.917   0.026  0.00  0.00     0.003 A 
ATOM     33  C   UNL d   1       6.819   2.772   1.113  0.00  0.00     0.000 A 
ATOM     34  C   UNL d   1       5.844   2.836   2.108  0.00  0.00     0.003 A 
ATOM     35  C   UNL d   1       4.708   2.024   2.031  0.00  0.00     0.037 A 
ENDBRANCH  29  30
ENDBRANCH  23  29
ENDBRANCH   2  22
BRANCH   5  36
ATOM     36  S   UNL d   1      -2.703  -0.145  -0.298  0.00  0.00    -0.105 SA
ATOM     37  H   UNL d   1      -2.834  -1.172   0.552  0.00  0.00     0.110 HD
ENDBRANCH   5  36
TORSDOF 7
