REMARK  6 active torsions:
REMARK  status: ('A' for Active; 'I' for Inactive)
REMARK    1  A    between atoms: N_2  and  C_1 
REMARK    2  A    between atoms: C_3  and  C_1 
REMARK    3  A    between atoms: C_4  and  C_1 
REMARK    4  A    between atoms: O_8  and  C_1 
REMARK       I    between atoms: C_5  and  N_2 
REMARK       I    between atoms: N_6  and  C_5 
REMARK    5  A    between atoms: C_15  and  N_6 
REMARK    6  A    between atoms: C_22  and  O_8 
ROOT
ATOM      1  N   UNL d   1       0.829   1.040  -1.022  0.00  0.00    -0.296 N 
ATOM      2  C   UNL d   1       1.166   2.339  -0.844  0.00  0.00     0.323 C 
ATOM      3  N   UNL d   1       1.556   2.717   0.403  0.00  0.00    -0.309 N 
ATOM      4  O   UNL d   1       1.059   3.064  -1.828  0.00  0.00    -0.247 OA
ATOM      5  H   UNL d   1       0.585   0.856  -1.990  0.00  0.00     0.167 HD
ATOM      6  H   UNL d   1       1.837   1.992   1.049  0.00  0.00     0.170 HD
ENDROOT
BRANCH   1   7
ATOM      7  C   UNL d   1       0.872  -0.129  -0.104  0.00  0.00     0.338 C 
BRANCH   7   8
ATOM      8  C   UNL d   1       2.309  -0.500   0.328  0.00  0.00     0.447 C 
ATOM      9  F   UNL d   1       3.154  -0.577  -0.725  0.00  0.00    -0.166 F 
ATOM     10  F   UNL d   1       2.817   0.453   1.159  0.00  0.00    -0.166 F 
ATOM     11  F   UNL d   1       2.380  -1.671   0.996  0.00  0.00    -0.166 F 
ENDBRANCH   7   8
BRANCH   7  12
ATOM     12  C   UNL d   1       0.381  -1.417  -0.803  0.00  0.00     0.447 C 
ATOM     13  F   UNL d   1      -0.805  -1.197  -1.433  0.00  0.00    -0.166 F 
ATOM     14  F   UNL d   1       1.236  -1.837  -1.763  0.00  0.00    -0.166 F 
ATOM     15  F   UNL d   1       0.183  -2.441   0.054  0.00  0.00    -0.166 F 
ENDBRANCH   7  12
BRANCH   7  16
ATOM     16  O   UNL d   1       0.112   0.218   1.086  0.00  0.00    -0.346 OA
BRANCH  16  17
ATOM     17  C   UNL d   1      -1.275   0.487   0.887  0.00  0.00     0.167 C 
ATOM     18  C   UNL d   1      -1.879   0.847   2.232  0.00  0.00     0.033 C 
ENDBRANCH  16  17
ENDBRANCH   7  16
ENDBRANCH   1   7
BRANCH   3  19
ATOM     19  C   UNL d   1       1.756   4.041   0.852  0.00  0.00     0.036 A 
ATOM     20  C   UNL d   1       1.290   5.165   0.165  0.00  0.00     0.032 A 
ATOM     21  C   UNL d   1       1.485   6.446   0.686  0.00  0.00     0.044 A 
ATOM     22  C   UNL d   1       2.153   6.602   1.892  0.00  0.00     0.116 A 
ATOM     23  C   UNL d   1       2.627   5.499   2.590  0.00  0.00     0.044 A 
ATOM     24  F   UNL d   1       2.339   7.831   2.392  0.00  0.00    -0.206 F 
ATOM     25  C   UNL d   1       2.421   4.215   2.075  0.00  0.00     0.032 A 
ENDBRANCH   3  19
TORSDOF 6
