REMARK  3 active torsions:
REMARK  status: ('A' for Active; 'I' for Inactive)
REMARK    1  A    between atoms: N_6  and  C_1 
REMARK       I    between atoms: C_9  and  N_6 
REMARK    2  A    between atoms: N_7  and  C_11 
REMARK    3  A    between atoms: C_13  and  C_9 
ROOT
ATOM      1  N   UNL d   1       3.607  -1.054  -0.146  0.00  0.00    -0.303 N 
ATOM      2  C   UNL d   1       4.886  -0.506  -0.173  0.00  0.00     0.257 C 
ATOM      3  O   UNL d   1       5.179   0.642  -0.478  0.00  0.00    -0.267 OA
ATOM      4  H   UNL d   1       3.513  -2.043   0.016  0.00  0.00     0.171 HD
ENDROOT
BRANCH   1   5
ATOM      5  C   UNL d   1       2.367  -0.461  -0.297  0.00  0.00     0.155 C 
ATOM      6  S   UNL d   1       2.293   1.233  -0.626  0.00  0.00    -0.011 SA
ATOM      7  C   UNL d   1       0.791   1.549   0.182  0.00  0.00     0.228 C 
ATOM      8  O   UNL d   1       0.604   2.580   0.814  0.00  0.00    -0.279 OA
ATOM      9  C   UNL d   1      -0.285   0.576  -0.019  0.00  0.00     0.048 A 
ATOM     10  C   UNL d   1       0.041  -0.762  -0.250  0.00  0.00     0.048 A 
ATOM     11  C   UNL d   1      -1.615   1.014   0.013  0.00  0.00     0.018 A 
ATOM     12  N   UNL d   1       1.355  -1.259  -0.181  0.00  0.00    -0.336 N 
ATOM     13  C   UNL d   1      -1.006  -1.661  -0.482  0.00  0.00     0.030 A 
ATOM     14  HN  UNL d   1       1.511  -2.256  -0.038  1.00  0.00     0.168 HD
ATOM     15  C   UNL d   1      -2.338  -1.228  -0.484  0.00  0.00     0.002 A 
ATOM     16  C   UNL d   1      -2.643   0.108  -0.228  0.00  0.00     0.001 A 
ENDBRANCH   1   5
BRANCH   2  17
ATOM     17  C   UNL d   1       5.995  -1.451   0.124  0.00  0.00     0.032 A 
ATOM     18  C   UNL d   1       7.218  -1.252  -0.537  0.00  0.00     0.019 A 
ATOM     19  C   UNL d   1       8.273  -2.148  -0.357  0.00  0.00     0.037 A 
ATOM     20  C   UNL d   1       8.105  -3.242   0.501  0.00  0.00     0.102 A 
ATOM     21  C   UNL d   1       6.909  -3.413   1.214  0.00  0.00     0.037 A 
ATOM     22  C   UNL d   1       5.855  -2.511   1.029  0.00  0.00     0.019 A 
BRANCH  20  23
ATOM     23  N   UNL d   1       9.178  -4.236   0.630  0.00  0.00    -0.116 N 
ATOM     24  O   UNL d   1      10.204  -4.067  -0.044  0.00  0.00    -0.532 OA
ATOM     25  O   UNL d   1       8.984  -5.194   1.391  0.00  0.00    -0.532 OA
ENDBRANCH  20  23
ENDBRANCH   2  17
TORSDOF 3
