REMARK  8 active torsions:
REMARK  status: ('A' for Active; 'I' for Inactive)
REMARK    1  A    between atoms: N_3  and  C_1 
REMARK    2  A    between atoms: N_4  and  C_1 
REMARK    3  A    between atoms: C_2  and  C_6 
REMARK    4  A    between atoms: O_13  and  C_2 
REMARK    5  A    between atoms: N_7  and  N_3 
REMARK    6  A    between atoms: C_12  and  N_4 
REMARK    7  A    between atoms: C_9  and  N_7 
REMARK    8  A    between atoms: C_19  and  O_13 
ROOT
ATOM      1  N   UNL d   1       0.123  -0.968  -0.519  0.00  0.00    -0.332 N 
ATOM      2  H   UNL d   1       0.634  -1.759  -0.885  0.00  0.00     0.168 HD
ENDROOT
BRANCH   1   3
ATOM      3  C   UNL d   1       0.916   0.136  -0.205  0.00  0.00     0.186 C 
ATOM      4  S   UNL d   1       0.431   1.734  -0.012  0.00  0.00    -0.040 SA
BRANCH   3   5
ATOM      5  N   UNL d   1       2.257  -0.260  -0.066  0.00  0.00    -0.297 N 
ATOM      6  H   UNL d   1       2.555  -1.150  -0.453  0.00  0.00     0.183 HD
BRANCH   5   7
ATOM      7  N   UNL d   1       3.280   0.661   0.265  0.00  0.00    -0.230 NA
ATOM      8  H   UNL d   1       2.843   1.591   0.332  0.00  0.00     0.147 HD
BRANCH   7   9
ATOM      9  C   UNL d   1       3.945   0.353   1.551  0.00  0.00     0.019 C 
ATOM     10  C   UNL d   1       4.731  -0.962   1.435  0.00  0.00     0.033 C 
ATOM     11  C   UNL d   1       4.935   1.500   1.824  0.00  0.00     0.033 C 
ATOM     12  C   UNL d   1       2.950   0.279   2.722  0.00  0.00     0.033 C 
ENDBRANCH   7   9
ENDBRANCH   5   7
ENDBRANCH   3   5
ENDBRANCH   1   3
BRANCH   1  13
ATOM     13  C   UNL d   1      -1.282  -1.100  -0.591  0.00  0.00     0.034 A 
ATOM     14  C   UNL d   1      -1.790  -2.131  -1.393  0.00  0.00     0.030 A 
ATOM     15  C   UNL d   1      -3.171  -2.300  -1.552  0.00  0.00     0.020 A 
ATOM     16  C   UNL d   1      -4.063  -1.458  -0.884  0.00  0.00     0.039 A 
ATOM     17  C   UNL d   1      -3.558  -0.465  -0.038  0.00  0.00     0.020 A 
ATOM     18  C   UNL d   1      -2.179  -0.297   0.112  0.00  0.00     0.030 A 
BRANCH  16  19
ATOM     19  C   UNL d   1      -5.518  -1.599  -1.146  0.00  0.00     0.293 C 
ATOM     20  O   UNL d   1      -5.986  -2.374  -1.969  0.00  0.00    -0.259 OA
BRANCH  19  21
ATOM     21  O   UNL d   1      -6.206  -0.686  -0.421  0.00  0.00    -0.318 OA
BRANCH  21  22
ATOM     22  C   UNL d   1      -7.546  -0.423  -0.854  0.00  0.00     0.174 C 
ATOM     23  C   UNL d   1      -7.494   0.656  -1.921  0.00  0.00     0.034 C 
ENDBRANCH  21  22
ENDBRANCH  19  21
ENDBRANCH  16  19
ENDBRANCH   1  13
TORSDOF 8
