REMARK  6 active torsions:
REMARK  status: ('A' for Active; 'I' for Inactive)
REMARK    1  A    between atoms: O_7  and  C_1 
REMARK    2  A    between atoms: O_8  and  C_2 
REMARK    3  A    between atoms: C_19  and  O_7 
REMARK    4  A    between atoms: C_20  and  O_8 
REMARK       I    between atoms: C_9  and  N_12 
REMARK       I    between atoms: C_10  and  N_11 
REMARK    5  A    between atoms: N_11  and  C_22 
REMARK    6  A    between atoms: N_12  and  C_21 
ROOT
ATOM      1  C   UNL d   1       0.128   1.422   0.013  0.00  0.00     0.159 A 
ATOM      2  C   UNL d   1      -0.133  -1.384   0.018  0.00  0.00     0.159 A 
ATOM      3  C   UNL d   1      -1.130   0.824  -0.031  0.00  0.00     0.194 A 
ATOM      4  C   UNL d   1       1.125  -0.786  -0.031  0.00  0.00     0.194 A 
ATOM      5  C   UNL d   1      -1.261  -0.564  -0.056  0.00  0.00     0.194 A 
ATOM      6  C   UNL d   1       1.256   0.601  -0.061  0.00  0.00     0.194 A 
ATOM      7  F   UNL d   1       2.485   1.128  -0.151  0.00  0.00    -0.200 F 
ATOM      8  F   UNL d   1       2.229  -1.549  -0.038  0.00  0.00    -0.200 F 
ATOM      9  F   UNL d   1      -2.491  -1.092  -0.140  0.00  0.00    -0.200 F 
ATOM     10  F   UNL d   1      -2.234   1.586  -0.038  0.00  0.00    -0.200 F 
ENDROOT
BRANCH   1  11
ATOM     11  O   UNL d   1       0.158   2.797   0.066  0.00  0.00    -0.304 OA
BRANCH  11  12
ATOM     12  C   UNL d   1       1.122   3.416   0.830  0.00  0.00     0.076 A 
ATOM     13  C   UNL d   1       1.569   4.657   0.379  0.00  0.00     0.039 A 
ATOM     14  C   UNL d   1       2.607   5.316   1.048  0.00  0.00     0.032 A 
ATOM     15  C   UNL d   1       3.211   4.736   2.172  0.00  0.00     0.034 A 
ATOM     16  C   UNL d   1       2.693   3.540   2.668  0.00  0.00     0.032 A 
ATOM     17  C   UNL d   1       1.637   2.895   2.017  0.00  0.00     0.039 A 
BRANCH  15  18
ATOM     18  N   UNL d   1       4.330   5.393   2.727  0.00  0.00    -0.328 N 
ATOM     19  C   UNL d   1       5.162   4.914   3.724  0.00  0.00     0.218 C 
ATOM     20  O   UNL d   1       5.052   3.852   4.328  0.00  0.00    -0.274 OA
ATOM     21  C   UNL d   1       6.314   5.836   4.035  0.00  0.00     0.117 C 
ATOM     22  H   UNL d   1       4.595   6.263   2.284  0.00  0.00     0.169 HD
ENDBRANCH  15  18
ENDBRANCH  11  12
ENDBRANCH   1  11
BRANCH   2  23
ATOM     23  O   UNL d   1      -0.163  -2.759   0.076  0.00  0.00    -0.304 OA
BRANCH  23  24
ATOM     24  C   UNL d   1      -1.121  -3.377   0.850  0.00  0.00     0.076 A 
ATOM     25  C   UNL d   1      -1.560  -4.625   0.410  0.00  0.00     0.039 A 
ATOM     26  C   UNL d   1      -2.591  -5.285   1.088  0.00  0.00     0.032 A 
ATOM     27  C   UNL d   1      -3.197  -4.700   2.208  0.00  0.00     0.034 A 
ATOM     28  C   UNL d   1      -2.687  -3.495   2.693  0.00  0.00     0.032 A 
ATOM     29  C   UNL d   1      -1.635  -2.850   2.033  0.00  0.00     0.039 A 
BRANCH  27  30
ATOM     30  N   UNL d   1      -4.307  -5.361   2.775  0.00  0.00    -0.328 N 
ATOM     31  C   UNL d   1      -5.140  -4.879   3.770  0.00  0.00     0.218 C 
ATOM     32  O   UNL d   1      -5.034  -3.812   4.365  0.00  0.00    -0.274 OA
ATOM     33  C   UNL d   1      -6.287  -5.806   4.090  0.00  0.00     0.117 C 
ATOM     34  H   UNL d   1      -4.566  -6.235   2.341  0.00  0.00     0.169 HD
ENDBRANCH  27  30
ENDBRANCH  23  24
ENDBRANCH   2  23
TORSDOF 6
