REMARK  3 active torsions:
REMARK  status: ('A' for Active; 'I' for Inactive)
REMARK    1  A    between atoms: C_5  and  C_3 
REMARK    2  A    between atoms: C_10  and  C_4 
REMARK    3  A    between atoms: O_21  and  C_15 
ROOT
ATOM      1  N   UNL d   1       1.270   0.207  -0.085  0.00  0.00    -0.318 N 
ATOM      2  HN  UNL d   1       2.273   0.372  -0.178  1.00  0.00     0.169 HD
ATOM      3  C   UNL d   1       0.638  -0.937   0.008  0.00  0.00     0.183 A 
ATOM      4  C   UNL d   1       0.255   1.132  -0.029  0.00  0.00     0.138 A 
ATOM      5  N   UNL d   1      -0.970   0.588   0.060  0.00  0.00    -0.242 N 
ATOM      6  HN  UNL d   1      -1.871   1.064   0.101  1.00  0.00     0.196 HD
ATOM      7  O   UNL d   1      -0.719  -0.785   0.085  0.00  0.00    -0.217 OA
ENDROOT
BRANCH   3   8
ATOM      8  C   UNL d   1       1.152  -2.301   0.034  0.00  0.00     0.037 A 
ATOM      9  C   UNL d   1       2.400  -2.624   0.597  0.00  0.00     0.025 A 
ATOM     10  C   UNL d   1       2.871  -3.940   0.565  0.00  0.00     0.023 A 
ATOM     11 BR   UNL d   1       3.518  -1.360   1.480  0.00  0.00    -0.050 Br
ATOM     12  C   UNL d   1       2.104  -4.944  -0.024  0.00  0.00     0.038 A 
ATOM     13  C   UNL d   1       0.860  -4.652  -0.579  0.00  0.00     0.069 A 
ATOM     14  C   UNL d   1       0.389  -3.337  -0.549  0.00  0.00     0.054 A 
BRANCH  13  15
ATOM     15  O   UNL d   1       0.214  -5.729  -1.119  0.00  0.00    -0.356 OA
ATOM     16  C   UNL d   1      -1.059  -5.499  -1.708  0.00  0.00     0.210 C 
ENDBRANCH  13  15
ENDBRANCH   3   8
BRANCH   4  17
ATOM     17  C   UNL d   1       0.525   2.565  -0.063  0.00  0.00     0.010 A 
ATOM     18  C   UNL d   1       1.847   3.026  -0.150  0.00  0.00     0.016 A 
ATOM     19  C   UNL d   1       2.125   4.395  -0.188  0.00  0.00     0.007 A 
ATOM     20  C   UNL d   1       1.085   5.329  -0.137  0.00  0.00    -0.062 A 
ATOM     21  C   UNL d   1      -0.235   4.874  -0.042  0.00  0.00     0.007 A 
ATOM     22  C   UNL d   1       1.395   6.795  -0.194  0.00  0.00     0.048 C 
ATOM     23  C   UNL d   1      -0.513   3.504  -0.004  0.00  0.00     0.016 A 
ENDBRANCH   4  17
TORSDOF 3
