REMARK  3 active torsions:
REMARK  status: ('A' for Active; 'I' for Inactive)
REMARK    1  A    between atoms: C_3  and  C_1 
REMARK    2  A    between atoms: C_13  and  N_2 
REMARK    3  A    between atoms: N_15  and  C_8 
ROOT
ATOM      1  C   UNL d   1      -0.360  -2.863  -0.092  0.00  0.00     0.053 A 
ATOM      2  C   UNL d   1       0.058  -3.654   0.997  0.00  0.00     0.053 A 
ATOM      3  C   UNL d   1      -0.146  -5.068   0.949  0.00  0.00     0.018 A 
ATOM      4  C   UNL d   1      -0.976  -3.522  -1.152  0.00  0.00     0.106 A 
ATOM      5  N   UNL d   1      -1.254  -4.842  -1.187  0.00  0.00    -0.364 N 
ATOM      6  HN  UNL d   1      -1.765  -5.252  -1.969  1.00  0.00     0.165 HD
ATOM      7  C   UNL d   1      -0.839  -5.597  -0.165  0.00  0.00     0.044 A 
ATOM      8  C   UNL d   1       0.310  -5.974   1.938  0.00  0.00     0.016 A 
ATOM      9  C   UNL d   1      -1.087  -6.961  -0.230  0.00  0.00     0.030 A 
ATOM     10  C   UNL d   1       0.062  -7.344   1.845  0.00  0.00     0.001 A 
ATOM     11  C   UNL d   1      -0.648  -7.838   0.760  0.00  0.00     0.002 A 
ENDROOT
BRANCH   1  12
ATOM     12  C   UNL d   1      -0.150  -1.412  -0.151  0.00  0.00     0.152 C 
ATOM     13  N   UNL d   1      -1.003  -0.451  -0.693  0.00  0.00    -0.224 N 
ATOM     14  N   UNL d   1      -0.298   0.695  -0.847  0.00  0.00     0.001 NA
ATOM     15  N   UNL d   1       0.854   0.500  -0.228  0.00  0.00    -0.007 NA
ATOM     16  N   UNL d   1       0.954  -0.786   0.222  0.00  0.00    -0.269 N 
ATOM     17  HN  UNL d   1       1.732  -1.186   0.747  1.00  0.00     0.185 HD
BRANCH  13  18
ATOM     18  C   UNL d   1      -2.378  -0.503  -1.038  0.00  0.00     0.056 A 
ATOM     19  C   UNL d   1      -3.256  -1.388  -0.396  0.00  0.00     0.033 A 
ATOM     20  C   UNL d   1      -4.601  -1.434  -0.775  0.00  0.00     0.026 A 
ATOM     21  C   UNL d   1      -5.069  -0.601  -1.789  0.00  0.00     0.034 A 
ATOM     22  C   UNL d   1      -4.209   0.299  -2.415  0.00  0.00     0.026 A 
ATOM     23 CL   UNL d   1      -6.720  -0.679  -2.265  0.00  0.00    -0.084 Cl
ATOM     24  C   UNL d   1      -2.867   0.363  -2.030  0.00  0.00     0.033 A 
ENDBRANCH  13  18
ENDBRANCH   1  12
BRANCH   2  25
ATOM     25  N   UNL d   1       0.825  -3.090   2.041  0.00  0.00    -0.398 N 
ATOM     26  H   UNL d   1       0.864  -2.072   2.062  0.00  0.00     0.156 HD
ATOM     27  H   UNL d   1       0.704  -3.508   2.955  0.00  0.00     0.156 HD
ENDBRANCH   2  25
TORSDOF 3
