REMARK  3 active torsions:
REMARK  status: ('A' for Active; 'I' for Inactive)
REMARK    1  A    between atoms: N_5  and  C_2 
REMARK    2  A    between atoms: C_10  and  C_6 
REMARK    3  A    between atoms: C_11  and  C_10 
ROOT
ATOM      1  C   UNL d   1       4.960  -1.351  -0.139  0.00  0.00     0.177 C 
ATOM      2  C   UNL d   1       5.991  -0.614   0.644  0.00  0.00     0.075 C 
ATOM      3  N   UNL d   1       6.767  -0.026   1.276  0.00  0.00    -0.196 NA
ENDROOT
BRANCH   1   4
ATOM      4  C   UNL d   1       3.591  -0.641  -0.128  0.00  0.00    -0.001 A 
ATOM      5  C   UNL d   1       2.350  -1.334  -0.123  0.00  0.00     0.126 A 
ATOM      6  C   UNL d   1       1.107  -0.666  -0.132  0.00  0.00     0.063 A 
ATOM      7  C   UNL d   1      -0.199  -1.368  -0.169  0.00  0.00     0.196 A 
ATOM      8  C   UNL d   1       1.109   0.731  -0.136  0.00  0.00     0.032 A 
ATOM      9  C   UNL d   1      -1.458  -0.597  -0.075  0.00  0.00     0.029 A 
ATOM     10  O   UNL d   1      -0.250  -2.581  -0.322  0.00  0.00    -0.286 OA
ATOM     11  C   UNL d   1      -2.687  -1.266   0.002  0.00  0.00     0.016 A 
ATOM     12  C   UNL d   1      -1.434   0.793  -0.102  0.00  0.00     0.029 A 
ATOM     13  C   UNL d   1      -3.880  -0.540   0.020  0.00  0.00     0.001 A 
ATOM     14  C   UNL d   1      -3.852   0.853  -0.043  0.00  0.00     0.001 A 
ATOM     15  C   UNL d   1      -2.630   1.522  -0.097  0.00  0.00     0.016 A 
ATOM     16  C   UNL d   1      -0.148   1.505  -0.140  0.00  0.00     0.194 A 
ATOM     17  O   UNL d   1      -0.122   2.730  -0.162  0.00  0.00    -0.287 OA
ATOM     18  C   UNL d   1       2.317   1.439  -0.147  0.00  0.00     0.017 A 
ATOM     19  C   UNL d   1       3.536   0.764  -0.163  0.00  0.00     0.012 A 
BRANCH   5  20
ATOM     20  N   UNL d   1       2.376  -2.783  -0.044  0.00  0.00    -0.114 N 
ATOM     21  O   UNL d   1       2.231  -3.272   1.083  0.00  0.00    -0.532 OA
ATOM     22  O   UNL d   1       2.706  -3.392  -1.069  0.00  0.00    -0.532 OA
ENDBRANCH   5  20
ENDBRANCH   1   4
BRANCH   1  23
ATOM     23  C   UNL d   1       5.473  -1.605  -1.554  0.00  0.00     0.032 A 
ATOM     24  N   UNL d   1       5.625  -0.527  -2.365  0.00  0.00    -0.367 N 
ATOM     25  C   UNL d   1       6.115  -0.744  -3.610  0.00  0.00     0.100 A 
ATOM     26  HN  UNL d   1       5.381   0.411  -2.049  1.00  0.00     0.165 HD
ATOM     27  C   UNL d   1       6.460  -1.994  -4.118  0.00  0.00    -0.011 A 
ATOM     28  C   UNL d   1       6.284  -3.105  -3.273  0.00  0.00    -0.023 A 
ATOM     29  C   UNL d   1       6.963  -2.175  -5.420  0.00  0.00     0.013 A 
ATOM     30  C   UNL d   1       5.791  -2.898  -1.975  0.00  0.00     0.039 A 
ATOM     31  C   UNL d   1       6.608  -4.385  -3.756  0.00  0.00     0.012 A 
ATOM     32  C   UNL d   1       7.102  -4.555  -5.053  0.00  0.00     0.001 A 
ATOM     33  C   UNL d   1       7.282  -3.451  -5.882  0.00  0.00     0.001 A 
ENDBRANCH   1  23
TORSDOF 3
