REMARK  4 active torsions:
REMARK  status: ('A' for Active; 'I' for Inactive)
REMARK    1  A    between atoms: N_2  and  S_1 
REMARK    2  A    between atoms: C_3  and  S_1 
REMARK    3  A    between atoms: C_11  and  C_17 
REMARK    4  A    between atoms: C_18  and  C_11 
ROOT
ATOM      1  N   UNL d   1       0.560   0.432  -1.481  0.00  0.00    -0.206 NA
ATOM      2  C   UNL d   1       1.012  -0.560  -2.506  0.00  0.00     0.108 C 
ATOM      3  C   UNL d   1       0.845   1.852  -1.848  0.00  0.00     0.108 C 
ATOM      4  C   UNL d   1       0.328   2.176  -3.242  0.00  0.00     0.020 C 
ATOM      5  C   UNL d   1       0.568  -0.180  -3.923  0.00  0.00     0.020 C 
ATOM      6  C   UNL d   1       0.944   1.262  -4.306  0.00  0.00    -0.008 C 
ENDROOT
BRANCH   1   7
ATOM      7  S   UNL d   1       1.104   0.068   0.122  0.00  0.00     0.243 S 
ATOM      8  O   UNL d   1       1.012   1.275   0.920  0.00  0.00    -0.206 OA
ATOM      9  O   UNL d   1       2.348  -0.662   0.027  0.00  0.00    -0.206 OA
BRANCH   7  10
ATOM     10  C   UNL d   1      -0.142  -1.044   0.744  0.00  0.00     0.074 A 
ATOM     11  C   UNL d   1       0.016  -2.426   0.593  0.00  0.00     0.028 A 
ATOM     12  C   UNL d   1      -0.906  -3.290   1.188  0.00  0.00     0.044 A 
ATOM     13  C   UNL d   1      -1.958  -2.771   1.938  0.00  0.00     0.116 A 
ATOM     14  C   UNL d   1      -2.108  -1.399   2.111  0.00  0.00     0.044 A 
ATOM     15  F   UNL d   1      -2.827  -3.607   2.521  0.00  0.00    -0.206 F 
ATOM     16  C   UNL d   1      -1.195  -0.528   1.514  0.00  0.00     0.028 A 
ENDBRANCH   7  10
ENDBRANCH   1   7
BRANCH   6  17
ATOM     17  C   UNL d   1       2.477   1.421  -4.475  0.00  0.00     0.043 C 
BRANCH  17  18
ATOM     18  C   UNL d   1       2.957   2.809  -4.837  0.00  0.00    -0.058 A 
ATOM     19  C   UNL d   1       3.817   3.508  -3.975  0.00  0.00     0.007 A 
ATOM     20  C   UNL d   1       4.272   4.787  -4.304  0.00  0.00     0.001 A 
ATOM     21  C   UNL d   1       3.886   5.377  -5.505  0.00  0.00     0.000 A 
ATOM     22  C   UNL d   1       3.053   4.684  -6.381  0.00  0.00     0.001 A 
ATOM     23  C   UNL d   1       2.590   3.407  -6.050  0.00  0.00     0.007 A 
ENDBRANCH  17  18
ENDBRANCH   6  17
TORSDOF 4
