REMARK  5 active torsions:
REMARK  status: ('A' for Active; 'I' for Inactive)
REMARK    1  A    between atoms: C_8  and  C_1 
REMARK    2  A    between atoms: S_9  and  C_5 
REMARK    3  A    between atoms: C_12  and  S_9 
REMARK    4  A    between atoms: C_10  and  C_12 
REMARK    5  A    between atoms: C_11  and  C_10 
ROOT
ATOM      1  C   UNL d   1      -0.431   1.143  -0.459  0.00  0.00     0.209 A 
ATOM      2  N   UNL d   1      -0.411   0.008  -1.244  0.00  0.00    -0.312 N 
ATOM      3  N   UNL d   1       0.602   1.093   0.369  0.00  0.00    -0.279 N 
ATOM      4  HN  UNL d   1       0.866   1.819   1.034  1.00  0.00     0.188 HD
ATOM      5  C   UNL d   1       0.624  -0.752  -0.758  0.00  0.00     0.163 A 
ATOM      6  N   UNL d   1       1.255  -0.096   0.182  0.00  0.00    -0.278 N 
ATOM      7  HN  UNL d   1       2.084  -0.413   0.686  1.00  0.00     0.189 HD
ATOM      8  C   UNL d   1      -1.268  -0.346  -2.346  0.00  0.00     0.160 C 
ENDROOT
BRANCH   5   9
ATOM      9  S   UNL d   1       0.976  -2.351  -1.303  0.00  0.00    -0.085 SA
BRANCH   9  10
ATOM     10  C   UNL d   1       2.333  -2.799  -0.171  0.00  0.00     0.166 C 
BRANCH  10  11
ATOM     11  C   UNL d   1       2.685  -4.274  -0.290  0.00  0.00     0.169 C 
ATOM     12  O   UNL d   1       2.428  -4.950  -1.286  0.00  0.00    -0.291 OA
BRANCH  11  13
ATOM     13  C   UNL d   1       3.421  -4.931   0.840  0.00  0.00     0.011 A 
ATOM     14  C   UNL d   1       3.884  -4.231   1.960  0.00  0.00     0.015 A 
ATOM     15  C   UNL d   1       4.558  -4.908   2.984  0.00  0.00     0.007 A 
ATOM     16  C   UNL d   1       4.788  -6.287   2.903  0.00  0.00    -0.062 A 
ATOM     17  C   UNL d   1       4.329  -6.985   1.782  0.00  0.00     0.007 A 
ATOM     18  C   UNL d   1       5.500  -7.001   4.014  0.00  0.00     0.048 C 
ATOM     19  C   UNL d   1       3.654  -6.312   0.760  0.00  0.00     0.015 A 
ENDBRANCH  11  13
ENDBRANCH  10  11
ENDBRANCH   9  10
ENDBRANCH   5   9
BRANCH   1  20
ATOM     20  C   UNL d   1      -1.440   2.235  -0.517  0.00  0.00     0.450 C 
ATOM     21  F   UNL d   1      -2.585   1.874  -1.153  0.00  0.00    -0.163 F 
ATOM     22  F   UNL d   1      -1.819   2.645   0.721  0.00  0.00    -0.163 F 
ATOM     23  F   UNL d   1      -0.967   3.327  -1.169  0.00  0.00    -0.163 F 
ENDBRANCH   1  20
TORSDOF 5
