REMARK  8 active torsions:
REMARK  status: ('A' for Active; 'I' for Inactive)
REMARK    1  A    between atoms: C_6  and  C_1 
REMARK    2  A    between atoms: C_12  and  N_2 
REMARK    3  A    between atoms: C_8  and  C_3 
REMARK    4  A    between atoms: O_13  and  C_6 
REMARK    5  A    between atoms: C_7  and  C_15 
REMARK    6  A    between atoms: C_25  and  C_12 
REMARK    7  A    between atoms: C_15  and  S_18 
REMARK    8  A    between atoms: S_18  and  C_25 
ROOT
ATOM      1  C   UNL d   1      -0.394   1.185   0.124  0.00  0.00     0.061 A 
ATOM      2  N   UNL d   1       0.855  -0.702   0.093  0.00  0.00    -0.352 N 
ATOM      3  C   UNL d   1      -0.472  -1.124   0.105  0.00  0.00     0.020 A 
ATOM      4  C   UNL d   1       0.905   0.689   0.115  0.00  0.00     0.025 A 
ATOM      5  C   UNL d   1      -1.233   0.040   0.157  0.00  0.00     0.046 A 
ATOM      6  C   UNL d   1       2.173   1.491   0.098  0.00  0.00     0.069 C 
ENDROOT
BRANCH   2   7
ATOM      7  C   UNL d   1       2.050  -1.528  -0.048  0.00  0.00     0.139 C 
BRANCH   7   8
ATOM      8  C   UNL d   1       2.779  -1.796   1.266  0.00  0.00     0.094 C 
BRANCH   8   9
ATOM      9  S   UNL d   1       4.296  -2.786   1.002  0.00  0.00    -0.163 SA
BRANCH   9  10
ATOM     10  C   UNL d   1       5.312  -1.537   0.150  0.00  0.00     0.117 C 
BRANCH  10  11
ATOM     11  C   UNL d   1       6.708  -2.020  -0.126  0.00  0.00     0.011 A 
ATOM     12  C   UNL d   1       7.715  -1.756   0.810  0.00  0.00     0.125 A 
ATOM     13  F   UNL d   1       7.418  -1.089   1.937  0.00  0.00    -0.205 F 
ATOM     14  C   UNL d   1       9.034  -2.144   0.604  0.00  0.00     0.043 A 
ATOM     15  C   UNL d   1       9.379  -2.820  -0.562  0.00  0.00     0.005 A 
ATOM     16  C   UNL d   1       8.396  -3.110  -1.507  0.00  0.00     0.024 A 
ATOM     17  C   UNL d   1       7.067  -2.719  -1.289  0.00  0.00     0.044 A 
ATOM     18 CL   UNL d   1       5.912  -3.110  -2.514  0.00  0.00    -0.084 Cl
ENDBRANCH  10  11
ENDBRANCH   9  10
ENDBRANCH   8   9
ENDBRANCH   7   8
ENDBRANCH   2   7
BRANCH   3  19
ATOM     19  C   UNL d   1      -1.004  -2.574   0.065  0.00  0.00    -0.009 C 
ATOM     20  C   UNL d   1      -2.549  -2.571  -0.093  0.00  0.00     0.021 C 
ATOM     21  C   UNL d   1      -0.450  -3.378  -1.128  0.00  0.00     0.021 C 
ATOM     22  C   UNL d   1      -0.701  -3.302   1.385  0.00  0.00     0.021 C 
ENDBRANCH   3  19
BRANCH   1  23
ATOM     23  C   UNL d   1      -0.755   2.607   0.093  0.00  0.00     0.178 C 
ATOM     24  O   UNL d   1       0.060   3.525   0.096  0.00  0.00    -0.646 OA
BRANCH  23  25
ATOM     25  O   UNL d   1      -2.088   2.869   0.049  0.00  0.00    -0.773 OA
ATOM     26  H   UNL d   1      -2.629   2.064   0.025  0.00  0.00     0.167 HD
ENDBRANCH  23  25
ENDBRANCH   1  23
TORSDOF 8
