REMARK  7 active torsions:
REMARK  status: ('A' for Active; 'I' for Inactive)
REMARK    1  A    between atoms: N_2  and  S_1 
REMARK    2  A    between atoms: C_4  and  S_1 
REMARK    3  A    between atoms: C_3  and  N_2 
REMARK    4  A    between atoms: C_3  and  C_14 
REMARK    5  A    between atoms: C_3  and  C_5 
REMARK    6  A    between atoms: O_16  and  C_5 
REMARK    7  A    between atoms: C_20  and  O_16 
ROOT
ATOM      1  S   UNL d   1       3.293  -1.349  -0.529  0.00  0.00     0.259 S 
ATOM      2  O   UNL d   1       2.667  -0.202  -1.148  0.00  0.00    -0.201 OA
ATOM      3  O   UNL d   1       4.584  -1.844  -0.955  0.00  0.00    -0.201 OA
ENDROOT
BRANCH   1   4
ATOM      4  N   UNL d   1       2.235  -2.646  -0.665  0.00  0.00    -0.301 N 
ATOM      5  H   UNL d   1       2.661  -3.422  -1.168  0.00  0.00     0.173 HD
BRANCH   4   6
ATOM      6  C   UNL d   1       0.792  -2.379  -0.925  0.00  0.00     0.196 C 
BRANCH   6   7
ATOM      7  C   UNL d   1       0.082  -3.749  -1.088  0.00  0.00     0.010 C 
ATOM      8  C   UNL d   1       0.095  -4.590   0.193  0.00  0.00     0.012 C 
ATOM      9  C   UNL d   1      -1.352  -3.611  -1.607  0.00  0.00     0.012 C 
ENDBRANCH   6   7
BRANCH   6  10
ATOM     10  C   UNL d   1       0.118  -1.522   0.146  0.00  0.00     0.282 C 
ATOM     11  O   UNL d   1       0.407  -1.531   1.336  0.00  0.00    -0.263 OA
BRANCH  10  12
ATOM     12  O   UNL d   1      -0.880  -0.769  -0.402  0.00  0.00    -0.320 OA
BRANCH  12  13
ATOM     13  C   UNL d   1      -1.615   0.060   0.513  0.00  0.00     0.174 C 
ATOM     14  C   UNL d   1      -0.875   1.362   0.754  0.00  0.00     0.034 C 
ENDBRANCH  12  13
ENDBRANCH  10  12
ENDBRANCH   6  10
ENDBRANCH   4   6
ENDBRANCH   1   4
BRANCH   1  15
ATOM     15  C   UNL d   1       3.394  -1.085   1.216  0.00  0.00     0.081 A 
ATOM     16  C   UNL d   1       3.738  -2.162   2.042  0.00  0.00     0.052 A 
ATOM     17  C   UNL d   1       3.726  -1.985   3.423  0.00  0.00     0.074 A 
ATOM     18 CL   UNL d   1       4.110  -3.315   4.445  0.00  0.00    -0.081 Cl
ATOM     19  C   UNL d   1       3.391  -0.744   3.964  0.00  0.00     0.138 A 
ATOM     20  C   UNL d   1       3.080   0.336   3.139  0.00  0.00     0.045 A 
ATOM     21  F   UNL d   1       3.358  -0.564   5.293  0.00  0.00    -0.204 F 
ATOM     22  C   UNL d   1       3.084   0.169   1.754  0.00  0.00     0.028 A 
ENDBRANCH   1  15
TORSDOF 7
