REMARK  4 active torsions:
REMARK  status: ('A' for Active; 'I' for Inactive)
REMARK       I    between atoms: N_2  and  C_1 
REMARK       I    between atoms: N_3  and  C_1 
REMARK    1  A    between atoms: C_4  and  N_2 
REMARK    2  A    between atoms: C_5  and  N_3 
REMARK    3  A    between atoms: O_10  and  C_7 
REMARK    4  A    between atoms: O_9  and  C_8 
ROOT
ATOM      1  C   UNL d   1       0.955   0.588  -0.358  0.00  0.00     0.325 C 
ATOM      2  N   UNL d   1       0.410  -0.228  -1.338  0.00  0.00    -0.306 N 
ATOM      3  N   UNL d   1       0.002   0.894   0.596  0.00  0.00    -0.306 N 
ATOM      4  O   UNL d   1       2.111   0.986  -0.339  0.00  0.00    -0.247 OA
ATOM      5  H   UNL d   1      -0.551  -0.006  -1.523  0.00  0.00     0.171 HD
ATOM      6  H   UNL d   1      -0.602   0.125   0.850  0.00  0.00     0.171 HD
ENDROOT
BRANCH   2   7
ATOM      7  C   UNL d   1       1.191  -0.776  -2.376  0.00  0.00     0.069 A 
ATOM      8  C   UNL d   1       0.838  -0.744  -3.736  0.00  0.00     0.095 A 
ATOM      9  C   UNL d   1       1.708  -1.339  -4.669  0.00  0.00     0.039 A 
ATOM     10  C   UNL d   1       2.879  -1.989  -4.276  0.00  0.00     0.003 A 
ATOM     11  C   UNL d   1       3.212  -2.044  -2.934  0.00  0.00     0.002 A 
ATOM     12  C   UNL d   1       2.381  -1.436  -1.996  0.00  0.00     0.032 A 
BRANCH   8  13
ATOM     13  O   UNL d   1      -0.220  -0.158  -4.375  0.00  0.00    -0.354 OA
ATOM     14  C   UNL d   1      -1.275   0.457  -3.669  0.00  0.00     0.210 C 
ENDBRANCH   8  13
ENDBRANCH   2   7
BRANCH   3  15
ATOM     15  C   UNL d   1       0.228   1.855   1.604  0.00  0.00     0.069 A 
ATOM     16  C   UNL d   1      -0.169   1.602   2.924  0.00  0.00     0.095 A 
ATOM     17  C   UNL d   1      -0.051   2.601   3.893  0.00  0.00     0.039 A 
ATOM     18  C   UNL d   1       0.477   3.850   3.551  0.00  0.00     0.003 A 
ATOM     19  C   UNL d   1       0.888   4.100   2.245  0.00  0.00     0.002 A 
ATOM     20  C   UNL d   1       0.770   3.102   1.273  0.00  0.00     0.032 A 
BRANCH  16  21
ATOM     21  O   UNL d   1      -0.714   0.410   3.331  0.00  0.00    -0.354 OA
ATOM     22  C   UNL d   1       0.172  -0.702   3.168  0.00  0.00     0.210 C 
ENDBRANCH  16  21
ENDBRANCH   3  15
TORSDOF 4
