REMARK  4 active torsions:
REMARK  status: ('A' for Active; 'I' for Inactive)
REMARK    1  A    between atoms: C_8  and  C_1 
REMARK    2  A    between atoms: C_10  and  N_6 
REMARK    3  A    between atoms: C_11  and  C_10 
REMARK       I    between atoms: N_14  and  C_11 
REMARK    4  A    between atoms: N_17  and  N_14 
ROOT
ATOM      1  C   UNL d   1      -0.133  -1.299  -0.030  0.00  0.00     0.146 A 
ATOM      2  N   UNL d   1       1.152  -0.923  -0.177  0.00  0.00    -0.268 N 
ATOM      3  HN  UNL d   1       1.986  -1.492  -0.319  1.00  0.00     0.190 HD
ATOM      4  N   UNL d   1      -0.972  -0.222   0.141  0.00  0.00    -0.266 N 
ATOM      5  HN  UNL d   1      -1.982  -0.256   0.276  1.00  0.00     0.186 HD
ATOM      6  N   UNL d   1       1.028   0.412  -0.084  0.00  0.00    -0.207 N 
ATOM      7  N   UNL d   1      -0.221   0.869   0.095  0.00  0.00    -0.002 NA
ENDROOT
BRANCH   1   8
ATOM      8  C   UNL d   1      -0.558  -2.687   0.116  0.00  0.00     0.034 A 
ATOM      9  C   UNL d   1      -1.832  -3.154  -0.259  0.00  0.00     0.069 A 
ATOM     10  C   UNL d   1      -2.187  -4.488   0.021  0.00  0.00     0.056 A 
ATOM     11 CL   UNL d   1      -2.954  -2.132  -1.107  0.00  0.00    -0.082 Cl
ATOM     12 CL   UNL d   1      -3.743  -5.142  -0.371  0.00  0.00    -0.083 Cl
ATOM     13  C   UNL d   1      -1.282  -5.353   0.646  0.00  0.00     0.026 A 
ATOM     14  C   UNL d   1      -0.010  -4.907   0.982  0.00  0.00     0.003 A 
ATOM     15  C   UNL d   1       0.348  -3.586   0.717  0.00  0.00     0.017 A 
ENDBRANCH   1   8
BRANCH   6  16
ATOM     16  C   UNL d   1       2.162   1.296  -0.042  0.00  0.00     0.271 C 
BRANCH  16  17
ATOM     17  C   UNL d   1       2.692   1.405   1.365  0.00  0.00     0.252 C 
ATOM     18  O   UNL d   1       3.825   1.039   1.672  0.00  0.00    -0.270 OA
ATOM     19  N   UNL d   1       1.831   2.002   2.282  0.00  0.00    -0.292 N 
ATOM     20  H   UNL d   1       0.919   2.373   2.006  0.00  0.00     0.183 HD
BRANCH  19  21
ATOM     21  N   UNL d   1       2.267   2.191   3.612  0.00  0.00    -0.247 NA
ATOM     22  H   UNL d   1       3.291   2.071   3.616  0.00  0.00     0.143 HD
ATOM     23  H   UNL d   1       1.930   1.403   4.173  0.00  0.00     0.143 HD
ENDBRANCH  19  21
ENDBRANCH  16  17
ENDBRANCH   6  16
TORSDOF 4
