REMARK  6 active torsions:
REMARK  status: ('A' for Active; 'I' for Inactive)
REMARK    1  A    between atoms: N_5  and  C_1 
REMARK    2  A    between atoms: N_7  and  C_1 
REMARK    3  A    between atoms: C_2  and  N_5 
REMARK    4  A    between atoms: C_3  and  C_8 
REMARK    5  A    between atoms: N_6  and  C_4 
REMARK    6  A    between atoms: C_9  and  N_7 
ROOT
ATOM      1  C   UNL d   1       0.847   1.124   2.169  0.00  0.00     0.056 A 
ATOM      2  C   UNL d   1       1.980   1.923   1.840  0.00  0.00     0.037 A 
ATOM      3  C   UNL d   1       0.954   1.882   4.495  0.00  0.00     0.050 A 
ATOM      4  C   UNL d   1       0.318   1.176   3.465  0.00  0.00     0.047 A 
ATOM      5  C   UNL d   1       2.583   2.663   2.878  0.00  0.00     0.027 A 
ATOM      6  C   UNL d   1       2.099   2.618   4.191  0.00  0.00     0.018 A 
ENDROOT
BRANCH   1   7
ATOM      7  N   UNL d   1       0.362   0.241   1.162  0.00  0.00    -0.332 N 
ATOM      8  H   UNL d   1       0.897   0.341   0.305  0.00  0.00     0.168 HD
BRANCH   7   9
ATOM      9  C   UNL d   1      -0.375  -0.918   1.246  0.00  0.00     0.176 C 
ATOM     10  S   UNL d   1      -1.103  -1.642   2.572  0.00  0.00    -0.041 SA
BRANCH   9  11
ATOM     11  N   UNL d   1      -0.382  -1.710   0.129  0.00  0.00    -0.331 N 
ATOM     12  H   UNL d   1      -0.572  -2.679   0.363  0.00  0.00     0.168 HD
BRANCH  11  13
ATOM     13  C   UNL d   1      -0.336  -1.425  -1.244  0.00  0.00     0.073 A 
ATOM     14  C   UNL d   1      -0.736  -0.215  -1.822  0.00  0.00     0.145 A 
ATOM     15  C   UNL d   1      -0.781  -0.068  -3.207  0.00  0.00     0.086 A 
ATOM     16  F   UNL d   1      -1.175   0.801  -1.067  0.00  0.00    -0.204 F 
ATOM     17  C   UNL d   1      -0.404  -1.134  -4.014  0.00  0.00     0.119 A 
ATOM     18  C   UNL d   1       0.005  -2.344  -3.459  0.00  0.00     0.044 A 
ATOM     19  F   UNL d   1      -0.453  -1.000  -5.346  0.00  0.00    -0.206 F 
ATOM     20  C   UNL d   1       0.020  -2.494  -2.079  0.00  0.00     0.036 A 
ENDBRANCH  11  13
ENDBRANCH   9  11
ENDBRANCH   7   9
ENDBRANCH   1   7
BRANCH   2  21
ATOM     21  N   UNL d   1       2.472   1.947   0.512  0.00  0.00    -0.281 NA
ATOM     22  C   UNL d   1       3.888   2.291   0.265  0.00  0.00     0.096 C 
ATOM     23  C   UNL d   1       3.851   3.594  -0.527  0.00  0.00     0.016 C 
ATOM     24  C   UNL d   1       2.595   3.433  -1.358  0.00  0.00     0.016 C 
ATOM     25  C   UNL d   1       1.623   2.766  -0.388  0.00  0.00     0.096 C 
ENDBRANCH   2  21
BRANCH   3  26
ATOM     26  C   UNL d   1       0.434   1.820   5.911  0.00  0.00     0.417 C 
ATOM     27  F   UNL d   1      -0.689   1.063   6.057  0.00  0.00    -0.166 F 
ATOM     28  F   UNL d   1       1.348   1.298   6.777  0.00  0.00    -0.166 F 
ATOM     29  F   UNL d   1       0.118   3.050   6.403  0.00  0.00    -0.166 F 
ENDBRANCH   3  26
TORSDOF 6
