REMARK  3 active torsions:
REMARK  status: ('A' for Active; 'I' for Inactive)
REMARK    1  A    between atoms: C_2  and  C_1 
REMARK    2  A    between atoms: C_4  and  C_2 
REMARK    3  A    between atoms: N_6  and  C_3 
ROOT
ATOM      1  C   UNL d   1      -1.011  -1.608  -0.370  0.00  0.00     0.014 A 
ATOM      2  C   UNL d   1      -1.844  -2.201  -1.331  0.00  0.00     0.018 A 
ATOM      3  C   UNL d   1      -1.470  -1.460   0.949  0.00  0.00     0.018 A 
ATOM      4  C   UNL d   1      -3.571  -2.466   0.327  0.00  0.00     0.116 A 
ATOM      5  C   UNL d   1      -2.755  -1.888   1.294  0.00  0.00     0.043 A 
ATOM      6  C   UNL d   1      -3.128  -2.626  -0.981  0.00  0.00     0.043 A 
ATOM      7  F   UNL d   1      -4.797  -2.885   0.666  0.00  0.00    -0.206 F 
ENDROOT
BRANCH   1   8
ATOM      8  C   UNL d   1       0.362  -1.202  -0.777  0.00  0.00     0.183 C 
ATOM      9  O   UNL d   1       0.934  -1.788  -1.689  0.00  0.00    -0.288 OA
BRANCH   8  10
ATOM     10  C   UNL d   1       0.976  -0.052  -0.059  0.00  0.00     0.072 C 
ATOM     11  C   UNL d   1       2.299   0.150  -0.097  0.00  0.00     0.088 C 
BRANCH  11  12
ATOM     12  N   UNL d   1       3.058   1.137   0.520  0.00  0.00    -0.398 N 
ATOM     13  C   UNL d   1       2.510   2.233   1.316  0.00  0.00     0.148 C 
ATOM     14  C   UNL d   1       4.512   1.202   0.348  0.00  0.00     0.148 C 
ENDBRANCH  11  12
ENDBRANCH   8  10
ENDBRANCH   1   8
TORSDOF 3
