REMARK  2 active torsions:
REMARK  status: ('A' for Active; 'I' for Inactive)
REMARK    1  A    between atoms: N_11  and  C_3 
REMARK    2  A    between atoms: N_9  and  C_5 
ROOT
ATOM      1  C   UNL d   1      -0.189   0.662   0.068  0.00  0.00    -0.039 A 
ATOM      2  C   UNL d   1      -0.199  -0.732   0.056  0.00  0.00    -0.021 A 
ATOM      3  C   UNL d   1       1.012  -1.434   0.047  0.00  0.00     0.021 A 
ATOM      4  C   UNL d   1       2.239  -0.700  -0.035  0.00  0.00    -0.014 A 
ATOM      5  C   UNL d   1       2.251   0.730  -0.064  0.00  0.00     0.038 A 
ATOM      6  C   UNL d   1      -1.623  -1.263   0.103  0.00  0.00    -0.017 C 
ATOM      7  C   UNL d   1      -1.583   1.253   0.132  0.00  0.00    -0.019 C 
ATOM      8  C   UNL d   1       1.008   1.382   0.007  0.00  0.00     0.038 A 
ATOM      9  C   UNL d   1      -2.439   0.018  -0.234  0.00  0.00     0.027 C 
ATOM     10  C   UNL d   1      -1.971  -1.801   1.499  0.00  0.00     0.020 C 
ATOM     11  C   UNL d   1      -1.954  -2.334  -0.951  0.00  0.00     0.020 C 
ATOM     12  C   UNL d   1       3.531  -1.486  -0.031  0.00  0.00     0.052 C 
ATOM     13  C   UNL d   1      -1.914   1.790   1.532  0.00  0.00     0.020 C 
ATOM     14  C   UNL d   1      -1.810   2.372  -0.897  0.00  0.00     0.020 C 
ENDROOT
BRANCH   5  15
ATOM     15  N   UNL d   1       3.452   1.450  -0.140  0.00  0.00    -0.380 N 
ATOM     16  C   UNL d   1       3.568   2.831   0.351  0.00  0.00     0.123 C 
ATOM     17  C   UNL d   1       4.104   3.626  -0.833  0.00  0.00     0.021 C 
ATOM     18  C   UNL d   1       4.992   2.620  -1.537  0.00  0.00     0.021 C 
ATOM     19  C   UNL d   1       4.228   1.305  -1.389  0.00  0.00     0.123 C 
ENDBRANCH   5  15
BRANCH   3  20
ATOM     20  N   UNL d   1       1.011  -2.837  -0.072  0.00  0.00    -0.302 NA
ATOM     21  H   UNL d   1       0.230  -3.275   0.402  0.00  0.00     0.124 HD
ATOM     22  H   UNL d   1       1.882  -3.287   0.176  0.00  0.00     0.124 HD
ENDBRANCH   3  20
TORSDOF 2
