REMARK  1 active torsions:
REMARK  status: ('A' for Active; 'I' for Inactive)
REMARK    1  A    between atoms: N_8  and  C_2 
ROOT
ATOM      1  C   UNL d   1       1.011  -0.674  -0.000  0.00  0.00     0.084 A 
ATOM      2  C   UNL d   1       1.096   0.707  -0.001  0.00  0.00     0.089 A 
ATOM      3  S   UNL d   1      -0.458   1.424  -0.003  0.00  0.00    -0.083 SA
ATOM      4  C   UNL d   1      -0.349  -1.152   0.004  0.00  0.00    -0.032 A 
ATOM      5  C   UNL d   1       2.173  -1.517  -0.001  0.00  0.00     0.103 C 
ATOM      6  C   UNL d   1      -1.237  -0.092  -0.001  0.00  0.00     0.060 A 
ATOM      7  N   UNL d   1       3.110  -2.204  -0.003  0.00  0.00    -0.191 NA
ATOM      8  C   UNL d   1      -0.780  -2.583   0.011  0.00  0.00     0.050 C 
ENDROOT
BRANCH   2   9
ATOM      9  N   UNL d   1       2.192   1.492  -0.001  0.00  0.00    -0.392 N 
ATOM     10  H   UNL d   1       3.144   1.137   0.005  0.00  0.00     0.156 HD
ATOM     11  H   UNL d   1       2.104   2.504   0.006  0.00  0.00     0.156 HD
ENDBRANCH   2   9
TORSDOF 1
