REMARK  9 active torsions:
REMARK  status: ('A' for Active; 'I' for Inactive)
REMARK    1  A    between atoms: C_2  and  C_1 
REMARK    2  A    between atoms: N_3  and  C_13 
REMARK    3  A    between atoms: N_5  and  C_14 
REMARK    4  A    between atoms: O_23  and  C_7 
REMARK    5  A    between atoms: O_24  and  C_8 
REMARK    6  A    between atoms: C_9  and  C_11 
REMARK    7  A    between atoms: C_10  and  C_12 
REMARK    8  A    between atoms: O_25  and  C_18 
REMARK    9  A    between atoms: O_26  and  C_19 
ROOT
ATOM      1  C   UNL d   1       0.492  -0.018   1.298  0.00  0.00     0.052 A 
ATOM      2  C   UNL d   1      -0.100   0.953   3.459  0.00  0.00     0.034 A 
ATOM      3  C   UNL d   1      -0.128  -1.470   3.151  0.00  0.00     0.034 A 
ATOM      4  C   UNL d   1       0.283  -1.299   1.828  0.00  0.00     0.045 A 
ATOM      5  C   UNL d   1       0.292   1.100   2.125  0.00  0.00     0.045 A 
ATOM      6  C   UNL d   1      -0.291  -0.342   3.958  0.00  0.00     0.059 A 
ENDROOT
BRANCH   2   7
ATOM      7  N   UNL d   1      -0.173   2.108   4.260  0.00  0.00    -0.365 N 
ATOM      8  C   UNL d   1      -1.077   2.179   5.189  0.00  0.00     0.102 C 
ATOM      9  HN  UNL d   1       0.476   2.881   4.112  1.00  0.00     0.165 HD
BRANCH   8  10
ATOM     10  C   UNL d   1      -1.151   3.335   6.111  0.00  0.00     0.015 A 
ATOM     11  C   UNL d   1      -0.321   4.462   5.976  0.00  0.00     0.110 A 
ATOM     12  C   UNL d   1      -0.431   5.517   6.892  0.00  0.00     0.102 A 
ATOM     13  C   UNL d   1      -1.338   5.409   7.954  0.00  0.00     0.040 A 
ATOM     14  C   UNL d   1      -2.158   4.289   8.090  0.00  0.00     0.004 A 
ATOM     15  C   UNL d   1      -2.072   3.253   7.163  0.00  0.00     0.016 A 
BRANCH  11  16
ATOM     16  O   UNL d   1       0.616   4.522   4.976  0.00  0.00    -0.357 OA
ATOM     17  H   UNL d   1       0.602   3.660   4.502  0.00  0.00     0.217 HD
ENDBRANCH  11  16
BRANCH  12  18
ATOM     18  O   UNL d   1       0.302   6.674   6.915  0.00  0.00    -0.353 OA
ATOM     19  C   UNL d   1       0.715   7.183   5.652  0.00  0.00     0.210 C 
ENDBRANCH  12  18
ENDBRANCH   8  10
ENDBRANCH   2   7
BRANCH   1  20
ATOM     20  C   UNL d   1       0.956   0.157  -0.124  0.00  0.00     0.417 C 
ATOM     21  F   UNL d   1       1.120  -1.024  -0.786  0.00  0.00    -0.166 F 
ATOM     22  F   UNL d   1       2.152   0.800  -0.212  0.00  0.00    -0.166 F 
ATOM     23  F   UNL d   1       0.080   0.880  -0.874  0.00  0.00    -0.166 F 
ENDBRANCH   1  20
BRANCH   3  24
ATOM     24  N   UNL d   1      -0.295  -2.730   3.750  0.00  0.00    -0.365 N 
ATOM     25  C   UNL d   1      -0.826  -3.697   3.072  0.00  0.00     0.102 C 
ATOM     26  HN  UNL d   1       0.000  -2.883   4.714  1.00  0.00     0.165 HD
BRANCH  25  27
ATOM     27  C   UNL d   1      -1.003  -5.037   3.669  0.00  0.00     0.015 A 
ATOM     28  C   UNL d   1      -0.728  -5.292   5.027  0.00  0.00     0.110 A 
ATOM     29  C   UNL d   1      -0.929  -6.578   5.542  0.00  0.00     0.102 A 
ATOM     30  C   UNL d   1      -1.350  -7.600   4.681  0.00  0.00     0.040 A 
ATOM     31  C   UNL d   1      -1.613  -7.347   3.334  0.00  0.00     0.004 A 
ATOM     32  C   UNL d   1      -1.447  -6.061   2.827  0.00  0.00     0.016 A 
BRANCH  28  33
ATOM     33  O   UNL d   1      -0.246  -4.300   5.842  0.00  0.00    -0.357 OA
ATOM     34  H   UNL d   1      -0.084  -3.507   5.282  0.00  0.00     0.217 HD
ENDBRANCH  28  33
BRANCH  29  35
ATOM     35  O   UNL d   1      -0.714  -6.997   6.828  0.00  0.00    -0.353 OA
ATOM     36  C   UNL d   1      -0.931  -6.030   7.849  0.00  0.00     0.210 C 
ENDBRANCH  29  35
ENDBRANCH  25  27
ENDBRANCH   3  24
TORSDOF 9
