REMARK  4 active torsions:
REMARK  status: ('A' for Active; 'I' for Inactive)
REMARK    1  A    between atoms: C_2  and  S_1 
REMARK    2  A    between atoms: C_11  and  S_1 
REMARK    3  A    between atoms: C_3  and  N_12 
REMARK    4  A    between atoms: N_12  and  C_8 
ROOT
ATOM      1  C   UNL d   1       0.438   1.127   1.213  0.00  0.00     0.160 C 
ATOM      2  C   UNL d   1      -0.306   2.196   0.885  0.00  0.00     0.141 C 
ATOM      3  C   UNL d   1       0.911   0.202   0.258  0.00  0.00     0.113 C 
ATOM      4  N   UNL d   1       1.269  -0.544  -0.556  0.00  0.00    -0.191 NA
ENDROOT
BRANCH   1   5
ATOM      5  S   UNL d   1       0.910   0.882   2.861  0.00  0.00     0.218 S 
ATOM      6  O   UNL d   1       0.304   1.878   3.728  0.00  0.00    -0.216 OA
ATOM      7  O   UNL d   1       2.342   0.654   2.929  0.00  0.00    -0.216 OA
BRANCH   5   8
ATOM      8  C   UNL d   1       0.127  -0.671   3.284  0.00  0.00     0.065 A 
ATOM      9  C   UNL d   1       0.836  -1.868   3.127  0.00  0.00     0.025 A 
ATOM     10  C   UNL d   1       0.252  -3.073   3.527  0.00  0.00     0.025 A 
ATOM     11  C   UNL d   1      -1.024  -3.074   4.092  0.00  0.00     0.034 A 
ATOM     12  C   UNL d   1      -1.726  -1.879   4.258  0.00  0.00     0.025 A 
ATOM     13 CL   UNL d   1      -1.729  -4.557   4.604  0.00  0.00    -0.084 Cl
ATOM     14  C   UNL d   1      -1.150  -0.670   3.859  0.00  0.00     0.025 A 
ENDBRANCH   5   8
ENDBRANCH   1   5
BRANCH   2  15
ATOM     15  N   UNL d   1      -0.785   2.557  -0.349  0.00  0.00    -0.200 N 
ATOM     16  H   UNL d   1      -0.637   1.976  -1.165  0.00  0.00     0.183 HD
BRANCH  15  17
ATOM     17  C   UNL d   1      -1.455   3.730  -0.690  0.00  0.00     0.682 A 
ATOM     18  N   UNL d   1      -1.638   4.696   0.222  0.00  0.00    -0.196 N 
ATOM     19  C   UNL d   1      -2.270   5.818  -0.176  0.00  0.00     0.024 A 
ATOM     20  HN  UNL d   1      -1.311   4.585   1.181  1.00  0.00     0.184 HD
ATOM     21  C   UNL d   1      -2.447   6.901   0.844  0.00  0.00     0.068 C 
ATOM     22  C   UNL d   1      -2.743   5.980  -1.462  0.00  0.00     0.050 A 
ATOM     23  C   UNL d   1      -2.522   4.936  -2.332  0.00  0.00     0.024 A 
ATOM     24  N   UNL d   1      -1.874   3.813  -1.960  0.00  0.00    -0.196 N 
ATOM     25  C   UNL d   1      -3.009   5.009  -3.748  0.00  0.00     0.068 C 
ATOM     26  HN  UNL d   1      -1.708   3.054  -2.622  1.00  0.00     0.184 HD
ENDBRANCH  15  17
ENDBRANCH   2  15
TORSDOF 4
