REMARK  3 active torsions:
REMARK  status: ('A' for Active; 'I' for Inactive)
REMARK    1  A    between atoms: C_9  and  C_1 
REMARK    2  A    between atoms: C_6  and  C_10 
REMARK    3  A    between atoms: O_18  and  C_9 
ROOT
ATOM      1  C   UNL d   1      -1.936  -1.589  -0.014  0.00  0.00     0.112 A 
ATOM      2  N   UNL d   1      -0.586  -1.894   0.017  0.00  0.00    -0.350 N 
ATOM      3  C   UNL d   1       0.025   0.450  -0.010  0.00  0.00     0.042 A 
ATOM      4  C   UNL d   1      -2.395  -0.329  -0.031  0.00  0.00     0.091 A 
ATOM      5  C   UNL d   1      -1.419   0.786  -0.021  0.00  0.00     0.186 A 
ATOM      6  C   UNL d   1       0.398  -0.903   0.008  0.00  0.00     0.047 A 
ATOM      7  C   UNL d   1       0.985   1.469  -0.022  0.00  0.00     0.034 A 
ATOM      8  C   UNL d   1       2.348   1.146  -0.018  0.00  0.00     0.049 A 
ATOM      9  O   UNL d   1      -1.809   1.947  -0.026  0.00  0.00    -0.287 OA
ATOM     10  C   UNL d   1       1.756  -1.223   0.017  0.00  0.00     0.031 A 
ATOM     11  C   UNL d   1       2.722  -0.209   0.003  0.00  0.00     0.018 A 
ATOM     12  H   UNL d   1      -0.341  -2.881   0.020  0.00  0.00     0.166 HD
ENDROOT
BRANCH   1  13
ATOM     13  C   UNL d   1      -2.888  -2.750  -0.031  0.00  0.00     0.309 C 
ATOM     14  O   UNL d   1      -2.495  -3.910  -0.014  0.00  0.00    -0.258 OA
BRANCH  13  15
ATOM     15  O   UNL d   1      -4.183  -2.348  -0.071  0.00  0.00    -0.321 OA
ATOM     16  C   UNL d   1      -5.130  -3.415  -0.097  0.00  0.00     0.213 C 
ENDBRANCH  13  15
ENDBRANCH   1  13
BRANCH   8  17
ATOM     17  C   UNL d   1       3.403   2.227  -0.040  0.00  0.00     0.417 C 
ATOM     18  F   UNL d   1       2.893   3.489  -0.067  0.00  0.00    -0.166 F 
ATOM     19  F   UNL d   1       4.219   2.175   1.048  0.00  0.00    -0.166 F 
ATOM     20  F   UNL d   1       4.220   2.130  -1.125  0.00  0.00    -0.166 F 
ENDBRANCH   8  17
TORSDOF 3
