REMARK  6 active torsions:
REMARK  status: ('A' for Active; 'I' for Inactive)
REMARK    1  A    between atoms: C_9  and  C_3 
REMARK    2  A    between atoms: C_10  and  C_4 
REMARK    3  A    between atoms: C_8  and  O_11 
REMARK    4  A    between atoms: O_11  and  C_19 
REMARK    5  A    between atoms: C_25  and  C_24 
REMARK    6  A    between atoms: C_26  and  C_25 
ROOT
ATOM      1  N   UNL d   1       0.734   0.048   0.740  0.00  0.00    -0.319 N 
ATOM      2  HN  UNL d   1       1.358   0.105   1.545  1.00  0.00     0.169 HD
ATOM      3  C   UNL d   1      -0.069   1.028   0.206  0.00  0.00     0.138 A 
ATOM      4  C   UNL d   1       0.497  -0.981  -0.042  0.00  0.00     0.182 A 
ATOM      5  N   UNL d   1      -0.778   0.633  -0.865  0.00  0.00    -0.242 N 
ATOM      6  HN  UNL d   1      -1.436   1.178  -1.423  1.00  0.00     0.196 HD
ATOM      7  O   UNL d   1      -0.400  -0.703  -1.032  0.00  0.00    -0.217 OA
ENDROOT
BRANCH   3   8
ATOM      8  C   UNL d   1      -0.117   2.370   0.774  0.00  0.00     0.010 A 
ATOM      9  C   UNL d   1       0.706   2.704   1.858  0.00  0.00     0.018 A 
ATOM     10  C   UNL d   1       0.697   3.991   2.403  0.00  0.00     0.038 A 
ATOM     11  C   UNL d   1      -0.116   4.977   1.848  0.00  0.00     0.078 A 
ATOM     12  C   UNL d   1      -0.976   4.639   0.801  0.00  0.00     0.038 A 
ATOM     13  C   UNL d   1      -0.976   3.348   0.261  0.00  0.00     0.018 A 
BRANCH  11  14
ATOM     14  O   UNL d   1      -0.195   6.275   2.248  0.00  0.00    -0.255 OA
BRANCH  14  15
ATOM     15  C   UNL d   1       0.940   6.896   2.834  0.00  0.00     0.530 C 
ATOM     16  F   UNL d   1       2.094   6.220   2.654  0.00  0.00    -0.144 F 
ATOM     17  F   UNL d   1       1.092   8.119   2.275  0.00  0.00    -0.144 F 
ATOM     18  F   UNL d   1       0.731   7.062   4.157  0.00  0.00    -0.144 F 
ENDBRANCH  14  15
ENDBRANCH  11  14
ENDBRANCH   3   8
BRANCH   4  19
ATOM     19  C   UNL d   1       1.040  -2.331   0.021  0.00  0.00     0.017 A 
ATOM     20  C   UNL d   1       1.901  -2.674   1.073  0.00  0.00     0.016 A 
ATOM     21  C   UNL d   1       2.443  -3.957   1.169  0.00  0.00     0.008 A 
ATOM     22  C   UNL d   1       2.137  -4.927   0.209  0.00  0.00    -0.058 A 
ATOM     23  C   UNL d   1       1.268  -4.594  -0.837  0.00  0.00     0.008 A 
ATOM     24  C   UNL d   1       0.730  -3.307  -0.935  0.00  0.00     0.016 A 
BRANCH  22  25
ATOM     25  C   UNL d   1       2.741  -6.308   0.304  0.00  0.00     0.038 C 
BRANCH  25  26
ATOM     26  C   UNL d   1       3.610  -6.691  -0.898  0.00  0.00     0.000 C 
ATOM     27  C   UNL d   1       4.823  -5.788  -1.074  0.00  0.00     0.005 C 
ENDBRANCH  25  26
ENDBRANCH  22  25
ENDBRANCH   4  19
TORSDOF 6
