REMARK  3 active torsions:
REMARK  status: ('A' for Active; 'I' for Inactive)
REMARK    1  A    between atoms: C_2  and  S_1 
REMARK    2  A    between atoms: O_3  and  S_1 
REMARK    3  A    between atoms: C_4  and  O_3 
ROOT
ATOM      1  C   UNL d   1       0.796  -1.174   2.280  0.00  0.00     0.117 A 
ATOM      2  C   UNL d   1       2.086  -1.717   2.356  0.00  0.00     0.078 A 
ATOM      3  N   UNL d   1       3.075  -1.281   1.562  0.00  0.00    -0.357 N 
ATOM      4  HN  UNL d   1       2.889  -0.535   0.891  1.00  0.00     0.166 HD
ATOM      5  C   UNL d   1       2.328  -2.752   3.287  0.00  0.00    -0.006 A 
ATOM      6  C   UNL d   1       4.314  -1.812   1.637  0.00  0.00     0.005 A 
ATOM      7  C   UNL d   1       3.617  -3.300   3.355  0.00  0.00     0.016 A 
ATOM      8  C   UNL d   1       4.624  -2.827   2.521  0.00  0.00     0.025 A 
ATOM      9  C   UNL d   1      -0.228  -1.653   3.111  0.00  0.00     0.040 A 
ATOM     10  C   UNL d   1       0.020  -2.671   4.028  0.00  0.00     0.004 A 
ATOM     11  C   UNL d   1       1.296  -3.218   4.117  0.00  0.00     0.014 A 
ATOM     12  C   UNL d   1       5.339  -1.243   0.705  0.00  0.00     0.068 C 
ENDROOT
BRANCH   1  13
ATOM     13  O   UNL d   1       0.384  -0.172   1.419  0.00  0.00    -0.227 OA
BRANCH  13  14
ATOM     14  S   UNL d   1       1.403   0.682   0.465  0.00  0.00     0.303 S 
ATOM     15  O   UNL d   1       2.305   1.468   1.288  0.00  0.00    -0.193 OA
ATOM     16  O   UNL d   1       1.840  -0.117  -0.664  0.00  0.00    -0.193 OA
BRANCH  14  17
ATOM     17  C   UNL d   1       0.315   1.883  -0.293  0.00  0.00     0.090 A 
ATOM     18  C   UNL d   1       0.620   3.245  -0.217  0.00  0.00     0.049 A 
ATOM     19  C   UNL d   1      -0.201   4.158  -0.874  0.00  0.00     0.037 A 
ATOM     20 CL   UNL d   1       0.166   5.837  -0.802  0.00  0.00    -0.084 Cl
ATOM     21  C   UNL d   1      -1.310   3.724  -1.599  0.00  0.00     0.047 A 
ATOM     22  C   UNL d   1      -1.596   2.360  -1.669  0.00  0.00     0.037 A 
ATOM     23  C   UNL d   1      -0.788   1.429  -1.022  0.00  0.00     0.049 A 
ATOM     24 CL   UNL d   1      -2.955   1.822  -2.576  0.00  0.00    -0.084 Cl
ENDBRANCH  14  17
ENDBRANCH  13  14
ENDBRANCH   1  13
TORSDOF 3
