REMARK  5 active torsions:
REMARK  status: ('A' for Active; 'I' for Inactive)
REMARK    1  A    between atoms: C_7  and  N_1 
REMARK    2  A    between atoms: C_6  and  C_2 
REMARK    3  A    between atoms: C_11  and  C_7 
REMARK    4  A    between atoms: C_13  and  C_11 
REMARK    5  A    between atoms: O_20  and  C_14 
ROOT
ATOM      1  N   UNL d   1      -0.687  -0.855  -0.397  0.00  0.00    -0.333 N 
ATOM      2  C   UNL d   1       0.707  -1.094  -0.065  0.00  0.00     0.184 C 
ATOM      3  C   UNL d   1      -1.150   0.401  -0.016  0.00  0.00     0.234 C 
ATOM      4  S   UNL d   1       1.482   0.533   0.177  0.00  0.00    -0.125 SA
ATOM      5  C   UNL d   1      -0.058   1.446  -0.134  0.00  0.00     0.137 C 
ATOM      6  O   UNL d   1      -2.314   0.678   0.260  0.00  0.00    -0.272 OA
ATOM      7  C   UNL d   1      -0.078   1.993  -1.556  0.00  0.00     0.031 C 
ENDROOT
BRANCH   1   8
ATOM      8  C   UNL d   1      -1.624  -1.970  -0.541  0.00  0.00     0.132 C 
BRANCH   8   9
ATOM      9  C   UNL d   1      -2.697  -1.667  -1.604  0.00  0.00     0.058 C 
BRANCH   9  10
ATOM     10  C   UNL d   1      -3.688  -2.781  -1.802  0.00  0.00    -0.057 A 
ATOM     11  C   UNL d   1      -4.837  -2.847  -1.003  0.00  0.00     0.010 A 
ATOM     12  C   UNL d   1      -5.795  -3.843  -1.212  0.00  0.00     0.037 A 
ATOM     13  C   UNL d   1      -5.611  -4.791  -2.218  0.00  0.00     0.068 A 
ATOM     14  C   UNL d   1      -4.462  -4.731  -3.010  0.00  0.00     0.037 A 
ATOM     15  C   UNL d   1      -3.503  -3.737  -2.804  0.00  0.00     0.010 A 
BRANCH  13  16
ATOM     16  O   UNL d   1      -6.470  -5.809  -2.528  0.00  0.00    -0.356 OA
ATOM     17  C   UNL d   1      -7.631  -5.933  -1.716  0.00  0.00     0.210 C 
ENDBRANCH  13  16
ENDBRANCH   9  10
ENDBRANCH   8   9
ENDBRANCH   1   8
BRANCH   2  18
ATOM     18  C   UNL d   1       1.450  -1.917  -1.081  0.00  0.00    -0.010 A 
ATOM     19  C   UNL d   1       2.130  -3.068  -0.689  0.00  0.00     0.097 A 
ATOM     20  N   UNL d   1       2.785  -3.893  -1.538  0.00  0.00    -0.375 N 
ATOM     21  C   UNL d   1       2.783  -3.550  -2.843  0.00  0.00     0.087 A 
ATOM     22  HN  UNL d   1       3.258  -4.734  -1.207  1.00  0.00     0.164 HD
ATOM     23  C   UNL d   1       2.166  -2.415  -3.337  0.00  0.00     0.018 A 
ATOM     24  C   UNL d   1       1.493  -1.591  -2.442  0.00  0.00     0.013 A 
ENDBRANCH   2  18
TORSDOF 5
