REMARK  6 active torsions:
REMARK  status: ('A' for Active; 'I' for Inactive)
REMARK    1  A    between atoms: C_2  and  C_1 
REMARK    2  A    between atoms: C_5  and  C_2 
REMARK    3  A    between atoms: C_18  and  C_5 
REMARK    4  A    between atoms: C_9  and  C_20 
REMARK    5  A    between atoms: O_19  and  N_15 
REMARK    6  A    between atoms: C_20  and  O_19 
ROOT
ATOM      1  C   UNL d   1      -3.644   1.384  -0.640  0.00  0.00     0.115 C 
ATOM      2  N   UNL d   1      -4.883   1.832  -0.731  0.00  0.00    -0.262 N 
ATOM      3  HN  UNL d   1      -5.672   1.251  -1.011  1.00  0.00     0.194 HD
ENDROOT
BRANCH   1   4
ATOM      4  C   UNL d   1      -3.413  -0.148  -0.717  0.00  0.00     0.212 C 
ATOM      5  O   UNL d   1      -2.331  -0.486  -1.194  0.00  0.00    -0.285 OA
BRANCH   4   6
ATOM      6  C   UNL d   1      -4.440  -1.240  -0.386  0.00  0.00     0.029 C 
ATOM      7  C   UNL d   1      -5.670  -1.034   0.279  0.00  0.00    -0.041 C 
ATOM      8  C   UNL d   1      -6.715  -2.000   0.142  0.00  0.00    -0.049 C 
ATOM      9  C   UNL d   1      -5.869   0.112   1.237  0.00  0.00     0.050 C 
ATOM     10  C   UNL d   1      -8.052  -1.820   0.836  0.00  0.00     0.049 C 
ATOM     11  C   UNL d   1      -6.533  -3.161  -0.654  0.00  0.00    -0.049 C 
ATOM     12  C   UNL d   1      -5.252  -3.441  -1.166  0.00  0.00    -0.049 C 
ATOM     13  C   UNL d   1      -7.680  -4.127  -0.853  0.00  0.00     0.049 C 
ATOM     14  C   UNL d   1      -4.185  -2.557  -0.865  0.00  0.00    -0.041 C 
ATOM     15  C   UNL d   1      -5.015  -4.666  -2.019  0.00  0.00     0.049 C 
ATOM     16  C   UNL d   1      -2.781  -3.137  -0.877  0.00  0.00     0.050 C 
ENDBRANCH   4   6
ENDBRANCH   1   4
BRANCH   1  17
ATOM     17  C   UNL d   1      -2.419   2.277  -0.582  0.00  0.00    -0.004 A 
ATOM     18  C   UNL d   1      -2.429   3.521  -1.233  0.00  0.00     0.014 A 
ATOM     19  C   UNL d   1      -1.317   4.364  -1.214  0.00  0.00     0.001 A 
ATOM     20  C   UNL d   1      -0.144   3.944  -0.595  0.00  0.00     0.000 A 
ATOM     21  C   UNL d   1      -0.097   2.694   0.013  0.00  0.00     0.001 A 
ATOM     22  C   UNL d   1      -1.229   1.867   0.037  0.00  0.00     0.014 A 
ENDBRANCH   1  17
BRANCH   2  23
ATOM     23  O   UNL d   1      -5.002   3.207  -0.397  0.00  0.00    -0.275 OA
BRANCH  23  24
ATOM     24  C   UNL d   1      -6.180   3.767  -1.001  0.00  0.00     0.241 C 
BRANCH  24  25
ATOM     25  C   UNL d   1      -6.432   5.262  -0.702  0.00  0.00    -0.019 C 
ATOM     26  C   UNL d   1      -6.934   6.097  -1.741  0.00  0.00    -0.046 C 
ATOM     27  C   UNL d   1      -7.035   7.497  -1.557  0.00  0.00    -0.049 C 
ATOM     28  C   UNL d   1      -7.415   5.512  -3.053  0.00  0.00     0.049 C 
ATOM     29  C   UNL d   1      -7.310   8.416  -2.731  0.00  0.00     0.049 C 
ATOM     30  C   UNL d   1      -6.927   8.044  -0.257  0.00  0.00    -0.049 C 
ATOM     31  C   UNL d   1      -6.589   7.200   0.836  0.00  0.00    -0.049 C 
ATOM     32  C   UNL d   1      -7.223   9.521  -0.070  0.00  0.00     0.049 C 
ATOM     33  C   UNL d   1      -6.277   5.824   0.604  0.00  0.00    -0.046 C 
ATOM     34  C   UNL d   1      -6.595   7.817   2.219  0.00  0.00     0.049 C 
ATOM     35  C   UNL d   1      -5.800   4.923   1.723  0.00  0.00     0.049 C 
ENDBRANCH  24  25
ENDBRANCH  23  24
ENDBRANCH   2  23
TORSDOF 6
