REMARK  5 active torsions:
REMARK  status: ('A' for Active; 'I' for Inactive)
REMARK    1  A    between atoms: C_9  and  C_2 
REMARK    2  A    between atoms: C_10  and  C_5 
REMARK    3  A    between atoms: O_17  and  N_7 
REMARK    4  A    between atoms: O_23  and  C_15 
REMARK    5  A    between atoms: O_24  and  C_16 
ROOT
ATOM      1  N   UNL d   1       0.591   1.163  -0.051  0.00  0.00     0.102 N 
ATOM      2  C   UNL d   1       1.280  -0.056   0.427  0.00  0.00     0.263 C 
ATOM      3  C   UNL d   1      -0.798  -1.364  -0.056  0.00  0.00     0.018 C 
ATOM      4  C   UNL d   1       0.721  -1.343  -0.243  0.00  0.00     0.067 C 
ATOM      5  C   UNL d   1      -0.870   1.106   0.110  0.00  0.00     0.259 C 
ATOM      6  C   UNL d   1      -1.499  -0.122  -0.562  0.00  0.00     0.095 C 
ATOM      7  N   UNL d   1      -1.557  -2.271   0.489  0.00  0.00    -0.277 N 
ATOM      8  HN  UNL d   1      -2.573  -2.195   0.533  1.00  0.00     0.193 HD
ATOM      9  C   UNL d   1       1.545  -2.581   0.092  0.00  0.00     0.018 C 
ATOM     10  H   UNL d   1       0.812   1.302  -1.038  0.00  0.00     0.317 HD
ENDROOT
BRANCH   2  11
ATOM     11  C   UNL d   1       1.409  -0.081   1.951  0.00  0.00    -0.025 A 
ATOM     12  C   UNL d   1       0.398  -0.560   2.796  0.00  0.00     0.012 A 
ATOM     13  C   UNL d   1       0.543  -0.570   4.187  0.00  0.00     0.037 A 
ATOM     14  C   UNL d   1       1.707  -0.089   4.771  0.00  0.00     0.068 A 
ATOM     15  C   UNL d   1       2.731   0.383   3.951  0.00  0.00     0.037 A 
ATOM     16  C   UNL d   1       2.580   0.401   2.558  0.00  0.00     0.012 A 
BRANCH  14  17
ATOM     17  O   UNL d   1       1.953  -0.053   6.116  0.00  0.00    -0.356 OA
ATOM     18  C   UNL d   1       0.798  -0.086   6.950  0.00  0.00     0.210 C 
ENDBRANCH  14  17
ENDBRANCH   2  11
BRANCH   5  19
ATOM     19  C   UNL d   1      -1.538   2.377  -0.399  0.00  0.00    -0.025 A 
ATOM     20  C   UNL d   1      -1.516   2.742  -1.754  0.00  0.00     0.012 A 
ATOM     21  C   UNL d   1      -2.225   3.861  -2.210  0.00  0.00     0.037 A 
ATOM     22  C   UNL d   1      -2.961   4.639  -1.318  0.00  0.00     0.068 A 
ATOM     23  C   UNL d   1      -2.956   4.306   0.037  0.00  0.00     0.037 A 
ATOM     24  C   UNL d   1      -2.251   3.190   0.495  0.00  0.00     0.012 A 
BRANCH  22  25
ATOM     25  O   UNL d   1      -3.715   5.735  -1.635  0.00  0.00    -0.356 OA
ATOM     26  C   UNL d   1      -3.861   6.035  -3.017  0.00  0.00     0.210 C 
ENDBRANCH  22  25
ENDBRANCH   5  19
BRANCH   7  27
ATOM     27  O   UNL d   1      -0.854  -3.350   1.007  0.00  0.00    -0.290 OA
ATOM     28  H   UNL d   1      -1.550  -3.863   1.461  0.00  0.00     0.244 HD
ENDBRANCH   7  27
TORSDOF 5
