REMARK  1 active torsions:
REMARK  status: ('A' for Active; 'I' for Inactive)
REMARK    1  A    between atoms: N_2  and  C_3 
ROOT
ATOM      1  C   UNL d   1      -0.401   0.404   0.082  0.00  0.00     0.110 A 
ATOM      2  C   UNL d   1       0.424   1.544   0.012  0.00  0.00     0.062 A 
ATOM      3  C   UNL d   1      -1.833   0.435   0.055  0.00  0.00     0.105 C 
ATOM      4  N   UNL d   1      -2.994   0.457   0.035  0.00  0.00    -0.191 NA
ATOM      5  C   UNL d   1       0.196  -0.862   0.081  0.00  0.00     0.139 A 
ATOM      6  F   UNL d   1      -0.564  -1.967   0.127  0.00  0.00    -0.204 F 
ATOM      7  C   UNL d   1       1.822   1.374  -0.075  0.00  0.00     0.032 A 
ATOM      8  C   UNL d   1       2.393   0.099  -0.069  0.00  0.00     0.005 A 
ATOM      9  C   UNL d   1       1.577  -1.022   0.011  0.00  0.00     0.044 A 
ENDROOT
BRANCH   2  10
ATOM     10  N   UNL d   1      -0.090   2.877   0.023  0.00  0.00    -0.331 N 
ATOM     11  C   UNL d   1      -1.234   3.333   0.646  0.00  0.00     0.096 A 
ATOM     12  C   UNL d   1      -1.388   4.678   0.392  0.00  0.00     0.019 A 
ATOM     13  C   UNL d   1      -0.287   5.085  -0.385  0.00  0.00     0.019 A 
ATOM     14  C   UNL d   1       0.507   3.975  -0.574  0.00  0.00     0.096 A 
ENDBRANCH   2  10
TORSDOF 1
