REMARK  4 active torsions:
REMARK  status: ('A' for Active; 'I' for Inactive)
REMARK    1  A    between atoms: C_2  and  C_1 
REMARK    2  A    between atoms: C_5  and  C_2 
REMARK    3  A    between atoms: N_9  and  N_3 
REMARK    4  A    between atoms: C_15  and  N_9 
ROOT
ATOM      1  C   UNL d   1       0.907   0.005   0.086  0.00  0.00     0.181 C 
ATOM      2  N   UNL d   1       0.214  -0.968  -0.443  0.00  0.00    -0.287 N 
ATOM      3  HN  UNL d   1       0.694  -1.769  -0.853  1.00  0.00     0.188 HD
ATOM      4  C   UNL d   1       0.201   1.155   0.598  0.00  0.00     0.123 C 
ATOM      5  N   UNL d   1      -0.426   2.059   0.965  0.00  0.00    -0.190 NA
ENDROOT
BRANCH   1   6
ATOM      6  C   UNL d   1       2.410  -0.037   0.105  0.00  0.00     0.244 C 
ATOM      7  O   UNL d   1       3.021   1.015  -0.060  0.00  0.00    -0.282 OA
BRANCH   6   8
ATOM      8  C   UNL d   1       3.018  -1.330   0.282  0.00  0.00     0.128 A 
ATOM      9  O   UNL d   1       2.339  -2.297   0.967  0.00  0.00    -0.319 OA
ATOM     10  C   UNL d   1       3.111  -3.411   0.969  0.00  0.00     0.142 A 
ATOM     11  C   UNL d   1       4.294  -3.176   0.310  0.00  0.00     0.027 A 
ATOM     12  C   UNL d   1       4.247  -1.824  -0.114  0.00  0.00     0.043 A 
ENDBRANCH   6   8
ENDBRANCH   1   6
BRANCH   2  13
ATOM     13  N   UNL d   1      -1.149  -0.915  -0.450  0.00  0.00    -0.300 N 
ATOM     14  H   UNL d   1      -1.665  -0.035  -0.400  0.00  0.00     0.187 HD
BRANCH  13  15
ATOM     15  C   UNL d   1      -1.880  -1.987  -1.003  0.00  0.00     0.049 A 
ATOM     16  C   UNL d   1      -1.280  -3.191  -1.390  0.00  0.00     0.054 A 
ATOM     17  C   UNL d   1      -2.061  -4.254  -1.851  0.00  0.00     0.036 A 
ATOM     18 CL   UNL d   1      -1.306  -5.729  -2.321  0.00  0.00    -0.084 Cl
ATOM     19  C   UNL d   1      -3.447  -4.139  -1.926  0.00  0.00     0.024 A 
ATOM     20  C   UNL d   1      -4.058  -2.949  -1.541  0.00  0.00     0.004 A 
ATOM     21  C   UNL d   1      -3.279  -1.886  -1.075  0.00  0.00     0.031 A 
ENDBRANCH  13  15
ENDBRANCH   2  13
TORSDOF 4
