REMARK  3 active torsions:
REMARK  status: ('A' for Active; 'I' for Inactive)
REMARK    1  A    between atoms: C_2  and  C_1 
REMARK       I    between atoms: N_5  and  C_2 
REMARK    2  A    between atoms: C_6  and  N_5 
REMARK    3  A    between atoms: C_19  and  C_13 
ROOT
ATOM      1  C   UNL d   1      -0.207  -2.571  -0.592  0.00  0.00     0.267 C 
ATOM      2  N   UNL d   1       0.760  -3.432  -0.091  0.00  0.00    -0.308 N 
ATOM      3  O   UNL d   1       0.007  -1.383  -0.821  0.00  0.00    -0.267 OA
ATOM      4  H   UNL d   1       0.715  -4.355  -0.500  0.00  0.00     0.170 HD
ENDROOT
BRANCH   2   5
ATOM      5  C   UNL d   1       2.082  -3.006   0.050  0.00  0.00     0.114 A 
ATOM      6  N   UNL d   1       2.933  -3.640  -0.783  0.00  0.00    -0.346 N 
ATOM      7  C   UNL d   1       4.226  -3.239  -0.785  0.00  0.00     0.007 A 
ATOM      8  HN  UNL d   1       2.614  -4.395  -1.390  1.00  0.00     0.167 HD
ATOM      9  C   UNL d   1       5.134  -3.872  -1.795  0.00  0.00     0.068 C 
ATOM     10  C   UNL d   1       4.705  -2.260   0.073  0.00  0.00     0.025 A 
ATOM     11  C   UNL d   1       3.824  -1.681   0.986  0.00  0.00     0.013 A 
ATOM     12  C   UNL d   1       2.479  -2.058   0.997  0.00  0.00    -0.014 A 
BRANCH  12  13
ATOM     13  C   UNL d   1       1.571  -1.503   2.068  0.00  0.00     0.038 C 
ATOM     14  C   UNL d   1       1.152  -2.558   3.087  0.00  0.00     0.010 C 
ENDBRANCH  12  13
ENDBRANCH   2   5
BRANCH   1  15
ATOM     15  C   UNL d   1      -1.484  -3.190  -0.882  0.00  0.00     0.114 A 
ATOM     16  C   UNL d   1      -2.533  -2.771  -1.693  0.00  0.00     0.046 A 
ATOM     17  N   UNL d   1      -3.644  -3.612  -1.679  0.00  0.00    -0.298 N 
ATOM     18  C   UNL d   1      -2.617  -1.569  -2.562  0.00  0.00     0.071 C 
ATOM     19  N   UNL d   1      -3.471  -4.653  -0.885  0.00  0.00    -0.269 N 
ATOM     20  HN  UNL d   1      -4.492  -3.444  -2.220  1.00  0.00     0.187 HD
ATOM     21  S   UNL d   1      -1.982  -4.655  -0.139  0.00  0.00     0.009 SA
ATOM     22  HN  UNL d   1      -4.175  -5.378  -0.744  1.00  0.00     0.195 HD
ENDBRANCH   1  15
TORSDOF 3
