REMARK  6 active torsions:
REMARK  status: ('A' for Active; 'I' for Inactive)
REMARK    1  A    between atoms: C_3  and  C_1 
REMARK    2  A    between atoms: C_2  and  C_18 
REMARK    3  A    between atoms: C_17  and  C_4 
REMARK    4  A    between atoms: N_19  and  C_5 
REMARK    5  A    between atoms: N_14  and  N_19 
REMARK    6  A    between atoms: O_29  and  C_26 
ROOT
ATOM      1  N   UNL d   1      -0.715  -6.071  -3.435  0.00  0.00    -0.309 N 
ATOM      2  HN  UNL d   1      -0.598  -5.757  -4.398  1.00  0.00     0.186 HD
ATOM      3  C   UNL d   1      -1.804  -6.637  -3.035  0.00  0.00     0.122 C 
ENDROOT
BRANCH   1   4
ATOM      4  N   UNL d   1       0.257  -5.915  -2.518  0.00  0.00    -0.284 N 
ATOM      5  H   UNL d   1       0.104  -5.949  -1.514  0.00  0.00     0.188 HD
BRANCH   4   6
ATOM      6  C   UNL d   1       1.510  -5.389  -2.845  0.00  0.00     0.141 A 
ATOM      7  N   UNL d   1       2.276  -5.102  -1.755  0.00  0.00    -0.349 N 
ATOM      8  C   UNL d   1       3.523  -4.608  -1.948  0.00  0.00     0.106 A 
ATOM      9  HN  UNL d   1       1.918  -5.257  -0.813  1.00  0.00     0.167 HD
ATOM     10  C   UNL d   1       4.080  -4.374  -3.191  0.00  0.00     0.065 A 
ATOM     11  C   UNL d   1       3.293  -4.666  -4.307  0.00  0.00     0.045 A 
ATOM     12  C   UNL d   1       2.001  -5.179  -4.143  0.00  0.00     0.080 A 
ATOM     13 CL   UNL d   1       1.148  -5.529  -5.608  0.00  0.00    -0.080 Cl
BRANCH  10  14
ATOM     14  C   UNL d   1       5.471  -3.839  -3.309  0.00  0.00     0.418 C 
ATOM     15  F   UNL d   1       5.884  -3.680  -4.596  0.00  0.00    -0.166 F 
ATOM     16  F   UNL d   1       6.391  -4.649  -2.719  0.00  0.00    -0.166 F 
ATOM     17  F   UNL d   1       5.611  -2.621  -2.718  0.00  0.00    -0.166 F 
ENDBRANCH  10  14
ENDBRANCH   4   6
ENDBRANCH   1   4
BRANCH   3  18
ATOM     18  C   UNL d   1      -2.824  -6.906  -4.022  0.00  0.00     0.026 A 
ATOM     19  C   UNL d   1      -3.875  -7.875  -4.015  0.00  0.00     0.071 A 
ATOM     20  N   UNL d   1      -4.621  -7.767  -5.131  0.00  0.00    -0.299 N 
ATOM     21  N   UNL d   1      -4.032  -6.802  -5.846  0.00  0.00    -0.310 N 
ATOM     22  HN  UNL d   1      -5.453  -8.304  -5.377  1.00  0.00     0.187 HD
ATOM     23  C   UNL d   1      -2.959  -6.248  -5.229  0.00  0.00     0.122 A 
ATOM     24  H   UNL d   1      -4.422  -6.568  -6.753  0.00  0.00     0.186 HD
BRANCH  19  25
ATOM     25  C   UNL d   1      -4.199  -8.890  -3.005  0.00  0.00    -0.007 A 
ATOM     26  C   UNL d   1      -5.526  -9.313  -2.842  0.00  0.00     0.016 A 
ATOM     27  C   UNL d   1      -5.871 -10.249  -1.860  0.00  0.00     0.037 A 
ATOM     28  C   UNL d   1      -4.890 -10.774  -1.022  0.00  0.00     0.068 A 
ATOM     29  C   UNL d   1      -3.560 -10.400  -1.210  0.00  0.00     0.037 A 
ATOM     30  C   UNL d   1      -3.213  -9.473  -2.198  0.00  0.00     0.016 A 
BRANCH  28  31
ATOM     31  O   UNL d   1      -5.105 -11.684  -0.026  0.00  0.00    -0.356 OA
ATOM     32  C   UNL d   1      -6.405 -11.665   0.553  0.00  0.00     0.210 C 
ENDBRANCH  28  31
ENDBRANCH  19  25
ENDBRANCH   3  18
TORSDOF 6
