REMARK  4 active torsions:
REMARK  status: ('A' for Active; 'I' for Inactive)
REMARK    1  A    between atoms: C_10  and  C_15 
REMARK    2  A    between atoms: O_19  and  C_10 
REMARK    3  A    between atoms: C_15  and  C_12 
REMARK    4  A    between atoms: O_20  and  C_16 
ROOT
ATOM      1  C   UNL d   1       0.065   1.276  -0.014  0.00  0.00     0.198 A 
ATOM      2  C   UNL d   1      -1.190   0.518  -0.001  0.00  0.00     0.049 A 
ATOM      3  C   UNL d   1       1.306   0.496   0.004  0.00  0.00     0.049 A 
ATOM      4  C   UNL d   1       1.229  -0.893  -0.008  0.00  0.00     0.093 A 
ATOM      5  O   UNL d   1       0.042  -1.589  -0.028  0.00  0.00    -0.309 OA
ATOM      6  C   UNL d   1      -1.132  -0.872  -0.005  0.00  0.00     0.090 A 
ATOM      7  C   UNL d   1       2.410  -1.640   0.004  0.00  0.00     0.075 A 
ATOM      8  C   UNL d   1       2.541   1.145   0.037  0.00  0.00     0.021 A 
ATOM      9  C   UNL d   1      -2.415   1.193   0.024  0.00  0.00     0.026 A 
ATOM     10  O   UNL d   1       0.077   2.500  -0.036  0.00  0.00    -0.286 OA
ATOM     11  C   UNL d   1      -3.614   0.472   0.050  0.00  0.00    -0.048 A 
ATOM     12  C   UNL d   1      -2.323  -1.598   0.013  0.00  0.00     0.039 A 
ATOM     13  C   UNL d   1       3.658  -1.001   0.036  0.00  0.00     0.070 A 
ATOM     14  C   UNL d   1       3.717   0.395   0.056  0.00  0.00     0.038 A 
ATOM     15  C   UNL d   1      -3.555  -0.931   0.037  0.00  0.00     0.010 A 
ENDROOT
BRANCH  11  16
ATOM     16  C   UNL d   1      -4.937   1.208   0.064  0.00  0.00     0.149 C 
BRANCH  16  17
ATOM     17  C   UNL d   1      -5.800   0.944   1.281  0.00  0.00     0.262 C 
ATOM     18  O   UNL d   1      -5.545   0.177   2.197  0.00  0.00    -0.265 OA
BRANCH  17  19
ATOM     19  O   UNL d   1      -6.939   1.695   1.195  0.00  0.00    -0.326 OA
ATOM     20  C   UNL d   1      -7.833   1.513   2.294  0.00  0.00     0.213 C 
ENDBRANCH  17  19
ENDBRANCH  16  17
ENDBRANCH  11  16
BRANCH  13  21
ATOM     21  O   UNL d   1       4.740  -1.838   0.047  0.00  0.00    -0.356 OA
ATOM     22  C   UNL d   1       6.024  -1.222   0.090  0.00  0.00     0.210 C 
ENDBRANCH  13  21
TORSDOF 4
