REMARK  1 active torsions:
REMARK  status: ('A' for Active; 'I' for Inactive)
REMARK    1  A    between atoms: N_6  and  N_1 
REMARK       I    between atoms: C_3  and  N_6 
REMARK       I    between atoms: N_11  and  C_3 
ROOT
ATOM      1  N   UNL d   1       2.254   1.581   0.033  0.00  0.00    -0.300 N 
ATOM      2  HN  UNL d   1       1.756   2.470   0.080  1.00  0.00     0.186 HD
ATOM      3  C   UNL d   1       1.610   0.459  -0.007  0.00  0.00     0.037 C 
ATOM      4  C   UNL d   1       0.158   0.417  -0.001  0.00  0.00    -0.006 A 
ATOM      5  C   UNL d   1      -0.244  -0.912   0.009  0.00  0.00    -0.046 A 
ATOM      6  C   UNL d   1       2.150  -0.947  -0.087  0.00  0.00     0.064 C 
ATOM      7  C   UNL d   1       0.915  -1.855   0.067  0.00  0.00     0.045 C 
ATOM      8  C   UNL d   1      -0.731   1.477  -0.017  0.00  0.00     0.014 A 
ATOM      9  C   UNL d   1      -1.596  -1.217   0.005  0.00  0.00     0.008 A 
ATOM     10  C   UNL d   1      -2.091   1.175  -0.025  0.00  0.00     0.001 A 
ATOM     11  C   UNL d   1      -2.519  -0.163  -0.015  0.00  0.00     0.001 A 
ENDROOT
BRANCH   1  12
ATOM     12  N   UNL d   1       3.616   1.541   0.011  0.00  0.00    -0.252 N 
ATOM     13  C   UNL d   1       4.356   2.699   0.056  0.00  0.00     0.332 C 
ATOM     14  O   UNL d   1       5.577   2.720  -0.014  0.00  0.00    -0.246 OA
ATOM     15  N   UNL d   1       3.607   3.824   0.191  0.00  0.00    -0.351 N 
ATOM     16  H   UNL d   1       2.616   3.701   0.036  0.00  0.00     0.160 HD
ATOM     17  H   UNL d   1       4.046   4.725   0.092  0.00  0.00     0.160 HD
ATOM     18  H   UNL d   1       4.125   0.671  -0.080  0.00  0.00     0.191 HD
ENDBRANCH   1  12
TORSDOF 1
