REMARK  7 active torsions:
REMARK  status: ('A' for Active; 'I' for Inactive)
REMARK    1  A    between atoms: N_4  and  S_1 
REMARK    2  A    between atoms: C_9  and  S_1 
REMARK    3  A    between atoms: C_2  and  N_5 
REMARK    4  A    between atoms: C_6  and  C_3 
REMARK       I    between atoms: N_5  and  C_7 
REMARK    5  A    between atoms: O_24  and  C_6 
REMARK    6  A    between atoms: C_7  and  C_17 
REMARK    7  A    between atoms: C_17  and  N_10 
ROOT
ATOM      1  N   UNL d   1       1.162  -1.231  -0.470  0.00  0.00    -0.303 N 
ATOM      2  N   UNL d   1      -0.546  -3.057   1.086  0.00  0.00     0.100 N 
ATOM      3  C   UNL d   1      -0.293  -1.180  -0.693  0.00  0.00     0.165 C 
ATOM      4  C   UNL d   1       1.622  -2.619  -0.321  0.00  0.00     0.165 C 
ATOM      5  C   UNL d   1      -1.066  -1.819   0.470  0.00  0.00     0.293 C 
ATOM      6  C   UNL d   1       0.879  -3.363   0.806  0.00  0.00     0.293 C 
ENDROOT
BRANCH   2   7
ATOM      7  C   UNL d   1      -1.377  -4.246   0.835  0.00  0.00     0.375 C 
BRANCH   7   8
ATOM      8  C   UNL d   1      -2.866  -4.096   1.152  0.00  0.00     0.251 C 
ATOM      9  N   UNL d   1      -3.199  -3.448   2.337  0.00  0.00    -0.319 N 
ATOM     10  H   UNL d   1      -2.483  -3.396   3.059  0.00  0.00     0.169 HD
ATOM     11  O   UNL d   1      -3.667  -4.635   0.380  0.00  0.00    -0.271 OA
BRANCH   9  12
ATOM     12  C   UNL d   1      -4.529  -3.279   2.728  0.00  0.00     0.092 C 
ATOM     13  C   UNL d   1      -5.097  -3.242   3.995  0.00  0.00     0.073 C 
ATOM     14  C   UNL d   1      -6.541  -3.224   3.893  0.00  0.00     0.028 C 
ATOM     15  C   UNL d   1      -6.989  -3.074   2.604  0.00  0.00     0.053 C 
ATOM     16  S   UNL d   1      -5.695  -2.939   1.514  0.00  0.00    -0.083 SA
BRANCH  13  17
ATOM     17  C   UNL d   1      -4.367  -3.291   5.258  0.00  0.00     0.295 C 
ATOM     18  O   UNL d   1      -3.142  -3.334   5.335  0.00  0.00    -0.259 OA
BRANCH  17  19
ATOM     19  O   UNL d   1      -5.219  -3.229   6.324  0.00  0.00    -0.322 OA
ATOM     20  C   UNL d   1      -4.642  -3.129   7.626  0.00  0.00     0.213 C 
ENDBRANCH  17  19
ENDBRANCH  13  17
ENDBRANCH   9  12
ENDBRANCH   7   8
ENDBRANCH   2   7
BRANCH   1  21
ATOM     21  S   UNL d   1       1.954   0.023   0.325  0.00  0.00     0.260 S 
ATOM     22  O   UNL d   1       1.415   1.270  -0.181  0.00  0.00    -0.200 OA
ATOM     23  O   UNL d   1       3.376  -0.243   0.265  0.00  0.00    -0.200 OA
BRANCH  21  24
ATOM     24  C   UNL d   1       1.476  -0.086   2.039  0.00  0.00     0.079 A 
ATOM     25  C   UNL d   1       2.265  -0.817   2.936  0.00  0.00     0.027 A 
ATOM     26  C   UNL d   1       1.926  -0.845   4.291  0.00  0.00     0.025 A 
ATOM     27  C   UNL d   1       0.818  -0.130   4.747  0.00  0.00     0.034 A 
ATOM     28  C   UNL d   1       0.052   0.628   3.862  0.00  0.00     0.025 A 
ATOM     29 CL   UNL d   1       0.407  -0.162   6.417  0.00  0.00    -0.084 Cl
ATOM     30  C   UNL d   1       0.393   0.668   2.507  0.00  0.00     0.027 A 
ENDBRANCH  21  24
ENDBRANCH   1  21
TORSDOF 7
