REMARK  4 active torsions:
REMARK  status: ('A' for Active; 'I' for Inactive)
REMARK    1  A    between atoms: C_2  and  C_1 
REMARK       I    between atoms: N_7  and  C_2 
REMARK    2  A    between atoms: C_9  and  C_5 
REMARK    3  A    between atoms: C_12  and  C_8 
REMARK    4  A    between atoms: O_20  and  C_8 
ROOT
ATOM      1  C   UNL d   1       0.071  -2.677   0.085  0.00  0.00     0.256 C 
ATOM      2  N   UNL d   1      -1.006  -3.578   0.028  0.00  0.00    -0.348 N 
ATOM      3  C   UNL d   1      -1.796  -6.249  -0.849  0.00  0.00     0.088 C 
ATOM      4  C   UNL d   1      -1.695  -5.053  -1.814  0.00  0.00     0.063 C 
ATOM      5  C   UNL d   1      -0.871  -6.005   0.367  0.00  0.00     0.063 C 
ATOM      6  C   UNL d   1      -1.111  -4.645   1.014  0.00  0.00     0.129 C 
ATOM      7  C   UNL d   1      -1.917  -3.724  -1.106  0.00  0.00     0.129 C 
ATOM      8  O   UNL d   1       1.047  -2.881   0.807  0.00  0.00    -0.267 OA
ENDROOT
BRANCH   1   9
ATOM      9  C   UNL d   1      -0.049  -1.472  -0.714  0.00  0.00     0.064 A 
ATOM     10  C   UNL d   1      -1.231  -0.736  -1.015  0.00  0.00     0.057 A 
ATOM     11  C   UNL d   1      -0.876   0.315  -1.829  0.00  0.00     0.087 A 
ATOM     12  O   UNL d   1       0.479   0.321  -1.983  0.00  0.00    -0.314 OA
ATOM     13  C   UNL d   1       0.981  -0.736  -1.274  0.00  0.00     0.065 A 
ATOM     14  C   UNL d   1       2.456  -0.848  -1.262  0.00  0.00     0.077 C 
BRANCH  11  15
ATOM     15  C   UNL d   1      -1.643   1.380  -2.463  0.00  0.00    -0.002 A 
ATOM     16  C   UNL d   1      -3.046   1.383  -2.366  0.00  0.00     0.016 A 
ATOM     17  C   UNL d   1      -3.799   2.445  -2.869  0.00  0.00     0.024 A 
ATOM     18  C   UNL d   1      -3.155   3.511  -3.487  0.00  0.00     0.034 A 
ATOM     19  C   UNL d   1      -1.770   3.506  -3.635  0.00  0.00     0.024 A 
ATOM     20 CL   UNL d   1      -4.074   4.849  -4.053  0.00  0.00    -0.084 Cl
ATOM     21  C   UNL d   1      -1.017   2.441  -3.130  0.00  0.00     0.016 A 
ENDBRANCH  11  15
ENDBRANCH   1   9
BRANCH   3  22
ATOM     22  C   UNL d   1      -1.503  -7.543  -1.627  0.00  0.00    -0.024 A 
ATOM     23  C   UNL d   1      -0.450  -8.406  -1.275  0.00  0.00     0.012 A 
ATOM     24  C   UNL d   1      -0.142  -9.527  -2.052  0.00  0.00     0.024 A 
ATOM     25  C   UNL d   1      -0.891  -9.815  -3.187  0.00  0.00     0.034 A 
ATOM     26  C   UNL d   1      -1.957  -8.997  -3.546  0.00  0.00     0.024 A 
ATOM     27 CL   UNL d   1      -0.492 -11.177  -4.157  0.00  0.00    -0.084 Cl
ATOM     28  C   UNL d   1      -2.258  -7.872  -2.772  0.00  0.00     0.012 A 
ENDBRANCH   3  22
BRANCH   3  29
ATOM     29  O   UNL d   1      -3.140  -6.295  -0.348  0.00  0.00    -0.385 OA
ATOM     30  H   UNL d   1      -3.678  -6.849  -0.936  0.00  0.00     0.211 HD
ENDBRANCH   3  29
TORSDOF 4
