REMARK  4 active torsions:
REMARK  status: ('A' for Active; 'I' for Inactive)
REMARK    1  A    between atoms: C_2  and  C_1 
REMARK    2  A    between atoms: O_9  and  C_2 
REMARK    3  A    between atoms: C_5  and  C_7 
REMARK    4  A    between atoms: C_14  and  O_9 
ROOT
ATOM      1  C   UNL d   1      -1.795   0.146   0.147  0.00  0.00     0.062 A 
ATOM      2  N   UNL d   1       0.522   0.839   0.016  0.00  0.00    -0.355 N 
ATOM      3  HN  UNL d   1       1.212   1.584  -0.080  1.00  0.00     0.166 HD
ATOM      4  C   UNL d   1      -0.809   1.136   0.025  0.00  0.00     0.022 A 
ATOM      5  C   UNL d   1       0.929  -0.454   0.135  0.00  0.00     0.117 A 
ATOM      6  C   UNL d   1      -1.354  -1.173   0.324  0.00  0.00     0.022 A 
ATOM      7  C   UNL d   1       0.009  -1.479   0.322  0.00  0.00     0.035 A 
ATOM      8  C   UNL d   1      -1.074   2.603  -0.141  0.00  0.00     0.069 C 
ENDROOT
BRANCH   1   9
ATOM      9  C   UNL d   1      -3.275   0.345   0.009  0.00  0.00     0.300 C 
ATOM     10  O   UNL d   1      -4.072  -0.578  -0.044  0.00  0.00    -0.259 OA
BRANCH   9  11
ATOM     11  O   UNL d   1      -3.570   1.687  -0.112  0.00  0.00    -0.275 OA
BRANCH  11  12
ATOM     12  C   UNL d   1      -4.698   2.284  -0.737  0.00  0.00     0.082 A 
ATOM     13  C   UNL d   1      -4.549   3.656  -0.973  0.00  0.00     0.077 A 
ATOM     14  C   UNL d   1      -5.510   4.276  -1.736  0.00  0.00     0.107 A 
ATOM     15  O   UNL d   1      -5.488   5.576  -2.134  0.00  0.00    -0.323 OA
ATOM     16  C   UNL d   1      -6.600   3.593  -2.217  0.00  0.00     0.105 A 
ATOM     17  C   UNL d   1      -6.633   5.603  -3.011  0.00  0.00     0.352 A 
ATOM     18  O   UNL d   1      -7.402   4.381  -2.983  0.00  0.00    -0.323 OA
ATOM     19  C   UNL d   1      -6.795   2.253  -1.946  0.00  0.00     0.042 A 
ATOM     20  C   UNL d   1      -5.819   1.581  -1.197  0.00  0.00     0.040 A 
ENDBRANCH  11  12
ENDBRANCH   9  11
ENDBRANCH   1   9
BRANCH   5  21
ATOM     21  C   UNL d   1       2.413  -0.781   0.023  0.00  0.00     0.432 C 
ATOM     22  F   UNL d   1       3.204   0.292  -0.266  0.00  0.00    -0.165 F 
ATOM     23  F   UNL d   1       2.921  -1.321   1.169  0.00  0.00    -0.165 F 
ATOM     24  F   UNL d   1       2.668  -1.698  -0.956  0.00  0.00    -0.165 F 
ENDBRANCH   5  21
TORSDOF 4
