REMARK  1 active torsions:
REMARK  status: ('A' for Active; 'I' for Inactive)
REMARK    1  A    between atoms: N_7  and  C_1 
ROOT
ATOM      1  C   UNL d   1       1.529   0.154  -0.046  0.00  0.00     0.171 A 
ATOM      2  S   UNL d   1       0.311   0.715   1.001  0.00  0.00    -0.038 SA
ATOM      3  N   UNL d   1       1.145  -0.747  -0.924  0.00  0.00    -0.279 N 
ATOM      4  HN  UNL d   1       1.765  -1.189  -1.603  1.00  0.00     0.189 HD
ATOM      5  N   UNL d   1      -0.206  -1.018  -0.810  0.00  0.00    -0.296 N 
ATOM      6  HN  UNL d   1      -0.703  -1.690  -1.394  1.00  0.00     0.187 HD
ATOM      7  C   UNL d   1      -0.776  -0.306   0.141  0.00  0.00     0.066 A 
ATOM      8  C   UNL d   1      -2.221  -0.346   0.477  0.00  0.00     0.078 C 
ENDROOT
BRANCH   1   9
ATOM      9  N   UNL d   1       2.833   0.651   0.025  0.00  0.00    -0.312 N 
ATOM     10  C   UNL d   1       3.868   0.274  -0.819  0.00  0.00     0.098 A 
ATOM     11  C   UNL d   1       5.006   0.980  -0.502  0.00  0.00     0.019 A 
ATOM     12  C   UNL d   1       4.684   1.817   0.585  0.00  0.00     0.019 A 
ATOM     13  C   UNL d   1       3.359   1.597   0.893  0.00  0.00     0.098 A 
ENDBRANCH   1   9
TORSDOF 1
