REMARK  4 active torsions:
REMARK  status: ('A' for Active; 'I' for Inactive)
REMARK    1  A    between atoms: C_3  and  C_1 
REMARK    2  A    between atoms: C_2  and  C_4 
REMARK    3  A    between atoms: C_6  and  C_5 
REMARK       I    between atoms: N_11  and  C_6 
REMARK    4  A    between atoms: N_18  and  N_11 
ROOT
ATOM      1  C   UNL d   1       0.510  -0.426   1.411  0.00  0.00     0.049 A 
ATOM      2  C   UNL d   1       0.281  -2.344   2.911  0.00  0.00     0.049 A 
ATOM      3  C   UNL d   1       0.050  -0.079   3.782  0.00  0.00     0.034 A 
ATOM      4  C   UNL d   1       0.515  -1.812   1.632  0.00  0.00     0.032 A 
ATOM      5  C   UNL d   1       0.259   0.432   2.493  0.00  0.00     0.033 A 
ATOM      6  C   UNL d   1       0.034  -1.466   3.982  0.00  0.00     0.033 A 
ENDROOT
BRANCH   3   7
ATOM      7  C   UNL d   1      -0.088   0.896   4.904  0.00  0.00     0.265 C 
ATOM      8  O   UNL d   1      -0.502   2.035   4.687  0.00  0.00    -0.266 OA
ATOM      9  N   UNL d   1       0.342   0.471   6.153  0.00  0.00    -0.290 N 
ATOM     10  H   UNL d   1       0.738  -0.452   6.307  0.00  0.00     0.183 HD
BRANCH   9  11
ATOM     11  N   UNL d   1       0.329   1.380   7.234  0.00  0.00    -0.247 NA
ATOM     12  H   UNL d   1      -0.168   2.223   6.906  0.00  0.00     0.143 HD
ATOM     13  H   UNL d   1       1.286   1.707   7.393  0.00  0.00     0.143 HD
ENDBRANCH   9  11
ENDBRANCH   3   7
BRANCH   1  14
ATOM     14  C   UNL d   1       0.822   0.147   0.046  0.00  0.00     0.417 C 
ATOM     15  F   UNL d   1       1.136  -0.804  -0.876  0.00  0.00    -0.166 F 
ATOM     16  F   UNL d   1       1.885   0.997   0.078  0.00  0.00    -0.166 F 
ATOM     17  F   UNL d   1      -0.215   0.853  -0.478  0.00  0.00    -0.166 F 
ENDBRANCH   1  14
BRANCH   2  18
ATOM     18  C   UNL d   1       0.341  -3.835   3.153  0.00  0.00     0.417 C 
ATOM     19  F   UNL d   1       0.651  -4.555   2.041  0.00  0.00    -0.166 F 
ATOM     20  F   UNL d   1       1.282  -4.159   4.083  0.00  0.00    -0.166 F 
ATOM     21  F   UNL d   1      -0.835  -4.338   3.616  0.00  0.00    -0.166 F 
ENDBRANCH   2  18
TORSDOF 4
