REMARK  2 active torsions:
REMARK  status: ('A' for Active; 'I' for Inactive)
REMARK    1  A    between atoms: C_9  and  N_6 
REMARK    2  A    between atoms: C_10  and  C_9 
ROOT
ATOM      1  C   UNL d   1      -0.143  -1.359   0.119  0.00  0.00     0.709 A 
ATOM      2  N   UNL d   1       1.097  -0.898   0.326  0.00  0.00    -0.116 N 
ATOM      3  HN  UNL d   1       1.954  -1.409   0.541  1.00  0.00     0.207 HD
ATOM      4  N   UNL d   1      -1.037  -0.344  -0.143  0.00  0.00    -0.113 N 
ATOM      5  HN  UNL d   1      -2.035  -0.449  -0.327  1.00  0.00     0.203 HD
ATOM      6  N   UNL d   1       0.901   0.425   0.171  0.00  0.00    -0.199 N 
ATOM      7  N   UNL d   1      -0.359   0.795  -0.111  0.00  0.00     0.011 NA
ATOM      8  N   UNL d   1      -0.530  -2.664   0.112  0.00  0.00    -0.215 N 
ATOM      9  C   UNL d   1       0.308  -3.622   0.838  0.00  0.00     0.141 C 
ATOM     10  C   UNL d   1      -1.964  -2.962   0.101  0.00  0.00     0.141 C 
ATOM     11  C   UNL d   1       0.086  -5.037   0.306  0.00  0.00     0.020 C 
ATOM     12  C   UNL d   1      -2.212  -4.372  -0.435  0.00  0.00     0.020 C 
ATOM     13  C   UNL d   1      -1.391  -5.414   0.315  0.00  0.00     0.003 C 
ENDROOT
BRANCH   6  14
ATOM     14  C   UNL d   1       2.008   1.347   0.007  0.00  0.00     0.206 C 
BRANCH  14  15
ATOM     15  C   UNL d   1       2.461   1.963   1.308  0.00  0.00    -0.037 A 
ATOM     16  C   UNL d   1       3.429   1.325   2.099  0.00  0.00     0.010 A 
ATOM     17  C   UNL d   1       3.916   1.938   3.257  0.00  0.00     0.024 A 
ATOM     18  C   UNL d   1       3.428   3.187   3.636  0.00  0.00     0.034 A 
ATOM     19  C   UNL d   1       2.438   3.814   2.883  0.00  0.00     0.024 A 
ATOM     20 CL   UNL d   1       4.063   3.965   5.033  0.00  0.00    -0.084 Cl
ATOM     21  C   UNL d   1       1.950   3.202   1.726  0.00  0.00     0.010 A 
ENDBRANCH  14  15
ENDBRANCH   6  14
TORSDOF 2
