REMARK  7 active torsions:
REMARK  status: ('A' for Active; 'I' for Inactive)
REMARK    1  A    between atoms: N_10  and  C_1 
REMARK    2  A    between atoms: C_13  and  N_2 
REMARK    3  A    between atoms: C_3  and  C_8 
REMARK    4  A    between atoms: C_19  and  C_7 
REMARK       I    between atoms: C_8  and  N_10 
REMARK    5  A    between atoms: C_23  and  C_12 
REMARK    6  A    between atoms: C_15  and  C_18 
REMARK    7  A    between atoms: C_16  and  C_17 
ROOT
ATOM      1  C   UNL d   1      -0.392  -1.083   0.195  0.00  0.00     0.132 A 
ATOM      2  N   UNL d   1       0.945  -0.686   0.182  0.00  0.00    -0.239 N 
ATOM      3  N   UNL d   1       1.058   0.667   0.265  0.00  0.00    -0.289 N 
ATOM      4  HN  UNL d   1       1.917   1.218   0.272  1.00  0.00     0.188 HD
ATOM      5  C   UNL d   1      -1.130   0.070   0.378  0.00  0.00     0.084 A 
ATOM      6  C   UNL d   1      -0.196   1.119   0.337  0.00  0.00     0.086 A 
ENDROOT
BRANCH   1   7
ATOM      7  N   UNL d   1      -0.832  -2.388   0.064  0.00  0.00    -0.307 N 
ATOM      8  C   UNL d   1      -1.815  -2.843  -0.799  0.00  0.00     0.259 C 
ATOM      9  O   UNL d   1      -2.118  -4.033  -0.743  0.00  0.00    -0.267 OA
ATOM     10  H   UNL d   1      -0.301  -3.140   0.489  0.00  0.00     0.170 HD
BRANCH   8  11
ATOM     11  C   UNL d   1      -2.398  -1.946  -1.792  0.00  0.00     0.064 C 
ATOM     12  C   UNL d   1      -1.828  -0.815  -2.455  0.00  0.00     0.057 C 
ATOM     13  C   UNL d   1      -2.851  -0.166  -3.108  0.00  0.00     0.087 C 
ATOM     14  O   UNL d   1      -3.957  -0.967  -3.102  0.00  0.00    -0.314 OA
ATOM     15  C   UNL d   1      -3.661  -2.068  -2.347  0.00  0.00     0.065 C 
ATOM     16  C   UNL d   1      -4.731  -3.084  -2.257  0.00  0.00     0.077 C 
BRANCH  13  17
ATOM     17  C   UNL d   1      -2.975   1.159  -3.708  0.00  0.00    -0.002 A 
ATOM     18  C   UNL d   1      -1.878   2.040  -3.704  0.00  0.00     0.016 A 
ATOM     19  C   UNL d   1      -2.001   3.348  -4.181  0.00  0.00     0.024 A 
ATOM     20  C   UNL d   1      -3.227   3.790  -4.668  0.00  0.00     0.034 A 
ATOM     21  C   UNL d   1      -4.324   2.934  -4.689  0.00  0.00     0.024 A 
ATOM     22 CL   UNL d   1      -3.389   5.409  -5.228  0.00  0.00    -0.084 Cl
ATOM     23  C   UNL d   1      -4.197   1.624  -4.213  0.00  0.00     0.016 A 
ENDBRANCH  13  17
ENDBRANCH   8  11
ENDBRANCH   1   7
BRANCH   2  24
ATOM     24  C   UNL d   1       2.124  -1.461  -0.038  0.00  0.00     0.060 A 
ATOM     25  C   UNL d   1       2.095  -2.720  -0.657  0.00  0.00     0.047 A 
ATOM     26  C   UNL d   1       3.278  -3.454  -0.850  0.00  0.00     0.051 A 
ATOM     27  C   UNL d   1       4.496  -2.912  -0.409  0.00  0.00     0.032 A 
ATOM     28  C   UNL d   1       4.551  -1.639   0.180  0.00  0.00     0.051 A 
ATOM     29  C   UNL d   1       3.359  -0.918   0.350  0.00  0.00     0.047 A 
BRANCH  26  30
ATOM     30  C   UNL d   1       3.255  -4.802  -1.538  0.00  0.00     0.417 C 
ATOM     31  F   UNL d   1       2.014  -5.173  -1.954  0.00  0.00    -0.166 F 
ATOM     32  F   UNL d   1       4.046  -4.830  -2.644  0.00  0.00    -0.166 F 
ATOM     33  F   UNL d   1       3.696  -5.804  -0.731  0.00  0.00    -0.166 F 
ENDBRANCH  26  30
BRANCH  28  34
ATOM     34  C   UNL d   1       5.874  -1.059   0.621  0.00  0.00     0.417 C 
ATOM     35  F   UNL d   1       5.778   0.201   1.126  0.00  0.00    -0.166 F 
ATOM     36  F   UNL d   1       6.466  -1.809   1.590  0.00  0.00    -0.166 F 
ATOM     37  F   UNL d   1       6.771  -0.988  -0.400  0.00  0.00    -0.166 F 
ENDBRANCH  28  34
ENDBRANCH   2  24
BRANCH   6  38
ATOM     38  C   UNL d   1      -0.542   2.570   0.327  0.00  0.00     0.103 A 
ATOM     39  O   UNL d   1      -1.807   3.064   0.495  0.00  0.00    -0.320 OA
ATOM     40  C   UNL d   1      -1.728   4.416   0.414  0.00  0.00     0.142 A 
ATOM     41  C   UNL d   1      -0.434   4.810   0.169  0.00  0.00     0.027 A 
ATOM     42  C   UNL d   1       0.332   3.620   0.112  0.00  0.00     0.041 A 
ENDBRANCH   6  38
TORSDOF 7
