REMARK  4 active torsions:
REMARK  status: ('A' for Active; 'I' for Inactive)
REMARK    1  A    between atoms: C_2  and  S_1 
REMARK    2  A    between atoms: N_7  and  S_1 
REMARK    3  A    between atoms: C_8  and  C_3 
REMARK    4  A    between atoms: O_15  and  C_8 
ROOT
ATOM      1  C   UNL d   1       0.517  -0.112   1.982  0.00  0.00     0.191 A 
ATOM      2  C   UNL d   1       0.171   0.095   4.236  0.00  0.00     0.070 A 
ATOM      3  C   UNL d   1       1.007   0.473   3.139  0.00  0.00     0.072 A 
ATOM      4  O   UNL d   1      -0.546  -0.907   2.348  0.00  0.00    -0.301 OA
ATOM      5  C   UNL d   1      -0.719  -0.819   3.698  0.00  0.00     0.067 A 
ATOM      6  C   UNL d   1      -1.770  -1.710   4.241  0.00  0.00     0.078 C 
ENDROOT
BRANCH   1   7
ATOM      7  S   UNL d   1       1.039   0.059   0.270  0.00  0.00     0.283 S 
ATOM      8  O   UNL d   1       0.490  -1.094  -0.405  0.00  0.00    -0.198 OA
ATOM      9  O   UNL d   1       2.466   0.287   0.358  0.00  0.00    -0.198 OA
BRANCH   7  10
ATOM     10  N   UNL d   1       0.324   1.450  -0.377  0.00  0.00    -0.301 N 
ATOM     11  C   UNL d   1      -1.139   1.442  -0.632  0.00  0.00     0.161 C 
ATOM     12  C   UNL d   1      -1.904   2.021   0.560  0.00  0.00     0.188 C 
ATOM     13  O   UNL d   1      -1.446   3.341   0.881  0.00  0.00    -0.388 OA
ATOM     14  C   UNL d   1      -0.047   3.345   1.204  0.00  0.00     0.188 C 
ATOM     15  C   UNL d   1       0.806   2.785   0.061  0.00  0.00     0.161 C 
ENDBRANCH   7  10
ENDBRANCH   1   7
BRANCH   2  16
ATOM     16  C   UNL d   1       0.323   0.591   5.597  0.00  0.00     0.178 C 
ATOM     17  O   UNL d   1       1.283   1.266   5.941  0.00  0.00    -0.646 OA
BRANCH  16  18
ATOM     18  O   UNL d   1      -0.683   0.318   6.462  0.00  0.00    -0.773 OA
ATOM     19  H   UNL d   1      -1.456  -0.109   6.061  0.00  0.00     0.167 HD
ENDBRANCH  16  18
ENDBRANCH   2  16
TORSDOF 4
