REMARK  5 active torsions:
REMARK  status: ('A' for Active; 'I' for Inactive)
REMARK    1  A    between atoms: C_7  and  C_1 
REMARK    2  A    between atoms: C_8  and  C_3 
REMARK    3  A    between atoms: O_16  and  C_7 
REMARK    4  A    between atoms: C_18  and  C_11 
REMARK    5  A    between atoms: C_19  and  O_16 
ROOT
ATOM      1  C   UNL d   1       1.446   1.020   0.023  0.00  0.00     0.066 C 
ATOM      2  C   UNL d   1       1.375  -0.330  -0.015  0.00  0.00     0.024 C 
ATOM      3  C   UNL d   1       0.201   1.863  -0.136  0.00  0.00     0.161 C 
ATOM      4  C   UNL d   1      -1.060  -0.278  -0.091  0.00  0.00     0.321 C 
ATOM      5  N   UNL d   1       0.136  -0.923  -0.128  0.00  0.00    -0.312 N 
ATOM      6  N   UNL d   1      -1.005   1.067   0.015  0.00  0.00    -0.330 N 
ATOM      7  O   UNL d   1      -2.126  -0.883  -0.117  0.00  0.00    -0.247 OA
ATOM      8  C   UNL d   1       2.506  -1.325   0.026  0.00  0.00     0.069 C 
ATOM      9  H   UNL d   1       0.060  -1.933  -0.161  0.00  0.00     0.170 HD
ATOM     10  H   UNL d   1      -1.901   1.534   0.040  0.00  0.00     0.165 HD
ENDROOT
BRANCH   3  11
ATOM     11  C   UNL d   1       0.063   3.059   0.791  0.00  0.00    -0.031 A 
ATOM     12  C   UNL d   1      -0.101   4.346   0.256  0.00  0.00     0.010 A 
ATOM     13  C   UNL d   1      -0.288   5.447   1.092  0.00  0.00     0.008 A 
ATOM     14  C   UNL d   1      -0.319   5.291   2.485  0.00  0.00    -0.055 A 
ATOM     15  C   UNL d   1      -0.155   4.005   3.018  0.00  0.00     0.008 A 
ATOM     16  C   UNL d   1       0.035   2.902   2.183  0.00  0.00     0.010 A 
BRANCH  14  17
ATOM     17  C   UNL d   1      -0.534   6.473   3.411  0.00  0.00     0.010 C 
ATOM     18  C   UNL d   1       0.584   7.508   3.260  0.00  0.00     0.015 C 
ATOM     19  C   UNL d   1      -1.908   7.115   3.199  0.00  0.00     0.015 C 
ENDBRANCH  14  17
ENDBRANCH   3  11
BRANCH   1  20
ATOM     20  C   UNL d   1       2.751   1.710   0.179  0.00  0.00     0.293 C 
ATOM     21  O   UNL d   1       3.713   1.234   0.761  0.00  0.00    -0.259 OA
BRANCH  20  22
ATOM     22  O   UNL d   1       2.732   2.944  -0.390  0.00  0.00    -0.318 OA
BRANCH  22  23
ATOM     23  C   UNL d   1       3.938   3.713  -0.247  0.00  0.00     0.174 C 
ATOM     24  C   UNL d   1       4.136   4.217   1.175  0.00  0.00     0.034 C 
ENDBRANCH  22  23
ENDBRANCH  20  22
ENDBRANCH   1  20
TORSDOF 5
