REMARK  5 active torsions:
REMARK  status: ('A' for Active; 'I' for Inactive)
REMARK    1  A    between atoms: C_6  and  S_1 
REMARK    2  A    between atoms: N_8  and  S_1 
REMARK    3  A    between atoms: C_20  and  C_4 
REMARK    4  A    between atoms: C_7  and  N_10 
REMARK    5  A    between atoms: N_10  and  N_8 
ROOT
ATOM      1  N   UNL d   1       0.966   0.340   2.704  0.00  0.00    -0.275 N 
ATOM      2  H   UNL d   1       1.963   0.154   2.597  0.00  0.00     0.189 HD
ENDROOT
BRANCH   1   3
ATOM      3  C   UNL d   1       0.543   0.729   3.970  0.00  0.00     0.141 A 
ATOM      4  C   UNL d   1       1.446   0.755   5.034  0.00  0.00     0.077 A 
ATOM      5  S   UNL d   1       3.107   0.333   5.045  0.00  0.00    -0.088 SA
ATOM      6  C   UNL d   1       1.019   1.166   6.283  0.00  0.00     0.055 A 
ATOM      7  C   UNL d   1       3.295   0.730   6.708  0.00  0.00    -0.007 A 
ATOM      8  C   UNL d   1       2.082   1.147   7.236  0.00  0.00     0.046 A 
ATOM      9  N   UNL d   1      -0.260   1.545   6.526  0.00  0.00    -0.351 N 
ATOM     10  C   UNL d   1      -1.059   1.481   5.453  0.00  0.00     0.182 A 
ATOM     11  HN  UNL d   1      -0.584   1.851   7.443  1.00  0.00     0.166 HD
ATOM     12  N   UNL d   1      -0.737   1.090   4.208  0.00  0.00    -0.336 N 
ATOM     13  HN  UNL d   1      -1.437   1.066   3.466  1.00  0.00     0.168 HD
BRANCH   7  14
ATOM     14  C   UNL d   1       4.665   0.597   7.382  0.00  0.00    -0.018 C 
ATOM     15  C   UNL d   1       5.695   1.521   6.698  0.00  0.00     0.020 C 
ATOM     16  C   UNL d   1       4.581   0.991   8.872  0.00  0.00     0.020 C 
ATOM     17  C   UNL d   1       5.172  -0.857   7.308  0.00  0.00     0.020 C 
ENDBRANCH   7  14
ENDBRANCH   1   3
BRANCH   1  18
ATOM     18  N   UNL d   1       0.145   0.241   1.522  0.00  0.00    -0.221 N 
ATOM     19  H   UNL d   1      -0.858   0.446   1.551  0.00  0.00     0.200 HD
BRANCH  18  20
ATOM     20  S   UNL d   1       0.800  -0.412   0.113  0.00  0.00     0.276 S 
ATOM     21  O   UNL d   1      -0.244  -0.555  -0.872  0.00  0.00    -0.199 OA
ATOM     22  O   UNL d   1       2.019   0.328  -0.161  0.00  0.00    -0.199 OA
BRANCH  20  23
ATOM     23  C   UNL d   1       1.280  -2.054   0.661  0.00  0.00     0.087 A 
ATOM     24  C   UNL d   1       2.651  -2.376   0.602  0.00  0.00     0.034 A 
ATOM     25  C   UNL d   1       3.121  -3.638   0.999  0.00  0.00    -0.039 A 
ATOM     26  C   UNL d   1       4.582  -3.963   0.860  0.00  0.00     0.050 C 
ATOM     27  C   UNL d   1       2.195  -4.572   1.475  0.00  0.00     0.040 A 
ATOM     28  C   UNL d   1       0.836  -4.246   1.555  0.00  0.00     0.032 A 
ATOM     29 CL   UNL d   1       2.676  -6.157   1.965  0.00  0.00    -0.084 Cl
ATOM     30  C   UNL d   1       0.350  -2.988   1.148  0.00  0.00    -0.037 A 
ATOM     31  C   UNL d   1      -1.132  -2.769   1.253  0.00  0.00     0.050 C 
ENDBRANCH  20  23
ENDBRANCH  18  20
ENDBRANCH   1  18
TORSDOF 5
