REMARK  4 active torsions:
REMARK  status: ('A' for Active; 'I' for Inactive)
REMARK    1  A    between atoms: C_7  and  C_1 
REMARK    2  A    between atoms: C_14  and  C_4 
REMARK       I    between atoms: N_13  and  C_7 
REMARK    3  A    between atoms: C_8  and  C_12 
REMARK    4  A    between atoms: N_9  and  N_13 
ROOT
ATOM      1  C   UNL d   1       0.006  -1.367  -0.032  0.00  0.00     0.094 A 
ATOM      2  N   UNL d   1      -0.961   0.689   0.142  0.00  0.00    -0.259 N 
ATOM      3  HN  UNL d   1      -1.646   1.442   0.215  1.00  0.00     0.195 HD
ATOM      4  C   UNL d   1      -1.216  -0.630   0.138  0.00  0.00     0.083 A 
ATOM      5  O   UNL d   1       0.398   0.829   0.030  0.00  0.00    -0.241 OA
ATOM      6  C   UNL d   1       0.984  -0.390  -0.056  0.00  0.00     0.090 A 
ATOM      7  C   UNL d   1       2.455  -0.360  -0.179  0.00  0.00     0.080 C 
ENDROOT
BRANCH   1   8
ATOM      8  C   UNL d   1       0.153  -2.804  -0.181  0.00  0.00     0.275 C 
ATOM      9  N   UNL d   1       1.292  -3.359   0.405  0.00  0.00    -0.266 N 
ATOM     10  H   UNL d   1       2.061  -2.759   0.672  0.00  0.00     0.190 HD
ATOM     11  O   UNL d   1      -0.699  -3.469  -0.761  0.00  0.00    -0.266 OA
BRANCH   9  12
ATOM     12  N   UNL d   1       1.629  -4.696   0.328  0.00  0.00    -0.308 N 
ATOM     13  C   UNL d   1       0.660  -5.554   0.444  0.00  0.00     0.126 C 
ATOM     14  HN  UNL d   1       2.594  -4.996   0.185  1.00  0.00     0.186 HD
BRANCH  13  15
ATOM     15  C   UNL d   1       0.879  -6.969   0.271  0.00  0.00     0.021 A 
ATOM     16  S   UNL d   1      -0.453  -8.031   0.440  0.00  0.00    -0.101 SA
ATOM     17  C   UNL d   1       0.506  -9.396   0.061  0.00  0.00     0.050 A 
ATOM     18  C   UNL d   1       1.818  -9.055  -0.170  0.00  0.00     0.008 A 
ATOM     19  C   UNL d   1       2.038  -7.651  -0.044  0.00  0.00     0.021 A 
ENDBRANCH  13  15
ENDBRANCH   9  12
ENDBRANCH   1   8
BRANCH   4  20
ATOM     20  C   UNL d   1      -2.587  -1.106   0.357  0.00  0.00    -0.006 A 
ATOM     21  C   UNL d   1      -3.680  -0.359  -0.111  0.00  0.00     0.014 A 
ATOM     22  C   UNL d   1      -4.992  -0.763   0.157  0.00  0.00     0.001 A 
ATOM     23  C   UNL d   1      -5.229  -1.921   0.894  0.00  0.00     0.000 A 
ATOM     24  C   UNL d   1      -4.156  -2.675   1.363  0.00  0.00     0.001 A 
ATOM     25  C   UNL d   1      -2.845  -2.266   1.103  0.00  0.00     0.014 A 
ENDBRANCH   4  20
TORSDOF 4
