REMARK  5 active torsions:
REMARK  status: ('A' for Active; 'I' for Inactive)
REMARK    1  A    between atoms: C_8  and  N_1 
REMARK    2  A    between atoms: C_10  and  C_2 
REMARK    3  A    between atoms: S_11  and  C_5 
REMARK    4  A    between atoms: C_9  and  C_12 
REMARK    5  A    between atoms: C_12  and  S_11 
ROOT
ATOM      1  N   UNL d   1      -0.333  -1.299  -0.022  0.00  0.00    -0.279 N 
ATOM      2  C   UNL d   1       0.929  -0.713   0.072  0.00  0.00     0.109 A 
ATOM      3  N   UNL d   1       0.815   0.600   0.066  0.00  0.00    -0.286 N 
ATOM      4  HN  UNL d   1       1.581   1.267   0.166  1.00  0.00     0.188 HD
ATOM      5  C   UNL d   1      -1.182  -0.206  -0.167  0.00  0.00     0.167 A 
ATOM      6  N   UNL d   1      -0.501   0.914  -0.099  0.00  0.00    -0.278 N 
ATOM      7  HN  UNL d   1      -0.889   1.856  -0.158  1.00  0.00     0.189 HD
ENDROOT
BRANCH   5   8
ATOM      8  S   UNL d   1      -2.918  -0.263  -0.242  0.00  0.00    -0.087 SA
BRANCH   8   9
ATOM      9  C   UNL d   1      -3.318   1.513  -0.306  0.00  0.00     0.124 C 
BRANCH   9  10
ATOM     10  C   UNL d   1      -4.804   1.746  -0.472  0.00  0.00    -0.005 A 
ATOM     11  C   UNL d   1      -5.669   1.768   0.642  0.00  0.00     0.042 A 
ATOM     12 CL   UNL d   1      -5.096   1.523   2.256  0.00  0.00    -0.084 Cl
ATOM     13  C   UNL d   1      -7.044   1.989   0.490  0.00  0.00     0.024 A 
ATOM     14  C   UNL d   1      -7.590   2.188  -0.773  0.00  0.00     0.003 A 
ATOM     15  C   UNL d   1      -6.759   2.156  -1.889  0.00  0.00     0.024 A 
ATOM     16  C   UNL d   1      -5.384   1.930  -1.743  0.00  0.00     0.042 A 
ATOM     17 CL   UNL d   1      -4.449   1.887  -3.200  0.00  0.00    -0.084 Cl
ENDBRANCH   9  10
ENDBRANCH   8   9
ENDBRANCH   5   8
BRANCH   1  18
ATOM     18  C   UNL d   1      -0.642  -2.690   0.040  0.00  0.00     0.044 A 
ATOM     19  C   UNL d   1      -1.677  -3.236  -0.731  0.00  0.00     0.054 A 
ATOM     20  C   UNL d   1      -1.975  -4.598  -0.637  0.00  0.00     0.036 A 
ATOM     21 CL   UNL d   1      -3.261  -5.254  -1.575  0.00  0.00    -0.084 Cl
ATOM     22  C   UNL d   1      -1.242  -5.432   0.202  0.00  0.00     0.024 A 
ATOM     23  C   UNL d   1      -0.205  -4.899   0.965  0.00  0.00     0.004 A 
ATOM     24  C   UNL d   1       0.088  -3.533   0.893  0.00  0.00     0.030 A 
ENDBRANCH   1  18
BRANCH   2  25
ATOM     25  C   UNL d   1       2.300  -1.397   0.071  0.00  0.00     0.055 A 
ATOM     26  C   UNL d   1       3.398  -0.775   0.913  0.00  0.00     0.013 A 
ATOM     27  C   UNL d   1       3.463  -0.667  -0.571  0.00  0.00     0.013 A 
ENDBRANCH   2  25
TORSDOF 5
