REMARK  3 active torsions:
REMARK  status: ('A' for Active; 'I' for Inactive)
REMARK    1  A    between atoms: C_5  and  C_1 
REMARK    2  A    between atoms: C_8  and  C_2 
REMARK       I    between atoms: N_12  and  C_8 
REMARK    3  A    between atoms: C_19  and  N_12 
ROOT
ATOM      1  C   UNL d   1      -1.286  -0.870   0.204  0.00  0.00     0.086 A 
ATOM      2  C   UNL d   1       0.043  -1.327  -0.082  0.00  0.00     0.092 A 
ATOM      3  N   UNL d   1      -1.252   0.413   0.602  0.00  0.00    -0.259 N 
ATOM      4  HN  UNL d   1      -2.044   0.974   0.915  1.00  0.00     0.195 HD
ATOM      5  O   UNL d   1       0.055   0.823   0.505  0.00  0.00    -0.241 OA
ATOM      6  C   UNL d   1       0.834  -0.210   0.102  0.00  0.00     0.090 A 
ATOM      7  C   UNL d   1       2.264   0.114  -0.065  0.00  0.00     0.080 C 
ENDROOT
BRANCH   1   8
ATOM      8  C   UNL d   1      -2.565  -1.594   0.175  0.00  0.00     0.037 A 
ATOM      9  C   UNL d   1      -2.743  -2.814   0.862  0.00  0.00     0.048 A 
ATOM     10 CL   UNL d   1      -1.530  -3.520   1.881  0.00  0.00    -0.083 Cl
ATOM     11  C   UNL d   1      -3.968  -3.497   0.820  0.00  0.00     0.025 A 
ATOM     12  C   UNL d   1      -5.058  -2.955   0.148  0.00  0.00     0.003 A 
ATOM     13  C   UNL d   1      -4.919  -1.734  -0.502  0.00  0.00     0.025 A 
ATOM     14  C   UNL d   1      -3.684  -1.068  -0.508  0.00  0.00     0.048 A 
ATOM     15 CL   UNL d   1      -3.638   0.412  -1.415  0.00  0.00    -0.083 Cl
ENDBRANCH   1   8
BRANCH   2  16
ATOM     16  C   UNL d   1       0.473  -2.649  -0.489  0.00  0.00     0.256 C 
ATOM     17  O   UNL d   1      -0.164  -3.328  -1.282  0.00  0.00    -0.267 OA
ATOM     18  N   UNL d   1       1.606  -3.097   0.166  0.00  0.00    -0.357 N 
ATOM     19  H   UNL d   1       1.905  -2.567   0.976  0.00  0.00     0.162 HD
BRANCH  18  20
ATOM     20  C   UNL d   1       2.001  -4.490   0.127  0.00  0.00     0.118 C 
ATOM     21  C   UNL d   1       3.510  -4.636   0.181  0.00  0.00     0.026 C 
ENDBRANCH  18  20
ENDBRANCH   2  16
TORSDOF 3
