REMARK  9 active torsions:
REMARK  status: ('A' for Active; 'I' for Inactive)
REMARK    1  A    between atoms: C_3  and  C_1 
REMARK    2  A    between atoms: N_2  and  C_4 
REMARK    3  A    between atoms: C_10  and  N_7 
REMARK    4  A    between atoms: C_8  and  C_10 
REMARK    5  A    between atoms: C_11  and  C_8 
REMARK    6  A    between atoms: C_27  and  C_26 
REMARK    7  A    between atoms: C_28  and  C_27 
REMARK    8  A    between atoms: C_30  and  C_28 
REMARK    9  A    between atoms: C_29  and  C_30 
ROOT
ATOM      1  N   UNL d   1       2.317  -6.154  -5.700  0.00  0.00    -0.364 N 
ATOM      2  N   UNL d   1      -0.221  -6.768  -4.228  0.00  0.00     0.099 N 
ATOM      3  C   UNL d   1       1.145  -5.280  -5.839  0.00  0.00     0.154 C 
ATOM      4  C   UNL d   1       1.998  -7.539  -5.323  0.00  0.00     0.154 C 
ATOM      5  C   UNL d   1       0.180  -5.393  -4.633  0.00  0.00     0.292 C 
ATOM      6  C   UNL d   1       1.000  -7.604  -4.137  0.00  0.00     0.292 C 
ENDROOT
BRANCH   2   7
ATOM      7  C   UNL d   1      -1.252  -7.313  -5.132  0.00  0.00     0.356 C 
BRANCH   7   8
ATOM      8  C   UNL d   1      -1.761  -8.695  -4.708  0.00  0.00     0.187 C 
ATOM      9  O   UNL d   1      -1.472  -9.690  -5.379  0.00  0.00    -0.290 OA
BRANCH   8  10
ATOM     10  C   UNL d   1      -2.661  -8.864  -3.516  0.00  0.00     0.011 A 
ATOM     11  C   UNL d   1      -2.883  -7.863  -2.569  0.00  0.00     0.016 A 
ATOM     12  C   UNL d   1      -3.739  -8.093  -1.476  0.00  0.00     0.008 A 
ATOM     13  C   UNL d   1      -4.392  -9.325  -1.315  0.00  0.00    -0.058 A 
ATOM     14  C   UNL d   1      -4.167 -10.326  -2.264  0.00  0.00     0.008 A 
ATOM     15  C   UNL d   1      -3.307 -10.101  -3.348  0.00  0.00     0.016 A 
BRANCH  13  16
ATOM     16  C   UNL d   1      -5.320  -9.571  -0.143  0.00  0.00     0.038 C 
BRANCH  16  17
ATOM     17  C   UNL d   1      -4.763 -10.610   0.840  0.00  0.00     0.005 C 
BRANCH  17  18
ATOM     18  C   UNL d   1      -5.665 -10.805   2.064  0.00  0.00    -0.000 C 
BRANCH  18  19
ATOM     19  C   UNL d   1      -5.069 -11.849   3.014  0.00  0.00    -0.005 C 
ATOM     20  C   UNL d   1      -5.933 -12.067   4.246  0.00  0.00     0.005 C 
ENDBRANCH  18  19
ENDBRANCH  17  18
ENDBRANCH  16  17
ENDBRANCH  13  16
ENDBRANCH   8  10
ENDBRANCH   7   8
ENDBRANCH   2   7
BRANCH   1  21
ATOM     21  C   UNL d   1       3.514  -5.585  -5.281  0.00  0.00     0.103 A 
ATOM     22  C   UNL d   1       4.725  -6.248  -5.509  0.00  0.00     0.049 A 
ATOM     23  C   UNL d   1       5.942  -5.640  -5.198  0.00  0.00     0.021 A 
ATOM     24  C   UNL d   1       5.952  -4.361  -4.646  0.00  0.00     0.063 A 
ATOM     25  C   UNL d   1       4.720  -3.768  -4.436  0.00  0.00     0.106 A 
ATOM     26  N   UNL d   1       3.525  -4.344  -4.746  0.00  0.00    -0.352 N 
ATOM     27  HN  UNL d   1       2.651  -3.846  -4.576  1.00  0.00     0.166 HD
BRANCH  24  28
ATOM     28  C   UNL d   1       7.231  -3.652  -4.318  0.00  0.00     0.418 C 
ATOM     29  F   UNL d   1       7.048  -2.408  -3.794  0.00  0.00    -0.166 F 
ATOM     30  F   UNL d   1       8.028  -3.482  -5.407  0.00  0.00    -0.166 F 
ATOM     31  F   UNL d   1       7.985  -4.330  -3.408  0.00  0.00    -0.166 F 
ENDBRANCH  24  28
ENDBRANCH   1  21
TORSDOF 9
