REMARK  5 active torsions:
REMARK  status: ('A' for Active; 'I' for Inactive)
REMARK    1  A    between atoms: C_10  and  C_3 
REMARK    2  A    between atoms: C_12  and  C_4 
REMARK    3  A    between atoms: C_8  and  C_11 
REMARK    4  A    between atoms: C_9  and  O_13 
REMARK    5  A    between atoms: O_13  and  C_26 
ROOT
ATOM      1  N   UNL d   1       1.270   0.172  -0.021  0.00  0.00    -0.319 N 
ATOM      2  HN  UNL d   1       2.279   0.322  -0.008  1.00  0.00     0.169 HD
ATOM      3  C   UNL d   1       0.260   1.108  -0.037  0.00  0.00     0.138 A 
ATOM      4  C   UNL d   1       0.609  -0.963  -0.026  0.00  0.00     0.182 A 
ATOM      5  N   UNL d   1      -0.974   0.583  -0.053  0.00  0.00    -0.242 N 
ATOM      6  HN  UNL d   1      -1.869   1.073  -0.068  1.00  0.00     0.196 HD
ATOM      7  O   UNL d   1      -0.743  -0.792  -0.045  0.00  0.00    -0.217 OA
ENDROOT
BRANCH   4   8
ATOM      8  C   UNL d   1       1.116  -2.328   0.019  0.00  0.00     0.017 A 
ATOM      9  C   UNL d   1       2.498  -2.549   0.119  0.00  0.00     0.018 A 
ATOM     10  C   UNL d   1       3.022  -3.845   0.200  0.00  0.00     0.038 A 
ATOM     11  C   UNL d   1       2.165  -4.942   0.217  0.00  0.00     0.078 A 
ATOM     12  C   UNL d   1       0.791  -4.733   0.067  0.00  0.00     0.038 A 
ATOM     13  C   UNL d   1       0.268  -3.440  -0.026  0.00  0.00     0.018 A 
BRANCH  11  14
ATOM     14  O   UNL d   1       2.526  -6.249   0.332  0.00  0.00    -0.255 OA
BRANCH  14  15
ATOM     15  C   UNL d   1       3.720  -6.591   1.022  0.00  0.00     0.530 C 
ATOM     16  F   UNL d   1       4.234  -5.590   1.767  0.00  0.00    -0.144 F 
ATOM     17  F   UNL d   1       3.446  -7.622   1.856  0.00  0.00    -0.144 F 
ATOM     18  F   UNL d   1       4.650  -7.002   0.135  0.00  0.00    -0.144 F 
ENDBRANCH  14  15
ENDBRANCH  11  14
ENDBRANCH   4   8
BRANCH   3  19
ATOM     19  C   UNL d   1       0.540   2.543  -0.037  0.00  0.00     0.010 A 
ATOM     20  C   UNL d   1       1.861   3.006  -0.079  0.00  0.00     0.016 A 
ATOM     21  C   UNL d   1       2.138   4.376  -0.085  0.00  0.00     0.017 A 
ATOM     22  C   UNL d   1       1.094   5.315  -0.045  0.00  0.00     0.048 A 
ATOM     23  C   UNL d   1      -0.228   4.850   0.001  0.00  0.00     0.017 A 
ATOM     24  C   UNL d   1      -0.503   3.480   0.005  0.00  0.00     0.016 A 
BRANCH  22  25
ATOM     25  C   UNL d   1       1.405   6.790  -0.052  0.00  0.00     0.417 C 
ATOM     26  F   UNL d   1       0.297   7.582  -0.009  0.00  0.00    -0.166 F 
ATOM     27  F   UNL d   1       2.174   7.166   1.008  0.00  0.00    -0.166 F 
ATOM     28  F   UNL d   1       2.092   7.171  -1.165  0.00  0.00    -0.166 F 
ENDBRANCH  22  25
ENDBRANCH   3  19
TORSDOF 5
