REMARK  3 active torsions:
REMARK  status: ('A' for Active; 'I' for Inactive)
REMARK    1  A    between atoms: C_5  and  N_1 
REMARK    2  A    between atoms: C_10  and  C_4 
REMARK       I    between atoms: N_15  and  C_10 
REMARK    3  A    between atoms: N_18  and  N_15 
ROOT
ATOM      1  N   UNL d   1       0.872  -0.681  -0.076  0.00  0.00    -0.257 N 
ATOM      2  N   UNL d   1       0.923   0.677  -0.114  0.00  0.00    -0.288 N 
ATOM      3  HN  UNL d   1       1.760   1.259  -0.160  1.00  0.00     0.188 HD
ATOM      4  C   UNL d   1      -0.352   1.099  -0.076  0.00  0.00     0.119 A 
ATOM      5  C   UNL d   1      -0.444  -1.122   0.040  0.00  0.00     0.033 A 
ATOM      6  C   UNL d   1      -1.237   0.005  -0.018  0.00  0.00     0.063 A 
ATOM      7  C   UNL d   1      -0.898  -2.518   0.285  0.00  0.00     0.070 C 
ENDROOT
BRANCH   1   8
ATOM      8  C   UNL d   1       2.088  -1.419  -0.140  0.00  0.00     0.100 A 
ATOM      9  C   UNL d   1       3.222  -0.987   0.586  0.00  0.00     0.066 A 
ATOM     10  C   UNL d   1       4.425  -1.706   0.527  0.00  0.00     0.050 A 
ATOM     11 CL   UNL d   1       3.239   0.360   1.681  0.00  0.00    -0.082 Cl
ATOM     12  C   UNL d   1       4.508  -2.865  -0.229  0.00  0.00     0.037 A 
ATOM     13  C   UNL d   1       3.413  -3.297  -0.966  0.00  0.00     0.050 A 
ATOM     14 CL   UNL d   1       5.978  -3.756  -0.276  0.00  0.00    -0.084 Cl
ATOM     15  C   UNL d   1       2.219  -2.560  -0.954  0.00  0.00     0.066 A 
ATOM     16 CL   UNL d   1       1.056  -3.048  -2.141  0.00  0.00    -0.082 Cl
ENDBRANCH   1   8
BRANCH   4  17
ATOM     17  C   UNL d   1      -0.705   2.524  -0.069  0.00  0.00     0.283 C 
ATOM     18  O   UNL d   1      -1.865   2.933  -0.137  0.00  0.00    -0.265 OA
ATOM     19  N   UNL d   1       0.395   3.368   0.044  0.00  0.00    -0.288 N 
ATOM     20  H   UNL d   1       1.303   2.928   0.210  0.00  0.00     0.183 HD
BRANCH  19  21
ATOM     21  N   UNL d   1       0.229   4.767   0.172  0.00  0.00    -0.247 NA
ATOM     22  H   UNL d   1      -0.776   4.939   0.315  0.00  0.00     0.143 HD
ATOM     23  H   UNL d   1       0.428   5.186  -0.739  0.00  0.00     0.143 HD
ENDBRANCH  19  21
ENDBRANCH   4  17
TORSDOF 3
