REMARK  5 active torsions:
REMARK  status: ('A' for Active; 'I' for Inactive)
REMARK    1  A    between atoms: C_4  and  C_1 
REMARK    2  A    between atoms: O_7  and  C_1 
REMARK    3  A    between atoms: N_2  and  C_4 
REMARK    4  A    between atoms: C_5  and  N_2 
REMARK    5  A    between atoms: C_13  and  O_7 
ROOT
ATOM      1  N   UNL d   1      -1.149  -0.193   1.044  0.00  0.00    -0.284 NA
ATOM      2  H   UNL d   1      -1.416  -0.470   0.099  0.00  0.00     0.128 HD
ENDROOT
BRANCH   1   3
ATOM      3  C   UNL d   1       0.306  -0.264   1.232  0.00  0.00     0.203 C 
BRANCH   3   4
ATOM      4  C   UNL d   1       1.063   0.136  -0.029  0.00  0.00     0.272 C 
ATOM      5  O   UNL d   1       0.626   0.043  -1.169  0.00  0.00    -0.264 OA
BRANCH   4   6
ATOM      6  O   UNL d   1       2.340   0.477   0.318  0.00  0.00    -0.321 OA
BRANCH   6   7
ATOM      7  C   UNL d   1       3.284   0.538  -0.756  0.00  0.00     0.174 C 
ATOM      8  C   UNL d   1       3.884  -0.845  -0.935  0.00  0.00     0.034 C 
ENDBRANCH   6   7
ENDBRANCH   4   6
ENDBRANCH   3   4
ENDBRANCH   1   3
BRANCH   1   9
ATOM      9  C   UNL d   1      -1.940  -0.792   2.033  0.00  0.00     0.008 A 
ATOM     10  C   UNL d   1      -1.572  -0.814   3.388  0.00  0.00     0.025 A 
ATOM     11  C   UNL d   1      -2.409  -1.375   4.361  0.00  0.00     0.020 A 
ATOM     12  C   UNL d   1      -3.642  -1.897   3.987  0.00  0.00     0.006 A 
ATOM     13  C   UNL d   1      -4.052  -1.841   2.657  0.00  0.00     0.020 A 
ATOM     14  I   UNL d   1      -4.884  -2.739   5.422  0.00  0.00    -0.045 I 
ATOM     15  C   UNL d   1      -3.208  -1.275   1.694  0.00  0.00     0.025 A 
ENDBRANCH   1   9
TORSDOF 5
