REMARK  5 active torsions:
REMARK  status: ('A' for Active; 'I' for Inactive)
REMARK    1  A    between atoms: C_3  and  C_1 
REMARK    2  A    between atoms: C_4  and  C_2 
REMARK    3  A    between atoms: O_10  and  C_2 
REMARK    4  A    between atoms: C_5  and  C_3 
REMARK    5  A    between atoms: O_12  and  C_4 
ROOT
ATOM      1  C   UNL d   1       0.290  -1.122  -0.439  0.00  0.00     0.184 C 
ATOM      2  O   UNL d   1      -0.934  -1.175  -0.511  0.00  0.00    -0.287 OA
ENDROOT
BRANCH   1   3
ATOM      3  C   UNL d   1       0.975   0.135  -0.052  0.00  0.00     0.098 C 
ATOM      4  C   UNL d   1       0.304   1.128   0.556  0.00  0.00     0.145 C 
BRANCH   4   5
ATOM      5  C   UNL d   1       1.091   2.348   0.927  0.00  0.00     0.316 C 
ATOM      6  O   UNL d   1       2.289   2.485   0.712  0.00  0.00    -0.257 OA
BRANCH   5   7
ATOM      7  O   UNL d   1       0.282   3.254   1.531  0.00  0.00    -0.321 OA
ATOM      8  C   UNL d   1       0.934   4.462   1.917  0.00  0.00     0.213 C 
ENDBRANCH   5   7
ENDBRANCH   4   5
BRANCH   4   9
ATOM      9  O   UNL d   1      -1.047   1.067   0.864  0.00  0.00    -0.355 OA
ATOM     10  H   UNL d   1      -1.411   0.246   0.466  0.00  0.00     0.218 HD
ENDBRANCH   4   9
ENDBRANCH   1   3
BRANCH   1  11
ATOM     11  C   UNL d   1       1.125  -2.313  -0.736  0.00  0.00     0.014 A 
ATOM     12  C   UNL d   1       2.333  -2.547  -0.064  0.00  0.00     0.017 A 
ATOM     13  C   UNL d   1       3.073  -3.700  -0.338  0.00  0.00     0.025 A 
ATOM     14  C   UNL d   1       2.606  -4.620  -1.276  0.00  0.00     0.034 A 
ATOM     15  C   UNL d   1       1.400  -4.401  -1.940  0.00  0.00     0.025 A 
ATOM     16 CL   UNL d   1       3.520  -6.040  -1.603  0.00  0.00    -0.084 Cl
ATOM     17  C   UNL d   1       0.654  -3.250  -1.665  0.00  0.00     0.017 A 
ENDBRANCH   1  11
TORSDOF 5
