REMARK  2 active torsions:
REMARK  status: ('A' for Active; 'I' for Inactive)
REMARK    1  A    between atoms: N_2  and  C_1 
REMARK    2  A    between atoms: C_10  and  C_3 
ROOT
ATOM      1  C   UNL d   1       2.268  -0.850  -0.039  0.00  0.00     0.115 C 
ATOM      2  C   UNL d   1       2.267   0.597  -0.425  0.00  0.00     0.218 C 
ATOM      3  C   UNL d   1       1.173  -1.539   0.312  0.00  0.00     0.049 C 
ATOM      4  O   UNL d   1       1.117   1.318   0.106  0.00  0.00    -0.334 OA
ATOM      5  C   UNL d   1      -0.053   0.604   0.176  0.00  0.00     0.080 A 
ATOM      6  C   UNL d   1      -0.083  -0.796   0.258  0.00  0.00    -0.001 A 
ATOM      7  C   UNL d   1      -1.234   1.341   0.131  0.00  0.00     0.037 A 
ATOM      8  C   UNL d   1      -1.315  -1.454   0.257  0.00  0.00     0.014 A 
ATOM      9  C   UNL d   1      -2.459   0.677   0.113  0.00  0.00     0.003 A 
ATOM     10  C   UNL d   1      -2.499  -0.717   0.169  0.00  0.00     0.001 A 
ENDROOT
BRANCH   2  11
ATOM     11  C   UNL d   1       2.325   0.849  -1.932  0.00  0.00    -0.023 A 
ATOM     12  C   UNL d   1       1.331   0.369  -2.807  0.00  0.00     0.010 A 
ATOM     13  C   UNL d   1       1.373   0.652  -4.171  0.00  0.00     0.001 A 
ATOM     14  C   UNL d   1       2.414   1.414  -4.691  0.00  0.00     0.000 A 
ATOM     15  C   UNL d   1       3.416   1.887  -3.844  0.00  0.00     0.001 A 
ATOM     16  C   UNL d   1       3.373   1.608  -2.476  0.00  0.00     0.010 A 
ENDBRANCH   2  11
BRANCH   1  17
ATOM     17  N   UNL d   1       3.559  -1.507   0.006  0.00  0.00    -0.117 N 
ATOM     18  O   UNL d   1       4.560  -0.820  -0.233  0.00  0.00    -0.532 OA
ATOM     19  O   UNL d   1       3.592  -2.712   0.296  0.00  0.00    -0.532 OA
ENDBRANCH   1  17
TORSDOF 2
