REMARK  5 active torsions:
REMARK  status: ('A' for Active; 'I' for Inactive)
REMARK    1  A    between atoms: N_4  and  C_1 
REMARK    2  A    between atoms: O_11  and  C_2 
REMARK    3  A    between atoms: C_3  and  C_5 
REMARK    4  A    between atoms: N_8  and  N_4 
REMARK       I    between atoms: C_5  and  N_8 
REMARK    5  A    between atoms: C_18  and  O_11 
ROOT
ATOM      1  C   UNL d   1       0.401   4.668  -0.345  0.00  0.00     0.270 C 
ATOM      2  N   UNL d   1      -0.678   5.325   0.222  0.00  0.00    -0.282 N 
ATOM      3  O   UNL d   1       0.291   3.593  -0.932  0.00  0.00    -0.266 OA
ATOM      4  H   UNL d   1      -0.613   6.224   0.694  0.00  0.00     0.184 HD
ENDROOT
BRANCH   1   5
ATOM      5  C   UNL d   1       1.730   5.328  -0.266  0.00  0.00     0.084 A 
ATOM      6  C   UNL d   1       2.069   6.360   0.610  0.00  0.00     0.164 A 
ATOM      7  N   UNL d   1       3.293   6.949   0.631  0.00  0.00    -0.346 N 
ATOM      8  C   UNL d   1       4.233   6.475  -0.210  0.00  0.00     0.090 A 
ATOM      9  HN  UNL d   1       3.494   7.725   1.263  1.00  0.00     0.167 HD
ATOM     10  C   UNL d   1       4.006   5.441  -1.099  0.00  0.00     0.018 A 
ATOM     11  C   UNL d   1       2.738   4.867  -1.127  0.00  0.00     0.023 A 
BRANCH   6  12
ATOM     12  O   UNL d   1       1.108   6.840   1.491  0.00  0.00    -0.293 OA
BRANCH  12  13
ATOM     13  C   UNL d   1       1.560   7.392   2.669  0.00  0.00     0.077 A 
ATOM     14  C   UNL d   1       1.056   8.641   3.029  0.00  0.00     0.037 A 
ATOM     15  C   UNL d   1       1.470   9.238   4.222  0.00  0.00     0.003 A 
ATOM     16  C   UNL d   1       2.371   8.577   5.058  0.00  0.00     0.000 A 
ATOM     17  C   UNL d   1       2.850   7.314   4.712  0.00  0.00     0.003 A 
ATOM     18  C   UNL d   1       2.434   6.713   3.523  0.00  0.00     0.037 A 
ENDBRANCH  12  13
ENDBRANCH   6  12
ENDBRANCH   1   5
BRANCH   2  19
ATOM     19  N   UNL d   1      -1.972   4.786   0.092  0.00  0.00    -0.200 NA
ATOM     20  H   UNL d   1      -1.963   3.791   0.358  0.00  0.00     0.153 HD
BRANCH  19  21
ATOM     21  C   UNL d   1      -2.528   4.885  -1.227  0.00  0.00     0.071 A 
ATOM     22  C   UNL d   1      -3.329   3.815  -1.696  0.00  0.00     0.060 A 
ATOM     23  C   UNL d   1      -3.913   3.829  -2.964  0.00  0.00     0.049 A 
ATOM     24 CL   UNL d   1      -3.605   2.417  -0.706  0.00  0.00    -0.082 Cl
ATOM     25  C   UNL d   1      -3.726   4.931  -3.786  0.00  0.00     0.037 A 
ATOM     26  C   UNL d   1      -2.995   6.027  -3.340  0.00  0.00     0.049 A 
ATOM     27 CL   UNL d   1      -4.423   4.952  -5.359  0.00  0.00    -0.084 Cl
ATOM     28  C   UNL d   1      -2.421   6.019  -2.062  0.00  0.00     0.060 A 
ATOM     29 CL   UNL d   1      -1.623   7.483  -1.582  0.00  0.00    -0.082 Cl
ENDBRANCH  19  21
ENDBRANCH   2  19
TORSDOF 5
