REMARK  4 active torsions:
REMARK  status: ('A' for Active; 'I' for Inactive)
REMARK       I    between atoms: C_2  and  N_1 
REMARK    1  A    between atoms: O_5  and  C_2 
REMARK    2  A    between atoms: C_3  and  C_4 
REMARK    3  A    between atoms: O_12  and  C_4 
REMARK    4  A    between atoms: C_10  and  O_5 
ROOT
ATOM      1  N   UNL d   1      -1.347  -0.471  -0.065  0.00  0.00    -0.304 N 
ATOM      2  C   UNL d   1      -2.178  -1.361   0.580  0.00  0.00     0.365 C 
ATOM      3  C   UNL d   1      -0.166  -0.939  -0.806  0.00  0.00     0.197 C 
ATOM      4  C   UNL d   1      -1.665   0.927  -0.225  0.00  0.00     0.203 C 
ATOM      5  S   UNL d   1      -0.981   1.443  -1.803  0.00  0.00    -0.146 SA
ATOM      6  O   UNL d   1      -1.904  -2.546   0.717  0.00  0.00    -0.238 OA
ATOM      7  C   UNL d   1       0.129   0.020  -1.964  0.00  0.00     0.112 C 
ENDROOT
BRANCH   2   8
ATOM      8  O   UNL d   1      -3.276  -0.753   1.082  0.00  0.00    -0.294 OA
BRANCH   8   9
ATOM      9  C   UNL d   1      -4.281  -1.473   1.847  0.00  0.00     0.061 C 
ATOM     10  C   UNL d   1      -3.676  -2.077   3.118  0.00  0.00     0.046 C 
ATOM     11  C   UNL d   1      -5.302  -0.393   2.239  0.00  0.00     0.046 C 
ATOM     12  C   UNL d   1      -4.985  -2.530   0.992  0.00  0.00     0.046 C 
ENDBRANCH   8   9
ENDBRANCH   2   8
BRANCH   3  13
ATOM     13  C   UNL d   1       1.101  -1.083   0.042  0.00  0.00     0.164 C 
ATOM     14  O   UNL d   1       2.185  -1.422  -0.416  0.00  0.00    -0.648 OA
BRANCH  13  15
ATOM     15  O   UNL d   1       0.944  -0.779   1.351  0.00  0.00    -0.775 OA
ATOM     16  H   UNL d   1       0.011  -0.590   1.563  0.00  0.00     0.167 HD
ENDBRANCH  13  15
ENDBRANCH   3  13
TORSDOF 4
