REMARK  11 active torsions:
REMARK  status: ('A' for Active; 'I' for Inactive)
REMARK    1  A    between atoms: C_1  and  O_7 
REMARK    2  A    between atoms: C_2  and  O_8 
REMARK    3  A    between atoms: O_10  and  C_3 
REMARK    4  A    between atoms: C_4  and  O_9 
REMARK    5  A    between atoms: C_6  and  C_15 
REMARK    6  A    between atoms: C_12  and  O_7 
REMARK    7  A    between atoms: C_11  and  O_8 
REMARK    8  A    between atoms: C_13  and  O_9 
REMARK    9  A    between atoms: C_16  and  O_10 
REMARK   10  A    between atoms: C_14  and  O_17 
REMARK   11  A    between atoms: O_17  and  C_15 
ROOT
ATOM      1  C   UNL d   1       0.748  -1.296  -0.450  0.00  0.00     0.219 C 
ATOM      2  C   UNL d   1       1.640  -0.074  -0.149  0.00  0.00     0.198 C 
ATOM      3  C   UNL d   1      -0.640  -1.109   0.236  0.00  0.00     0.293 C 
ATOM      4  C   UNL d   1       0.927   1.266  -0.443  0.00  0.00     0.195 C 
ATOM      5  O   UNL d   1      -1.214   0.108  -0.237  0.00  0.00    -0.348 OA
ATOM      6  C   UNL d   1      -0.472   1.268   0.175  0.00  0.00     0.181 C 
ENDROOT
BRANCH   3   7
ATOM      7  O   UNL d   1      -0.553  -1.118   1.666  0.00  0.00    -0.349 OA
BRANCH   7   8
ATOM      8  C   UNL d   1      -1.778  -1.150   2.434  0.00  0.00     0.053 C 
ATOM      9  C   UNL d   1      -2.591  -2.424   2.179  0.00  0.00     0.045 C 
ATOM     10  C   UNL d   1      -1.318  -1.136   3.902  0.00  0.00     0.045 C 
ATOM     11  C   UNL d   1      -2.690   0.071   2.238  0.00  0.00     0.045 C 
ENDBRANCH   7   8
ENDBRANCH   3   7
BRANCH   1  12
ATOM     12  O   UNL d   1       1.370  -2.522   0.007  0.00  0.00    -0.308 OA
BRANCH  12  13
ATOM     13  C   UNL d   1       2.135  -3.198  -0.901  0.00  0.00     0.255 C 
ATOM     14  O   UNL d   1       2.362  -2.845  -2.047  0.00  0.00    -0.266 OA
ATOM     15  C   UNL d   1       2.696  -4.453  -0.306  0.00  0.00     0.126 C 
ENDBRANCH  12  13
ENDBRANCH   1  12
BRANCH   2  16
ATOM     16  O   UNL d   1       2.942  -0.121  -0.802  0.00  0.00    -0.311 OA
BRANCH  16  17
ATOM     17  C   UNL d   1       3.000  -0.015  -2.160  0.00  0.00     0.255 C 
ATOM     18  O   UNL d   1       2.036   0.041  -2.909  0.00  0.00    -0.266 OA
ATOM     19  C   UNL d   1       4.425   0.114  -2.601  0.00  0.00     0.126 C 
ENDBRANCH  16  17
ENDBRANCH   2  16
BRANCH   6  20
ATOM     20  C   UNL d   1      -1.302   2.495  -0.228  0.00  0.00     0.213 C 
BRANCH  20  21
ATOM     21  O   UNL d   1      -0.713   3.736   0.185  0.00  0.00    -0.319 OA
BRANCH  21  22
ATOM     22  C   UNL d   1      -0.926   4.095   1.479  0.00  0.00     0.254 C 
ATOM     23  O   UNL d   1      -1.558   3.451   2.302  0.00  0.00    -0.266 OA
ATOM     24  C   UNL d   1      -0.231   5.386   1.784  0.00  0.00     0.126 C 
ENDBRANCH  21  22
ENDBRANCH  20  21
ENDBRANCH   6  20
BRANCH   4  25
ATOM     25  O   UNL d   1       1.715   2.333   0.138  0.00  0.00    -0.311 OA
BRANCH  25  26
ATOM     26  C   UNL d   1       2.265   3.230  -0.722  0.00  0.00     0.255 C 
ATOM     27  O   UNL d   1       2.171   3.206  -1.940  0.00  0.00    -0.266 OA
ATOM     28  C   UNL d   1       2.983   4.309   0.028  0.00  0.00     0.126 C 
ENDBRANCH  25  26
ENDBRANCH   4  25
TORSDOF 11
