REMARK  7 active torsions:
REMARK  status: ('A' for Active; 'I' for Inactive)
REMARK    1  A    between atoms: C_5  and  C_1 
REMARK    2  A    between atoms: C_7  and  C_2 
REMARK       I    between atoms: N_10  and  C_7 
REMARK       I    between atoms: C_9  and  N_13 
REMARK    3  A    between atoms: C_17  and  C_9 
REMARK    4  A    between atoms: N_13  and  N_10 
REMARK    5  A    between atoms: C_12  and  C_23 
REMARK    6  A    between atoms: O_25  and  C_17 
REMARK    7  A    between atoms: N_18  and  O_25 
ROOT
ATOM      1  C   UNL d   1       0.586  -2.939  -0.431  0.00  0.00     0.275 C 
ATOM      2  N   UNL d   1      -0.506  -3.673   0.010  0.00  0.00    -0.263 N 
ATOM      3  O   UNL d   1       0.542  -2.267  -1.457  0.00  0.00    -0.266 OA
ATOM      4  H   UNL d   1      -0.400  -4.418   0.685  0.00  0.00     0.190 HD
ENDROOT
BRANCH   2   5
ATOM      5  N   UNL d   1      -1.687  -3.706  -0.744  0.00  0.00    -0.265 N 
ATOM      6  C   UNL d   1      -2.731  -2.828  -0.575  0.00  0.00     0.262 C 
ATOM      7  O   UNL d   1      -3.828  -3.112  -1.062  0.00  0.00    -0.269 OA
ATOM      8  H   UNL d   1      -1.881  -4.533  -1.300  0.00  0.00     0.190 HD
BRANCH   6   9
ATOM      9  C   UNL d   1      -2.501  -1.528   0.184  0.00  0.00     0.305 C 
BRANCH   9  10
ATOM     10  O   UNL d   1      -2.269  -0.516  -0.789  0.00  0.00    -0.272 OA
BRANCH  10  11
ATOM     11  N   UNL d   1      -1.866   0.662  -0.141  0.00  0.00    -0.277 N 
ATOM     12  C   UNL d   1      -1.413   1.482  -1.038  0.00  0.00     0.127 C 
ATOM     13  HN  UNL d   1      -1.920   0.841   0.862  1.00  0.00     0.193 HD
BRANCH  12  14
ATOM     14  C   UNL d   1      -0.838   2.797  -0.676  0.00  0.00     0.003 A 
ATOM     15  C   UNL d   1      -0.271   3.644  -1.638  0.00  0.00     0.047 A 
ATOM     16  C   UNL d   1       0.339   4.842  -1.246  0.00  0.00     0.048 A 
ATOM     17 CL   UNL d   1      -0.250   3.272  -3.326  0.00  0.00    -0.083 Cl
ATOM     18  C   UNL d   1       0.379   5.192   0.102  0.00  0.00     0.035 A 
ATOM     19  C   UNL d   1      -0.195   4.367   1.064  0.00  0.00     0.025 A 
ATOM     20 CL   UNL d   1       1.155   6.650   0.581  0.00  0.00    -0.084 Cl
ATOM     21  C   UNL d   1      -0.806   3.172   0.676  0.00  0.00     0.016 A 
ENDBRANCH  12  14
ENDBRANCH  10  11
ENDBRANCH   9  10
ENDBRANCH   6   9
ENDBRANCH   2   5
BRANCH   1  22
ATOM     22  C   UNL d   1       1.786  -3.000   0.395  0.00  0.00     0.094 A 
ATOM     23  C   UNL d   1       2.990  -2.236   0.193  0.00  0.00     0.086 A 
ATOM     24  N   UNL d   1       3.909  -2.519   1.123  0.00  0.00    -0.259 N 
ATOM     25  O   UNL d   1       3.336  -3.447   1.952  0.00  0.00    -0.241 OA
ATOM     26  HN  UNL d   1       4.846  -2.123   1.200  1.00  0.00     0.195 HD
ATOM     27  C   UNL d   1       2.067  -3.722   1.545  0.00  0.00     0.090 A 
ATOM     28  C   UNL d   1       1.372  -4.687   2.423  0.00  0.00     0.080 C 
BRANCH  23  29
ATOM     29  C   UNL d   1       3.261  -1.211  -0.813  0.00  0.00     0.037 A 
ATOM     30  C   UNL d   1       2.619   0.038  -0.744  0.00  0.00     0.048 A 
ATOM     31 CL   UNL d   1       1.599   0.468   0.590  0.00  0.00    -0.083 Cl
ATOM     32  C   UNL d   1       2.817   1.003  -1.735  0.00  0.00     0.025 A 
ATOM     33  C   UNL d   1       3.693   0.753  -2.791  0.00  0.00     0.003 A 
ATOM     34  C   UNL d   1       4.378  -0.456  -2.846  0.00  0.00     0.025 A 
ATOM     35  C   UNL d   1       4.162  -1.439  -1.869  0.00  0.00     0.048 A 
ATOM     36 CL   UNL d   1       5.041  -2.922  -2.035  0.00  0.00    -0.083 Cl
ENDBRANCH  23  29
ENDBRANCH   1  22
TORSDOF 7
