REMARK  1 active torsions:
REMARK  status: ('A' for Active; 'I' for Inactive)
REMARK    1  A    between atoms: N_7  and  N_9 
ROOT
ATOM      1  C   UNL d   1       5.556   1.257   0.003  0.00  0.00     0.246 A 
ATOM      2  N   UNL d   1       6.369   0.143   0.002  0.00  0.00    -0.313 N 
ATOM      3  O   UNL d   1       6.319   2.445   0.004  0.00  0.00    -0.276 OA
ATOM      4  N   UNL d   1       4.256   1.258   0.003  0.00  0.00    -0.262 N 
ATOM      5  HN  UNL d   1       3.698   0.404   0.002  1.00  0.00     0.190 HD
ATOM      6  C   UNL d   1       7.665   0.578   0.003  0.00  0.00     0.071 A 
ATOM      7  C   UNL d   1       7.628   1.966   0.004  0.00  0.00     0.106 A 
ATOM      8  C   UNL d   1       5.956  -1.231   0.003  0.00  0.00     0.160 C 
ATOM      9  C   UNL d   1       8.870  -0.091   0.003  0.00  0.00     0.033 A 
ATOM     10  C   UNL d   1       8.768   2.743   0.005  0.00  0.00     0.040 A 
ATOM     11  C   UNL d   1      10.046   0.669   0.004  0.00  0.00     0.002 A 
ATOM     12  C   UNL d   1       9.996   2.076   0.005  0.00  0.00     0.003 A 
ENDROOT
BRANCH   4  13
ATOM     13  N   UNL d   1       3.695   2.536   0.003  0.00  0.00    -0.262 N 
ATOM     14  C   UNL d   1       2.395   2.537   0.003  0.00  0.00     0.246 A 
ATOM     15  N   UNL d   1       1.583   3.652   0.003  0.00  0.00    -0.313 N 
ATOM     16  O   UNL d   1       1.631   1.350   0.002  0.00  0.00    -0.276 OA
ATOM     17  C   UNL d   1       0.287   3.218   0.003  0.00  0.00     0.071 A 
ATOM     18  C   UNL d   1       1.998   5.024   0.004  0.00  0.00     0.160 C 
ATOM     19  C   UNL d   1      -0.917   3.887   0.004  0.00  0.00     0.033 A 
ATOM     20  C   UNL d   1       0.323   1.829   0.003  0.00  0.00     0.106 A 
ATOM     21  C   UNL d   1      -2.094   3.128   0.004  0.00  0.00     0.002 A 
ATOM     22  C   UNL d   1      -2.045   1.721   0.004  0.00  0.00     0.003 A 
ATOM     23  C   UNL d   1      -0.818   1.053   0.003  0.00  0.00     0.040 A 
ATOM     24  HN  UNL d   1       4.253   3.389   0.003  1.00  0.00     0.190 HD
ENDBRANCH   4  13
TORSDOF 1
