REMARK  2 active torsions:
REMARK  status: ('A' for Active; 'I' for Inactive)
REMARK    1  A    between atoms: C_11  and  C_4 
REMARK    2  A    between atoms: N_5  and  C_10 
ROOT
ATOM      1  C   UNL d   1       0.637  -0.997  -0.021  0.00  0.00     0.188 A 
ATOM      2  N   UNL d   1       1.301   0.135  -0.039  0.00  0.00    -0.318 N 
ATOM      3  HN  UNL d   1       2.310   0.278  -0.069  1.00  0.00     0.169 HD
ATOM      4  C   UNL d   1       0.303   1.079  -0.009  0.00  0.00     0.138 A 
ATOM      5  N   UNL d   1      -0.936   0.563   0.027  0.00  0.00    -0.242 N 
ATOM      6  HN  UNL d   1      -1.826   1.060   0.055  1.00  0.00     0.196 HD
ATOM      7  C   UNL d   1       1.134  -2.356   0.003  0.00  0.00     0.094 A 
ATOM      8  O   UNL d   1      -0.716  -0.817   0.015  0.00  0.00    -0.217 OA
ATOM      9  C   UNL d   1       2.366  -2.644   0.595  0.00  0.00     0.134 A 
ATOM     10  C   UNL d   1       0.434  -3.413  -0.581  0.00  0.00     0.134 A 
ATOM     11  F   UNL d   1       3.081  -1.677   1.191  0.00  0.00    -0.205 F 
ATOM     12  F   UNL d   1      -0.745  -3.200  -1.184  0.00  0.00    -0.205 F 
ATOM     13  C   UNL d   1       2.175  -4.978   0.016  0.00  0.00     0.006 A 
ATOM     14  C   UNL d   1       0.943  -4.713  -0.581  0.00  0.00     0.043 A 
ATOM     15  C   UNL d   1       2.887  -3.938   0.609  0.00  0.00     0.043 A 
ENDROOT
BRANCH   4  16
ATOM     16  C   UNL d   1       0.611   2.504   0.005  0.00  0.00     0.012 A 
ATOM     17  C   UNL d   1       1.946   2.926  -0.096  0.00  0.00     0.051 A 
ATOM     18  C   UNL d   1       2.254   4.292  -0.055  0.00  0.00     0.103 A 
ATOM     19  C   UNL d   1       1.241   5.247   0.082  0.00  0.00     0.036 A 
ATOM     20  C   UNL d   1      -0.087   4.831   0.174  0.00  0.00     0.003 A 
ATOM     21  C   UNL d   1      -0.400   3.469   0.134  0.00  0.00     0.015 A 
BRANCH  18  22
ATOM     22  N   UNL d   1       3.655   4.721  -0.152  0.00  0.00    -0.116 N 
ATOM     23  O   UNL d   1       4.522   3.845  -0.283  0.00  0.00    -0.532 OA
ATOM     24  O   UNL d   1       3.888   5.936  -0.097  0.00  0.00    -0.532 OA
ENDBRANCH  18  22
ENDBRANCH   4  16
TORSDOF 2
