REMARK  6 active torsions:
REMARK  status: ('A' for Active; 'I' for Inactive)
REMARK    1  A    between atoms: O_2  and  C_1 
REMARK    2  A    between atoms: C_6  and  O_2 
REMARK    3  A    between atoms: O_5  and  C_3 
REMARK    4  A    between atoms: C_7  and  O_5 
REMARK    5  A    between atoms: C_11  and  C_6 
REMARK    6  A    between atoms: C_12  and  C_7 
ROOT
ATOM      1  C   UNL d   1       0.172  -1.157  -0.070  0.00  0.00     0.141 A 
ATOM      2  C   UNL d   1      -1.235  -1.107  -0.071  0.00  0.00     0.105 A 
ATOM      3  C   UNL d   1       0.886   0.044   0.004  0.00  0.00     0.152 A 
ATOM      4  F   UNL d   1       2.227   0.056   0.032  0.00  0.00    -0.203 F 
ATOM      5  C   UNL d   1      -1.157   1.317   0.071  0.00  0.00     0.006 A 
ATOM      6  C   UNL d   1      -1.889   0.130   0.026  0.00  0.00     0.040 A 
ATOM      7  C   UNL d   1       0.232   1.273   0.054  0.00  0.00     0.045 A 
ENDROOT
BRANCH   1   8
ATOM      8  O   UNL d   1       0.731  -2.408  -0.131  0.00  0.00    -0.341 OA
BRANCH   8   9
ATOM      9  C   UNL d   1       2.075  -2.495  -0.605  0.00  0.00     0.214 C 
BRANCH   9  10
ATOM     10  C   UNL d   1       2.307  -3.900  -1.113  0.00  0.00    -0.034 A 
ATOM     11  C   UNL d   1       1.457  -4.437  -2.095  0.00  0.00     0.011 A 
ATOM     12  C   UNL d   1       1.673  -5.721  -2.595  0.00  0.00     0.024 A 
ATOM     13  C   UNL d   1       2.742  -6.476  -2.121  0.00  0.00     0.034 A 
ATOM     14  C   UNL d   1       3.597  -5.956  -1.150  0.00  0.00     0.024 A 
ATOM     15 CL   UNL d   1       3.010  -8.060  -2.738  0.00  0.00    -0.084 Cl
ATOM     16  C   UNL d   1       3.381  -4.670  -0.649  0.00  0.00     0.011 A 
ENDBRANCH   9  10
ENDBRANCH   8   9
ENDBRANCH   1   8
BRANCH   2  17
ATOM     17  O   UNL d   1      -1.897  -2.309  -0.173  0.00  0.00    -0.344 OA
BRANCH  17  18
ATOM     18  C   UNL d   1      -3.229  -2.243  -0.684  0.00  0.00     0.214 C 
BRANCH  18  19
ATOM     19  C   UNL d   1      -3.713  -3.575  -1.218  0.00  0.00    -0.034 A 
ATOM     20  C   UNL d   1      -2.964  -4.754  -1.112  0.00  0.00     0.011 A 
ATOM     21  C   UNL d   1      -3.455  -5.954  -1.637  0.00  0.00     0.024 A 
ATOM     22  C   UNL d   1      -4.697  -5.980  -2.267  0.00  0.00     0.034 A 
ATOM     23  C   UNL d   1      -5.458  -4.820  -2.374  0.00  0.00     0.024 A 
ATOM     24 CL   UNL d   1      -5.296  -7.455  -2.921  0.00  0.00    -0.084 Cl
ATOM     25  C   UNL d   1      -4.969  -3.623  -1.849  0.00  0.00     0.011 A 
ENDBRANCH  18  19
ENDBRANCH  17  18
ENDBRANCH   2  17
TORSDOF 6
