REMARK  4 active torsions:
REMARK  status: ('A' for Active; 'I' for Inactive)
REMARK    1  A    between atoms: C_7  and  N_1 
REMARK    2  A    between atoms: C_4  and  C_8 
REMARK    3  A    between atoms: C_20  and  C_5 
REMARK    4  A    between atoms: C_18  and  C_20 
ROOT
ATOM      1  N   UNL d   1       0.014   0.866  -0.044  0.00  0.00    -0.252 N 
ATOM      2  C   UNL d   1      -1.125   0.110   0.118  0.00  0.00     0.232 A 
ATOM      3  C   UNL d   1       1.136   0.074  -0.132  0.00  0.00     0.236 A 
ATOM      4  C   UNL d   1       0.740  -1.377  -0.081  0.00  0.00     0.091 A 
ATOM      5  C   UNL d   1      -0.769  -1.345   0.067  0.00  0.00     0.118 A 
ATOM      6  O   UNL d   1      -2.286   0.478   0.246  0.00  0.00    -0.273 OA
ATOM      7  O   UNL d   1       2.311   0.415  -0.199  0.00  0.00    -0.272 OA
ENDROOT
BRANCH   1   8
ATOM      8  C   UNL d   1       0.039   2.294  -0.094  0.00  0.00     0.045 A 
ATOM      9  C   UNL d   1      -0.997   3.070   0.445  0.00  0.00     0.031 A 
ATOM     10  C   UNL d   1      -0.955   4.471   0.411  0.00  0.00     0.018 A 
ATOM     11  C   UNL d   1       0.122   5.140  -0.180  0.00  0.00     0.048 A 
ATOM     12  C   UNL d   1       1.151   4.377  -0.740  0.00  0.00     0.018 A 
ATOM     13  C   UNL d   1       1.109   2.978  -0.693  0.00  0.00     0.031 A 
BRANCH  11  14
ATOM     14  C   UNL d   1       0.193   6.646  -0.217  0.00  0.00     0.417 C 
ATOM     15  F   UNL d   1      -0.873   7.258   0.370  0.00  0.00    -0.166 F 
ATOM     16  F   UNL d   1       1.297   7.130   0.416  0.00  0.00    -0.166 F 
ATOM     17  F   UNL d   1       0.248   7.133  -1.488  0.00  0.00    -0.166 F 
ENDBRANCH  11  14
ENDBRANCH   1   8
BRANCH   4  18
ATOM     18  C   UNL d   1       1.247  -2.079  -1.342  0.00  0.00     0.041 C 
BRANCH  18  19
ATOM     19  C   UNL d   1       0.898  -3.538  -1.377  0.00  0.00    -0.036 C 
ATOM     20  C   UNL d   1       0.162  -4.102  -2.342  0.00  0.00     0.007 C 
ENDBRANCH  18  19
ENDBRANCH   4  18
TORSDOF 4
