REMARK  3 active torsions:
REMARK  status: ('A' for Active; 'I' for Inactive)
REMARK    1  A    between atoms: C_2  and  N_1 
REMARK    2  A    between atoms: C_6  and  C_4 
REMARK    3  A    between atoms: O_9  and  C_8 
ROOT
ATOM      1  C   UNL d   1       0.124  -3.160  -1.760  0.00  0.00    -0.032 A 
ATOM      2  C   UNL d   1      -0.907  -2.756  -2.625  0.00  0.00     0.048 A 
ATOM      3  C   UNL d   1      -1.633  -3.698  -3.361  0.00  0.00     0.069 A 
ATOM      4  C   UNL d   1      -0.279  -5.465  -2.406  0.00  0.00     0.004 A 
ATOM      5  C   UNL d   1       0.444  -4.522  -1.676  0.00  0.00     0.011 A 
ATOM      6  C   UNL d   1      -1.316  -5.052  -3.239  0.00  0.00     0.037 A 
ENDROOT
BRANCH   1   7
ATOM      7  C   UNL d   1       0.854  -2.132  -1.000  0.00  0.00     0.035 C 
ATOM      8  C   UNL d   1       1.373  -2.361   0.213  0.00  0.00     0.168 C 
BRANCH   8   9
ATOM      9  N   UNL d   1       2.048  -1.303   0.925  0.00  0.00    -0.127 N 
ATOM     10  O   UNL d   1       2.529  -1.616   2.020  0.00  0.00    -0.532 OA
ATOM     11  O   UNL d   1       2.101  -0.176   0.416  0.00  0.00    -0.532 OA
ENDBRANCH   8   9
ENDBRANCH   1   7
BRANCH   3  12
ATOM     12  O   UNL d   1      -2.662  -3.432  -4.220  0.00  0.00    -0.356 OA
ATOM     13  C   UNL d   1      -3.032  -2.069  -4.385  0.00  0.00     0.210 C 
ENDBRANCH   3  12
TORSDOF 3
