REMARK  5 active torsions:
REMARK  status: ('A' for Active; 'I' for Inactive)
REMARK    1  A    between atoms: C_3  and  C_1 
REMARK    2  A    between atoms: C_6  and  C_1 
REMARK    3  A    between atoms: C_4  and  C_2 
REMARK    4  A    between atoms: C_8  and  C_3 
REMARK    5  A    between atoms: C_5  and  C_4 
ROOT
ATOM      1  C   UNL d   1       0.984  -0.244   0.190  0.00  0.00     0.029 C 
ATOM      2  C   UNL d   1       0.321  -1.423   0.253  0.00  0.00     0.072 C 
ENDROOT
BRANCH   1   3
ATOM      3  C   UNL d   1       2.471  -0.173  -0.112  0.00  0.00     0.193 C 
ATOM      4  O   UNL d   1       2.929   0.714  -0.830  0.00  0.00    -0.287 OA
BRANCH   3   5
ATOM      5  C   UNL d   1       3.414  -1.144   0.520  0.00  0.00     0.015 A 
ATOM      6  C   UNL d   1       4.608  -1.429  -0.155  0.00  0.00     0.015 A 
ATOM      7  C   UNL d   1       5.471  -2.413   0.325  0.00  0.00     0.001 A 
ATOM      8  C   UNL d   1       5.150  -3.116   1.485  0.00  0.00     0.000 A 
ATOM      9  C   UNL d   1       3.993  -2.798   2.196  0.00  0.00     0.001 A 
ATOM     10  C   UNL d   1       3.140  -1.794   1.732  0.00  0.00     0.015 A 
ENDBRANCH   3   5
ENDBRANCH   1   3
BRANCH   1  11
ATOM     11  C   UNL d   1       0.228   1.045   0.275  0.00  0.00    -0.022 A 
ATOM     12  C   UNL d   1       0.833   2.207   0.782  0.00  0.00     0.012 A 
ATOM     13  C   UNL d   1       0.191   3.451   0.707  0.00  0.00     0.001 A 
ATOM     14  C   UNL d   1      -1.072   3.555   0.133  0.00  0.00     0.000 A 
ATOM     15  C   UNL d   1      -1.696   2.416  -0.368  0.00  0.00     0.001 A 
ATOM     16  C   UNL d   1      -1.049   1.176  -0.303  0.00  0.00     0.012 A 
ENDBRANCH   1  11
BRANCH   2  17
ATOM     17  C   UNL d   1       0.872  -2.654  -0.372  0.00  0.00     0.183 C 
ATOM     18  O   UNL d   1       1.537  -2.579  -1.399  0.00  0.00    -0.288 OA
BRANCH  17  19
ATOM     19  C   UNL d   1       0.536  -3.999   0.157  0.00  0.00     0.014 A 
ATOM     20  C   UNL d   1       0.426  -5.032  -0.788  0.00  0.00     0.017 A 
ATOM     21  C   UNL d   1       0.292  -6.356  -0.381  0.00  0.00     0.025 A 
ATOM     22  C   UNL d   1       0.280  -6.662   0.976  0.00  0.00     0.034 A 
ATOM     23  C   UNL d   1       0.362  -5.644   1.928  0.00  0.00     0.025 A 
ATOM     24 CL   UNL d   1       0.205  -8.305   1.477  0.00  0.00    -0.084 Cl
ATOM     25  C   UNL d   1       0.480  -4.304   1.522  0.00  0.00     0.017 A 
ENDBRANCH  17  19
ENDBRANCH   2  17
TORSDOF 5
