REMARK  5 active torsions:
REMARK  status: ('A' for Active; 'I' for Inactive)
REMARK    1  A    between atoms: S_3  and  C_1 
REMARK    2  A    between atoms: N_7  and  C_2 
REMARK    3  A    between atoms: C_13  and  S_3 
REMARK    4  A    between atoms: C_8  and  C_4 
REMARK    5  A    between atoms: O_17  and  C_8 
ROOT
ATOM      1  C   UNL d   1       1.483  -0.636  -0.046  0.00  0.00     0.094 A 
ATOM      2  C   UNL d   1       1.459   0.825  -0.064  0.00  0.00     0.084 A 
ATOM      3  C   UNL d   1       0.139   1.297   0.036  0.00  0.00     0.108 A 
ATOM      4  S   UNL d   1      -0.999   0.009   0.126  0.00  0.00    -0.092 SA
ATOM      5  C   UNL d   1       0.208  -1.166   0.016  0.00  0.00     0.076 A 
ENDROOT
BRANCH   1   6
ATOM      6  S   UNL d   1       2.835  -1.751  -0.013  0.00  0.00     0.181 S 
ATOM      7  O   UNL d   1       2.231  -3.045   0.250  0.00  0.00    -0.222 OA
ATOM      8  O   UNL d   1       3.536  -1.516  -1.254  0.00  0.00    -0.222 OA
BRANCH   6   9
ATOM      9  C   UNL d   1       3.851  -1.319   1.403  0.00  0.00     0.105 C 
ATOM     10  C   UNL d   1       3.092  -1.508   2.715  0.00  0.00     0.026 C 
ATOM     11  C   UNL d   1       5.110  -2.189   1.405  0.00  0.00     0.026 C 
ENDBRANCH   6   9
ENDBRANCH   1   6
BRANCH   2  12
ATOM     12  N   UNL d   1       2.589   1.718  -0.163  0.00  0.00    -0.330 N 
ATOM     13  C   UNL d   1       3.775   1.513  -0.840  0.00  0.00     0.097 A 
ATOM     14  C   UNL d   1       4.580   2.628  -0.732  0.00  0.00     0.019 A 
ATOM     15  C   UNL d   1       3.877   3.568   0.037  0.00  0.00     0.019 A 
ATOM     16  C   UNL d   1       2.685   2.980   0.399  0.00  0.00     0.097 A 
ENDBRANCH   2  12
BRANCH   3  17
ATOM     17  C   UNL d   1      -0.413   2.647  -0.049  0.00  0.00     0.302 C 
ATOM     18  O   UNL d   1       0.034   3.560  -0.734  0.00  0.00    -0.259 OA
BRANCH  17  19
ATOM     19  O   UNL d   1      -1.496   2.769   0.770  0.00  0.00    -0.322 OA
ATOM     20  C   UNL d   1      -2.155   4.037   0.750  0.00  0.00     0.213 C 
ENDBRANCH  17  19
ENDBRANCH   3  17
TORSDOF 5
