REMARK  3 active torsions:
REMARK  status: ('A' for Active; 'I' for Inactive)
REMARK       I    between atoms: C_3  and  N_1 
REMARK    1  A    between atoms: O_15  and  C_3 
REMARK    2  A    between atoms: C_16  and  C_12 
REMARK    3  A    between atoms: C_17  and  O_15 
ROOT
ATOM      1  N   UNL d   1       1.172   1.454  -0.071  0.00  0.00    -0.272 N 
ATOM      2  C   UNL d   1      -0.084   0.740  -0.051  0.00  0.00     0.051 A 
ATOM      3  C   UNL d   1       1.270   2.852  -0.196  0.00  0.00     0.368 C 
ATOM      4  C   UNL d   1      -0.099  -0.671  -0.040  0.00  0.00    -0.009 A 
ATOM      5  C   UNL d   1       1.138  -1.440  -0.051  0.00  0.00     0.013 A 
ATOM      6  C   UNL d   1       2.442   0.707   0.039  0.00  0.00     0.225 A 
ATOM      7  C   UNL d   1       2.301  -0.788  -0.018  0.00  0.00     0.014 A 
ATOM      8  N   UNL d   1       3.785   1.355   2.231  0.00  0.00    -0.195 NA
ATOM      9  C   UNL d   1      -1.313  -1.387  -0.028  0.00  0.00     0.021 A 
ATOM     10  C   UNL d   1       3.185   1.058   1.283  0.00  0.00     0.089 C 
ATOM     11  C   UNL d   1      -1.328   1.386  -0.049  0.00  0.00     0.031 A 
ATOM     12  C   UNL d   1      -2.544  -0.725  -0.013  0.00  0.00    -0.054 A 
ATOM     13  O   UNL d   1       0.349   3.654  -0.266  0.00  0.00    -0.238 OA
ATOM     14  C   UNL d   1      -2.533   0.670  -0.030  0.00  0.00     0.010 A 
ENDROOT
BRANCH   3  15
ATOM     15  O   UNL d   1       2.574   3.267  -0.235  0.00  0.00    -0.304 OA
BRANCH  15  16
ATOM     16  C   UNL d   1       2.815   4.683  -0.251  0.00  0.00     0.176 C 
ATOM     17  C   UNL d   1       2.708   5.264   1.148  0.00  0.00     0.034 C 
ENDBRANCH  15  16
ENDBRANCH   3  15
BRANCH  12  18
ATOM     18  C   UNL d   1      -3.840  -1.511   0.048  0.00  0.00     0.010 C 
ATOM     19  C   UNL d   1      -4.618  -1.187   1.327  0.00  0.00     0.015 C 
ATOM     20  C   UNL d   1      -4.709  -1.274  -1.190  0.00  0.00     0.015 C 
ENDBRANCH  12  18
TORSDOF 3
