REMARK  3 active torsions:
REMARK  status: ('A' for Active; 'I' for Inactive)
REMARK    1  A    between atoms: N_6  and  C_1 
REMARK    2  A    between atoms: N_3  and  C_2 
REMARK    3  A    between atoms: O_13  and  C_8 
ROOT
ATOM      1  C   UNL d   1      -0.518   1.310   0.004  0.00  0.00     0.139 A 
ATOM      2  C   UNL d   1       0.871   1.193   0.128  0.00  0.00     0.146 A 
ATOM      3  N   UNL d   1      -1.272   0.178  -0.011  0.00  0.00    -0.321 N 
ATOM      4  HN  UNL d   1      -2.286   0.236  -0.099  1.00  0.00     0.169 HD
ATOM      5  C   UNL d   1       1.498  -0.055   0.235  0.00  0.00     0.044 A 
ATOM      6  C   UNL d   1      -0.659  -1.027   0.091  0.00  0.00     0.143 A 
ATOM      7  C   UNL d   1       0.709  -1.192   0.207  0.00  0.00     0.059 A 
ENDROOT
BRANCH   1   8
ATOM      8  N   UNL d   1      -1.173   2.516  -0.202  0.00  0.00    -0.361 N 
ATOM      9  C   UNL d   1      -2.531   2.452  -0.777  0.00  0.00     0.150 C 
ATOM     10  C   UNL d   1      -2.852   3.821  -1.406  0.00  0.00     0.187 C 
ATOM     11  O   UNL d   1      -2.732   4.891  -0.451  0.00  0.00    -0.388 OA
ATOM     12  C   UNL d   1      -1.404   4.922   0.111  0.00  0.00     0.187 C 
ATOM     13  C   UNL d   1      -1.073   3.589   0.806  0.00  0.00     0.150 C 
ENDBRANCH   1   8
BRANCH   2  14
ATOM     14  N   UNL d   1       1.734   2.347   0.065  0.00  0.00    -0.112 N 
ATOM     15  O   UNL d   1       1.740   3.016  -0.978  0.00  0.00    -0.532 OA
ATOM     16  O   UNL d   1       2.445   2.564   1.056  0.00  0.00    -0.532 OA
ENDBRANCH   2  14
BRANCH   6  17
ATOM     17  O   UNL d   1      -1.401  -2.191   0.055  0.00  0.00    -0.341 OA
ATOM     18  C   UNL d   1      -2.805  -1.964   0.055  0.00  0.00     0.211 C 
ENDBRANCH   6  17
TORSDOF 3
