REMARK  6 active torsions:
REMARK  status: ('A' for Active; 'I' for Inactive)
REMARK    1  A    between atoms: N_2  and  C_1 
REMARK    2  A    between atoms: N_7  and  C_1 
REMARK    3  A    between atoms: C_8  and  N_2 
REMARK    4  A    between atoms: N_3  and  N_7 
REMARK    5  A    between atoms: C_5  and  C_11 
REMARK    6  A    between atoms: O_14  and  C_10 
ROOT
ATOM      1  N   UNL d   1       2.469   0.071   0.171  0.00  0.00    -0.276 N 
ATOM      2  H   UNL d   1       2.964  -0.816   0.103  0.00  0.00     0.189 HD
ENDROOT
BRANCH   1   3
ATOM      3  N   UNL d   1       3.164   1.248   0.125  0.00  0.00    -0.309 N 
ATOM      4  C   UNL d   1       4.455   1.098   0.088  0.00  0.00     0.121 C 
ATOM      5  HN  UNL d   1       2.711   2.162   0.121  1.00  0.00     0.186 HD
BRANCH   4   6
ATOM      6  C   UNL d   1       5.365   2.251  -0.068  0.00  0.00     0.014 A 
ATOM      7  C   UNL d   1       4.895   3.565  -0.172  0.00  0.00     0.077 A 
ATOM      8  C   UNL d   1       5.788   4.616  -0.360  0.00  0.00     0.037 A 
ATOM      9  C   UNL d   1       7.156   4.360  -0.456  0.00  0.00     0.003 A 
ATOM     10  C   UNL d   1       7.632   3.052  -0.355  0.00  0.00     0.001 A 
ATOM     11  C   UNL d   1       6.739   1.995  -0.158  0.00  0.00     0.015 A 
BRANCH   7  12
ATOM     12  O   UNL d   1       3.568   3.889  -0.113  0.00  0.00    -0.360 OA
ATOM     13  H   UNL d   1       3.068   3.045  -0.076  0.00  0.00     0.217 HD
ENDBRANCH   7  12
ENDBRANCH   4   6
ENDBRANCH   1   3
BRANCH   1  14
ATOM     14  C   UNL d   1       1.110   0.019  -0.066  0.00  0.00     0.191 C 
ATOM     15  S   UNL d   1       0.424  -1.483  -0.333  0.00  0.00    -0.039 SA
BRANCH  14  16
ATOM     16  N   UNL d   1       0.484   1.244  -0.006  0.00  0.00    -0.332 N 
ATOM     17  H   UNL d   1       0.969   1.894   0.603  0.00  0.00     0.168 HD
BRANCH  16  18
ATOM     18  C   UNL d   1      -0.763   1.647  -0.520  0.00  0.00     0.037 A 
ATOM     19  C   UNL d   1      -1.312   1.100  -1.683  0.00  0.00     0.071 A 
ATOM     20  C   UNL d   1      -2.515   1.593  -2.177  0.00  0.00     0.118 A 
ATOM     21  F   UNL d   1      -3.016   1.086  -3.310  0.00  0.00    -0.206 F 
ATOM     22  C   UNL d   1      -3.196   2.617  -1.531  0.00  0.00     0.042 A 
ATOM     23  C   UNL d   1      -2.652   3.173  -0.375  0.00  0.00     0.005 A 
ATOM     24  C   UNL d   1      -1.429   2.703   0.116  0.00  0.00     0.029 A 
ENDBRANCH  16  18
ENDBRANCH  14  16
ENDBRANCH   1  14
TORSDOF 6
