REMARK  3 active torsions:
REMARK  status: ('A' for Active; 'I' for Inactive)
REMARK    1  A    between atoms: C_21  and  C_3 
REMARK    2  A    between atoms: C_15  and  C_4 
REMARK    3  A    between atoms: C_9  and  C_22 
ROOT
ATOM      1  N   UNL d   1       1.301  -0.502  -0.452  0.00  0.00    -0.349 N 
ATOM      2  HN  UNL d   1       2.124  -0.955  -0.849  1.00  0.00     0.166 HD
ATOM      3  C   UNL d   1       0.104  -1.051  -0.376  0.00  0.00     0.084 A 
ATOM      4  C   UNL d   1       1.283   0.778   0.083  0.00  0.00     0.050 A 
ATOM      5  S   UNL d   1      -1.092  -0.069   0.385  0.00  0.00    -0.081 SA
ATOM      6  C   UNL d   1       0.059   1.179   0.581  0.00  0.00     0.082 A 
ENDROOT
BRANCH   4   7
ATOM      7  C   UNL d   1       2.464   1.631   0.056  0.00  0.00    -0.008 A 
ATOM      8  C   UNL d   1       3.390   1.501  -0.985  0.00  0.00     0.022 A 
ATOM      9  C   UNL d   1       4.522   2.344  -1.106  0.00  0.00    -0.042 A 
ATOM     10  C   UNL d   1       5.480   2.134  -2.282  0.00  0.00    -0.020 C 
ATOM     11  C   UNL d   1       4.694   3.376  -0.158  0.00  0.00    -0.043 A 
ATOM     12  C   UNL d   1       6.798   2.920  -2.104  0.00  0.00     0.015 C 
ATOM     13  C   UNL d   1       4.765   2.570  -3.578  0.00  0.00     0.020 C 
ATOM     14  C   UNL d   1       5.887   0.647  -2.424  0.00  0.00     0.020 C 
ATOM     15  C   UNL d   1       6.583   4.335  -1.599  0.00  0.00     0.015 C 
ATOM     16  C   UNL d   1       5.837   4.395  -0.246  0.00  0.00    -0.020 C 
ATOM     17  C   UNL d   1       6.821   4.148   0.916  0.00  0.00     0.020 C 
ATOM     18  C   UNL d   1       5.288   5.840  -0.128  0.00  0.00     0.020 C 
ATOM     19  C   UNL d   1       3.789   3.455   0.920  0.00  0.00     0.009 A 
ATOM     20  C   UNL d   1       2.694   2.600   1.029  0.00  0.00     0.014 A 
ENDBRANCH   4   7
BRANCH   3  21
ATOM     21  C   UNL d   1      -0.219  -2.404  -0.851  0.00  0.00    -0.002 A 
ATOM     22  C   UNL d   1       0.764  -3.406  -0.800  0.00  0.00     0.015 A 
ATOM     23  C   UNL d   1       0.492  -4.710  -1.240  0.00  0.00     0.014 A 
ATOM     24  C   UNL d   1      -0.771  -5.036  -1.749  0.00  0.00    -0.007 A 
ATOM     25  C   UNL d   1      -1.747  -4.036  -1.821  0.00  0.00     0.014 A 
ATOM     26  C   UNL d   1      -1.476  -2.737  -1.375  0.00  0.00     0.015 A 
BRANCH  24  27
ATOM     27  C   UNL d   1      -1.083  -6.374  -2.227  0.00  0.00     0.066 A 
ATOM     28  N   UNL d   1      -2.003  -6.573  -3.250  0.00  0.00    -0.293 N 
ATOM     29  N   UNL d   1      -2.160  -7.851  -3.539  0.00  0.00    -0.270 N 
ATOM     30  HN  UNL d   1      -2.500  -5.818  -3.723  1.00  0.00     0.187 HD
ATOM     31  S   UNL d   1      -1.222  -8.853  -2.575  0.00  0.00    -0.008 SA
ATOM     32  HN  UNL d   1      -2.784  -8.192  -4.270  1.00  0.00     0.195 HD
ATOM     33  C   UNL d   1      -0.550  -7.541  -1.698  0.00  0.00     0.101 A 
ENDBRANCH  24  27
ENDBRANCH   3  21
TORSDOF 3
