REMARK  1 active torsions:
REMARK  status: ('A' for Active; 'I' for Inactive)
REMARK    1  A    between atoms: C_18  and  C_14 
ROOT
ATOM      1  C   UNL d   1      -0.963   0.529  -0.005  0.00  0.00     0.093 A 
ATOM      2  C   UNL d   1       0.479   0.475  -0.020  0.00  0.00     0.021 A 
ATOM      3  N   UNL d   1      -1.750   1.597  -0.124  0.00  0.00    -0.239 N 
ATOM      4  HN  UNL d   1      -1.471   2.571  -0.244  1.00  0.00     0.197 HD
ATOM      5  C   UNL d   1      -1.748  -0.621   0.154  0.00  0.00     0.064 A 
ATOM      6  O   UNL d   1      -3.052   1.078  -0.047  0.00  0.00    -0.156 OA
ATOM      7  N   UNL d   1      -3.041  -0.315   0.133  0.00  0.00    -0.244 N 
ATOM      8  HN  UNL d   1      -3.839  -0.944   0.227  1.00  0.00     0.196 HD
ATOM      9  N   UNL d   1       3.200   0.192   0.025  0.00  0.00    -0.300 N 
ATOM     10  HN  UNL d   1       4.214   0.084   0.045  1.00  0.00     0.187 HD
ATOM     11  N   UNL d   1       2.405  -0.925  -0.108  0.00  0.00    -0.303 N 
ATOM     12  HN  UNL d   1       2.828  -1.849  -0.199  1.00  0.00     0.186 HD
ATOM     13  C   UNL d   1       1.285   1.600   0.106  0.00  0.00     0.047 A 
ATOM     14  C   UNL d   1       2.663   1.434   0.129  0.00  0.00     0.059 A 
ATOM     15  C   UNL d   1       1.068  -0.790  -0.117  0.00  0.00     0.038 A 
ATOM     16  C   UNL d   1      -1.164  -1.966   0.352  0.00  0.00     0.067 C 
ATOM     17  C   UNL d   1       0.228  -2.040  -0.315  0.00  0.00     0.065 C 
ENDROOT
BRANCH  14  18
ATOM     18  C   UNL d   1       3.613   2.551   0.306  0.00  0.00    -0.008 A 
ATOM     19  C   UNL d   1       4.870   2.340   0.904  0.00  0.00     0.014 A 
ATOM     20  C   UNL d   1       5.769   3.391   1.110  0.00  0.00     0.001 A 
ATOM     21  C   UNL d   1       5.431   4.683   0.718  0.00  0.00     0.000 A 
ATOM     22  C   UNL d   1       4.202   4.919   0.110  0.00  0.00     0.001 A 
ATOM     23  C   UNL d   1       3.306   3.865  -0.097  0.00  0.00     0.014 A 
ENDBRANCH  14  18
TORSDOF 1
