REMARK  3 active torsions:
REMARK  status: ('A' for Active; 'I' for Inactive)
REMARK    1  A    between atoms: C_4  and  C_1 
REMARK       I    between atoms: C_2  and  N_3 
REMARK    2  A    between atoms: C_7  and  C_2 
REMARK    3  A    between atoms: C_10  and  C_4 
ROOT
ATOM      1  C   UNL d   1       2.899  -6.524  -1.864  0.00  0.00     0.253 C 
ATOM      2  N   UNL d   1       3.027  -5.252  -1.282  0.00  0.00    -0.348 N 
ATOM      3  C   UNL d   1       2.655  -2.683  -0.032  0.00  0.00     0.064 C 
ATOM      4  C   UNL d   1       2.100  -4.278  -1.853  0.00  0.00     0.127 C 
ATOM      5  C   UNL d   1       3.619  -4.960   0.040  0.00  0.00     0.127 C 
ATOM      6  O   UNL d   1       2.298  -6.688  -2.930  0.00  0.00    -0.267 OA
ATOM      7  C   UNL d   1       2.442  -2.837  -1.538  0.00  0.00     0.032 C 
ATOM      8  C   UNL d   1       3.932  -3.465   0.282  0.00  0.00     0.032 C 
ENDROOT
BRANCH   3   9
ATOM      9  C   UNL d   1       2.570  -1.206   0.322  0.00  0.00     0.164 C 
ATOM     10  O   UNL d   1       3.511  -0.470   0.058  0.00  0.00    -0.292 OA
BRANCH   9  11
ATOM     11  C   UNL d   1       1.268  -0.654   0.935  0.00  0.00     0.022 A 
ATOM     12  C   UNL d   1       1.343   0.470   1.812  0.00  0.00    -0.047 A 
ATOM     13  C   UNL d   1       0.157   1.009   2.379  0.00  0.00     0.014 A 
ATOM     14  C   UNL d   1       2.610   1.135   2.300  0.00  0.00     0.049 C 
ATOM     15  C   UNL d   1      -1.097   0.500   2.089  0.00  0.00    -0.061 A 
ATOM     16  C   UNL d   1      -1.174  -0.586   1.234  0.00  0.00     0.014 A 
ATOM     17  C   UNL d   1      -2.355   1.056   2.690  0.00  0.00     0.048 C 
ATOM     18  C   UNL d   1      -0.031  -1.190   0.666  0.00  0.00    -0.047 A 
ATOM     19  C   UNL d   1      -0.434  -2.318  -0.245  0.00  0.00     0.049 C 
ENDBRANCH   9  11
ENDBRANCH   3   9
BRANCH   1  20
ATOM     20  C   UNL d   1       3.454  -7.753  -1.253  0.00  0.00     0.032 A 
ATOM     21  C   UNL d   1       3.299  -8.085   0.094  0.00  0.00     0.017 A 
ATOM     22  C   UNL d   1       3.742  -9.327   0.564  0.00  0.00     0.007 A 
ATOM     23  C   UNL d   1       4.298 -10.266  -0.316  0.00  0.00    -0.062 A 
ATOM     24  C   UNL d   1       4.415  -9.946  -1.671  0.00  0.00     0.007 A 
ATOM     25  C   UNL d   1       4.742 -11.605   0.193  0.00  0.00     0.048 C 
ATOM     26  C   UNL d   1       3.995  -8.700  -2.134  0.00  0.00     0.017 A 
ENDBRANCH   1  20
TORSDOF 3
