REMARK  4 active torsions:
REMARK  status: ('A' for Active; 'I' for Inactive)
REMARK    1  A    between atoms: N_2  and  C_1 
REMARK       I    between atoms: C_3  and  N_5 
REMARK    2  A    between atoms: C_6  and  C_3 
REMARK    3  A    between atoms: N_5  and  C_4 
REMARK    4  A    between atoms: O_21  and  C_17 
ROOT
ATOM      1  C   UNL d   1       2.390  -2.791  -0.399  0.00  0.00     0.256 C 
ATOM      2  N   UNL d   1       1.137  -2.424   0.056  0.00  0.00    -0.321 N 
ATOM      3  O   UNL d   1       3.117  -2.098  -1.095  0.00  0.00    -0.267 OA
ATOM      4  H   UNL d   1       0.516  -3.184   0.306  0.00  0.00     0.169 HD
ENDROOT
BRANCH   2   5
ATOM      5  C   UNL d   1       0.528  -1.150  -0.073  0.00  0.00     0.068 A 
ATOM      6  C   UNL d   1       1.154   0.100  -0.205  0.00  0.00     0.132 A 
ATOM      7  C   UNL d   1       0.404   1.281  -0.357  0.00  0.00     0.075 A 
ATOM      8  C   UNL d   1      -0.988   1.239  -0.323  0.00  0.00     0.070 A 
ATOM      9  C   UNL d   1      -1.629   0.012  -0.185  0.00  0.00     0.039 A 
ATOM     10  C   UNL d   1      -0.878  -1.165  -0.055  0.00  0.00     0.035 A 
BRANCH   6  11
ATOM     11  N   UNL d   1       2.571   0.299   0.050  0.00  0.00    -0.113 N 
ATOM     12  O   UNL d   1       3.004  -0.105   1.142  0.00  0.00    -0.532 OA
ATOM     13  O   UNL d   1       3.206   0.976  -0.772  0.00  0.00    -0.532 OA
ENDBRANCH   6  11
BRANCH   8  14
ATOM     14  O   UNL d   1      -1.606   2.453  -0.416  0.00  0.00    -0.356 OA
ATOM     15  C   UNL d   1      -2.925   2.534   0.117  0.00  0.00     0.210 C 
ENDBRANCH   8  14
ENDBRANCH   2   5
BRANCH   1  16
ATOM     16  C   UNL d   1       2.792  -4.195  -0.099  0.00  0.00     0.035 A 
ATOM     17  C   UNL d   1       3.651  -4.849  -0.992  0.00  0.00     0.041 A 
ATOM     18  C   UNL d   1       4.005  -6.178  -0.766  0.00  0.00     0.036 A 
ATOM     19 CL   UNL d   1       5.037  -6.987  -1.880  0.00  0.00    -0.084 Cl
ATOM     20  C   UNL d   1       3.520  -6.864   0.345  0.00  0.00     0.047 A 
ATOM     21  C   UNL d   1       2.690  -6.202   1.245  0.00  0.00     0.036 A 
ATOM     22  C   UNL d   1       2.328  -4.870   1.039  0.00  0.00     0.041 A 
ATOM     23 CL   UNL d   1       2.088  -7.039   2.623  0.00  0.00    -0.084 Cl
ENDBRANCH   1  16
TORSDOF 4
