REMARK  5 active torsions:
REMARK  status: ('A' for Active; 'I' for Inactive)
REMARK    1  A    between atoms: C_3  and  C_1 
REMARK    2  A    between atoms: C_4  and  C_1 
REMARK    3  A    between atoms: C_8  and  C_2 
REMARK    4  A    between atoms: O_11  and  C_3 
REMARK    5  A    between atoms: N_5  and  C_4 
ROOT
ATOM      1  C   UNL d   1       0.978  -0.060   0.077  0.00  0.00     0.102 C 
ATOM      2  C   UNL d   1       0.292  -1.217   0.156  0.00  0.00     0.040 C 
ENDROOT
BRANCH   1   3
ATOM      3  C   UNL d   1       0.261   1.234   0.001  0.00  0.00     0.302 C 
ATOM      4  O   UNL d   1      -0.955   1.346  -0.000  0.00  0.00    -0.259 OA
BRANCH   3   5
ATOM      5  O   UNL d   1       1.149   2.254  -0.082  0.00  0.00    -0.322 OA
ATOM      6  C   UNL d   1       0.566   3.554  -0.170  0.00  0.00     0.213 C 
ENDBRANCH   3   5
ENDBRANCH   1   3
BRANCH   1   7
ATOM      7  C   UNL d   1       2.498  -0.060   0.077  0.00  0.00    -0.031 C 
BRANCH   7   8
ATOM      8  N   UNL d   1       3.759  -0.060   0.077  0.00  0.00    -0.365 N 
ATOM      9  HN2 UNL d   1       2.739  -0.060   0.077  1.00  0.00     0.165 HD
ATOM     10  HN1 UNL d   1       4.779  -0.060   0.077  1.00  0.00     0.165 HD
ENDBRANCH   7   8
ENDBRANCH   1   7
BRANCH   2  11
ATOM     11  C   UNL d   1       0.962  -2.529   0.220  0.00  0.00    -0.013 A 
ATOM     12  C   UNL d   1       1.383  -3.116   1.426  0.00  0.00     0.044 A 
ATOM     13 CL   UNL d   1       1.042  -2.384   2.955  0.00  0.00    -0.083 Cl
ATOM     14  C   UNL d   1       2.112  -4.309   1.417  0.00  0.00     0.024 A 
ATOM     15  C   UNL d   1       2.425  -4.928   0.207  0.00  0.00     0.002 A 
ATOM     16  C   UNL d   1       1.999  -4.364  -0.993  0.00  0.00     0.001 A 
ATOM     17  C   UNL d   1       1.271  -3.172  -0.989  0.00  0.00     0.013 A 
ENDBRANCH   2  11
TORSDOF 5
