REMARK  7 active torsions:
REMARK  status: ('A' for Active; 'I' for Inactive)
REMARK    1  A    between atoms: S_3  and  C_9 
REMARK    2  A    between atoms: C_15  and  S_3 
REMARK    3  A    between atoms: C_9  and  C_4 
REMARK    4  A    between atoms: C_11  and  C_5 
REMARK    5  A    between atoms: C_10  and  O_14 
REMARK    6  A    between atoms: O_14  and  C_21 
REMARK    7  A    between atoms: C_22  and  C_15 
ROOT
ATOM      1  N   UNL d   1       0.152   0.432  -1.229  0.00  0.00    -0.322 N 
ATOM      2  HN  UNL d   1       0.308   0.774  -2.177  1.00  0.00     0.169 HD
ATOM      3  C   UNL d   1       0.323   1.092  -0.038  0.00  0.00     0.118 A 
ATOM      4  C   UNL d   1      -0.263  -0.754  -0.838  0.00  0.00     0.182 A 
ATOM      5  N   UNL d   1       0.010   0.375   1.048  0.00  0.00    -0.246 N 
ATOM      6  HN  UNL d   1       0.036   0.665   2.026  1.00  0.00     0.196 HD
ATOM      7  O   UNL d   1      -0.361  -0.866   0.521  0.00  0.00    -0.217 OA
ENDROOT
BRANCH   3   8
ATOM      8  C   UNL d   1       0.726   2.506   0.014  0.00  0.00     0.218 C 
BRANCH   8   9
ATOM      9  S   UNL d   1       2.493   2.705   0.000  0.00  0.00     0.155 S 
ATOM     10  O   UNL d   1       2.741   4.140  -0.015  0.00  0.00    -0.227 OA
ATOM     11  O   UNL d   1       3.057   1.879   1.048  0.00  0.00    -0.227 OA
BRANCH   9  12
ATOM     12  C   UNL d   1       2.990   2.052  -1.599  0.00  0.00     0.179 C 
BRANCH  12  13
ATOM     13  C   UNL d   1       4.495   2.095  -1.717  0.00  0.00    -0.044 A 
ATOM     14  C   UNL d   1       5.266   1.005  -1.279  0.00  0.00     0.011 A 
ATOM     15  C   UNL d   1       6.656   1.030  -1.393  0.00  0.00     0.043 A 
ATOM     16  C   UNL d   1       7.279   2.145  -1.939  0.00  0.00     0.116 A 
ATOM     17  C   UNL d   1       6.537   3.239  -2.367  0.00  0.00     0.043 A 
ATOM     18  F   UNL d   1       8.614   2.165  -2.054  0.00  0.00    -0.206 F 
ATOM     19  C   UNL d   1       5.145   3.218  -2.254  0.00  0.00     0.011 A 
ENDBRANCH  12  13
ENDBRANCH   9  12
ENDBRANCH   8   9
ENDBRANCH   3   8
BRANCH   4  20
ATOM     20  C   UNL d   1      -0.623  -1.915  -1.644  0.00  0.00     0.017 A 
ATOM     21  C   UNL d   1      -0.537  -1.818  -3.041  0.00  0.00     0.018 A 
ATOM     22  C   UNL d   1      -0.862  -2.901  -3.867  0.00  0.00     0.038 A 
ATOM     23  C   UNL d   1      -1.242  -4.115  -3.304  0.00  0.00     0.078 A 
ATOM     24  C   UNL d   1      -1.370  -4.207  -1.914  0.00  0.00     0.038 A 
ATOM     25  C   UNL d   1      -1.058  -3.120  -1.088  0.00  0.00     0.018 A 
BRANCH  23  26
ATOM     26  O   UNL d   1      -1.547  -5.255  -3.979  0.00  0.00    -0.255 OA
BRANCH  26  27
ATOM     27  C   UNL d   1      -0.983  -5.487  -5.263  0.00  0.00     0.530 C 
ATOM     28  F   UNL d   1       0.075  -4.700  -5.550  0.00  0.00    -0.144 F 
ATOM     29  F   UNL d   1      -0.562  -6.771  -5.316  0.00  0.00    -0.144 F 
ATOM     30  F   UNL d   1      -1.928  -5.314  -6.211  0.00  0.00    -0.144 F 
ENDBRANCH  26  27
ENDBRANCH  23  26
ENDBRANCH   4  20
TORSDOF 7
