REMARK  2 active torsions:
REMARK  status: ('A' for Active; 'I' for Inactive)
REMARK    1  A    between atoms: C_3  and  C_6 
REMARK    2  A    between atoms: C_4  and  C_3 
ROOT
ATOM      1  N   UNL d   1       6.155   0.352   2.517  0.00  0.00    -0.197 NA
ATOM      2  C   UNL d   1       5.300   0.342   1.720  0.00  0.00     0.067 C 
ATOM      3  C   UNL d   1       4.245   0.299   0.681  0.00  0.00     0.207 C 
ENDROOT
BRANCH   3   4
ATOM      4  C   UNL d   1       4.357   1.483  -0.258  0.00  0.00     0.172 C 
ATOM      5  O   UNL d   1       3.445   2.306  -0.371  0.00  0.00    -0.291 OA
BRANCH   4   6
ATOM      6  C   UNL d   1       5.596   1.665  -1.072  0.00  0.00     0.011 A 
ATOM      7  C   UNL d   1       6.374   0.585  -1.501  0.00  0.00     0.015 A 
ATOM      8  C   UNL d   1       7.528   0.813  -2.260  0.00  0.00     0.007 A 
ATOM      9  C   UNL d   1       7.918   2.117  -2.595  0.00  0.00    -0.062 A 
ATOM     10  C   UNL d   1       7.135   3.192  -2.163  0.00  0.00     0.007 A 
ATOM     11  C   UNL d   1       9.155   2.344  -3.414  0.00  0.00     0.048 C 
ATOM     12  C   UNL d   1       5.978   2.968  -1.412  0.00  0.00     0.015 A 
ENDBRANCH   4   6
ENDBRANCH   3   4
TORSDOF 2
