REMARK  8 active torsions:
REMARK  status: ('A' for Active; 'I' for Inactive)
REMARK    1  A    between atoms: C_5  and  C_1 
REMARK    2  A    between atoms: C_2  and  C_4 
REMARK       I    between atoms: C_3  and  N_10 
REMARK       I    between atoms: N_9  and  C_3 
REMARK    3  A    between atoms: C_6  and  O_13 
REMARK    4  A    between atoms: O_15  and  C_8 
REMARK    5  A    between atoms: C_25  and  N_9 
REMARK    6  A    between atoms: N_10  and  C_26 
REMARK    7  A    between atoms: O_13  and  C_27 
REMARK    8  A    between atoms: C_28  and  O_15 
ROOT
ATOM      1  C   UNL d   1      -3.638  -0.303   4.273  0.00  0.00     0.036 A 
ATOM      2  C   UNL d   1      -2.920   1.837   2.597  0.00  0.00     0.076 A 
ATOM      3  C   UNL d   1      -4.527   0.754   4.055  0.00  0.00     0.032 A 
ATOM      4  C   UNL d   1      -2.418  -0.306   3.584  0.00  0.00     0.032 A 
ATOM      5  C   UNL d   1      -4.185   1.800   3.191  0.00  0.00     0.039 A 
ATOM      6  C   UNL d   1      -2.061   0.756   2.751  0.00  0.00     0.039 A 
ENDROOT
BRANCH   1   7
ATOM      7  N   UNL d   1      -4.009  -1.296   5.211  0.00  0.00    -0.309 N 
ATOM      8  C   UNL d   1      -3.351  -2.494   5.421  0.00  0.00     0.325 C 
ATOM      9  N   UNL d   1      -3.847  -3.184   6.514  0.00  0.00    -0.309 N 
ATOM     10  O   UNL d   1      -2.443  -2.897   4.713  0.00  0.00    -0.247 OA
ATOM     11  H   UNL d   1      -4.654  -2.801   6.979  0.00  0.00     0.170 HD
ATOM     12  H   UNL d   1      -4.879  -1.154   5.699  0.00  0.00     0.170 HD
BRANCH   9  13
ATOM     13  C   UNL d   1      -3.381  -4.438   6.980  0.00  0.00     0.036 A 
ATOM     14  C   UNL d   1      -2.229  -5.064   6.494  0.00  0.00     0.032 A 
ATOM     15  C   UNL d   1      -1.845  -6.335   6.940  0.00  0.00     0.039 A 
ATOM     16  C   UNL d   1      -2.596  -6.994   7.905  0.00  0.00     0.078 A 
ATOM     17  C   UNL d   1      -3.730  -6.359   8.423  0.00  0.00     0.039 A 
ATOM     18  C   UNL d   1      -4.119  -5.091   7.969  0.00  0.00     0.032 A 
BRANCH  16  19
ATOM     19  O   UNL d   1      -2.329  -8.223   8.434  0.00  0.00    -0.255 OA
BRANCH  19  20
ATOM     20  C   UNL d   1      -1.252  -8.963   7.879  0.00  0.00     0.530 C 
ATOM     21  F   UNL d   1      -0.087  -8.285   7.961  0.00  0.00    -0.144 F 
ATOM     22  F   UNL d   1      -1.111 -10.111   8.580  0.00  0.00    -0.144 F 
ATOM     23  F   UNL d   1      -1.499  -9.285   6.591  0.00  0.00    -0.144 F 
ENDBRANCH  19  20
ENDBRANCH  16  19
ENDBRANCH   9  13
ENDBRANCH   1   7
BRANCH   2  24
ATOM     24  O   UNL d   1      -2.451   2.875   1.827  0.00  0.00    -0.311 OA
BRANCH  24  25
ATOM     25  C   UNL d   1      -2.724   4.172   2.199  0.00  0.00     0.077 C 
ATOM     26  C   UNL d   1      -3.021   4.583   3.500  0.00  0.00     0.053 C 
ATOM     27  C   UNL d   1      -3.430   5.899   3.759  0.00  0.00     0.051 C 
ATOM     28  C   UNL d   1      -3.408   6.834   2.713  0.00  0.00     0.032 C 
ATOM     29  C   UNL d   1      -3.003   6.459   1.420  0.00  0.00     0.051 C 
ATOM     30  C   UNL d   1      -2.675   5.117   1.174  0.00  0.00     0.053 C 
BRANCH  27  31
ATOM     31  C   UNL d   1      -3.930   6.254   5.139  0.00  0.00     0.417 C 
ATOM     32  F   UNL d   1      -4.438   7.513   5.225  0.00  0.00    -0.166 F 
ATOM     33  F   UNL d   1      -2.962   6.168   6.089  0.00  0.00    -0.166 F 
ATOM     34  F   UNL d   1      -4.931   5.423   5.547  0.00  0.00    -0.166 F 
ENDBRANCH  27  31
BRANCH  29  35
ATOM     35  C   UNL d   1      -2.932   7.463   0.295  0.00  0.00     0.417 C 
ATOM     36  F   UNL d   1      -3.337   8.711   0.658  0.00  0.00    -0.166 F 
ATOM     37  F   UNL d   1      -1.670   7.606  -0.194  0.00  0.00    -0.166 F 
ATOM     38  F   UNL d   1      -3.709   7.111  -0.766  0.00  0.00    -0.166 F 
ENDBRANCH  29  35
ENDBRANCH  24  25
ENDBRANCH   2  24
TORSDOF 8
