REMARK  2 active torsions:
REMARK  status: ('A' for Active; 'I' for Inactive)
REMARK    1  A    between atoms: C_6  and  N_1 
REMARK    2  A    between atoms: C_7  and  C_2 
ROOT
ATOM      1  N   UNL d   1      -0.631  -1.162   0.216  0.00  0.00    -0.298 N 
ATOM      2  C   UNL d   1       0.766  -1.343  -0.146  0.00  0.00     0.188 C 
ATOM      3  S   UNL d   1       1.507   0.315  -0.251  0.00  0.00    -0.129 SA
ATOM      4  C   UNL d   1      -1.138   0.133   0.072  0.00  0.00     0.235 C 
ATOM      5  C   UNL d   1      -0.081   1.139  -0.319  0.00  0.00     0.179 C 
ATOM      6  O   UNL d   1      -2.315   0.470   0.174  0.00  0.00    -0.272 OA
ENDROOT
BRANCH   1   7
ATOM      7  C   UNL d   1      -1.492  -2.278   0.451  0.00  0.00     0.054 A 
ATOM      8  C   UNL d   1      -1.276  -3.532  -0.111  0.00  0.00     0.117 A 
ATOM      9  N   UNL d   1      -2.063  -4.620   0.094  0.00  0.00    -0.373 N 
ATOM     10  C   UNL d   1      -3.112  -4.458   0.926  0.00  0.00     0.088 A 
ATOM     11  HN  UNL d   1      -1.870  -5.513  -0.358  1.00  0.00     0.164 HD
ATOM     12  C   UNL d   1      -3.411  -3.264   1.556  0.00  0.00     0.019 A 
ATOM     13  C   UNL d   1      -2.597  -2.160   1.305  0.00  0.00     0.032 A 
ENDBRANCH   1   7
BRANCH   2  14
ATOM     14  C   UNL d   1       1.603  -2.203   0.789  0.00  0.00    -0.025 A 
ATOM     15  C   UNL d   1       2.704  -2.908   0.271  0.00  0.00     0.010 A 
ATOM     16  C   UNL d   1       3.544  -3.646   1.107  0.00  0.00     0.001 A 
ATOM     17  C   UNL d   1       3.297  -3.694   2.476  0.00  0.00     0.000 A 
ATOM     18  C   UNL d   1       2.208  -3.007   3.009  0.00  0.00     0.001 A 
ATOM     19  C   UNL d   1       1.371  -2.262   2.175  0.00  0.00     0.010 A 
ENDBRANCH   2  14
TORSDOF 2
