REMARK  3 active torsions:
REMARK  status: ('A' for Active; 'I' for Inactive)
REMARK    1  A    between atoms: C_2  and  N_1 
REMARK    2  A    between atoms: C_3  and  C_5 
REMARK    3  A    between atoms: O_14  and  C_6 
ROOT
ATOM      1  C   UNL d   1       0.238  -0.869   0.840  0.00  0.00     0.136 A 
ATOM      2  C   UNL d   1       0.670  -1.143   2.152  0.00  0.00     0.055 A 
ATOM      3  C   UNL d   1      -0.072  -2.004   2.972  0.00  0.00     0.050 A 
ATOM      4  C   UNL d   1      -0.911  -1.459   0.306  0.00  0.00     0.101 A 
ATOM      5  C   UNL d   1      -1.239  -2.580   2.452  0.00  0.00     0.019 A 
ATOM      6  C   UNL d   1      -1.651  -2.307   1.141  0.00  0.00     0.040 A 
ENDROOT
BRANCH   3   7
ATOM      7  C   UNL d   1       0.349  -2.292   4.394  0.00  0.00     0.417 C 
ATOM      8  F   UNL d   1       1.501  -1.661   4.753  0.00  0.00    -0.166 F 
ATOM      9  F   UNL d   1      -0.589  -1.902   5.300  0.00  0.00    -0.166 F 
ATOM     10  F   UNL d   1       0.560  -3.617   4.615  0.00  0.00    -0.166 F 
ENDBRANCH   3   7
BRANCH   1  11
ATOM     11  N   UNL d   1       1.005   0.113   0.109  0.00  0.00    -0.113 N 
ATOM     12  O   UNL d   1       2.181  -0.177  -0.152  0.00  0.00    -0.532 OA
ATOM     13  O   UNL d   1       0.446   1.181  -0.173  0.00  0.00    -0.532 OA
ENDBRANCH   1  11
BRANCH   4  14
ATOM     14  O   UNL d   1      -1.476  -1.286  -0.924  0.00  0.00    -0.353 OA
ATOM     15  C   UNL d   1      -0.609  -1.170  -2.047  0.00  0.00     0.210 C 
ENDBRANCH   4  14
TORSDOF 3
