REMARK  3 active torsions:
REMARK  status: ('A' for Active; 'I' for Inactive)
REMARK    1  A    between atoms: N_2  and  C_1 
REMARK    2  A    between atoms: N_3  and  C_1 
REMARK    3  A    between atoms: C_6  and  C_1 
ROOT
ATOM      1  N   UNL d   1       8.040   0.226   0.573  0.00  0.00    -0.191 NA
ATOM      2  C   UNL d   1       6.891   0.133   0.473  0.00  0.00     0.099 C 
ATOM      3  C   UNL d   1       2.650  -0.115   0.072  0.00  0.00     0.005 A 
ATOM      4  C   UNL d   1       3.242   0.510   1.188  0.00  0.00     0.013 A 
ATOM      5  C   UNL d   1       3.504  -0.672  -0.897  0.00  0.00     0.013 A 
ATOM      6  C   UNL d   1       5.464   0.029   0.348  0.00  0.00     0.044 A 
ATOM      7  C   UNL d   1       4.896  -0.607  -0.758  0.00  0.00     0.023 A 
ATOM      8  C   UNL d   1       4.633   0.587   1.323  0.00  0.00     0.023 A 
ENDROOT
BRANCH   3   9
ATOM      9  C   UNL d   1       1.112  -0.093  -0.072  0.00  0.00     0.489 C 
BRANCH   9  10
ATOM     10  N   UNL d   1       0.624   0.520  -1.338  0.00  0.00     0.128 N 
ATOM     11  C   UNL d   1      -0.826   0.845  -1.217  0.00  0.00     0.285 C 
ATOM     12  C   UNL d   1      -1.484   1.338  -2.515  0.00  0.00     0.104 C 
ATOM     13  S   UNL d   1      -0.719   2.845  -3.180  0.00  0.00    -0.166 SA
ATOM     14  C   UNL d   1       1.002   2.283  -3.089  0.00  0.00     0.104 C 
ATOM     15  C   UNL d   1       1.350   1.767  -1.688  0.00  0.00     0.285 C 
ENDBRANCH   9  10
BRANCH   9  16
ATOM     16  N   UNL d   1       0.451  -1.407   0.155  0.00  0.00     0.128 N 
ATOM     17  C   UNL d   1       0.658  -2.397  -0.919  0.00  0.00     0.285 C 
ATOM     18  C   UNL d   1      -0.089  -3.732  -0.758  0.00  0.00     0.104 C 
ATOM     19  S   UNL d   1       0.378  -4.592   0.768  0.00  0.00    -0.166 SA
ATOM     20  C   UNL d   1      -0.012  -3.221   1.888  0.00  0.00     0.104 C 
ATOM     21  C   UNL d   1       0.741  -1.940   1.501  0.00  0.00     0.285 C 
ENDBRANCH   9  16
ENDBRANCH   3   9
TORSDOF 3
