REMARK  5 active torsions:
REMARK  status: ('A' for Active; 'I' for Inactive)
REMARK    1  A    between atoms: N_6  and  C_1 
REMARK    2  A    between atoms: C_2  and  C_3 
REMARK       I    between atoms: C_8  and  N_7 
REMARK    3  A    between atoms: C_10  and  C_8 
REMARK    4  A    between atoms: C_14  and  C_13 
REMARK    5  A    between atoms: O_25  and  C_14 
ROOT
ATOM      1  N   UNL d   1       0.591   2.242  -0.182  0.00  0.00    -0.363 N 
ATOM      2  N   UNL d   1       2.413   4.407   0.045  0.00  0.00    -0.346 N 
ATOM      3  C   UNL d   1       3.041   5.609  -0.212  0.00  0.00     0.243 C 
ATOM      4  C   UNL d   1       1.349   2.670  -1.367  0.00  0.00     0.144 C 
ATOM      5  C   UNL d   1       0.208   3.374   0.677  0.00  0.00     0.144 C 
ATOM      6  C   UNL d   1       2.672   3.282  -0.873  0.00  0.00     0.146 C 
ATOM      7  C   UNL d   1       1.505   4.068   1.167  0.00  0.00     0.146 C 
ATOM      8  O   UNL d   1       3.784   5.774  -1.177  0.00  0.00    -0.268 OA
ENDROOT
BRANCH   1   9
ATOM      9  C   UNL d   1      -0.147   1.076  -0.153  0.00  0.00     0.125 A 
ATOM     10  N   UNL d   1      -1.380   1.139   0.416  0.00  0.00    -0.350 N 
ATOM     11  C   UNL d   1      -2.137   0.016   0.502  0.00  0.00     0.106 A 
ATOM     12  HN  UNL d   1      -1.733   2.026   0.776  1.00  0.00     0.166 HD
ATOM     13  C   UNL d   1      -1.744  -1.221   0.026  0.00  0.00     0.065 A 
ATOM     14  C   UNL d   1      -0.473  -1.304  -0.532  0.00  0.00     0.045 A 
ATOM     15  C   UNL d   1       0.341  -0.168  -0.601  0.00  0.00     0.078 A 
ATOM     16 CL   UNL d   1       1.974  -0.453  -1.109  0.00  0.00    -0.080 Cl
BRANCH  13  17
ATOM     17  C   UNL d   1      -2.647  -2.407   0.141  0.00  0.00     0.418 C 
ATOM     18  F   UNL d   1      -2.131  -3.533  -0.425  0.00  0.00    -0.166 F 
ATOM     19  F   UNL d   1      -2.923  -2.733   1.433  0.00  0.00    -0.166 F 
ATOM     20  F   UNL d   1      -3.850  -2.207  -0.462  0.00  0.00    -0.166 F 
ENDBRANCH  13  17
ENDBRANCH   1   9
BRANCH   3  21
ATOM     21  C   UNL d   1       2.800   6.746   0.710  0.00  0.00     0.081 C 
ATOM     22  C   UNL d   1       3.332   7.942   0.405  0.00  0.00     0.086 C 
BRANCH  22  23
ATOM     23  C   UNL d   1       3.087   9.076   1.310  0.00  0.00     0.165 C 
ATOM     24  O   UNL d   1       2.404   9.013   2.318  0.00  0.00    -0.647 OA
BRANCH  23  25
ATOM     25  O   UNL d   1       3.699  10.202   0.899  0.00  0.00    -0.773 OA
ATOM     26  H   UNL d   1       4.224  10.121   0.083  0.00  0.00     0.167 HD
ENDBRANCH  23  25
ENDBRANCH  22  23
ENDBRANCH   3  21
TORSDOF 5
