REMARK  4 active torsions:
REMARK  status: ('A' for Active; 'I' for Inactive)
REMARK    1  A    between atoms: C_5  and  N_1 
REMARK    2  A    between atoms: C_14  and  C_4 
REMARK    3  A    between atoms: C_16  and  C_7 
REMARK    4  A    between atoms: C_10  and  C_11 
ROOT
ATOM      1  N   UNL d   1       0.957  -0.661  -0.081  0.00  0.00    -0.241 N 
ATOM      2  N   UNL d   1       0.935   0.698  -0.062  0.00  0.00    -0.296 N 
ATOM      3  HN  UNL d   1       1.746   1.317  -0.086  1.00  0.00     0.187 HD
ATOM      4  C   UNL d   1      -0.353  -1.179   0.028  0.00  0.00     0.045 A 
ATOM      5  C   UNL d   1      -1.176  -0.059   0.032  0.00  0.00     0.055 A 
ATOM      6  C   UNL d   1      -0.340   1.069  -0.007  0.00  0.00     0.036 A 
ENDROOT
BRANCH   1   7
ATOM      7  C   UNL d   1       2.224  -1.345  -0.182  0.00  0.00     0.149 A 
ATOM      8  N   UNL d   1       2.281  -2.625   0.286  0.00  0.00    -0.349 N 
ATOM      9  C   UNL d   1       3.404  -3.353   0.108  0.00  0.00     0.106 A 
ATOM     10  HN  UNL d   1       1.478  -3.031   0.767  1.00  0.00     0.167 HD
ATOM     11  C   UNL d   1       4.523  -2.876  -0.536  0.00  0.00     0.065 A 
ATOM     12  C   UNL d   1       4.494  -1.544  -0.957  0.00  0.00     0.045 A 
ATOM     13  C   UNL d   1       3.348  -0.753  -0.776  0.00  0.00     0.080 A 
ATOM     14 CL   UNL d   1       3.459   0.836  -1.448  0.00  0.00    -0.080 Cl
BRANCH  11  15
ATOM     15  C   UNL d   1       5.679  -3.794  -0.791  0.00  0.00     0.418 C 
ATOM     16  F   UNL d   1       6.681  -3.214  -1.508  0.00  0.00    -0.166 F 
ATOM     17  F   UNL d   1       6.245  -4.249   0.354  0.00  0.00    -0.166 F 
ATOM     18  F   UNL d   1       5.308  -4.897  -1.495  0.00  0.00    -0.166 F 
ENDBRANCH  11  15
ENDBRANCH   1   7
BRANCH   4  19
ATOM     19  C   UNL d   1      -0.789  -2.651   0.064  0.00  0.00    -0.007 C 
ATOM     20  C   UNL d   1      -0.441  -3.300   1.419  0.00  0.00     0.021 C 
ATOM     21  C   UNL d   1      -2.340  -2.759  -0.051  0.00  0.00     0.021 C 
ATOM     22  C   UNL d   1      -0.264  -3.458  -1.143  0.00  0.00     0.021 C 
ENDBRANCH   4  19
BRANCH   6  23
ATOM     23  C   UNL d   1      -0.737   2.538   0.005  0.00  0.00    -0.007 C 
ATOM     24  C   UNL d   1       0.492   3.473   0.071  0.00  0.00     0.021 C 
ATOM     25  C   UNL d   1      -1.527   2.884  -1.274  0.00  0.00     0.021 C 
ATOM     26  C   UNL d   1      -1.621   2.838   1.233  0.00  0.00     0.021 C 
ENDBRANCH   6  23
TORSDOF 4
