REMARK  4 active torsions:
REMARK  status: ('A' for Active; 'I' for Inactive)
REMARK    1  A    between atoms: C_6  and  C_1 
REMARK       I    between atoms: C_2  and  N_5 
REMARK    2  A    between atoms: C_4  and  C_2 
REMARK    3  A    between atoms: N_5  and  C_3 
REMARK    4  A    between atoms: O_14  and  C_6 
ROOT
ATOM      1  C   UNL d   1       2.905   2.878  -0.007  0.00  0.00     0.262 C 
ATOM      2  N   UNL d   1       2.650   1.534  -0.217  0.00  0.00    -0.321 N 
ATOM      3  O   UNL d   1       2.037   3.728   0.162  0.00  0.00    -0.267 OA
ATOM      4  H   UNL d   1       3.423   0.888  -0.102  0.00  0.00     0.169 HD
ENDROOT
BRANCH   2   5
ATOM      5  C   UNL d   1       1.395   0.930  -0.300  0.00  0.00     0.058 C 
ATOM      6  C   UNL d   1       0.180   1.468  -0.699  0.00  0.00     0.106 C 
ATOM      7  S   UNL d   1      -1.109   0.345  -0.458  0.00  0.00    -0.094 SA
ATOM      8  C   UNL d   1      -0.042  -0.894   0.011  0.00  0.00     0.053 C 
ATOM      9  C   UNL d   1       1.261  -0.460   0.035  0.00  0.00     0.038 C 
BRANCH   6  10
ATOM     10  C   UNL d   1      -0.175   2.732  -1.317  0.00  0.00     0.302 C 
ATOM     11  O   UNL d   1      -1.236   3.329  -1.174  0.00  0.00    -0.259 OA
BRANCH  10  12
ATOM     12  O   UNL d   1       0.798   3.094  -2.207  0.00  0.00    -0.322 OA
ATOM     13  C   UNL d   1       0.619   4.356  -2.853  0.00  0.00     0.213 C 
ENDBRANCH  10  12
ENDBRANCH   6  10
ENDBRANCH   2   5
BRANCH   1  14
ATOM     14  C   UNL d   1       4.347   3.264   0.094  0.00  0.00     0.109 A 
ATOM     15  C   UNL d   1       5.381   2.323   0.017  0.00  0.00     0.135 A 
ATOM     16  F   UNL d   1       5.119   1.020  -0.173  0.00  0.00    -0.205 F 
ATOM     17  C   UNL d   1       6.722   2.690   0.150  0.00  0.00     0.043 A 
ATOM     18  C   UNL d   1       7.058   4.021   0.367  0.00  0.00     0.006 A 
ATOM     19  C   UNL d   1       6.047   4.977   0.437  0.00  0.00     0.043 A 
ATOM     20  C   UNL d   1       4.707   4.598   0.298  0.00  0.00     0.135 A 
ATOM     21  F   UNL d   1       3.790   5.573   0.371  0.00  0.00    -0.205 F 
ENDBRANCH   1  14
TORSDOF 4
