REMARK  4 active torsions:
REMARK  status: ('A' for Active; 'I' for Inactive)
REMARK    1  A    between atoms: C_7  and  C_1 
REMARK    2  A    between atoms: O_11  and  C_4 
REMARK    3  A    between atoms: O_14  and  C_7 
REMARK    4  A    between atoms: C_19  and  O_14 
ROOT
ATOM      1  C   UNL d   1      -1.449   2.476   0.030  0.00  0.00     0.141 A 
ATOM      2  C   UNL d   1       0.050   2.467   0.050  0.00  0.00     0.267 A 
ATOM      3  N   UNL d   1       0.695   1.227   0.015  0.00  0.00    -0.312 N 
ATOM      4  C   UNL d   1      -2.124   1.313   0.017  0.00  0.00     0.100 A 
ATOM      5  C   UNL d   1      -1.414   0.028   0.014  0.00  0.00     0.026 A 
ATOM      6  C   UNL d   1      -0.009   0.003   0.015  0.00  0.00     0.056 A 
ATOM      7  O   UNL d   1       0.697   3.510   0.103  0.00  0.00    -0.267 OA
ATOM      8  C   UNL d   1       0.669  -1.221   0.008  0.00  0.00    -0.030 A 
ATOM      9  C   UNL d   1       2.144   1.264   0.038  0.00  0.00     0.133 C 
ATOM     10  C   UNL d   1      -2.127  -1.185   0.002  0.00  0.00     0.016 A 
ATOM     11  C   UNL d   1       2.923  -0.029  -0.107  0.00  0.00     0.025 C 
ATOM     12  C   UNL d   1      -1.457  -2.403  -0.008  0.00  0.00     0.002 A 
ATOM     13  C   UNL d   1      -0.067  -2.419  -0.002  0.00  0.00     0.009 A 
ATOM     14  C   UNL d   1       2.159  -1.323   0.079  0.00  0.00     0.042 C 
ENDROOT
BRANCH   1  15
ATOM     15  C   UNL d   1      -2.234   3.735  -0.060  0.00  0.00     0.301 C 
ATOM     16  O   UNL d   1      -3.459   3.740  -0.138  0.00  0.00    -0.259 OA
BRANCH  15  17
ATOM     17  O   UNL d   1      -1.455   4.833  -0.137  0.00  0.00    -0.318 OA
BRANCH  17  18
ATOM     18  C   UNL d   1      -2.062   6.016  -0.669  0.00  0.00     0.174 C 
ATOM     19  C   UNL d   1      -1.907   5.980  -2.179  0.00  0.00     0.034 C 
ENDBRANCH  17  18
ENDBRANCH  15  17
ENDBRANCH   1  15
BRANCH   4  20
ATOM     20  O   UNL d   1      -3.509   1.205  -0.012  0.00  0.00    -0.358 OA
ATOM     21  H   UNL d   1      -3.907   2.104  -0.037  0.00  0.00     0.217 HD
ENDBRANCH   4  20
TORSDOF 4
