REMARK  9 active torsions:
REMARK  status: ('A' for Active; 'I' for Inactive)
REMARK    1  A    between atoms: C_2  and  C_1 
REMARK       I    between atoms: N_6  and  C_1 
REMARK    2  A    between atoms: O_11  and  C_3 
REMARK    3  A    between atoms: O_13  and  C_4 
REMARK    4  A    between atoms: O_12  and  C_5 
REMARK    5  A    between atoms: C_10  and  N_6 
REMARK    6  A    between atoms: O_19  and  C_14 
REMARK    7  A    between atoms: C_21  and  O_19 
REMARK    8  A    between atoms: O_20  and  C_23 
REMARK    9  A    between atoms: C_23  and  C_21 
ROOT
ATOM      1  C   UNL d   1       0.983  -0.092  -0.072  0.00  0.00     0.256 C 
ATOM      2  N   UNL d   1       0.198   0.128  -1.190  0.00  0.00    -0.323 N 
ATOM      3  O   UNL d   1       2.209  -0.179  -0.051  0.00  0.00    -0.267 OA
ATOM      4  H   UNL d   1      -0.808   0.106  -1.082  0.00  0.00     0.169 HD
ENDROOT
BRANCH   1   5
ATOM      5  C   UNL d   1       0.290  -0.249   1.235  0.00  0.00     0.037 A 
ATOM      6  C   UNL d   1       0.950  -1.002   2.217  0.00  0.00     0.057 A 
ATOM      7  C   UNL d   1       0.433  -1.137   3.512  0.00  0.00     0.105 A 
ATOM      8  C   UNL d   1      -0.778  -0.493   3.840  0.00  0.00     0.135 A 
ATOM      9  C   UNL d   1      -1.426   0.288   2.851  0.00  0.00     0.105 A 
ATOM     10  C   UNL d   1      -0.904   0.389   1.552  0.00  0.00     0.057 A 
BRANCH   7  11
ATOM     11  O   UNL d   1       1.079  -1.862   4.479  0.00  0.00    -0.353 OA
ATOM     12  C   UNL d   1       2.286  -2.536   4.141  0.00  0.00     0.210 C 
ENDBRANCH   7  11
BRANCH   8  13
ATOM     13  O   UNL d   1      -1.439  -0.573   5.041  0.00  0.00    -0.351 OA
ATOM     14  C   UNL d   1      -0.869  -1.277   6.132  0.00  0.00     0.210 C 
ENDBRANCH   8  13
BRANCH   9  15
ATOM     15  O   UNL d   1      -2.604   0.985   3.004  0.00  0.00    -0.353 OA
ATOM     16  C   UNL d   1      -2.800   1.620   4.264  0.00  0.00     0.210 C 
ENDBRANCH   9  15
ENDBRANCH   1   5
BRANCH   2  17
ATOM     17  C   UNL d   1       0.678   0.402  -2.496  0.00  0.00     0.035 A 
ATOM     18  C   UNL d   1       2.034   0.454  -2.822  0.00  0.00     0.032 A 
ATOM     19  C   UNL d   1       2.459   0.814  -4.105  0.00  0.00     0.039 A 
ATOM     20  C   UNL d   1       1.531   1.129  -5.092  0.00  0.00     0.069 A 
ATOM     21  C   UNL d   1       0.172   1.032  -4.791  0.00  0.00     0.039 A 
ATOM     22  C   UNL d   1      -0.255   0.668  -3.504  0.00  0.00     0.032 A 
BRANCH  20  23
ATOM     23  O   UNL d   1       1.834   1.543  -6.362  0.00  0.00    -0.349 OA
BRANCH  23  24
ATOM     24  C   UNL d   1       3.222   1.748  -6.638  0.00  0.00     0.201 C 
BRANCH  24  25
ATOM     25  C   UNL d   1       3.391   2.297  -8.050  0.00  0.00     0.193 C 
BRANCH  25  26
ATOM     26  O   UNL d   1       4.785   2.455  -8.319  0.00  0.00    -0.394 OA
ATOM     27  C   UNL d   1       5.016   2.955  -9.629  0.00  0.00     0.201 C 
ENDBRANCH  25  26
ENDBRANCH  24  25
ENDBRANCH  23  24
ENDBRANCH  20  23
ENDBRANCH   2  17
TORSDOF 9
