REMARK  2 active torsions:
REMARK  status: ('A' for Active; 'I' for Inactive)
REMARK    1  A    between atoms: C_3  and  S_1 
REMARK    2  A    between atoms: C_4  and  S_1 
ROOT
ATOM      1  N   UNL d   1       3.755  -2.537  -0.032  0.00  0.00    -0.196 NA
ATOM      2  C   UNL d   1       2.810  -0.097   0.035  0.00  0.00     0.264 C 
ATOM      3  C   UNL d   1       3.292  -1.473  -0.003  0.00  0.00     0.074 C 
ENDROOT
BRANCH   2   4
ATOM      4  S   UNL d   1       1.033  -0.174   0.040  0.00  0.00     0.164 S 
ATOM      5  O   UNL d   1       0.618  -0.784   1.290  0.00  0.00    -0.226 OA
ATOM      6  O   UNL d   1       0.610  -0.740  -1.229  0.00  0.00    -0.226 OA
BRANCH   4   7
ATOM      7  C   UNL d   1       0.460   1.567   0.071  0.00  0.00     0.054 C 
ATOM      8  C   UNL d   1       0.955   2.318  -1.173  0.00  0.00     0.031 C 
ATOM      9  C   UNL d   1      -1.080   1.564   0.071  0.00  0.00     0.031 C 
ATOM     10  C   UNL d   1       0.956   2.275   1.339  0.00  0.00     0.031 C 
ENDBRANCH   4   7
ENDBRANCH   2   4
TORSDOF 2
