REMARK  4 active torsions:
REMARK  status: ('A' for Active; 'I' for Inactive)
REMARK    1  A    between atoms: C_6  and  C_1 
REMARK    2  A    between atoms: C_10  and  C_8 
REMARK    3  A    between atoms: S_9  and  C_10 
REMARK    4  A    between atoms: C_11  and  S_9 
ROOT
ATOM      1  C   UNL d   1      -3.753  -0.084  -0.093  0.00  0.00     0.015 A 
ATOM      2  C   UNL d   1      -4.410  -0.698   1.000  0.00  0.00    -0.035 A 
ATOM      3  C   UNL d   1      -4.513   0.675  -1.012  0.00  0.00     0.016 A 
ATOM      4  C   UNL d   1      -5.798  -0.475   1.152  0.00  0.00     0.009 A 
ATOM      5  C   UNL d   1      -5.892   0.827  -0.869  0.00  0.00     0.001 A 
ATOM      6  C   UNL d   1      -6.533   0.255   0.217  0.00  0.00     0.001 A 
ENDROOT
BRANCH   1   7
ATOM      7  C   UNL d   1      -2.304  -0.201  -0.311  0.00  0.00     0.117 A 
ATOM      8  N   UNL d   1      -1.361  -0.251   0.611  0.00  0.00    -0.340 N 
ATOM      9  C   UNL d   1      -0.175  -0.423  -0.062  0.00  0.00     0.060 A 
ATOM     10  HN  UNL d   1      -1.487  -0.177   1.621  1.00  0.00     0.167 HD
ATOM     11  C   UNL d   1       1.127  -0.572   0.432  0.00  0.00     0.032 A 
ATOM     12  C   UNL d   1      -0.386  -0.455  -1.434  0.00  0.00     0.060 A 
ATOM     13  C   UNL d   1       2.175  -0.762  -0.479  0.00  0.00     0.002 A 
ATOM     14  C   UNL d   1       1.930  -0.791  -1.855  0.00  0.00     0.002 A 
ATOM     15  C   UNL d   1       0.637  -0.632  -2.367  0.00  0.00     0.032 A 
ATOM     16  N   UNL d   1      -1.739  -0.296  -1.566  0.00  0.00    -0.340 N 
ATOM     17  H   UNL d   1      -2.249  -0.296  -2.435  0.00  0.00     0.167 HD
ENDBRANCH   1   7
BRANCH   2  18
ATOM     18  C   UNL d   1      -3.663  -1.541   2.034  0.00  0.00     0.119 C 
BRANCH  18  19
ATOM     19  S   UNL d   1      -4.629  -3.008   2.586  0.00  0.00    -0.125 SA
BRANCH  19  20
ATOM     20  C   UNL d   1      -3.703  -3.632   3.976  0.00  0.00     0.000 A 
ATOM     21  C   UNL d   1      -4.439  -4.194   5.027  0.00  0.00     0.019 A 
ATOM     22  C   UNL d   1      -3.803  -4.852   6.083  0.00  0.00     0.008 A 
ATOM     23  C   UNL d   1      -2.410  -4.966   6.103  0.00  0.00    -0.062 A 
ATOM     24  C   UNL d   1      -1.668  -4.374   5.075  0.00  0.00     0.008 A 
ATOM     25  C   UNL d   1      -1.747  -5.761   7.191  0.00  0.00     0.048 C 
ATOM     26  C   UNL d   1      -2.310  -3.710   4.018  0.00  0.00     0.019 A 
ENDBRANCH  19  20
ENDBRANCH  18  19
ENDBRANCH   2  18
TORSDOF 4
