REMARK  5 active torsions:
REMARK  status: ('A' for Active; 'I' for Inactive)
REMARK    1  A    between atoms: C_15  and  C_3 
REMARK    2  A    between atoms: C_9  and  C_4 
REMARK    3  A    between atoms: C_14  and  C_5 
REMARK    4  A    between atoms: C_13  and  C_6 
REMARK    5  A    between atoms: O_18  and  C_7 
ROOT
ATOM      1  C   UNL d   1       4.574   2.364  -1.118  0.00  0.00    -0.016 A 
ATOM      2  C   UNL d   1       3.881   3.381   1.059  0.00  0.00    -0.016 A 
ATOM      3  C   UNL d   1       4.806   3.216  -0.005  0.00  0.00     0.079 A 
ATOM      4  C   UNL d   1       2.473   1.687  -0.030  0.00  0.00    -0.008 A 
ATOM      5  C   UNL d   1       2.717   2.594   1.004  0.00  0.00     0.024 A 
ATOM      6  C   UNL d   1       3.387   1.603  -1.084  0.00  0.00     0.024 A 
ENDROOT
BRANCH   4   7
ATOM      7  C   UNL d   1       1.297   0.823  -0.015  0.00  0.00     0.050 A 
ATOM      8  N   UNL d   1       0.713   0.353  -1.181  0.00  0.00    -0.349 N 
ATOM      9  C   UNL d   1      -0.303  -0.446  -0.901  0.00  0.00     0.084 A 
ATOM     10  HN  UNL d   1       1.023   0.590  -2.123  1.00  0.00     0.166 HD
ATOM     11  S   UNL d   1      -0.628  -0.633   0.780  0.00  0.00    -0.081 SA
ATOM     12  C   UNL d   1       0.702   0.370   1.149  0.00  0.00     0.082 A 
BRANCH   9  13
ATOM     13  C   UNL d   1      -1.146  -1.107  -1.914  0.00  0.00    -0.002 A 
ATOM     14  C   UNL d   1      -1.802  -2.328  -1.665  0.00  0.00     0.016 A 
ATOM     15  C   UNL d   1      -2.605  -2.925  -2.642  0.00  0.00     0.024 A 
ATOM     16  C   UNL d   1      -2.758  -2.313  -3.881  0.00  0.00     0.034 A 
ATOM     17  C   UNL d   1      -2.107  -1.110  -4.157  0.00  0.00     0.024 A 
ATOM     18 CL   UNL d   1      -3.754  -3.042  -5.078  0.00  0.00    -0.084 Cl
ATOM     19  C   UNL d   1      -1.302  -0.517  -3.177  0.00  0.00     0.016 A 
ENDBRANCH   9  13
ENDBRANCH   4   7
BRANCH   2  20
ATOM     20  C   UNL d   1       4.084   4.375   2.233  0.00  0.00    -0.021 C 
ATOM     21  C   UNL d   1       2.900   4.392   3.241  0.00  0.00     0.019 C 
ATOM     22  C   UNL d   1       5.338   4.014   3.056  0.00  0.00     0.019 C 
ATOM     23  C   UNL d   1       4.205   5.823   1.710  0.00  0.00     0.019 C 
ENDBRANCH   2  20
BRANCH   1  24
ATOM     24  C   UNL d   1       5.525   2.254  -2.340  0.00  0.00    -0.021 C 
ATOM     25  C   UNL d   1       5.034   1.239  -3.411  0.00  0.00     0.019 C 
ATOM     26  C   UNL d   1       5.620   3.612  -3.070  0.00  0.00     0.019 C 
ATOM     27  C   UNL d   1       6.939   1.788  -1.936  0.00  0.00     0.019 C 
ENDBRANCH   1  24
BRANCH   3  28
ATOM     28  O   UNL d   1       5.991   3.894   0.076  0.00  0.00    -0.360 OA
ATOM     29  H   UNL d   1       5.913   4.656  -0.520  0.00  0.00     0.217 HD
ENDBRANCH   3  28
TORSDOF 5
