REMARK  2 active torsions:
REMARK  status: ('A' for Active; 'I' for Inactive)
REMARK    1  A    between atoms: C_12  and  N_17 
REMARK    2  A    between atoms: N_17  and  C_19 
ROOT
ATOM      1  C   UNL d   1      -7.223  -1.221  -0.757  0.00  0.00     0.139 C 
ATOM      2  C   UNL d   1      -7.531  -2.529  -0.304  0.00  0.00     0.112 C 
ATOM      3  C   UNL d   1      -8.219  -0.472  -1.444  0.00  0.00     0.112 C 
ATOM      4  N   UNL d   1      -7.755  -3.603   0.075  0.00  0.00    -0.191 NA
ATOM      5  N   UNL d   1      -9.008   0.161  -2.012  0.00  0.00    -0.191 NA
ATOM      6  C   UNL d   1      -6.007  -0.676  -0.563  0.00  0.00     0.122 C 
ENDROOT
BRANCH   6   7
ATOM      7  N   UNL d   1      -4.877  -1.204   0.027  0.00  0.00    -0.364 N 
ATOM      8  H   UNL d   1      -4.896  -2.186   0.296  0.00  0.00     0.165 HD
BRANCH   7   9
ATOM      9  C   UNL d   1      -3.623  -0.573   0.139  0.00  0.00     0.033 A 
ATOM     10  C   UNL d   1      -2.456  -1.348   0.084  0.00  0.00     0.048 A 
ATOM     11  C   UNL d   1      -1.197  -0.732   0.072  0.00  0.00     0.051 A 
ATOM     12  C   UNL d   1       0.038  -1.527   0.004  0.00  0.00     0.199 A 
ATOM     13  C   UNL d   1      -1.082   0.653   0.111  0.00  0.00     0.092 A 
ATOM     14  C   UNL d   1       1.303  -0.785   0.001  0.00  0.00     0.066 A 
ATOM     15  O   UNL d   1       0.012  -2.750  -0.043  0.00  0.00    -0.286 OA
ATOM     16  C   UNL d   1       1.273   0.600   0.027  0.00  0.00     0.162 A 
ATOM     17  C   UNL d   1       2.537  -1.436  -0.022  0.00  0.00     0.021 A 
ATOM     18  N   UNL d   1       2.394   1.359   0.019  0.00  0.00    -0.346 N 
ATOM     19  O   UNL d   1       0.110   1.328   0.075  0.00  0.00    -0.292 OA
ATOM     20  C   UNL d   1       3.579   0.709  -0.006  0.00  0.00     0.090 A 
ATOM     21  HN  UNL d   1       2.347   2.378   0.031  1.00  0.00     0.167 HD
ATOM     22  C   UNL d   1       3.700  -0.672  -0.023  0.00  0.00     0.018 A 
ATOM     23  C   UNL d   1      -2.232   1.432   0.184  0.00  0.00     0.040 A 
ATOM     24  C   UNL d   1      -3.489   0.823   0.195  0.00  0.00     0.032 A 
ENDBRANCH   7   9
ENDBRANCH   6   7
TORSDOF 2
