REMARK  5 active torsions:
REMARK  status: ('A' for Active; 'I' for Inactive)
REMARK    1  A    between atoms: C_4  and  C_1 
REMARK    2  A    between atoms: N_7  and  C_2 
REMARK       I    between atoms: C_3  and  N_6 
REMARK    3  A    between atoms: C_5  and  C_3 
REMARK    4  A    between atoms: C_9  and  C_8 
REMARK    5  A    between atoms: O_21  and  C_9 
ROOT
ATOM      1  C   UNL d   1      -3.113   6.265  -0.263  0.00  0.00     0.255 C 
ATOM      2  N   UNL d   1      -2.541   5.002  -0.139  0.00  0.00    -0.345 N 
ATOM      3  N   UNL d   1      -1.220   2.481  -0.089  0.00  0.00    -0.363 N 
ATOM      4  O   UNL d   1      -2.775   7.070  -1.132  0.00  0.00    -0.267 OA
ATOM      5  C   UNL d   1      -1.373   4.729  -0.993  0.00  0.00     0.146 C 
ATOM      6  C   UNL d   1      -2.724   4.057   0.993  0.00  0.00     0.146 C 
ATOM      7  C   UNL d   1      -2.502   2.576   0.621  0.00  0.00     0.144 C 
ATOM      8  C   UNL d   1      -1.252   3.238  -1.352  0.00  0.00     0.144 C 
ENDROOT
BRANCH   1   9
ATOM      9  C   UNL d   1      -4.178   6.717   0.651  0.00  0.00     0.049 A 
ATOM     10  C   UNL d   1      -5.378   7.278   0.183  0.00  0.00     0.053 A 
ATOM     11  C   UNL d   1      -6.358   7.641   1.129  0.00  0.00     0.019 A 
ATOM     12  C   UNL d   1      -6.153   7.454   2.498  0.00  0.00     0.001 A 
ATOM     13  C   UNL d   1      -4.943   6.948   2.952  0.00  0.00     0.001 A 
ATOM     14  C   UNL d   1      -3.946   6.625   2.035  0.00  0.00     0.018 A 
BRANCH  10  15
ATOM     15  C   UNL d   1      -5.790   7.474  -1.243  0.00  0.00     0.177 C 
ATOM     16  O   UNL d   1      -6.963   7.394  -1.559  0.00  0.00    -0.646 OA
BRANCH  15  17
ATOM     17  O   UNL d   1      -4.850   7.856  -2.126  0.00  0.00    -0.773 OA
ATOM     18  H   UNL d   1      -3.913   7.808  -1.824  0.00  0.00     0.167 HD
ENDBRANCH  15  17
ENDBRANCH  10  15
ENDBRANCH   1   9
BRANCH   3  19
ATOM     19  C   UNL d   1      -0.573   1.260  -0.090  0.00  0.00     0.118 A 
ATOM     20  C   UNL d   1       0.814   1.172  -0.231  0.00  0.00     0.091 A 
ATOM     21  C   UNL d   1       1.411  -0.103  -0.217  0.00  0.00     0.021 A 
ATOM     22  C   UNL d   1       0.641  -1.234  -0.011  0.00  0.00     0.018 A 
ATOM     23  C   UNL d   1      -0.712  -1.055   0.171  0.00  0.00     0.089 A 
ATOM     24  N   UNL d   1      -1.321   0.152   0.130  0.00  0.00    -0.352 N 
ATOM     25  HN  UNL d   1      -2.329   0.228   0.264  1.00  0.00     0.166 HD
BRANCH  20  26
ATOM     26  C   UNL d   1       1.728   2.358  -0.344  0.00  0.00     0.421 C 
ATOM     27  F   UNL d   1       1.203   3.576  -0.042  0.00  0.00    -0.166 F 
ATOM     28  F   UNL d   1       2.817   2.243   0.473  0.00  0.00    -0.166 F 
ATOM     29  F   UNL d   1       2.239   2.487  -1.604  0.00  0.00    -0.166 F 
ENDBRANCH  20  26
ENDBRANCH   3  19
TORSDOF 5
