REMARK  5 active torsions:
REMARK  status: ('A' for Active; 'I' for Inactive)
REMARK    1  A    between atoms: C_8  and  N_1 
REMARK    2  A    between atoms: C_6  and  C_3 
REMARK    3  A    between atoms: C_7  and  C_6 
REMARK    4  A    between atoms: C_15  and  C_8 
REMARK    5  A    between atoms: C_17  and  C_15 
ROOT
ATOM      1  N   UNL d   1       0.164  -1.037   0.051  0.00  0.00    -0.298 N 
ATOM      2  C   UNL d   1       0.926   0.112  -0.028  0.00  0.00     0.148 A 
ATOM      3  C   UNL d   1      -1.560   0.599  -0.015  0.00  0.00     0.078 A 
ATOM      4  C   UNL d   1      -1.213  -0.846  -0.036  0.00  0.00     0.266 A 
ATOM      5  S   UNL d   1      -0.116   1.534  -0.038  0.00  0.00    -0.055 SA
ATOM      6  S   UNL d   1       2.578   0.316  -0.111  0.00  0.00    -0.052 SA
ATOM      7  O   UNL d   1      -2.034  -1.744  -0.186  0.00  0.00    -0.266 OA
ENDROOT
BRANCH   1   8
ATOM      8  C   UNL d   1       0.615  -2.441  -0.074  0.00  0.00     0.138 C 
BRANCH   8   9
ATOM      9  C   UNL d   1       1.895  -2.864   0.655  0.00  0.00     0.059 C 
BRANCH   9  10
ATOM     10  C   UNL d   1       2.264  -4.333   0.577  0.00  0.00    -0.057 A 
ATOM     11  C   UNL d   1       3.631  -4.670   0.587  0.00  0.00     0.009 A 
ATOM     12  C   UNL d   1       4.045  -6.001   0.554  0.00  0.00     0.024 A 
ATOM     13  C   UNL d   1       3.095  -7.016   0.523  0.00  0.00     0.034 A 
ATOM     14  C   UNL d   1       1.738  -6.707   0.525  0.00  0.00     0.024 A 
ATOM     15 CL   UNL d   1       3.602  -8.659   0.493  0.00  0.00    -0.084 Cl
ATOM     16  C   UNL d   1       1.322  -5.370   0.559  0.00  0.00     0.009 A 
ENDBRANCH   9  10
ENDBRANCH   8   9
ENDBRANCH   1   8
BRANCH   3  17
ATOM     17  C   UNL d   1      -2.772   1.163   0.005  0.00  0.00     0.061 C 
BRANCH  17  18
ATOM     18  C   UNL d   1      -3.970   0.414   0.076  0.00  0.00     0.077 A 
ATOM     19  O   UNL d   1      -4.570   0.093   1.270  0.00  0.00    -0.316 OA
ATOM     20  C   UNL d   1      -5.710  -0.597   1.004  0.00  0.00     0.050 A 
ATOM     21  C   UNL d   1      -6.504  -1.034   2.168  0.00  0.00     0.076 C 
ATOM     22  C   UNL d   1      -5.876  -0.729  -0.354  0.00  0.00     0.035 A 
ATOM     23  C   UNL d   1      -4.766  -0.083  -0.948  0.00  0.00     0.040 A 
ENDBRANCH  17  18
ENDBRANCH   3  17
TORSDOF 5
