REMARK  4 active torsions:
REMARK  status: ('A' for Active; 'I' for Inactive)
REMARK    1  A    between atoms: N_3  and  S_1 
REMARK    2  A    between atoms: C_9  and  S_1 
REMARK    3  A    between atoms: C_2  and  N_3 
REMARK    4  A    between atoms: N_4  and  C_10 
ROOT
ATOM      1  S   UNL d   1       1.156   0.046  -0.028  0.00  0.00     0.247 S 
ATOM      2  O   UNL d   1       0.474  -0.178  -1.284  0.00  0.00    -0.205 OA
ATOM      3  O   UNL d   1       2.598   0.119   0.070  0.00  0.00    -0.205 OA
ENDROOT
BRANCH   1   4
ATOM      4  N   UNL d   1       0.553  -1.132   1.069  0.00  0.00    -0.165 NA
ATOM      5  H   UNL d   1      -0.383  -1.355   0.716  0.00  0.00     0.147 HD
BRANCH   4   6
ATOM      6  C   UNL d   1       1.364  -2.325   1.051  0.00  0.00     0.111 A 
ATOM      7  N   UNL d   1       2.545  -2.571   1.703  0.00  0.00    -0.285 N 
ATOM      8  N   UNL d   1       3.046  -3.797   1.435  0.00  0.00    -0.309 N 
ATOM      9  C   UNL d   1       3.222  -1.735   2.664  0.00  0.00     0.179 C 
ATOM     10  C   UNL d   1       2.159  -4.324   0.588  0.00  0.00     0.110 A 
ATOM     11  HN  UNL d   1       3.900  -4.221   1.796  1.00  0.00     0.186 HD
ATOM     12  C   UNL d   1       1.074  -3.462   0.336  0.00  0.00     0.063 A 
ENDBRANCH   4   6
ENDBRANCH   1   4
BRANCH   1  13
ATOM     13  C   UNL d   1       0.504   1.550   0.672  0.00  0.00     0.075 A 
ATOM     14  C   UNL d   1       1.313   2.325   1.510  0.00  0.00     0.027 A 
ATOM     15  C   UNL d   1       0.847   3.555   1.981  0.00  0.00     0.037 A 
ATOM     16  C   UNL d   1      -0.427   4.004   1.603  0.00  0.00     0.102 A 
ATOM     17  C   UNL d   1      -1.238   3.227   0.761  0.00  0.00     0.037 A 
ATOM     18  C   UNL d   1      -0.767   1.998   0.289  0.00  0.00     0.027 A 
BRANCH  16  19
ATOM     19  N   UNL d   1      -0.908   5.309   2.077  0.00  0.00    -0.116 N 
ATOM     20  O   UNL d   1      -0.152   5.974   2.799  0.00  0.00    -0.532 OA
ATOM     21  O   UNL d   1      -2.042   5.665   1.728  0.00  0.00    -0.532 OA
ENDBRANCH  16  19
ENDBRANCH   1  13
TORSDOF 4
