REMARK  1 active torsions:
REMARK  status: ('A' for Active; 'I' for Inactive)
REMARK    1  A    between atoms: C_11  and  C_6 
ROOT
ATOM      1  N   UNL d   1      -6.206  -2.954  -5.488  0.00  0.00    -0.191 NA
ATOM      2  C   UNL d   1      -5.652  -2.574  -4.543  0.00  0.00     0.099 C 
ATOM      3  C   UNL d   1      -3.711  -1.025  -1.077  0.00  0.00    -0.033 A 
ATOM      4  C   UNL d   1      -3.065  -1.022  -2.322  0.00  0.00     0.011 A 
ATOM      5  C   UNL d   1      -4.996  -1.597  -0.999  0.00  0.00     0.011 A 
ATOM      6  C   UNL d   1      -4.981  -2.092  -3.369  0.00  0.00     0.044 A 
ATOM      7  C   UNL d   1      -5.626  -2.123  -2.131  0.00  0.00     0.023 A 
ATOM      8  C   UNL d   1      -3.693  -1.554  -3.458  0.00  0.00     0.023 A 
ENDROOT
BRANCH   3   9
ATOM      9  C   UNL d   1      -3.139  -0.348   0.162  0.00  0.00     0.144 C 
ATOM     10  N   UNL d   1      -2.956   1.106   0.008  0.00  0.00    -0.322 N 
ATOM     11  N   UNL d   1      -1.693   1.495  -0.281  0.00  0.00    -0.305 N 
ATOM     12  C   UNL d   1      -4.106   1.917  -0.322  0.00  0.00     0.171 C 
ATOM     13  C   UNL d   1      -0.960   0.476   0.043  0.00  0.00     0.043 C 
ATOM     14  HN  UNL d   1      -1.386   2.388  -0.666  1.00  0.00     0.186 HD
ATOM     15  C   UNL d   1      -1.712  -0.696   0.619  0.00  0.00     0.067 C 
ATOM     16  C   UNL d   1       0.497   0.404  -0.025  0.00  0.00    -0.005 A 
ATOM     17  C   UNL d   1      -1.097  -2.065   0.356  0.00  0.00     0.018 C 
ATOM     18  C   UNL d   1       0.173  -2.040  -0.504  0.00  0.00     0.040 C 
ATOM     19  C   UNL d   1       1.066  -0.863  -0.207  0.00  0.00    -0.046 A 
ATOM     20  C   UNL d   1       2.460  -0.974  -0.206  0.00  0.00     0.008 A 
ATOM     21  C   UNL d   1       3.256   0.160  -0.010  0.00  0.00     0.001 A 
ATOM     22  C   UNL d   1       2.670   1.416   0.161  0.00  0.00     0.001 A 
ATOM     23  C   UNL d   1       1.282   1.544   0.146  0.00  0.00     0.014 A 
ENDBRANCH   3   9
TORSDOF 1
