REMARK  5 active torsions:
REMARK  status: ('A' for Active; 'I' for Inactive)
REMARK    1  A    between atoms: C_17  and  N_1 
REMARK    2  A    between atoms: N_6  and  C_8 
REMARK    3  A    between atoms: N_15  and  C_21 
REMARK    4  A    between atoms: C_19  and  C_17 
REMARK    5  A    between atoms: C_21  and  C_19 
ROOT
ATOM      1  N   UNL d   1       2.263  -0.331   0.194  0.00  0.00    -0.280 N 
ATOM      2  C   UNL d   1       1.750   0.704  -0.594  0.00  0.00     0.261 C 
ATOM      3  C   UNL d   1       1.455  -1.103   1.029  0.00  0.00     0.261 C 
ATOM      4  C   UNL d   1       0.290   0.691  -0.867  0.00  0.00     0.047 A 
ATOM      5  C   UNL d   1       0.011  -1.136   0.721  0.00  0.00     0.044 A 
ATOM      6  C   UNL d   1      -0.522  -0.243  -0.213  0.00  0.00     0.006 A 
ATOM      7  C   UNL d   1      -1.630   1.558  -2.054  0.00  0.00     0.104 A 
ATOM      8  C   UNL d   1      -0.259   1.600  -1.781  0.00  0.00     0.054 A 
ATOM      9  C   UNL d   1      -1.910  -0.277  -0.486  0.00  0.00    -0.021 A 
ATOM     10  C   UNL d   1      -2.456   0.625  -1.413  0.00  0.00     0.048 A 
ATOM     11  O   UNL d   1       2.420   1.627  -1.048  0.00  0.00    -0.267 OA
ATOM     12  O   UNL d   1       1.862  -1.725   2.006  0.00  0.00    -0.267 OA
ATOM     13  C   UNL d   1      -0.813  -2.060   1.377  0.00  0.00     0.018 A 
ATOM     14  C   UNL d   1      -2.723  -1.211   0.175  0.00  0.00     0.012 A 
ATOM     15  C   UNL d   1      -2.174  -2.098   1.101  0.00  0.00     0.002 A 
ENDROOT
BRANCH   1  16
ATOM     16  C   UNL d   1       3.710  -0.336   0.440  0.00  0.00     0.137 C 
BRANCH  16  17
ATOM     17  C   UNL d   1       4.355  -1.736   0.427  0.00  0.00     0.040 C 
BRANCH  17  18
ATOM     18  C   UNL d   1       5.877  -1.628   0.553  0.00  0.00     0.118 C 
BRANCH  18  19
ATOM     19  N   UNL d   1       6.624  -2.878   0.607  0.00  0.00    -0.408 N 
ATOM     20  C   UNL d   1       6.450  -3.803  -0.517  0.00  0.00     0.143 C 
ATOM     21  C   UNL d   1       5.527  -4.996  -0.232  0.00  0.00     0.187 C 
ATOM     22  O   UNL d   1       5.947  -5.694   0.944  0.00  0.00    -0.388 OA
ATOM     23  C   UNL d   1       5.850  -4.824   2.077  0.00  0.00     0.187 C 
ATOM     24  C   UNL d   1       6.699  -3.551   1.909  0.00  0.00     0.143 C 
ENDBRANCH  18  19
ENDBRANCH  17  18
ENDBRANCH  16  17
ENDBRANCH   1  16
BRANCH   7  25
ATOM     25  N   UNL d   1      -2.214   2.492  -3.025  0.00  0.00    -0.116 N 
ATOM     26  O   UNL d   1      -1.454   3.294  -3.582  0.00  0.00    -0.532 OA
ATOM     27  O   UNL d   1      -3.434   2.415  -3.232  0.00  0.00    -0.532 OA
ENDBRANCH   7  25
TORSDOF 5
