REMARK  2 active torsions:
REMARK  status: ('A' for Active; 'I' for Inactive)
REMARK    1  A    between atoms: N_7  and  C_1 
REMARK    2  A    between atoms: C_13  and  N_7 
ROOT
ATOM      1  C   UNL d   1      -0.966  -1.473  -0.005  0.00  0.00     0.121 A 
ATOM      2  C   UNL d   1      -0.022  -0.603   0.561  0.00  0.00     0.075 A 
ATOM      3  N   UNL d   1      -2.099  -0.925  -0.495  0.00  0.00    -0.338 N 
ATOM      4  HN  UNL d   1      -2.825  -1.514  -0.903  1.00  0.00     0.168 HD
ATOM      5  S   UNL d   1       1.500  -0.956   1.291  0.00  0.00    -0.096 SA
ATOM      6  C   UNL d   1      -0.281   0.763   0.588  0.00  0.00     0.054 A 
ATOM      7  C   UNL d   1       1.800   0.690   1.635  0.00  0.00     0.053 A 
ATOM      8  C   UNL d   1       0.776   1.500   1.201  0.00  0.00     0.038 A 
ATOM      9  N   UNL d   1      -1.413   1.306   0.080  0.00  0.00    -0.351 N 
ATOM     10  HN  UNL d   1      -1.605   2.307   0.090  1.00  0.00     0.166 HD
ATOM     11  C   UNL d   1      -2.255   0.406  -0.436  0.00  0.00     0.182 A 
ENDROOT
BRANCH   1  12
ATOM     12  N   UNL d   1      -0.741  -2.844  -0.101  0.00  0.00    -0.371 N 
ATOM     13  H   UNL d   1       0.069  -3.140   0.435  0.00  0.00     0.161 HD
BRANCH  12  14
ATOM     14  C   UNL d   1      -1.894  -3.734  -0.021  0.00  0.00     0.075 C 
ATOM     15  C   UNL d   1      -1.565  -5.009  -0.797  0.00  0.00     0.031 C 
ATOM     16  C   UNL d   1      -2.188  -4.067   1.442  0.00  0.00     0.031 C 
ENDBRANCH  12  14
ENDBRANCH   1  12
TORSDOF 2
