REMARK  3 active torsions:
REMARK  status: ('A' for Active; 'I' for Inactive)
REMARK    1  A    between atoms: C_7  and  C_3 
REMARK    2  A    between atoms: N_4  and  C_9 
REMARK    3  A    between atoms: C_11  and  C_5 
ROOT
ATOM      1  N   UNL d   1       1.427  -0.601  -0.083  0.00  0.00    -0.348 N 
ATOM      2  HN  UNL d   1       2.313  -1.101  -0.151  1.00  0.00     0.166 HD
ATOM      3  C   UNL d   1       0.235  -1.178  -0.050  0.00  0.00     0.102 A 
ATOM      4  C   UNL d   1       1.300   0.780  -0.011  0.00  0.00     0.050 A 
ATOM      5  S   UNL d   1      -1.091  -0.073   0.019  0.00  0.00    -0.080 SA
ATOM      6  C   UNL d   1      -0.000   1.240   0.027  0.00  0.00     0.082 A 
ENDROOT
BRANCH   4   7
ATOM      7  C   UNL d   1       2.466   1.659   0.004  0.00  0.00    -0.009 A 
ATOM      8  C   UNL d   1       3.636   1.284  -0.673  0.00  0.00     0.016 A 
ATOM      9  C   UNL d   1       4.761   2.118  -0.676  0.00  0.00     0.037 A 
ATOM     10  C   UNL d   1       4.719   3.337   0.014  0.00  0.00     0.102 A 
ATOM     11  C   UNL d   1       3.564   3.721   0.703  0.00  0.00     0.037 A 
ATOM     12  C   UNL d   1       2.445   2.881   0.696  0.00  0.00     0.016 A 
BRANCH  10  13
ATOM     13  N   UNL d   1       5.893   4.218   0.020  0.00  0.00    -0.116 N 
ATOM     14  O   UNL d   1       6.898   3.845  -0.605  0.00  0.00    -0.532 OA
ATOM     15  O   UNL d   1       5.813   5.284   0.647  0.00  0.00    -0.532 OA
ENDBRANCH  10  13
ENDBRANCH   4   7
BRANCH   3  16
ATOM     16  C   UNL d   1      -0.007  -2.629  -0.065  0.00  0.00     0.081 A 
ATOM     17  N   UNL d   1      -1.299  -3.060  -0.020  0.00  0.00    -0.361 N 
ATOM     18  C   UNL d   1      -1.481  -4.401  -0.027  0.00  0.00     0.105 A 
ATOM     19  HN  UNL d   1      -2.083  -2.410   0.018  1.00  0.00     0.165 HD
ATOM     20  C   UNL d   1      -0.425  -5.293  -0.080  0.00  0.00     0.104 A 
ATOM     21  N   UNL d   1       0.862  -4.885  -0.125  0.00  0.00    -0.372 N 
ATOM     22  C   UNL d   1       1.045  -3.537  -0.116  0.00  0.00     0.120 A 
ATOM     23  HN  UNL d   1       1.642  -5.542  -0.164  1.00  0.00     0.164 HD
ENDBRANCH   3  16
TORSDOF 3
