REMARK  4 active torsions:
REMARK  status: ('A' for Active; 'I' for Inactive)
REMARK    1  A    between atoms: C_2  and  C_1 
REMARK       I    between atoms: N_12  and  C_2 
REMARK    2  A    between atoms: C_5  and  C_11 
REMARK    3  A    between atoms: C_6  and  C_10 
REMARK    4  A    between atoms: C_13  and  N_12 
ROOT
ATOM      1  C   UNL d   1       3.859  -1.451   0.874  0.00  0.00     0.050 A 
ATOM      2  C   UNL d   1       4.278  -2.983  -0.973  0.00  0.00     0.050 A 
ATOM      3  C   UNL d   1       2.058  -2.883   0.047  0.00  0.00     0.036 A 
ATOM      4  C   UNL d   1       4.723  -1.988  -0.088  0.00  0.00     0.032 A 
ATOM      5  C   UNL d   1       2.538  -1.922   0.940  0.00  0.00     0.045 A 
ATOM      6  C   UNL d   1       2.946  -3.434  -0.885  0.00  0.00     0.045 A 
ENDROOT
BRANCH   3   7
ATOM      7  N   UNL d   1       0.707  -3.301   0.004  0.00  0.00    -0.322 N 
ATOM      8  C   UNL d   1      -0.365  -2.684   0.642  0.00  0.00     0.266 C 
ATOM      9  O   UNL d   1      -0.236  -1.710   1.381  0.00  0.00    -0.267 OA
ATOM     10  H   UNL d   1       0.482  -4.040  -0.650  0.00  0.00     0.169 HD
BRANCH   8  11
ATOM     11  C   UNL d   1      -1.680  -3.217   0.354  0.00  0.00     0.110 A 
ATOM     12  C   UNL d   1      -2.935  -2.689   0.648  0.00  0.00     0.043 A 
ATOM     13  N   UNL d   1      -4.004  -3.478   0.228  0.00  0.00    -0.296 N 
ATOM     14  C   UNL d   1      -3.272  -1.409   1.328  0.00  0.00     0.071 C 
ATOM     15  N   UNL d   1      -3.600  -4.585  -0.369  0.00  0.00    -0.061 NA
ATOM     16  HN  UNL d   1      -4.984  -3.229   0.366  1.00  0.00     0.183 HD
ATOM     17  S   UNL d   1      -1.941  -4.710  -0.443  0.00  0.00     0.007 SA
ENDBRANCH   8  11
ENDBRANCH   3   7
BRANCH   1  18
ATOM     18  C   UNL d   1       4.298  -0.366   1.829  0.00  0.00     0.417 C 
ATOM     19  F   UNL d   1       5.550   0.103   1.571  0.00  0.00    -0.166 F 
ATOM     20  F   UNL d   1       3.479   0.721   1.794  0.00  0.00    -0.166 F 
ATOM     21  F   UNL d   1       4.314  -0.787   3.122  0.00  0.00    -0.166 F 
ENDBRANCH   1  18
BRANCH   2  22
ATOM     22  C   UNL d   1       5.199  -3.550  -2.028  0.00  0.00     0.417 C 
ATOM     23  F   UNL d   1       6.405  -2.921  -2.093  0.00  0.00    -0.166 F 
ATOM     24  F   UNL d   1       5.471  -4.867  -1.825  0.00  0.00    -0.166 F 
ATOM     25  F   UNL d   1       4.666  -3.465  -3.278  0.00  0.00    -0.166 F 
ENDBRANCH   2  22
TORSDOF 4
