REMARK  3 active torsions:
REMARK  status: ('A' for Active; 'I' for Inactive)
REMARK    1  A    between atoms: N_2  and  C_1 
REMARK    2  A    between atoms: C_11  and  C_5 
REMARK    3  A    between atoms: C_12  and  N_7 
ROOT
ATOM      1  N   UNL d   1       0.814  -3.578  -0.089  0.00  0.00    -0.365 N 
ATOM      2  HN  UNL d   1       1.782  -3.301   0.072  1.00  0.00     0.165 HD
ATOM      3  C   UNL d   1      -0.093  -2.679  -0.292  0.00  0.00     0.107 C 
ENDROOT
BRANCH   1   4
ATOM      4  C   UNL d   1       0.461  -4.939  -0.091  0.00  0.00     0.032 A 
ATOM      5  C   UNL d   1      -0.484  -5.500  -0.960  0.00  0.00     0.036 A 
ATOM      6  C   UNL d   1      -0.759  -6.877  -0.943  0.00  0.00    -0.060 A 
ATOM      7  C   UNL d   1      -1.788  -7.466  -1.863  0.00  0.00     0.048 C 
ATOM      8  C   UNL d   1      -0.054  -7.703  -0.063  0.00  0.00     0.007 A 
ATOM      9  C   UNL d   1       0.904  -7.161   0.792  0.00  0.00     0.003 A 
ATOM     10  C   UNL d   1       1.155  -5.788   0.776  0.00  0.00     0.029 A 
ENDBRANCH   1   4
BRANCH   3  11
ATOM     11  C   UNL d   1       0.273  -1.282  -0.303  0.00  0.00     0.022 A 
ATOM     12  S   UNL d   1      -0.896  -0.104  -0.721  0.00  0.00    -0.065 SA
ATOM     13  C   UNL d   1       0.224   1.161  -0.525  0.00  0.00     0.144 A 
ATOM     14  C   UNL d   1       1.470   0.715  -0.141  0.00  0.00     0.045 A 
ATOM     15  C   UNL d   1       1.497  -0.706  -0.018  0.00  0.00     0.023 A 
BRANCH  13  16
ATOM     16  N   UNL d   1      -0.166   2.527  -0.753  0.00  0.00    -0.108 N 
ATOM     17  O   UNL d   1       0.709   3.387  -0.571  0.00  0.00    -0.531 OA
ATOM     18  O   UNL d   1      -1.328   2.756  -1.113  0.00  0.00    -0.531 OA
ENDBRANCH  13  16
ENDBRANCH   3  11
TORSDOF 3
