REMARK  4 active torsions:
REMARK  status: ('A' for Active; 'I' for Inactive)
REMARK    1  A    between atoms: C_9  and  N_1 
REMARK    2  A    between atoms: N_6  and  C_2 
REMARK       I    between atoms: C_3  and  N_7 
REMARK    3  A    between atoms: C_10  and  C_3 
REMARK    4  A    between atoms: N_8  and  C_4 
ROOT
ATOM      1  C   UNL d   1      -1.175  -0.830  -2.940  0.00  0.00     0.067 A 
ATOM      2  C   UNL d   1      -1.406  -2.223  -2.747  0.00  0.00     0.058 A 
ATOM      3  C   UNL d   1      -0.109  -0.163  -2.299  0.00  0.00     0.068 A 
ATOM      4  C   UNL d   1       0.680  -0.842  -1.368  0.00  0.00     0.105 A 
ATOM      5  C   UNL d   1      -0.598  -2.849  -1.767  0.00  0.00     0.034 A 
ATOM      6  C   UNL d   1       0.419  -2.178  -1.077  0.00  0.00     0.038 A 
ENDROOT
BRANCH   2   7
ATOM      7  N   UNL d   1      -2.260  -3.005  -3.509  0.00  0.00    -0.376 N 
ATOM      8  C   UNL d   1      -2.473  -2.752  -4.953  0.00  0.00     0.143 C 
ATOM      9  C   UNL d   1      -2.209  -4.013  -5.789  0.00  0.00     0.145 C 
ATOM     10  N   UNL d   1      -2.988  -5.147  -5.292  0.00  0.00    -0.349 N 
ATOM     11  C   UNL d   1      -3.967  -5.850  -5.982  0.00  0.00     0.224 C 
ATOM     12  C   UNL d   1      -2.754  -5.434  -3.870  0.00  0.00     0.145 C 
ATOM     13  O   UNL d   1      -4.615  -6.755  -5.464  0.00  0.00    -0.273 OA
ATOM     14  C   UNL d   1      -2.987  -4.186  -2.985  0.00  0.00     0.143 C 
BRANCH  11  15
ATOM     15  C   UNL d   1      -4.274  -5.459  -7.397  0.00  0.00     0.078 A 
ATOM     16  C   UNL d   1      -5.695  -5.074  -7.752  0.00  0.00     0.015 A 
ATOM     17  C   UNL d   1      -5.113  -6.348  -8.289  0.00  0.00     0.015 A 
ENDBRANCH  11  15
ENDBRANCH   2   7
BRANCH   1  18
ATOM     18  N   UNL d   1      -2.063  -0.007  -3.700  0.00  0.00    -0.331 N 
ATOM     19  C   UNL d   1      -1.714   1.103  -4.449  0.00  0.00     0.097 A 
ATOM     20  C   UNL d   1      -2.840   1.582  -5.089  0.00  0.00     0.019 A 
ATOM     21  C   UNL d   1      -3.930   0.792  -4.669  0.00  0.00     0.019 A 
ATOM     22  C   UNL d   1      -3.436  -0.139  -3.780  0.00  0.00     0.097 A 
ENDBRANCH   1  18
BRANCH   4  23
ATOM     23  N   UNL d   1       1.771  -0.139  -0.679  0.00  0.00    -0.116 N 
ATOM     24  O   UNL d   1       2.005   1.030  -1.015  0.00  0.00    -0.532 OA
ATOM     25  O   UNL d   1       2.395  -0.759   0.193  0.00  0.00    -0.532 OA
ENDBRANCH   4  23
TORSDOF 4
