REMARK  3 active torsions:
REMARK  status: ('A' for Active; 'I' for Inactive)
REMARK    1  A    between atoms: C_4  and  C_1 
REMARK    2  A    between atoms: C_2  and  C_5 
REMARK    3  A    between atoms: C_3  and  C_4 
ROOT
ATOM      1  C   UNL d   1       0.621   0.956  -0.061  0.00  0.00     0.081 C 
ATOM      2  C   UNL d   1      -0.874   1.026   0.077  0.00  0.00     0.089 C 
ATOM      3  N   UNL d   1       1.133  -0.225  -0.238  0.00  0.00    -0.321 N 
ATOM      4  HN  UNL d   1       2.124  -0.468  -0.238  1.00  0.00     0.180 HD
ATOM      5  N   UNL d   1       0.093  -1.068  -0.423  0.00  0.00    -0.239 NA
ATOM      6  C   UNL d   1      -1.207  -0.457  -0.152  0.00  0.00     0.126 C 
ATOM      7  H   UNL d   1       0.223  -1.977   0.025  0.00  0.00     0.146 HD
ENDROOT
BRANCH   1   8
ATOM      8  C   UNL d   1       1.454   2.214  -0.041  0.00  0.00     0.207 C 
ATOM      9  O   UNL d   1       0.997   3.189   0.539  0.00  0.00    -0.285 OA
BRANCH   8  10
ATOM     10  C   UNL d   1       2.730   2.292  -0.817  0.00  0.00     0.028 A 
ATOM     11  C   UNL d   1       3.808   3.124  -0.410  0.00  0.00    -0.011 A 
ATOM     12  C   UNL d   1       4.948   3.228  -1.262  0.00  0.00    -0.014 A 
ATOM     13  C   UNL d   1       3.817   3.847   0.812  0.00  0.00     0.013 A 
ATOM     14  C   UNL d   1       6.010   4.068  -0.834  0.00  0.00     0.013 A 
ATOM     15  C   UNL d   1       5.000   2.488  -2.498  0.00  0.00    -0.015 A 
ATOM     16  C   UNL d   1       5.979   4.775   0.367  0.00  0.00     0.001 A 
ATOM     17  C   UNL d   1       4.880   4.663   1.194  0.00  0.00     0.001 A 
ATOM     18  C   UNL d   1       3.923   1.639  -2.841  0.00  0.00    -0.024 A 
ATOM     19  C   UNL d   1       6.073   2.541  -3.426  0.00  0.00     0.013 A 
ATOM     20  C   UNL d   1       2.804   1.567  -2.013  0.00  0.00     0.028 A 
ATOM     21  C   UNL d   1       3.956   0.866  -4.015  0.00  0.00     0.012 A 
ATOM     22  C   UNL d   1       5.037   0.930  -4.887  0.00  0.00     0.001 A 
ATOM     23  C   UNL d   1       6.093   1.778  -4.599  0.00  0.00     0.001 A 
ENDBRANCH   8  10
ENDBRANCH   1   8
BRANCH   2  24
ATOM     24  C   UNL d   1      -1.351   1.548   1.429  0.00  0.00    -0.035 A 
ATOM     25  C   UNL d   1      -2.169   2.704   1.579  0.00  0.00    -0.018 A 
ATOM     26  C   UNL d   1      -2.588   3.096   2.887  0.00  0.00    -0.014 A 
ATOM     27  C   UNL d   1      -2.589   3.499   0.481  0.00  0.00     0.013 A 
ATOM     28  C   UNL d   1      -3.437   4.228   2.994  0.00  0.00     0.013 A 
ATOM     29  C   UNL d   1      -2.160   2.350   4.043  0.00  0.00    -0.015 A 
ATOM     30  C   UNL d   1      -3.854   4.969   1.890  0.00  0.00     0.001 A 
ATOM     31  C   UNL d   1      -3.419   4.611   0.631  0.00  0.00     0.001 A 
ATOM     32  C   UNL d   1      -1.349   1.209   3.862  0.00  0.00    -0.025 A 
ATOM     33  C   UNL d   1      -2.491   2.676   5.385  0.00  0.00     0.013 A 
ATOM     34  C   UNL d   1      -0.954   0.837   2.579  0.00  0.00     0.021 A 
ATOM     35  C   UNL d   1      -0.936   0.434   4.961  0.00  0.00     0.012 A 
ATOM     36  C   UNL d   1      -1.301   0.774   6.260  0.00  0.00     0.001 A 
ATOM     37  C   UNL d   1      -2.072   1.904   6.474  0.00  0.00     0.001 A 
ENDBRANCH   2  24
TORSDOF 3
