REMARK  5 active torsions:
REMARK  status: ('A' for Active; 'I' for Inactive)
REMARK    1  A    between atoms: C_2  and  N_1 
REMARK       I    between atoms: N_3  and  C_8 
REMARK    2  A    between atoms: C_4  and  N_3 
REMARK    3  A    between atoms: C_8  and  C_19 
REMARK    4  A    between atoms: S_14  and  C_11 
REMARK    5  A    between atoms: C_19  and  S_14 
ROOT
ATOM      1  N   UNL d   1      -2.790  -5.424  -5.680  0.00  0.00    -0.324 N 
ATOM      2  C   UNL d   1      -1.985  -6.075  -4.761  0.00  0.00     0.231 C 
ATOM      3  O   UNL d   1      -1.883  -7.299  -4.656  0.00  0.00    -0.272 OA
ATOM      4  H   UNL d   1      -2.601  -4.443  -5.867  0.00  0.00     0.169 HD
ENDROOT
BRANCH   2   5
ATOM      5  C   UNL d   1      -1.144  -5.151  -3.898  0.00  0.00     0.184 C 
BRANCH   5   6
ATOM      6  S   UNL d   1      -2.228  -4.191  -2.794  0.00  0.00    -0.103 SA
BRANCH   6   7
ATOM      7  C   UNL d   1      -1.011  -3.255  -1.895  0.00  0.00     0.070 A 
ATOM      8  C   UNL d   1      -1.438  -2.376  -0.902  0.00  0.00     0.039 A 
ATOM      9  C   UNL d   1      -0.494  -1.595  -0.234  0.00  0.00     0.040 A 
ATOM     10  C   UNL d   1       0.850  -1.726  -0.582  0.00  0.00     0.118 A 
ATOM     11  C   UNL d   1       1.201  -2.639  -1.563  0.00  0.00     0.124 A 
ATOM     12  N   UNL d   1       0.293  -3.400  -2.228  0.00  0.00    -0.358 N 
ATOM     13  HN  UNL d   1       0.583  -4.057  -2.952  1.00  0.00     0.166 HD
BRANCH  10  14
ATOM     14  N   UNL d   1       1.874  -0.905   0.047  0.00  0.00    -0.114 N 
ATOM     15  O   UNL d   1       3.046  -1.066  -0.319  0.00  0.00    -0.532 OA
ATOM     16  O   UNL d   1       1.508  -0.088   0.903  0.00  0.00    -0.532 OA
ENDBRANCH  10  14
ENDBRANCH   6   7
ENDBRANCH   5   6
ENDBRANCH   2   5
BRANCH   1  17
ATOM     17  C   UNL d   1      -3.732  -6.046  -6.526  0.00  0.00     0.073 A 
ATOM     18  C   UNL d   1      -4.124  -5.370  -7.690  0.00  0.00     0.145 A 
ATOM     19  C   UNL d   1      -5.023  -5.937  -8.589  0.00  0.00     0.086 A 
ATOM     20  F   UNL d   1      -3.594  -4.165  -7.965  0.00  0.00    -0.204 F 
ATOM     21  C   UNL d   1      -5.566  -7.181  -8.297  0.00  0.00     0.119 A 
ATOM     22  C   UNL d   1      -5.226  -7.856  -7.128  0.00  0.00     0.044 A 
ATOM     23  F   UNL d   1      -6.432  -7.739  -9.151  0.00  0.00    -0.206 F 
ATOM     24  C   UNL d   1      -4.305  -7.289  -6.243  0.00  0.00     0.036 A 
ENDBRANCH   1  17
TORSDOF 5
