REMARK  2 active torsions:
REMARK  status: ('A' for Active; 'I' for Inactive)
REMARK    1  A    between atoms: N_2  and  S_1 
REMARK    2  A    between atoms: C_10  and  S_1 
ROOT
ATOM      1  N   UNL d   1       0.274  -0.666  -1.632  0.00  0.00    -0.261 N 
ATOM      2  HN  UNL d   1       0.473  -0.020  -0.868  1.00  0.00     0.181 HD
ATOM      3  C   UNL d   1       0.629  -0.389  -2.839  0.00  0.00     0.141 C 
ATOM      4  N   UNL d   1       1.453   0.694  -3.066  0.00  0.00    -0.264 NA
ATOM      5  N   UNL d   1       0.404  -1.106  -3.992  0.00  0.00    -0.268 NA
ATOM      6  C   UNL d   1       2.717   0.328  -3.682  0.00  0.00     0.068 C 
ATOM      7  C   UNL d   1       2.414  -0.296  -5.035  0.00  0.00     0.017 C 
ATOM      8  C   UNL d   1       1.576  -1.532  -4.774  0.00  0.00     0.101 C 
ATOM      9  C   UNL d   1       3.667   1.446  -4.041  0.00  0.00     0.020 C 
ATOM     10  C   UNL d   1       3.799  -0.446  -5.632  0.00  0.00     0.007 C 
ATOM     11  C   UNL d   1       4.541   0.813  -5.143  0.00  0.00     0.002 C 
ATOM     12  H   UNL d   1       1.595   1.204  -2.196  0.00  0.00     0.130 HD
ATOM     13  H   UNL d   1      -0.181  -0.544  -4.608  0.00  0.00     0.130 HD
ENDROOT
BRANCH   1  14
ATOM     14  S   UNL d   1      -0.497  -2.065  -1.353  0.00  0.00     0.264 S 
ATOM     15  O   UNL d   1       0.334  -3.191  -1.741  0.00  0.00    -0.200 OA
ATOM     16  O   UNL d   1      -1.877  -1.965  -1.796  0.00  0.00    -0.200 OA
BRANCH  14  17
ATOM     17  C   UNL d   1      -0.537  -2.130   0.433  0.00  0.00     0.079 A 
ATOM     18  C   UNL d   1      -1.755  -2.203   1.112  0.00  0.00     0.025 A 
ATOM     19  C   UNL d   1      -1.756  -2.292   2.504  0.00  0.00     0.002 A 
ATOM     20  C   UNL d   1      -0.548  -2.308   3.206  0.00  0.00     0.000 A 
ATOM     21  C   UNL d   1       0.666  -2.233   2.522  0.00  0.00     0.002 A 
ATOM     22  C   UNL d   1       0.677  -2.145   1.131  0.00  0.00     0.025 A 
ENDBRANCH  14  17
ENDBRANCH   1  14
TORSDOF 2
