REMARK  2 active torsions:
REMARK  status: ('A' for Active; 'I' for Inactive)
REMARK       I    between atoms: C_2  and  N_1 
REMARK       I    between atoms: C_3  and  N_1 
REMARK       I    between atoms: N_5  and  C_2 
REMARK    1  A    between atoms: C_4  and  C_3 
REMARK    2  A    between atoms: C_13  and  N_5 
ROOT
ATOM      1  N   UNL d   1       1.276  -0.336   0.037  0.00  0.00    -0.275 N 
ATOM      2  C   UNL d   1       0.463  -0.734  -1.004  0.00  0.00     0.327 C 
ATOM      3  C   UNL d   1       2.646  -0.471   0.167  0.00  0.00     0.259 C 
ATOM      4  N   UNL d   1       1.064  -1.508  -1.959  0.00  0.00    -0.309 N 
ATOM      5  O   UNL d   1      -0.703  -0.351  -0.988  0.00  0.00    -0.247 OA
ATOM      6  O   UNL d   1       3.353  -1.089  -0.622  0.00  0.00    -0.267 OA
ATOM      7  H   UNL d   1       0.773   0.272   0.667  0.00  0.00     0.173 HD
ATOM      8  H   UNL d   1       2.041  -1.735  -1.776  0.00  0.00     0.170 HD
ENDROOT
BRANCH   3   9
ATOM      9  C   UNL d   1       3.256   0.202   1.345  0.00  0.00     0.035 A 
ATOM     10  C   UNL d   1       2.569   0.329   2.560  0.00  0.00     0.036 A 
ATOM     11  C   UNL d   1       3.183   0.975   3.633  0.00  0.00     0.013 A 
ATOM     12 BR   UNL d   1       2.252   1.150   5.269  0.00  0.00    -0.051 Br
ATOM     13  C   UNL d   1       4.473   1.488   3.515  0.00  0.00     0.038 A 
ATOM     14  C   UNL d   1       5.157   1.342   2.310  0.00  0.00     0.013 A 
ATOM     15  C   UNL d   1       4.560   0.699   1.225  0.00  0.00     0.036 A 
ATOM     16 BR   UNL d   1       6.911   2.027   2.143  0.00  0.00    -0.051 Br
ENDBRANCH   3   9
BRANCH   4  17
ATOM     17  C   UNL d   1       0.513  -1.983  -3.164  0.00  0.00     0.036 A 
ATOM     18  C   UNL d   1      -0.779  -1.680  -3.602  0.00  0.00     0.031 A 
ATOM     19  C   UNL d   1      -1.243  -2.156  -4.833  0.00  0.00     0.026 A 
ATOM     20  C   UNL d   1      -0.417  -2.946  -5.628  0.00  0.00     0.034 A 
ATOM     21  C   UNL d   1       0.867  -3.268  -5.199  0.00  0.00     0.026 A 
ATOM     22 CL   UNL d   1      -0.984  -3.518  -7.147  0.00  0.00    -0.084 Cl
ATOM     23  C   UNL d   1       1.331  -2.785  -3.971  0.00  0.00     0.031 A 
ENDBRANCH   4  17
TORSDOF 2
