REMARK  5 active torsions:
REMARK  status: ('A' for Active; 'I' for Inactive)
REMARK    1  A    between atoms: C_4  and  C_1 
REMARK    2  A    between atoms: C_5  and  C_2 
REMARK    3  A    between atoms: N_3  and  C_7 
REMARK    4  A    between atoms: O_15  and  C_4 
REMARK    5  A    between atoms: C_19  and  O_15 
ROOT
ATOM      1  C   UNL d   1       0.758   0.593  -0.371  0.00  0.00     0.120 C 
ATOM      2  C   UNL d   1       0.360  -0.492  -1.075  0.00  0.00     0.042 C 
ATOM      3  C   UNL d   1       0.091   0.856   0.864  0.00  0.00     0.105 C 
ATOM      4  N   UNL d   1      -0.457   0.991   1.878  0.00  0.00    -0.191 NA
ENDROOT
BRANCH   1   5
ATOM      5  C   UNL d   1       1.848   1.549  -0.719  0.00  0.00     0.303 C 
ATOM      6  O   UNL d   1       2.149   2.494  -0.002  0.00  0.00    -0.258 OA
BRANCH   5   7
ATOM      7  O   UNL d   1       2.402   1.300  -1.925  0.00  0.00    -0.317 OA
BRANCH   7   8
ATOM      8  C   UNL d   1       3.352   2.255  -2.423  0.00  0.00     0.174 C 
ATOM      9  C   UNL d   1       2.624   3.280  -3.271  0.00  0.00     0.034 C 
ENDBRANCH   7   8
ENDBRANCH   5   7
ENDBRANCH   1   5
BRANCH   2  10
ATOM     10  C   UNL d   1       0.985  -1.048  -2.285  0.00  0.00    -0.008 A 
ATOM     11  C   UNL d   1       2.027  -2.011  -2.228  0.00  0.00     0.040 A 
ATOM     12  C   UNL d   1       2.646  -2.328  -3.453  0.00  0.00     0.030 A 
ATOM     13  C   UNL d   1       2.275  -1.730  -4.663  0.00  0.00     0.002 A 
ATOM     14  C   UNL d   1       1.240  -0.809  -4.694  0.00  0.00     0.001 A 
ATOM     15  C   UNL d   1       0.585  -0.479  -3.511  0.00  0.00     0.014 A 
BRANCH  11  16
ATOM     16  N   UNL d   1       2.482  -2.591  -1.056  0.00  0.00    -0.377 N 
ATOM     17  C   UNL d   1       3.895  -2.937  -0.847  0.00  0.00     0.153 C 
ATOM     18  C   UNL d   1       4.368  -2.328   0.495  0.00  0.00     0.291 C 
ATOM     19  N   UNL d   1       3.536  -2.699   1.664  0.00  0.00     0.087 N 
ATOM     20  C   UNL d   1       2.096  -2.489   1.377  0.00  0.00     0.291 C 
ATOM     21  C   UNL d   1       3.934  -1.897   2.825  0.00  0.00     0.310 C 
ATOM     22  C   UNL d   1       1.625  -3.090   0.029  0.00  0.00     0.153 C 
ENDBRANCH  11  16
ENDBRANCH   2  10
TORSDOF 5
