REMARK  3 active torsions:
REMARK  status: ('A' for Active; 'I' for Inactive)
REMARK    1  A    between atoms: C_4  and  N_1 
REMARK    2  A    between atoms: C_17  and  C_6 
REMARK    3  A    between atoms: C_14  and  C_17 
ROOT
ATOM      1  N   UNL d   1      -0.001   0.873  -0.052  0.00  0.00    -0.252 N 
ATOM      2  C   UNL d   1      -1.138   0.109   0.066  0.00  0.00     0.232 A 
ATOM      3  C   UNL d   1       1.131   0.091  -0.090  0.00  0.00     0.236 A 
ATOM      4  C   UNL d   1       0.743  -1.363  -0.063  0.00  0.00     0.091 A 
ATOM      5  C   UNL d   1      -0.768  -1.343   0.069  0.00  0.00     0.118 A 
ATOM      6  O   UNL d   1      -2.308   0.468   0.123  0.00  0.00    -0.273 OA
ATOM      7  O   UNL d   1       2.305   0.441  -0.108  0.00  0.00    -0.272 OA
ENDROOT
BRANCH   1   8
ATOM      8  C   UNL d   1       0.007   2.301  -0.132  0.00  0.00     0.048 A 
ATOM      9  C   UNL d   1      -1.069   3.067   0.336  0.00  0.00     0.073 A 
ATOM     10  C   UNL d   1      -1.050   4.458   0.241  0.00  0.00     0.124 A 
ATOM     11  F   UNL d   1      -2.091   5.152   0.724  0.00  0.00    -0.205 F 
ATOM     12  C   UNL d   1       0.022   5.138  -0.334  0.00  0.00    -0.023 A 
ATOM     13  C   UNL d   1       1.099   4.390  -0.807  0.00  0.00     0.012 A 
ATOM     14  C   UNL d   1       0.004   6.631  -0.428  0.00  0.00     0.051 C 
ATOM     15  C   UNL d   1       1.090   2.992  -0.701  0.00  0.00     0.031 A 
ENDBRANCH   1   8
BRANCH   4  16
ATOM     16  C   UNL d   1       1.261  -2.046  -1.331  0.00  0.00     0.041 C 
BRANCH  16  17
ATOM     17  C   UNL d   1       0.914  -3.506  -1.383  0.00  0.00    -0.036 C 
ATOM     18  C   UNL d   1       0.182  -4.062  -2.357  0.00  0.00     0.007 C 
ENDBRANCH  16  17
ENDBRANCH   4  16
TORSDOF 3
