REMARK  5 active torsions:
REMARK  status: ('A' for Active; 'I' for Inactive)
REMARK    1  A    between atoms: C_2  and  C_1 
REMARK    2  A    between atoms: C_4  and  C_1 
REMARK    3  A    between atoms: S_3  and  C_2 
REMARK    4  A    between atoms: C_6  and  C_2 
REMARK    5  A    between atoms: C_9  and  S_3 
ROOT
ATOM      1  C   UNL d   1       0.160   1.000   0.905  0.00  0.00     0.160 C 
ENDROOT
BRANCH   1   2
ATOM      2  C   UNL d   1       0.886  -0.063   0.070  0.00  0.00     0.178 C 
ATOM      3  O   UNL d   1       1.282  -1.139   0.513  0.00  0.00    -0.291 OA
BRANCH   2   4
ATOM      4  C   UNL d   1       1.133   0.218  -1.377  0.00  0.00     0.011 A 
ATOM      5  C   UNL d   1       1.316   1.514  -1.877  0.00  0.00     0.017 A 
ATOM      6  C   UNL d   1       1.535   1.714  -3.245  0.00  0.00     0.025 A 
ATOM      7  C   UNL d   1       1.572   0.624  -4.114  0.00  0.00     0.034 A 
ATOM      8  C   UNL d   1       1.412  -0.670  -3.625  0.00  0.00     0.025 A 
ATOM      9 CL   UNL d   1       1.820   0.878  -5.796  0.00  0.00    -0.084 Cl
ATOM     10  C   UNL d   1       1.199  -0.873  -2.258  0.00  0.00     0.017 A 
ENDBRANCH   2   4
ENDBRANCH   1   2
BRANCH   1  11
ATOM     11  S   UNL d   1      -0.858   0.225   2.246  0.00  0.00    -0.112 SA
BRANCH  11  12
ATOM     12  C   UNL d   1      -1.934  -0.856   1.331  0.00  0.00     0.001 A 
ATOM     13  C   UNL d   1      -1.893  -2.226   1.613  0.00  0.00     0.020 A 
ATOM     14  C   UNL d   1      -2.779  -3.107   0.990  0.00  0.00     0.025 A 
ATOM     15  C   UNL d   1      -3.716  -2.615   0.086  0.00  0.00     0.034 A 
ATOM     16  C   UNL d   1      -3.770  -1.252  -0.201  0.00  0.00     0.025 A 
ATOM     17 CL   UNL d   1      -4.826  -3.694  -0.666  0.00  0.00    -0.084 Cl
ATOM     18  C   UNL d   1      -2.881  -0.371   0.424  0.00  0.00     0.020 A 
ENDBRANCH  11  12
ENDBRANCH   1  11
BRANCH   1  19
ATOM     19  C   UNL d   1       1.101   2.004   1.563  0.00  0.00    -0.036 A 
ATOM     20  C   UNL d   1       0.669   3.326   1.772  0.00  0.00     0.009 A 
ATOM     21  C   UNL d   1       1.473   4.239   2.458  0.00  0.00     0.001 A 
ATOM     22  C   UNL d   1       2.719   3.847   2.941  0.00  0.00     0.000 A 
ATOM     23  C   UNL d   1       3.163   2.542   2.740  0.00  0.00     0.001 A 
ATOM     24  C   UNL d   1       2.359   1.625   2.061  0.00  0.00     0.009 A 
ENDBRANCH   1  19
TORSDOF 5
