REMARK  6 active torsions:
REMARK  status: ('A' for Active; 'I' for Inactive)
REMARK    1  A    between atoms: C_3  and  N_1 
REMARK    2  A    between atoms: C_2  and  C_4 
REMARK    3  A    between atoms: O_18  and  C_10 
REMARK    4  A    between atoms: C_11  and  O_17 
REMARK    5  A    between atoms: O_17  and  C_22 
REMARK    6  A    between atoms: C_23  and  O_18 
ROOT
ATOM      1  C   UNL d   1      -1.155   4.326  -7.197  0.00  0.00     0.078 A 
ATOM      2  C   UNL d   1      -1.460   3.949  -4.438  0.00  0.00     0.078 A 
ATOM      3  C   UNL d   1      -1.388   3.048  -6.683  0.00  0.00     0.040 A 
ATOM      4  C   UNL d   1      -1.010   5.405  -6.321  0.00  0.00     0.040 A 
ATOM      5  C   UNL d   1      -1.162   5.217  -4.942  0.00  0.00     0.040 A 
ATOM      6  C   UNL d   1      -1.540   2.860  -5.310  0.00  0.00     0.040 A 
ENDROOT
BRANCH   1   7
ATOM      7  O   UNL d   1      -0.970   4.582  -8.538  0.00  0.00    -0.294 OA
BRANCH   7   8
ATOM      8  C   UNL d   1      -1.740   3.875  -9.453  0.00  0.00     0.147 A 
ATOM      9  N   UNL d   1      -2.973   3.442  -9.105  0.00  0.00    -0.346 N 
ATOM     10  C   UNL d   1      -3.671   2.749 -10.030  0.00  0.00     0.106 A 
ATOM     11  HN  UNL d   1      -3.361   3.632  -8.181  1.00  0.00     0.167 HD
ATOM     12  C   UNL d   1      -3.208   2.483 -11.309  0.00  0.00     0.063 A 
ATOM     13  C   UNL d   1      -1.941   2.970 -11.652  0.00  0.00     0.022 A 
ATOM     14  C   UNL d   1      -1.195   3.681 -10.713  0.00  0.00     0.057 A 
BRANCH  12  15
ATOM     15  C   UNL d   1      -4.053   1.712 -12.275  0.00  0.00     0.418 C 
ATOM     16  F   UNL d   1      -5.235   1.288 -11.753  0.00  0.00    -0.166 F 
ATOM     17  F   UNL d   1      -4.372   2.437 -13.382  0.00  0.00    -0.166 F 
ATOM     18  F   UNL d   1      -3.426   0.590 -12.733  0.00  0.00    -0.166 F 
ENDBRANCH  12  15
ENDBRANCH   7   8
ENDBRANCH   1   7
BRANCH   2  19
ATOM     19  O   UNL d   1      -1.585   3.829  -3.071  0.00  0.00    -0.294 OA
BRANCH  19  20
ATOM     20  C   UNL d   1      -2.544   2.946  -2.591  0.00  0.00     0.148 A 
ATOM     21  C   UNL d   1      -2.281   2.324  -1.378  0.00  0.00     0.059 A 
ATOM     22  C   UNL d   1      -3.210   1.405  -0.886  0.00  0.00     0.041 A 
ATOM     23  C   UNL d   1      -4.369   1.158  -1.630  0.00  0.00     0.118 A 
ATOM     24  C   UNL d   1      -4.565   1.842  -2.818  0.00  0.00     0.126 A 
ATOM     25  N   UNL d   1      -3.679   2.743  -3.302  0.00  0.00    -0.344 N 
ATOM     26  HN  UNL d   1      -3.860   3.249  -4.169  1.00  0.00     0.167 HD
BRANCH  23  27
ATOM     27  N   UNL d   1      -5.361   0.194  -1.184  0.00  0.00    -0.114 N 
ATOM     28  O   UNL d   1      -6.356   0.014  -1.901  0.00  0.00    -0.532 OA
ATOM     29  O   UNL d   1      -5.149  -0.394  -0.114  0.00  0.00    -0.532 OA
ENDBRANCH  23  27
ENDBRANCH  19  20
ENDBRANCH   2  19
TORSDOF 6
