REMARK  7 active torsions:
REMARK  status: ('A' for Active; 'I' for Inactive)
REMARK    1  A    between atoms: C_13  and  C_1 
REMARK    2  A    between atoms: C_2  and  N_12 
REMARK    3  A    between atoms: N_8  and  C_2 
REMARK    4  A    between atoms: O_15  and  C_3 
REMARK    5  A    between atoms: O_16  and  C_4 
REMARK    6  A    between atoms: N_12  and  N_6 
REMARK    7  A    between atoms: C_14  and  N_8 
ROOT
ATOM      1  N   UNL d   1      -3.898  -2.405  -0.052  0.00  0.00    -0.309 N 
ATOM      2  HN  UNL d   1      -4.351  -1.517   0.163  1.00  0.00     0.186 HD
ATOM      3  C   UNL d   1      -2.668  -2.461  -0.443  0.00  0.00     0.121 C 
ENDROOT
BRANCH   1   4
ATOM      4  N   UNL d   1      -4.562  -3.590   0.058  0.00  0.00    -0.277 N 
ATOM      5  H   UNL d   1      -4.041  -4.457   0.006  0.00  0.00     0.189 HD
BRANCH   4   6
ATOM      6  C   UNL d   1      -5.923  -3.653  -0.058  0.00  0.00     0.187 C 
ATOM      7  S   UNL d   1      -6.907  -2.463  -0.710  0.00  0.00    -0.040 SA
BRANCH   6   8
ATOM      8  N   UNL d   1      -6.536  -4.797   0.374  0.00  0.00    -0.358 N 
ATOM      9  H   UNL d   1      -7.530  -4.708   0.182  0.00  0.00     0.162 HD
BRANCH   8  10
ATOM     10  C   UNL d   1      -6.268  -5.562   1.617  0.00  0.00     0.021 C 
ATOM     11  C   UNL d   1      -6.373  -4.631   2.837  0.00  0.00     0.037 C 
ATOM     12  C   UNL d   1      -7.358  -6.649   1.719  0.00  0.00     0.037 C 
ATOM     13  C   UNL d   1      -4.907  -6.271   1.630  0.00  0.00     0.037 C 
ENDBRANCH   8  10
ENDBRANCH   6   8
ENDBRANCH   4   6
ENDBRANCH   1   4
BRANCH   3  14
ATOM     14  C   UNL d   1      -1.860  -1.226  -0.516  0.00  0.00     0.018 A 
ATOM     15  C   UNL d   1      -0.906  -1.020  -1.530  0.00  0.00     0.110 A 
ATOM     16  C   UNL d   1      -0.148   0.164  -1.530  0.00  0.00     0.103 A 
ATOM     17  C   UNL d   1      -0.341   1.099  -0.502  0.00  0.00     0.058 A 
ATOM     18  C   UNL d   1      -1.280   0.878   0.501  0.00  0.00     0.014 A 
ATOM     19  C   UNL d   1      -2.052  -0.276   0.494  0.00  0.00     0.035 A 
ATOM     20 BR   UNL d   1      -1.490   2.140   1.891  0.00  0.00    -0.051 Br
BRANCH  15  21
ATOM     21  O   UNL d   1      -0.714  -1.956  -2.509  0.00  0.00    -0.357 OA
ATOM     22  H   UNL d   1      -1.540  -2.450  -2.662  0.00  0.00     0.217 HD
ENDBRANCH  15  21
BRANCH  16  23
ATOM     23  O   UNL d   1       0.802   0.572  -2.426  0.00  0.00    -0.353 OA
ATOM     24  C   UNL d   1       1.004  -0.189  -3.608  0.00  0.00     0.210 C 
ENDBRANCH  16  23
ENDBRANCH   3  14
TORSDOF 7
