REMARK  4 active torsions:
REMARK  status: ('A' for Active; 'I' for Inactive)
REMARK    1  A    between atoms: N_2  and  C_9 
REMARK    2  A    between atoms: C_7  and  C_4 
REMARK    3  A    between atoms: C_8  and  C_7 
REMARK    4  A    between atoms: C_10  and  C_8 
ROOT
ATOM      1  C   UNL d   1       0.949  -2.621   1.196  0.00  0.00     0.121 C 
ENDROOT
BRANCH   1   2
ATOM      2  C   UNL d   1       0.717  -1.764  -0.041  0.00  0.00     0.173 A 
ATOM      3  O   UNL d   1       0.525  -2.606  -1.202  0.00  0.00    -0.307 OA
ATOM      4  C   UNL d   1       1.378  -2.277  -2.222  0.00  0.00     0.294 A 
ATOM      5  C   UNL d   1       2.184  -1.160  -1.748  0.00  0.00     0.048 A 
ATOM      6  O   UNL d   1       1.450  -2.826  -3.301  0.00  0.00    -0.259 OA
ATOM      7  C   UNL d   1       1.814  -0.859  -0.453  0.00  0.00    -0.012 A 
ATOM      8  C   UNL d   1       3.177  -0.471  -2.423  0.00  0.00     0.018 A 
ATOM      9  C   UNL d   1       2.439   0.171   0.231  0.00  0.00     0.011 A 
ATOM     10  C   UNL d   1       3.447   0.886  -0.425  0.00  0.00     0.001 A 
ATOM     11  C   UNL d   1       3.815   0.568  -1.744  0.00  0.00     0.001 A 
ENDBRANCH   1   2
BRANCH   1  12
ATOM     12  C   UNL d   1       2.174  -3.506   1.081  0.00  0.00     0.162 C 
ATOM     13  O   UNL d   1       3.283  -3.067   1.385  0.00  0.00    -0.292 OA
BRANCH  12  14
ATOM     14  C   UNL d   1       2.057  -4.929   0.624  0.00  0.00     0.012 A 
ATOM     15  C   UNL d   1       0.852  -5.502   0.205  0.00  0.00     0.051 A 
ATOM     16  C   UNL d   1       0.815  -6.862  -0.149  0.00  0.00     0.103 A 
ATOM     17  C   UNL d   1       1.974  -7.647  -0.116  0.00  0.00     0.036 A 
ATOM     18  C   UNL d   1       3.179  -7.068   0.276  0.00  0.00     0.003 A 
ATOM     19  C   UNL d   1       3.218  -5.721   0.646  0.00  0.00     0.015 A 
BRANCH  16  20
ATOM     20  N   UNL d   1      -0.466  -7.477  -0.525  0.00  0.00    -0.116 N 
ATOM     21  O   UNL d   1      -1.479  -6.764  -0.482  0.00  0.00    -0.532 OA
ATOM     22  O   UNL d   1      -0.461  -8.676  -0.836  0.00  0.00    -0.532 OA
ENDBRANCH  16  20
ENDBRANCH  12  14
ENDBRANCH   1  12
TORSDOF 4
