REMARK  6 active torsions:
REMARK  status: ('A' for Active; 'I' for Inactive)
REMARK    1  A    between atoms: C_7  and  N_1 
REMARK    2  A    between atoms: C_10  and  N_5 
REMARK    3  A    between atoms: C_20  and  C_7 
REMARK    4  A    between atoms: O_25  and  C_12 
REMARK    5  A    between atoms: O_26  and  C_14 
REMARK    6  A    between atoms: C_19  and  C_20 
ROOT
ATOM      1  N   UNL d   1      -0.456   0.896   0.058  0.00  0.00    -0.297 N 
ATOM      2  C   UNL d   1       0.693   0.452   0.682  0.00  0.00     0.150 C 
ATOM      3  C   UNL d   1      -1.201  -0.068  -0.592  0.00  0.00     0.235 C 
ATOM      4  S   UNL d   1       0.622  -1.291   0.848  0.00  0.00    -0.084 SA
ATOM      5  N   UNL d   1       1.634   1.247   1.071  0.00  0.00    -0.337 N 
ATOM      6  HN  UNL d   1       1.513   2.248   0.912  1.00  0.00     0.168 HD
ATOM      7  C   UNL d   1      -0.638  -1.449  -0.414  0.00  0.00     0.185 C 
ATOM      8  O   UNL d   1      -2.185   0.124  -1.304  0.00  0.00    -0.272 OA
ENDROOT
BRANCH   1   9
ATOM      9  C   UNL d   1      -0.737   2.332  -0.093  0.00  0.00     0.138 C 
BRANCH   9  10
ATOM     10  C   UNL d   1      -2.227   2.713  -0.115  0.00  0.00     0.059 C 
BRANCH  10  11
ATOM     11  C   UNL d   1      -2.463   4.202  -0.174  0.00  0.00    -0.054 A 
ATOM     12  C   UNL d   1      -2.618   4.947   1.005  0.00  0.00     0.046 A 
ATOM     13  C   UNL d   1      -2.904   6.321   0.968  0.00  0.00     0.102 A 
ATOM     14  C   UNL d   1      -2.999   6.962  -0.280  0.00  0.00     0.101 A 
ATOM     15  C   UNL d   1      -2.846   6.215  -1.456  0.00  0.00     0.040 A 
ATOM     16  C   UNL d   1      -2.573   4.850  -1.407  0.00  0.00     0.010 A 
BRANCH  13  17
ATOM     17  O   UNL d   1      -3.140   7.068   2.092  0.00  0.00    -0.353 OA
ATOM     18  C   UNL d   1      -3.097   6.411   3.351  0.00  0.00     0.210 C 
ENDBRANCH  13  17
BRANCH  14  19
ATOM     19  O   UNL d   1      -3.297   8.280  -0.517  0.00  0.00    -0.353 OA
ATOM     20  C   UNL d   1      -2.820   9.221   0.436  0.00  0.00     0.210 C 
ENDBRANCH  14  19
ENDBRANCH  10  11
ENDBRANCH   9  10
ENDBRANCH   1   9
BRANCH   5  21
ATOM     21  C   UNL d   1       2.819   0.814   1.701  0.00  0.00     0.035 A 
ATOM     22  C   UNL d   1       3.295   1.543   2.795  0.00  0.00     0.056 A 
ATOM     23  C   UNL d   1       4.462   1.150   3.461  0.00  0.00     0.074 A 
ATOM     24 CL   UNL d   1       5.043   2.084   4.786  0.00  0.00    -0.081 Cl
ATOM     25  C   UNL d   1       5.151   0.012   3.047  0.00  0.00     0.138 A 
ATOM     26  C   UNL d   1       4.724  -0.696   1.935  0.00  0.00     0.046 A 
ATOM     27  F   UNL d   1       6.246  -0.409   3.698  0.00  0.00    -0.204 F 
ATOM     28  C   UNL d   1       3.593  -0.264   1.239  0.00  0.00     0.032 A 
ENDBRANCH   5  21
TORSDOF 6
