REMARK  5 active torsions:
REMARK  status: ('A' for Active; 'I' for Inactive)
REMARK    1  A    between atoms: C_2  and  C_1 
REMARK       I    between atoms: N_10  and  C_1 
REMARK       I    between atoms: N_6  and  C_2 
REMARK    2  A    between atoms: C_3  and  C_15 
REMARK    3  A    between atoms: O_18  and  C_5 
REMARK    4  A    between atoms: C_16  and  N_6 
REMARK    5  A    between atoms: N_8  and  N_10 
ROOT
ATOM      1  C   UNL d   1       0.912   0.405  -0.625  0.00  0.00     0.328 C 
ATOM      2  N   UNL d   1      -0.019   0.539  -1.636  0.00  0.00    -0.262 N 
ATOM      3  O   UNL d   1       2.133   0.444  -0.694  0.00  0.00    -0.261 OA
ATOM      4  H   UNL d   1      -1.006   0.510  -1.380  0.00  0.00     0.190 HD
ENDROOT
BRANCH   2   5
ATOM      5  N   UNL d   1       0.364   0.763  -2.923  0.00  0.00    -0.308 N 
ATOM      6  C   UNL d   1      -0.615   0.979  -3.747  0.00  0.00     0.121 C 
ATOM      7  HN  UNL d   1       1.341   0.760  -3.216  1.00  0.00     0.186 HD
BRANCH   6   8
ATOM      8  C   UNL d   1      -0.379   1.241  -5.181  0.00  0.00     0.017 A 
ATOM      9  C   UNL d   1      -1.450   1.580  -6.013  0.00  0.00     0.099 A 
ATOM     10  C   UNL d   1      -1.219   1.842  -7.369  0.00  0.00     0.069 A 
ATOM     11 CL   UNL d   1      -2.531   2.271  -8.405  0.00  0.00    -0.081 Cl
ATOM     12  C   UNL d   1       0.067   1.764  -7.896  0.00  0.00     0.050 A 
ATOM     13  C   UNL d   1       1.129   1.420  -7.060  0.00  0.00     0.036 A 
ATOM     14  C   UNL d   1       0.917   1.160  -5.707  0.00  0.00     0.039 A 
ATOM     15 CL   UNL d   1       2.719   1.315  -7.710  0.00  0.00    -0.084 Cl
BRANCH   9  16
ATOM     16  O   UNL d   1      -2.716   1.659  -5.493  0.00  0.00    -0.358 OA
ATOM     17  H   UNL d   1      -3.321   1.911  -6.217  0.00  0.00     0.217 HD
ENDBRANCH   9  16
ENDBRANCH   6   8
ENDBRANCH   2   5
BRANCH   1  18
ATOM     18  C   UNL d   1       0.239   0.254   0.750  0.00  0.00     0.315 C 
ATOM     19  N   UNL d   1       1.098   0.546   1.790  0.00  0.00    -0.319 N 
ATOM     20  H   UNL d   1       2.024   0.854   1.500  0.00  0.00     0.169 HD
ATOM     21  O   UNL d   1      -0.953  -0.018   0.790  0.00  0.00    -0.262 OA
BRANCH  19  22
ATOM     22  C   UNL d   1       0.787   0.571   3.159  0.00  0.00     0.035 A 
ATOM     23  C   UNL d   1      -0.370  -0.005   3.692  0.00  0.00     0.032 A 
ATOM     24  C   UNL d   1      -0.628   0.070   5.064  0.00  0.00     0.044 A 
ATOM     25  C   UNL d   1       0.266   0.732   5.895  0.00  0.00     0.116 A 
ATOM     26  C   UNL d   1       1.424   1.303   5.384  0.00  0.00     0.044 A 
ATOM     27  F   UNL d   1       0.008   0.821   7.206  0.00  0.00    -0.206 F 
ATOM     28  C   UNL d   1       1.693   1.209   4.016  0.00  0.00     0.032 A 
ENDBRANCH  19  22
ENDBRANCH   1  18
TORSDOF 5
