REMARK  3 active torsions:
REMARK  status: ('A' for Active; 'I' for Inactive)
REMARK    1  A    between atoms: N_7  and  C_2 
REMARK       I    between atoms: C_5  and  N_9 
REMARK    2  A    between atoms: C_15  and  C_5 
REMARK    3  A    between atoms: N_9  and  N_7 
ROOT
ATOM      1  N   UNL d   1      -0.727  -2.910  -0.362  0.00  0.00    -0.186 NA
ATOM      2  H   UNL d   1       0.152  -3.429  -0.457  0.00  0.00     0.154 HD
ENDROOT
BRANCH   1   3
ATOM      3  C   UNL d   1      -0.576  -1.702   0.344  0.00  0.00     0.119 A 
ATOM      4  C   UNL d   1       0.659  -1.046   0.431  0.00  0.00     0.071 A 
ATOM      5  S   UNL d   1       2.202  -1.520  -0.172  0.00  0.00    -0.096 SA
ATOM      6  C   UNL d   1       0.737   0.180   1.085  0.00  0.00     0.054 A 
ATOM      7  C   UNL d   1       2.952  -0.103   0.418  0.00  0.00     0.053 A 
ATOM      8  C   UNL d   1       2.058   0.719   1.063  0.00  0.00     0.038 A 
ATOM      9  N   UNL d   1      -0.338   0.773   1.656  0.00  0.00    -0.351 N 
ATOM     10  C   UNL d   1      -1.471   0.074   1.537  0.00  0.00     0.182 A 
ATOM     11  HN  UNL d   1      -0.288   1.672   2.135  1.00  0.00     0.166 HD
ATOM     12  N   UNL d   1      -1.649  -1.111   0.929  0.00  0.00    -0.341 N 
ATOM     13  HN  UNL d   1      -2.567  -1.555   0.908  1.00  0.00     0.167 HD
ENDBRANCH   1   3
BRANCH   1  14
ATOM     14  N   UNL d   1      -1.784  -3.711   0.094  0.00  0.00    -0.281 N 
ATOM     15  C   UNL d   1      -1.550  -5.072   0.164  0.00  0.00     0.266 C 
ATOM     16  O   UNL d   1      -0.463  -5.566  -0.131  0.00  0.00    -0.266 OA
ATOM     17  H   UNL d   1      -2.595  -3.215   0.450  0.00  0.00     0.184 HD
BRANCH  15  18
ATOM     18  C   UNL d   1      -2.666  -5.940   0.639  0.00  0.00     0.033 A 
ATOM     19  C   UNL d   1      -4.003  -5.519   0.656  0.00  0.00     0.018 A 
ATOM     20  C   UNL d   1      -5.008  -6.390   1.096  0.00  0.00     0.025 A 
ATOM     21  C   UNL d   1      -4.682  -7.680   1.512  0.00  0.00     0.034 A 
ATOM     22  C   UNL d   1      -3.359  -8.115   1.489  0.00  0.00     0.025 A 
ATOM     23 CL   UNL d   1      -5.922  -8.744   2.047  0.00  0.00    -0.084 Cl
ATOM     24  C   UNL d   1      -2.355  -7.247   1.049  0.00  0.00     0.018 A 
ENDBRANCH  15  18
ENDBRANCH   1  14
TORSDOF 3
