REMARK  2 active torsions:
REMARK  status: ('A' for Active; 'I' for Inactive)
REMARK    1  A    between atoms: C_12  and  N_1 
REMARK    2  A    between atoms: C_14  and  C_12 
ROOT
ATOM      1  N   UNL d   1      -0.070  -6.345  -1.307  0.00  0.00    -0.197 NA
ATOM      2  C   UNL d   1      -0.069  -5.186  -1.375  0.00  0.00     0.060 C 
ATOM      3  C   UNL d   1      -0.039  -3.720  -1.454  0.00  0.00     0.144 C 
ENDROOT
BRANCH   3   4
ATOM      4  C   UNL d   1       0.077  -3.120  -0.059  0.00  0.00     0.144 C 
BRANCH   4   5
ATOM      5  N   UNL d   1       0.053  -1.662  -0.075  0.00  0.00    -0.342 N 
ATOM      6  C   UNL d   1      -1.085  -0.888  -0.030  0.00  0.00     0.088 A 
ATOM      7  C   UNL d   1      -0.693   0.439  -0.009  0.00  0.00    -0.015 A 
ATOM      8  C   UNL d   1      -2.471  -1.313   0.004  0.00  0.00     0.176 C 
ATOM      9  C   UNL d   1      -1.657   1.577   0.049  0.00  0.00     0.042 C 
ATOM     10  C   UNL d   1       0.724   0.475  -0.016  0.00  0.00    -0.000 A 
ATOM     11  C   UNL d   1      -3.062   1.120  -0.368  0.00  0.00     0.012 C 
ATOM     12  C   UNL d   1      -3.463  -0.194   0.314  0.00  0.00     0.086 C 
ATOM     13  C   UNL d   1       1.175  -0.848  -0.061  0.00  0.00     0.045 A 
ATOM     14  C   UNL d   1       1.663   1.525   0.025  0.00  0.00     0.021 A 
ATOM     15  C   UNL d   1       2.548  -1.148  -0.069  0.00  0.00     0.031 A 
ATOM     16  C   UNL d   1       3.462  -0.086  -0.021  0.00  0.00     0.009 A 
ATOM     17  C   UNL d   1       3.036   1.242   0.027  0.00  0.00    -0.061 A 
ATOM     18  C   UNL d   1       4.016   2.377   0.086  0.00  0.00     0.048 C 
ATOM     19  O   UNL d   1      -2.836  -2.477  -0.144  0.00  0.00    -0.291 OA
ENDBRANCH   4   5
ENDBRANCH   3   4
TORSDOF 2
