REMARK  5 active torsions:
REMARK  status: ('A' for Active; 'I' for Inactive)
REMARK    1  A    between atoms: C_4  and  C_1 
REMARK    2  A    between atoms: N_2  and  C_3 
REMARK       I    between atoms: N_9  and  C_4 
REMARK    3  A    between atoms: N_7  and  N_9 
REMARK    4  A    between atoms: C_13  and  C_15 
REMARK    5  A    between atoms: C_17  and  C_14 
ROOT
ATOM      1  C   UNL d   1       2.828  -0.364  -0.172  0.00  0.00     0.272 C 
ATOM      2  N   UNL d   1       3.651   0.671   0.261  0.00  0.00    -0.266 N 
ATOM      3  O   UNL d   1       3.331  -1.387  -0.638  0.00  0.00    -0.266 OA
ATOM      4  H   UNL d   1       4.605   0.518  -0.065  0.00  0.00     0.190 HD
ENDROOT
BRANCH   1   5
ATOM      5  C   UNL d   1       1.350  -0.263  -0.083  0.00  0.00     0.060 A 
ATOM      6  C   UNL d   1       0.527  -1.254   0.491  0.00  0.00     0.054 A 
ATOM      7  C   UNL d   1      -0.872  -1.075   0.457  0.00  0.00     0.031 A 
ATOM      8  C   UNL d   1      -1.443   0.054  -0.132  0.00  0.00     0.002 A 
ATOM      9  C   UNL d   1      -0.633   1.000  -0.744  0.00  0.00     0.001 A 
ATOM     10  C   UNL d   1       0.748   0.823  -0.748  0.00  0.00     0.019 A 
BRANCH   6  11
ATOM     11  N   UNL d   1       1.020  -2.447   1.108  0.00  0.00    -0.332 N 
ATOM     12  C   UNL d   1       2.195  -2.626   1.809  0.00  0.00     0.096 A 
ATOM     13  C   UNL d   1       2.287  -3.940   2.221  0.00  0.00     0.019 A 
ATOM     14  C   UNL d   1       1.114  -4.595   1.798  0.00  0.00     0.019 A 
ATOM     15  C   UNL d   1       0.344  -3.658   1.147  0.00  0.00     0.096 A 
ENDBRANCH   6  11
ENDBRANCH   1   5
BRANCH   2  16
ATOM     16  N   UNL d   1       3.319   2.000   0.321  0.00  0.00    -0.309 N 
ATOM     17  C   UNL d   1       2.439   2.355   1.200  0.00  0.00     0.107 C 
ATOM     18  HN  UNL d   1       3.750   2.682  -0.303  1.00  0.00     0.186 HD
BRANCH  17  19
ATOM     19  C   UNL d   1       1.942   3.745   1.335  0.00  0.00     0.019 C 
ATOM     20  C   UNL d   1       2.280   4.692   0.445  0.00  0.00     0.013 C 
BRANCH  20  21
ATOM     21  C   UNL d   1       1.889   6.106   0.557  0.00  0.00    -0.036 A 
ATOM     22  C   UNL d   1       1.706   6.724   1.802  0.00  0.00     0.011 A 
ATOM     23  C   UNL d   1       1.402   8.085   1.887  0.00  0.00     0.001 A 
ATOM     24  C   UNL d   1       1.290   8.848   0.728  0.00  0.00     0.000 A 
ATOM     25  C   UNL d   1       1.482   8.252  -0.515  0.00  0.00     0.001 A 
ATOM     26  C   UNL d   1       1.784   6.889  -0.602  0.00  0.00     0.011 A 
ENDBRANCH  20  21
ENDBRANCH  17  19
ENDBRANCH   2  16
TORSDOF 5
