REMARK  4 active torsions:
REMARK  status: ('A' for Active; 'I' for Inactive)
REMARK    1  A    between atoms: C_2  and  C_1 
REMARK    2  A    between atoms: C_3  and  C_2 
REMARK    3  A    between atoms: N_11  and  C_4 
REMARK    4  A    between atoms: C_14  and  N_11 
ROOT
ATOM      1  C   UNL d   1       0.948  -0.179   0.015  0.00  0.00     0.106 C 
ATOM      2  C   UNL d   1       0.276   0.984   0.125  0.00  0.00     0.114 C 
ATOM      3  C   UNL d   1       0.248  -1.404  -0.114  0.00  0.00     0.104 C 
ATOM      4  N   UNL d   1      -0.345  -2.397  -0.208  0.00  0.00    -0.191 NA
ENDROOT
BRANCH   1   5
ATOM      5  C   UNL d   1       2.445  -0.165   0.044  0.00  0.00     0.175 C 
ATOM      6  O   UNL d   1       3.089   0.876   0.122  0.00  0.00    -0.291 OA
BRANCH   5   7
ATOM      7  C   UNL d   1       3.143  -1.490  -0.040  0.00  0.00     0.061 A 
ATOM      8  C   UNL d   1       4.586  -1.645   0.378  0.00  0.00     0.013 A 
ATOM      9  C   UNL d   1       4.221  -1.700  -1.078  0.00  0.00     0.013 A 
ENDBRANCH   5   7
ENDBRANCH   1   5
BRANCH   2  10
ATOM     10  N   UNL d   1      -1.093   1.163   0.191  0.00  0.00    -0.364 N 
ATOM     11  H   UNL d   1      -1.666   0.323   0.253  0.00  0.00     0.165 HD
BRANCH  10  12
ATOM     12  C   UNL d   1      -1.814   2.367   0.273  0.00  0.00     0.033 A 
ATOM     13  C   UNL d   1      -3.057   2.360   0.929  0.00  0.00     0.056 A 
ATOM     14  C   UNL d   1      -3.780   3.543   1.103  0.00  0.00     0.074 A 
ATOM     15 CL   UNL d   1      -5.286   3.498   1.938  0.00  0.00    -0.081 Cl
ATOM     16  C   UNL d   1      -3.273   4.741   0.615  0.00  0.00     0.138 A 
ATOM     17  C   UNL d   1      -2.046   4.770  -0.038  0.00  0.00     0.046 A 
ATOM     18  F   UNL d   1      -3.951   5.888   0.768  0.00  0.00    -0.204 F 
ATOM     19  C   UNL d   1      -1.315   3.589  -0.195  0.00  0.00     0.032 A 
ENDBRANCH  10  12
ENDBRANCH   2  10
TORSDOF 4
