REMARK  3 active torsions:
REMARK  status: ('A' for Active; 'I' for Inactive)
REMARK    1  A    between atoms: C_5  and  C_1 
REMARK       I    between atoms: C_4  and  N_10 
REMARK    2  A    between atoms: C_9  and  C_4 
REMARK       I    between atoms: N_11  and  C_5 
REMARK    3  A    between atoms: N_10  and  N_11 
ROOT
ATOM      1  C   UNL d   1      -0.022   2.520   0.079  0.00  0.00     0.274 C 
ATOM      2  N   UNL d   1      -1.229   3.190   0.110  0.00  0.00    -0.263 N 
ATOM      3  O   UNL d   1       1.035   3.155   0.109  0.00  0.00    -0.266 OA
ATOM      4  H   UNL d   1      -2.148   2.772   0.013  0.00  0.00     0.190 HD
ENDROOT
BRANCH   2   5
ATOM      5  N   UNL d   1      -1.184   4.593   0.208  0.00  0.00    -0.262 N 
ATOM      6  C   UNL d   1      -2.256   5.343  -0.228  0.00  0.00     0.286 C 
ATOM      7  O   UNL d   1      -3.302   4.820  -0.604  0.00  0.00    -0.264 OA
ATOM      8  H   UNL d   1      -0.258   5.002   0.319  0.00  0.00     0.190 HD
BRANCH   6   9
ATOM      9  C   UNL d   1      -2.054   6.777  -0.200  0.00  0.00     0.102 A 
ATOM     10  N   UNL d   1      -2.994   7.652  -0.704  0.00  0.00    -0.361 N 
ATOM     11  C   UNL d   1      -2.580   8.946  -0.533  0.00  0.00     0.088 A 
ATOM     12  H   UNL d   1      -3.866   7.360  -1.130  0.00  0.00     0.165 HD
ATOM     13  C   UNL d   1      -1.353   8.919   0.087  0.00  0.00     0.019 A 
ATOM     14  C   UNL d   1      -1.018   7.558   0.293  0.00  0.00     0.036 A 
ENDBRANCH   6   9
ENDBRANCH   2   5
BRANCH   1  15
ATOM     15  C   UNL d   1      -0.049   1.070   0.028  0.00  0.00     0.089 A 
ATOM     16  C   UNL d   1       1.099   0.295   0.001  0.00  0.00     0.090 A 
ATOM     17  O   UNL d   1       0.770  -1.019  -0.024  0.00  0.00    -0.242 OA
ATOM     18  C   UNL d   1       2.545   0.603  -0.002  0.00  0.00     0.080 C 
ATOM     19  N   UNL d   1      -0.598  -1.149  -0.015  0.00  0.00    -0.265 N 
ATOM     20  C   UNL d   1      -1.092   0.096   0.019  0.00  0.00     0.047 A 
ATOM     21  HN  UNL d   1      -1.131  -2.019  -0.030  1.00  0.00     0.194 HD
ATOM     22  C   UNL d   1      -2.564   0.258   0.041  0.00  0.00     0.071 C 
ENDBRANCH   1  15
TORSDOF 3
