REMARK  7 active torsions:
REMARK  status: ('A' for Active; 'I' for Inactive)
REMARK    1  A    between atoms: C_7  and  C_1 
REMARK    2  A    between atoms: C_3  and  C_2 
REMARK    3  A    between atoms: N_11  and  C_6 
REMARK    4  A    between atoms: O_20  and  C_7 
REMARK    5  A    between atoms: C_19  and  N_11 
REMARK    6  A    between atoms: C_21  and  C_13 
REMARK    7  A    between atoms: C_24  and  O_20 
ROOT
ATOM      1  C   UNL d   1       0.023  -1.544   0.037  0.00  0.00     0.087 A 
ATOM      2  C   UNL d   1       1.155  -0.806   0.325  0.00  0.00     0.150 A 
ATOM      3  N   UNL d   1       1.149   0.567   0.205  0.00  0.00    -0.185 N 
ATOM      4  HN  UNL d   1       2.004   1.101   0.361  1.00  0.00     0.184 HD
ATOM      5  C   UNL d   1       0.009   1.193  -0.119  0.00  0.00     0.683 A 
ATOM      6  N   UNL d   1      -1.127   0.535  -0.362  0.00  0.00    -0.201 N 
ATOM      7  HN  UNL d   1      -1.987   1.033  -0.593  1.00  0.00     0.183 HD
ATOM      8  C   UNL d   1      -1.097  -0.808  -0.291  0.00  0.00     0.126 A 
ENDROOT
BRANCH   5   9
ATOM      9  N   UNL d   1       0.055   2.579  -0.238  0.00  0.00    -0.192 N 
ATOM     10  H   UNL d   1       0.995   2.914  -0.080  0.00  0.00     0.184 HD
BRANCH   9  11
ATOM     11  C   UNL d   1      -0.949   3.517   0.058  0.00  0.00     0.049 A 
ATOM     12  C   UNL d   1      -2.040   3.225   0.883  0.00  0.00     0.030 A 
ATOM     13  C   UNL d   1      -3.012   4.190   1.164  0.00  0.00     0.010 A 
ATOM     14  C   UNL d   1      -2.936   5.471   0.604  0.00  0.00    -0.055 A 
ATOM     15  C   UNL d   1      -1.861   5.757  -0.248  0.00  0.00     0.010 A 
ATOM     16  C   UNL d   1      -0.877   4.794  -0.509  0.00  0.00     0.030 A 
BRANCH  14  17
ATOM     17  C   UNL d   1      -3.972   6.536   0.917  0.00  0.00     0.010 C 
ATOM     18  C   UNL d   1      -5.381   6.106   0.500  0.00  0.00     0.015 C 
ATOM     19  C   UNL d   1      -3.940   6.918   2.401  0.00  0.00     0.015 C 
ENDBRANCH  14  17
ENDBRANCH   9  11
ENDBRANCH   5   9
BRANCH   2  20
ATOM     20  C   UNL d   1       2.453  -1.396   0.844  0.00  0.00     0.434 C 
ATOM     21  F   UNL d   1       2.433  -2.714   1.175  0.00  0.00    -0.165 F 
ATOM     22  F   UNL d   1       3.481  -1.248  -0.041  0.00  0.00    -0.165 F 
ATOM     23  F   UNL d   1       2.867  -0.774   1.990  0.00  0.00    -0.165 F 
ENDBRANCH   2  20
BRANCH   1  24
ATOM     24  C   UNL d   1      -0.171  -3.001   0.072  0.00  0.00     0.296 C 
ATOM     25  O   UNL d   1      -1.233  -3.502   0.390  0.00  0.00    -0.259 OA
BRANCH  24  26
ATOM     26  O   UNL d   1       0.919  -3.653  -0.385  0.00  0.00    -0.318 OA
BRANCH  26  27
ATOM     27  C   UNL d   1       0.820  -5.090  -0.366  0.00  0.00     0.174 C 
ATOM     28  C   UNL d   1       0.891  -5.641   1.051  0.00  0.00     0.034 C 
ENDBRANCH  26  27
ENDBRANCH  24  26
ENDBRANCH   1  24
TORSDOF 7
