REMARK  3 active torsions:
REMARK  status: ('A' for Active; 'I' for Inactive)
REMARK    1  A    between atoms: C_3  and  C_1 
REMARK    2  A    between atoms: N_5  and  C_2 
REMARK       I    between atoms: C_4  and  N_6 
REMARK    3  A    between atoms: C_9  and  C_4 
ROOT
ATOM      1  C   UNL d   1      -3.764   5.793   0.871  0.00  0.00     0.227 C 
ATOM      2  N   UNL d   1      -1.224   2.397   0.370  0.00  0.00    -0.266 NA
ATOM      3  N   UNL d   1      -2.930   4.685   0.788  0.00  0.00    -0.349 N 
ATOM      4  C   UNL d   1      -1.455   3.326  -0.761  0.00  0.00     0.117 C 
ATOM      5  C   UNL d   1      -2.439   2.280   1.198  0.00  0.00     0.117 C 
ATOM      6  C   UNL d   1      -2.729   3.657   1.818  0.00  0.00     0.140 C 
ATOM      7  C   UNL d   1      -1.849   4.721  -0.222  0.00  0.00     0.140 C 
ATOM      8  O   UNL d   1      -3.650   6.702   0.040  0.00  0.00    -0.273 OA
ENDROOT
BRANCH   2   9
ATOM      9  C   UNL d   1      -0.651   1.173   0.027  0.00  0.00     0.097 A 
ATOM     10  C   UNL d   1       0.028   0.396   0.971  0.00  0.00     0.086 A 
ATOM     11  C   UNL d   1       0.570  -0.838   0.559  0.00  0.00     0.021 A 
ATOM     12  C   UNL d   1       0.461  -1.247  -0.759  0.00  0.00     0.018 A 
ATOM     13  C   UNL d   1      -0.195  -0.407  -1.631  0.00  0.00     0.089 A 
ATOM     14  N   UNL d   1      -0.743   0.773  -1.264  0.00  0.00    -0.356 N 
ATOM     15  HN  UNL d   1      -1.220   1.356  -1.951  1.00  0.00     0.166 HD
BRANCH  10  16
ATOM     16  C   UNL d   1       0.210   0.796   2.406  0.00  0.00     0.420 C 
ATOM     17  F   UNL d   1       0.025   2.111   2.709  0.00  0.00    -0.166 F 
ATOM     18  F   UNL d   1      -0.643   0.113   3.229  0.00  0.00    -0.166 F 
ATOM     19  F   UNL d   1       1.460   0.501   2.872  0.00  0.00    -0.166 F 
ENDBRANCH  10  16
ENDBRANCH   2   9
BRANCH   1  20
ATOM     20  C   UNL d   1      -4.851   5.915   1.977  0.00  0.00     0.030 C 
ATOM     21  C   UNL d   1      -4.226   6.082   3.371  0.00  0.00     0.025 C 
ATOM     22  C   UNL d   1      -5.665   7.210   1.708  0.00  0.00     0.025 C 
ATOM     23  C   UNL d   1      -5.867   4.762   1.919  0.00  0.00     0.025 C 
ENDBRANCH   1  20
TORSDOF 3
