REMARK  4 active torsions:
REMARK  status: ('A' for Active; 'I' for Inactive)
REMARK    1  A    between atoms: C_6  and  C_1 
REMARK    2  A    between atoms: N_9  and  C_3 
REMARK    3  A    between atoms: C_7  and  C_4 
REMARK    4  A    between atoms: O_12  and  C_6 
ROOT
ATOM      1  C   UNL d   1      -0.255   1.074   0.016  0.00  0.00     0.107 A 
ATOM      2  S   UNL d   1       1.331   0.412   0.057  0.00  0.00    -0.081 SA
ATOM      3  C   UNL d   1      -1.196   0.063  -0.018  0.00  0.00     0.050 A 
ATOM      4  C   UNL d   1       0.769  -1.209   0.005  0.00  0.00     0.018 A 
ATOM      5  C   UNL d   1      -0.614  -1.233  -0.028  0.00  0.00     0.050 A 
ENDROOT
BRANCH   4   6
ATOM      6  C   UNL d   1       1.709  -2.347   0.029  0.00  0.00    -0.019 A 
ATOM      7  C   UNL d   1       1.315  -3.569   0.603  0.00  0.00     0.014 A 
ATOM      8  C   UNL d   1       2.185  -4.665   0.641  0.00  0.00     0.024 A 
ATOM      9  C   UNL d   1       3.464  -4.552   0.106  0.00  0.00     0.034 A 
ATOM     10  C   UNL d   1       3.876  -3.357  -0.474  0.00  0.00     0.024 A 
ATOM     11 CL   UNL d   1       4.538  -5.894   0.163  0.00  0.00    -0.084 Cl
ATOM     12  C   UNL d   1       3.002  -2.263  -0.515  0.00  0.00     0.014 A 
ENDBRANCH   4   6
BRANCH   1  13
ATOM     13  C   UNL d   1      -0.399   2.520   0.025  0.00  0.00     0.302 C 
ATOM     14  O   UNL d   1       0.513   3.342   0.044  0.00  0.00    -0.259 OA
BRANCH  13  15
ATOM     15  O   UNL d   1      -1.723   2.869   0.008  0.00  0.00    -0.322 OA
ATOM     16  C   UNL d   1      -1.961   4.276   0.005  0.00  0.00     0.213 C 
ENDBRANCH  13  15
ENDBRANCH   1  13
BRANCH   3  17
ATOM     17  N   UNL d   1      -2.531   0.239  -0.045  0.00  0.00    -0.398 N 
ATOM     18  H   UNL d   1      -2.947   1.169  -0.001  0.00  0.00     0.156 HD
ATOM     19  H   UNL d   1      -3.200  -0.524  -0.018  0.00  0.00     0.156 HD
ENDBRANCH   3  17
TORSDOF 4
