REMARK  6 active torsions:
REMARK  status: ('A' for Active; 'I' for Inactive)
REMARK    1  A    between atoms: C_16  and  C_3 
REMARK    2  A    between atoms: C_17  and  C_6 
REMARK    3  A    between atoms: S_11  and  C_16 
REMARK    4  A    between atoms: C_12  and  S_11 
REMARK    5  A    between atoms: C_13  and  O_15 
REMARK    6  A    between atoms: O_15  and  C_17 
ROOT
ATOM      1  N   UNL d   1       1.360   0.096   0.192  0.00  0.00    -0.324 N 
ATOM      2  HN  UNL d   1       2.376   0.167   0.243  1.00  0.00     0.169 HD
ATOM      3  C   UNL d   1       0.429   1.108   0.121  0.00  0.00     0.113 A 
ATOM      4  N   UNL d   1      -0.846   0.684   0.079  0.00  0.00    -0.246 N 
ATOM      5  HN  UNL d   1      -1.697   1.244   0.035  1.00  0.00     0.196 HD
ATOM      6  C   UNL d   1       0.611  -0.985   0.175  0.00  0.00     0.172 A 
ATOM      7  O   UNL d   1      -0.725  -0.709   0.109  0.00  0.00    -0.221 OA
ENDROOT
BRANCH   3   8
ATOM      8  C   UNL d   1       0.765   2.563   0.075  0.00  0.00     0.158 C 
BRANCH   8   9
ATOM      9  S   UNL d   1       2.564   2.867  -0.106  0.00  0.00    -0.121 SA
BRANCH   9  10
ATOM     10  C   UNL d   1       2.637   4.638   0.164  0.00  0.00     0.024 A 
ATOM     11  C   UNL d   1       2.276   5.608  -0.792  0.00  0.00     0.072 A 
ATOM     12  C   UNL d   1       2.480   6.969  -0.505  0.00  0.00     0.057 A 
ATOM     13 CL   UNL d   1       1.610   5.134  -2.326  0.00  0.00    -0.081 Cl
ATOM     14 CL   UNL d   1       2.081   8.228  -1.625  0.00  0.00    -0.083 Cl
ATOM     15  C   UNL d   1       3.041   7.361   0.715  0.00  0.00     0.026 A 
ATOM     16  C   UNL d   1       3.395   6.404   1.660  0.00  0.00     0.003 A 
ATOM     17  C   UNL d   1       3.196   5.052   1.385  0.00  0.00     0.020 A 
ENDBRANCH   9  10
ENDBRANCH   8   9
ENDBRANCH   3   8
BRANCH   6  18
ATOM     18  C   UNL d   1       1.008  -2.410   0.089  0.00  0.00     0.262 C 
BRANCH  18  19
ATOM     19  O   UNL d   1       0.512  -3.081   1.249  0.00  0.00    -0.342 OA
BRANCH  19  20
ATOM     20  C   UNL d   1       0.816  -4.416   1.348  0.00  0.00     0.091 A 
ATOM     21  C   UNL d   1       0.954  -4.957   2.638  0.00  0.00     0.069 A 
ATOM     22  C   UNL d   1       1.216  -6.318   2.819  0.00  0.00     0.050 A 
ATOM     23 CL   UNL d   1       0.825  -3.963   4.046  0.00  0.00    -0.081 Cl
ATOM     24  C   UNL d   1       1.328  -7.148   1.709  0.00  0.00     0.035 A 
ATOM     25  C   UNL d   1       1.182  -6.630   0.424  0.00  0.00     0.026 A 
ATOM     26 CL   UNL d   1       1.635  -8.827   1.919  0.00  0.00    -0.084 Cl
ATOM     27  C   UNL d   1       0.923  -5.268   0.243  0.00  0.00     0.040 A 
ENDBRANCH  19  20
ENDBRANCH  18  19
ENDBRANCH   6  18
TORSDOF 6
