REMARK  5 active torsions:
REMARK  status: ('A' for Active; 'I' for Inactive)
REMARK    1  A    between atoms: C_8  and  S_1 
REMARK    2  A    between atoms: N_15  and  S_1 
REMARK    3  A    between atoms: N_3  and  C_2 
REMARK    4  A    between atoms: C_5  and  O_6 
REMARK    5  A    between atoms: O_6  and  C_7 
ROOT
ATOM      1  C   UNL d   1       0.108   3.083  -2.216  0.00  0.00     0.138 A 
ATOM      2  C   UNL d   1       0.520   2.258  -1.151  0.00  0.00     0.063 A 
ATOM      3  C   UNL d   1      -0.340   2.513  -3.424  0.00  0.00     0.109 A 
ATOM      4  C   UNL d   1       0.514   0.870  -1.310  0.00  0.00     0.076 A 
ATOM      5  C   UNL d   1      -0.277   1.115  -3.575  0.00  0.00     0.041 A 
ATOM      6  C   UNL d   1       0.127   0.295  -2.518  0.00  0.00     0.028 A 
ENDROOT
BRANCH   3   7
ATOM      7  O   UNL d   1      -0.825   3.339  -4.418  0.00  0.00    -0.305 OA
BRANCH   7   8
ATOM      8  C   UNL d   1      -1.639   2.817  -5.399  0.00  0.00     0.119 A 
ATOM      9  C   UNL d   1      -2.897   2.257  -5.132  0.00  0.00     0.069 A 
ATOM     10 CL   UNL d   1      -3.576   2.219  -3.542  0.00  0.00    -0.081 Cl
ATOM     11  C   UNL d   1      -3.659   1.715  -6.172  0.00  0.00     0.027 A 
ATOM     12  C   UNL d   1      -3.199   1.778  -7.487  0.00  0.00     0.003 A 
ATOM     13  C   UNL d   1      -1.982   2.400  -7.768  0.00  0.00     0.027 A 
ATOM     14  C   UNL d   1      -1.207   2.921  -6.728  0.00  0.00     0.069 A 
ATOM     15 CL   UNL d   1       0.294   3.676  -7.131  0.00  0.00    -0.081 Cl
ENDBRANCH   7   8
ENDBRANCH   3   7
BRANCH   1  16
ATOM     16  N   UNL d   1       0.173   4.542  -2.014  0.00  0.00    -0.113 N 
ATOM     17  O   UNL d   1       0.520   4.942  -0.892  0.00  0.00    -0.532 OA
ATOM     18  O   UNL d   1      -0.088   5.297  -2.958  0.00  0.00    -0.532 OA
ENDBRANCH   1  16
BRANCH   4  19
ATOM     19  S   UNL d   1       0.971  -0.159   0.060  0.00  0.00     0.239 S 
ATOM     20  O   UNL d   1       0.798  -1.542  -0.315  0.00  0.00    -0.206 OA
ATOM     21  O   UNL d   1       0.405   0.403   1.260  0.00  0.00    -0.206 OA
BRANCH  19  22
ATOM     22  N   UNL d   1       2.624   0.094   0.138  0.00  0.00    -0.225 NA
ATOM     23  H   UNL d   1       3.117  -0.782  -0.048  0.00  0.00     0.136 HD
ATOM     24  H   UNL d   1       2.869   0.516   1.036  0.00  0.00     0.136 HD
ENDBRANCH  19  22
ENDBRANCH   4  19
TORSDOF 5
