REMARK  6 active torsions:
REMARK  status: ('A' for Active; 'I' for Inactive)
REMARK    1  A    between atoms: C_2  and  S_1 
REMARK    2  A    between atoms: N_3  and  S_1 
REMARK    3  A    between atoms: C_4  and  C_7 
REMARK    4  A    between atoms: C_5  and  C_9 
REMARK    5  A    between atoms: C_6  and  C_8 
REMARK    6  A    between atoms: C_7  and  C_18 
ROOT
ATOM      1  S   UNL d   1       1.054  -0.029   0.052  0.00  0.00     0.260 S 
ATOM      2  O   UNL d   1       0.223   1.153   0.145  0.00  0.00    -0.200 OA
ATOM      3  O   UNL d   1       2.490   0.052   0.253  0.00  0.00    -0.200 OA
ENDROOT
BRANCH   1   4
ATOM      4  C   UNL d   1       0.812  -0.731  -1.577  0.00  0.00     0.081 A 
ATOM      5  C   UNL d   1      -0.349  -0.456  -2.302  0.00  0.00     0.041 A 
ATOM      6  C   UNL d   1      -0.510  -0.992  -3.591  0.00  0.00     0.050 A 
ATOM      7  C   UNL d   1       0.516  -1.791  -4.136  0.00  0.00     0.032 A 
ATOM      8  C   UNL d   1       1.687  -2.071  -3.412  0.00  0.00     0.050 A 
ATOM      9  C   UNL d   1       1.835  -1.514  -2.135  0.00  0.00     0.041 A 
BRANCH   6  10
ATOM     10  C   UNL d   1      -1.764  -0.739  -4.397  0.00  0.00     0.417 C 
ATOM     11  F   UNL d   1      -2.704  -0.018  -3.728  0.00  0.00    -0.166 F 
ATOM     12  F   UNL d   1      -1.514  -0.060  -5.549  0.00  0.00    -0.166 F 
ATOM     13  F   UNL d   1      -2.376  -1.897  -4.769  0.00  0.00    -0.166 F 
ENDBRANCH   6  10
BRANCH   8  14
ATOM     14  C   UNL d   1       2.747  -2.974  -4.002  0.00  0.00     0.417 C 
ATOM     15  F   UNL d   1       3.784  -3.220  -3.155  0.00  0.00    -0.166 F 
ATOM     16  F   UNL d   1       2.248  -4.195  -4.342  0.00  0.00    -0.166 F 
ATOM     17  F   UNL d   1       3.296  -2.463  -5.136  0.00  0.00    -0.166 F 
ENDBRANCH   8  14
ENDBRANCH   1   4
BRANCH   1  18
ATOM     18  N   UNL d   1       0.447  -1.222   1.115  0.00  0.00    -0.307 N 
ATOM     19  C   UNL d   1      -1.011  -1.198   1.369  0.00  0.00     0.136 C 
ATOM     20  C   UNL d   1      -1.351  -2.082   2.573  0.00  0.00     0.033 C 
ATOM     21  C   UNL d   1      -0.852  -3.516   2.396  0.00  0.00     0.064 C 
ATOM     22  C   UNL d   1       0.646  -3.505   2.071  0.00  0.00     0.033 C 
ATOM     23  C   UNL d   1       1.013  -2.580   0.921  0.00  0.00     0.136 C 
BRANCH  21  24
ATOM     24  C   UNL d   1      -1.696  -4.240   1.343  0.00  0.00     0.166 C 
ATOM     25  O   UNL d   1      -1.346  -4.276   0.163  0.00  0.00    -0.292 OA
BRANCH  24  26
ATOM     26  C   UNL d   1      -3.004  -4.877   1.703  0.00  0.00     0.049 A 
ATOM     27  C   UNL d   1      -3.489  -4.986   3.010  0.00  0.00     0.133 A 
ATOM     28  C   UNL d   1      -4.693  -5.632   3.284  0.00  0.00     0.085 A 
ATOM     29  F   UNL d   1      -2.830  -4.472   4.055  0.00  0.00    -0.205 F 
ATOM     30  C   UNL d   1      -5.438  -6.158   2.240  0.00  0.00     0.119 A 
ATOM     31  C   UNL d   1      -5.001  -6.044   0.927  0.00  0.00     0.043 A 
ATOM     32  F   UNL d   1      -6.594  -6.779   2.502  0.00  0.00    -0.206 F 
ATOM     33  C   UNL d   1      -3.784  -5.409   0.658  0.00  0.00     0.021 A 
ENDBRANCH  24  26
ENDBRANCH  21  24
ENDBRANCH   1  18
TORSDOF 6
