REMARK  0 active torsions:
REMARK  status: ('A' for Active; 'I' for Inactive)
ROOT
ATOM      1  C   UNL d   1      -0.751   1.171  -0.014  0.00  0.00     0.066 A 
ATOM      2  C   UNL d   1       0.781  -1.180  -0.020  0.00  0.00     0.066 A 
ATOM      3  C   UNL d   1      -1.369  -0.077  -0.017  0.00  0.00     0.135 A 
ATOM      4  C   UNL d   1      -0.611  -1.250  -0.021  0.00  0.00     0.052 A 
ATOM      5  C   UNL d   1       0.641   1.242  -0.017  0.00  0.00     0.052 A 
ATOM      6  C   UNL d   1       1.398   0.069  -0.018  0.00  0.00     0.135 A 
ATOM      7  F   UNL d   1      -2.708  -0.128  -0.016  0.00  0.00    -0.205 F 
ATOM      8 BR   UNL d   1      -1.456  -2.941  -0.033  0.00  0.00    -0.048 Br
ATOM      9 BR   UNL d   1       1.486   2.933  -0.023  0.00  0.00    -0.048 Br
ATOM     10  F   UNL d   1       2.738   0.120  -0.019  0.00  0.00    -0.205 F 
ENDROOT
TORSDOF 0
