REMARK  6 active torsions:
REMARK  status: ('A' for Active; 'I' for Inactive)
REMARK    1  A    between atoms: C_5  and  C_1 
REMARK    2  A    between atoms: N_17  and  C_4 
REMARK    3  A    between atoms: N_11  and  C_25 
REMARK    4  A    between atoms: C_13  and  C_18 
REMARK    5  A    between atoms: C_26  and  N_17 
REMARK    6  A    between atoms: C_25  and  C_26 
ROOT
ATOM      1  N   UNL d   1       1.505   4.739  -0.455  0.00  0.00    -0.263 NA
ATOM      2  H   UNL d   1       2.430   4.426  -0.184  0.00  0.00     0.130 HD
ENDROOT
BRANCH   1   3
ATOM      3  C   UNL d   1       0.633   3.724  -0.092  0.00  0.00     0.157 A 
ATOM      4  N   UNL d   1       1.193   2.522   0.079  0.00  0.00    -0.329 N 
ATOM      5  C   UNL d   1       0.380   1.479   0.394  0.00  0.00     0.120 A 
ATOM      6  HN  UNL d   1       2.200   2.392  -0.024  1.00  0.00     0.168 HD
ATOM      7  C   UNL d   1      -0.983   1.641   0.555  0.00  0.00     0.051 A 
ATOM      8  C   UNL d   1      -1.460   2.915   0.376  0.00  0.00     0.093 A 
ATOM      9  N   UNL d   1      -0.676   3.958   0.056  0.00  0.00    -0.343 N 
ATOM     10  HN  UNL d   1      -1.064   4.893  -0.070  1.00  0.00     0.167 HD
BRANCH   5  11
ATOM     11  C   UNL d   1       0.977   0.093   0.559  0.00  0.00     0.432 C 
ATOM     12  F   UNL d   1       2.330   0.038   0.411  0.00  0.00    -0.165 F 
ATOM     13  F   UNL d   1       0.467  -0.802  -0.337  0.00  0.00    -0.165 F 
ATOM     14  F   UNL d   1       0.717  -0.440   1.790  0.00  0.00    -0.165 F 
ENDBRANCH   5  11
ENDBRANCH   1   3
BRANCH   1  15
ATOM     15  C   UNL d   1       1.127   6.069  -0.002  0.00  0.00     0.114 C 
BRANCH  15  16
ATOM     16  C   UNL d   1       2.174   7.102  -0.452  0.00  0.00     0.133 C 
BRANCH  16  17
ATOM     17  N   UNL d   1       1.752   8.432   0.004  0.00  0.00    -0.397 N 
ATOM     18  C   UNL d   1       2.537   9.392  -0.343  0.00  0.00     0.094 C 
ATOM     19  HN  UNL d   1       0.906   8.584   0.552  1.00  0.00     0.158 HD
BRANCH  18  20
ATOM     20  C   UNL d   1       2.233  10.788   0.030  0.00  0.00    -0.015 A 
ATOM     21  C   UNL d   1       1.054  11.091   0.717  0.00  0.00     0.055 A 
ATOM     22  C   UNL d   1       0.784  12.409   1.064  0.00  0.00     0.120 A 
ATOM     23  F   UNL d   1      -0.346  12.699   1.722  0.00  0.00    -0.206 F 
ATOM     24  C   UNL d   1       1.665  13.429   0.739  0.00  0.00     0.084 A 
ATOM     25  C   UNL d   1       2.832  13.114   0.053  0.00  0.00     0.120 A 
ATOM     26  C   UNL d   1       3.130  11.802  -0.309  0.00  0.00     0.055 A 
ATOM     27  F   UNL d   1       3.690  14.092  -0.266  0.00  0.00    -0.206 F 
ENDBRANCH  18  20
ENDBRANCH  16  17
ENDBRANCH  15  16
ENDBRANCH   1  15
TORSDOF 6
