REMARK  3 active torsions:
REMARK  status: ('A' for Active; 'I' for Inactive)
REMARK       I    between atoms: N_3  and  C_1 
REMARK    1  A    between atoms: O_5  and  C_1 
REMARK       I    between atoms: C_2  and  N_4 
REMARK    2  A    between atoms: C_6  and  C_2 
REMARK    3  A    between atoms: C_11  and  O_5 
ROOT
ATOM      1  C   UNL d   1       0.895  -0.166  -0.021  0.00  0.00     0.363 C 
ATOM      2  C   UNL d   1      -2.687  -3.283  -2.624  0.00  0.00     0.253 C 
ATOM      3  N   UNL d   1       0.322  -0.965  -0.996  0.00  0.00    -0.326 N 
ATOM      4  N   UNL d   1      -2.123  -2.597  -1.542  0.00  0.00    -0.346 N 
ATOM      5  O   UNL d   1       1.723  -0.587   0.775  0.00  0.00    -0.238 OA
ATOM      6  C   UNL d   1      -0.724  -0.530  -1.926  0.00  0.00     0.148 C 
ATOM      7  C   UNL d   1      -2.102  -1.121  -1.599  0.00  0.00     0.146 C 
ATOM      8  O   UNL d   1      -3.152  -2.694  -3.601  0.00  0.00    -0.267 OA
ATOM      9  C   UNL d   1      -0.121  -3.258  -0.134  0.00  0.00     0.040 C 
ATOM     10  C   UNL d   1       0.703  -2.367  -1.059  0.00  0.00     0.129 C 
ATOM     11  C   UNL d   1      -1.645  -3.179  -0.287  0.00  0.00     0.127 C 
ENDROOT
BRANCH   2  12
ATOM     12  C   UNL d   1      -2.789  -4.771  -2.647  0.00  0.00     0.032 A 
ATOM     13  C   UNL d   1      -3.981  -5.344  -3.119  0.00  0.00     0.018 A 
ATOM     14  C   UNL d   1      -4.113  -6.734  -3.224  0.00  0.00     0.025 A 
ATOM     15  C   UNL d   1      -3.051  -7.556  -2.857  0.00  0.00     0.034 A 
ATOM     16  C   UNL d   1      -1.853  -6.999  -2.412  0.00  0.00     0.025 A 
ATOM     17 CL   UNL d   1      -3.206  -9.264  -2.978  0.00  0.00    -0.084 Cl
ATOM     18  C   UNL d   1      -1.714  -5.608  -2.333  0.00  0.00     0.018 A 
ENDBRANCH   2  12
BRANCH   1  19
ATOM     19  O   UNL d   1       0.460   1.126  -0.055  0.00  0.00    -0.294 OA
BRANCH  19  20
ATOM     20  C   UNL d   1       1.092   2.131   0.788  0.00  0.00     0.061 C 
ATOM     21  C   UNL d   1       2.568   2.316   0.407  0.00  0.00     0.046 C 
ATOM     22  C   UNL d   1       0.352   3.445   0.485  0.00  0.00     0.046 C 
ATOM     23  C   UNL d   1       0.924   1.826   2.282  0.00  0.00     0.046 C 
ENDBRANCH  19  20
ENDBRANCH   1  19
TORSDOF 3
