REMARK  4 active torsions:
REMARK  status: ('A' for Active; 'I' for Inactive)
REMARK    1  A    between atoms: C_6  and  C_1 
REMARK    2  A    between atoms: S_12  and  C_7 
REMARK    3  A    between atoms: C_10  and  C_13 
REMARK    4  A    between atoms: C_13  and  S_12 
ROOT
ATOM      1  C   UNL d   1       0.106   1.052   0.003  0.00  0.00     0.207 A 
ATOM      2  N   UNL d   1       1.250   0.253   0.043  0.00  0.00    -0.317 N 
ATOM      3  HN  UNL d   1       2.226   0.545   0.073  1.00  0.00     0.169 HD
ATOM      4  N   UNL d   1      -1.044   0.341  -0.021  0.00  0.00    -0.280 N 
ATOM      5  HN  UNL d   1      -2.007   0.678  -0.045  1.00  0.00     0.188 HD
ATOM      6  C   UNL d   1       0.765  -0.962   0.032  0.00  0.00     0.161 A 
ATOM      7  N   UNL d   1      -0.591  -0.923  -0.005  0.00  0.00    -0.278 N 
ATOM      8  H   UNL d   1      -1.243  -1.698  -0.021  0.00  0.00     0.189 HD
ENDROOT
BRANCH   6   9
ATOM      9  S   UNL d   1       1.588  -2.469   0.059  0.00  0.00    -0.088 SA
BRANCH   9  10
ATOM     10  C   UNL d   1       3.326  -1.935   0.038  0.00  0.00     0.122 C 
BRANCH  10  11
ATOM     11  C   UNL d   1       4.257  -3.128   0.009  0.00  0.00    -0.027 A 
ATOM     12  C   UNL d   1       4.685  -3.732  -1.187  0.00  0.00     0.042 A 
ATOM     13  C   UNL d   1       5.529  -4.847  -1.165  0.00  0.00     0.048 A 
ATOM     14 CL   UNL d   1       4.191  -3.143  -2.735  0.00  0.00    -0.084 Cl
ATOM     15  C   UNL d   1       5.946  -5.375   0.052  0.00  0.00     0.035 A 
ATOM     16  C   UNL d   1       5.526  -4.804   1.250  0.00  0.00     0.024 A 
ATOM     17 CL   UNL d   1       6.984  -6.748   0.079  0.00  0.00    -0.084 Cl
ATOM     18  C   UNL d   1       4.686  -3.688   1.228  0.00  0.00     0.011 A 
ENDBRANCH  10  11
ENDBRANCH   9  10
ENDBRANCH   6   9
BRANCH   1  19
ATOM     19  C   UNL d   1       0.147   2.568  -0.010  0.00  0.00     0.450 C 
ATOM     20  F   UNL d   1       1.417   3.061  -0.011  0.00  0.00    -0.163 F 
ATOM     21  F   UNL d   1      -0.467   3.092  -1.108  0.00  0.00    -0.163 F 
ATOM     22  F   UNL d   1      -0.472   3.109   1.076  0.00  0.00    -0.163 F 
ENDBRANCH   1  19
TORSDOF 4
