REMARK  0 active torsions:
REMARK  status: ('A' for Active; 'I' for Inactive)
ROOT
ATOM      1  C   UNL d   1       1.248  -0.828  -0.023  0.00  0.00     0.026 A 
ATOM      2  C   UNL d   1      -1.253  -0.827  -0.029  0.00  0.00     0.026 A 
ATOM      3  C   UNL d   1      -1.200   0.506   0.164  0.00  0.00     0.064 A 
ATOM      4  C   UNL d   1       1.195   0.507   0.167  0.00  0.00     0.064 A 
ATOM      5  C   UNL d   1      -0.002  -1.678  -0.174  0.00  0.00     0.060 A 
ATOM      6  O   UNL d   1      -0.002   1.191   0.271  0.00  0.00    -0.318 OA
ATOM      7  C   UNL d   1       2.599  -1.460  -0.132  0.00  0.00     0.159 C 
ATOM      8  C   UNL d   1      -2.603  -1.458  -0.145  0.00  0.00     0.159 C 
ATOM      9  C   UNL d   1      -2.398   1.419   0.240  0.00  0.00     0.075 C 
ATOM     10  C   UNL d   1       2.394   1.417   0.245  0.00  0.00     0.075 C 
ATOM     11  C   UNL d   1       3.689   0.792  -0.309  0.00  0.00    -0.035 C 
ATOM     12  C   UNL d   1      -3.695   0.794  -0.311  0.00  0.00    -0.035 C 
ATOM     13  C   UNL d   1       3.809  -0.633   0.248  0.00  0.00     0.092 C 
ATOM     14  C   UNL d   1      -3.812  -0.632   0.244  0.00  0.00     0.092 C 
ATOM     15  O   UNL d   1       2.722  -2.627  -0.497  0.00  0.00    -0.293 OA
ATOM     16  O   UNL d   1      -2.729  -2.619  -0.525  0.00  0.00    -0.293 OA
ATOM     17  C   UNL d   1      -0.006  -2.857   0.816  0.00  0.00     0.020 C 
ATOM     18  C   UNL d   1       4.897   1.633   0.139  0.00  0.00     0.015 C 
ATOM     19  C   UNL d   1       3.675   0.762  -1.852  0.00  0.00     0.015 C 
ATOM     20  C   UNL d   1      -3.684   0.768  -1.855  0.00  0.00     0.015 C 
ATOM     21  C   UNL d   1      -4.901   1.634   0.142  0.00  0.00     0.015 C 
ENDROOT
TORSDOF 0
