REMARK  7 active torsions:
REMARK  status: ('A' for Active; 'I' for Inactive)
REMARK    1  A    between atoms: C_3  and  N_1 
REMARK    2  A    between atoms: N_11  and  N_6 
REMARK    3  A    between atoms: C_8  and  O_14 
REMARK    4  A    between atoms: C_16  and  C_8 
REMARK    5  A    between atoms: O_14  and  C_15 
REMARK    6  A    between atoms: C_17  and  C_16 
REMARK    7  A    between atoms: C_19  and  C_25 
ROOT
ATOM      1  N   UNL d   1       3.163   0.612   0.529  0.00  0.00    -0.309 N 
ATOM      2  HN  UNL d   1       3.042  -0.070  -0.220  1.00  0.00     0.186 HD
ATOM      3  C   UNL d   1       4.298   1.078   0.952  0.00  0.00     0.121 C 
ENDROOT
BRANCH   1   4
ATOM      4  N   UNL d   1       2.144   1.194   1.261  0.00  0.00    -0.280 N 
ATOM      5  C   UNL d   1       0.945   0.724   1.132  0.00  0.00     0.169 A 
ATOM      6  N   UNL d   1      -0.134   1.305   1.767  0.00  0.00    -0.260 N 
ATOM      7  S   UNL d   1       0.455  -0.609   0.125  0.00  0.00    -0.083 SA
ATOM      8  C   UNL d   1      -1.380   0.807   1.428  0.00  0.00     0.240 A 
ATOM      9  C   UNL d   1      -1.288  -0.366   0.486  0.00  0.00     0.186 A 
ATOM     10  O   UNL d   1      -2.468   1.206   1.838  0.00  0.00    -0.272 OA
ATOM     11  HN  UNL d   1       2.334   1.976   1.888  1.00  0.00     0.189 HD
BRANCH   6  12
ATOM     12  C   UNL d   1       0.029   2.436   2.631  0.00  0.00     0.047 A 
ATOM     13  C   UNL d   1      -0.844   3.526   2.566  0.00  0.00     0.072 A 
ATOM     14  C   UNL d   1      -0.599   4.661   3.335  0.00  0.00     0.118 A 
ATOM     15  F   UNL d   1      -1.411   5.721   3.217  0.00  0.00    -0.206 F 
ATOM     16  C   UNL d   1       0.486   4.731   4.200  0.00  0.00     0.042 A 
ATOM     17  C   UNL d   1       1.342   3.642   4.308  0.00  0.00     0.005 A 
ATOM     18  C   UNL d   1       1.113   2.505   3.529  0.00  0.00     0.030 A 
ENDBRANCH   6  12
ENDBRANCH   1   4
BRANCH   3  19
ATOM     19  C   UNL d   1       5.606   0.755   0.360  0.00  0.00     0.015 A 
ATOM     20  C   UNL d   1       5.764   0.301  -0.956  0.00  0.00     0.091 A 
ATOM     21  C   UNL d   1       7.040  -0.009  -1.429  0.00  0.00     0.038 A 
ATOM     22  C   UNL d   1       8.158   0.202  -0.615  0.00  0.00     0.003 A 
ATOM     23  C   UNL d   1       8.006   0.710   0.674  0.00  0.00     0.001 A 
ATOM     24  C   UNL d   1       6.730   0.979   1.166  0.00  0.00     0.015 A 
BRANCH  20  25
ATOM     25  O   UNL d   1       4.603   0.247  -1.765  0.00  0.00    -0.275 OA
BRANCH  25  26
ATOM     26  C   UNL d   1       4.594   0.332  -3.146  0.00  0.00     0.288 C 
ATOM     27  O   UNL d   1       5.551   0.247  -3.902  0.00  0.00    -0.260 OA
BRANCH  26  28
ATOM     28  C   UNL d   1       3.228   0.568  -3.662  0.00  0.00     0.084 C 
BRANCH  28  29
ATOM     29  C   UNL d   1       2.239   1.131  -2.950  0.00  0.00     0.025 C 
ATOM     30  C   UNL d   1       0.959   1.453  -3.501  0.00  0.00     0.005 A 
ATOM     31  S   UNL d   1       0.320   0.699  -4.917  0.00  0.00    -0.102 SA
ATOM     32  C   UNL d   1       0.044   2.371  -3.005  0.00  0.00     0.019 A 
ATOM     33  C   UNL d   1      -1.105   1.634  -4.880  0.00  0.00     0.050 A 
ATOM     34  C   UNL d   1      -1.133   2.486  -3.801  0.00  0.00     0.008 A 
ENDBRANCH  28  29
ENDBRANCH  26  28
ENDBRANCH  25  26
ENDBRANCH  20  25
ENDBRANCH   3  19
TORSDOF 7
