REMARK  3 active torsions:
REMARK  status: ('A' for Active; 'I' for Inactive)
REMARK    1  A    between atoms: C_4  and  C_1 
REMARK    2  A    between atoms: N_2  and  C_3 
REMARK       I    between atoms: N_10  and  C_4 
REMARK    3  A    between atoms: N_11  and  N_10 
ROOT
ATOM      1  C   UNL d   1       1.448  -0.272   0.119  0.00  0.00     0.060 A 
ATOM      2  C   UNL d   1       0.543  -1.345  -0.005  0.00  0.00     0.054 A 
ATOM      3  C   UNL d   1       0.952   1.051   0.093  0.00  0.00     0.019 A 
ATOM      4  C   UNL d   1      -0.835  -1.064  -0.117  0.00  0.00     0.031 A 
ATOM      5  C   UNL d   1      -0.415   1.308  -0.006  0.00  0.00     0.001 A 
ATOM      6  C   UNL d   1      -1.309   0.250  -0.105  0.00  0.00     0.002 A 
ENDROOT
BRANCH   1   7
ATOM      7  C   UNL d   1       2.929  -0.414   0.127  0.00  0.00     0.268 C 
ATOM      8  O   UNL d   1       3.509  -1.186  -0.630  0.00  0.00    -0.266 OA
ATOM      9  N   UNL d   1       3.603   0.402   1.037  0.00  0.00    -0.290 N 
ATOM     10  H   UNL d   1       3.101   1.091   1.593  0.00  0.00     0.183 HD
BRANCH   9  11
ATOM     11  N   UNL d   1       5.012   0.434   1.028  0.00  0.00    -0.247 NA
ATOM     12  H   UNL d   1       5.321  -0.333   0.412  0.00  0.00     0.143 HD
ATOM     13  H   UNL d   1       5.351   0.176   1.956  0.00  0.00     0.143 HD
ENDBRANCH   9  11
ENDBRANCH   1   7
BRANCH   2  14
ATOM     14  N   UNL d   1       0.931  -2.719  -0.011  0.00  0.00    -0.332 N 
ATOM     15  C   UNL d   1       1.969  -3.307   0.684  0.00  0.00     0.096 A 
ATOM     16  C   UNL d   1       2.000  -4.658   0.399  0.00  0.00     0.019 A 
ATOM     17  C   UNL d   1       0.923  -4.927  -0.468  0.00  0.00     0.019 A 
ATOM     18  C   UNL d   1       0.267  -3.734  -0.677  0.00  0.00     0.096 A 
ENDBRANCH   2  14
TORSDOF 3
