REMARK  3 active torsions:
REMARK  status: ('A' for Active; 'I' for Inactive)
REMARK    1  A    between atoms: C_7  and  C_1 
REMARK    2  A    between atoms: C_12  and  C_6 
REMARK    3  A    between atoms: N_9  and  C_12 
ROOT
ATOM      1  C   UNL d   1      -0.299   1.045   0.484  0.00  0.00     0.141 A 
ATOM      2  N   UNL d   1       0.368  -0.018   1.046  0.00  0.00    -0.321 N 
ATOM      3  HN  UNL d   1       0.645  -0.155   2.018  1.00  0.00     0.169 HD
ATOM      4  N   UNL d   1      -0.517   0.915  -0.835  0.00  0.00    -0.242 N 
ATOM      5  HN  UNL d   1      -0.997   1.562  -1.460  1.00  0.00     0.196 HD
ATOM      6  C   UNL d   1       0.561  -0.815   0.017  0.00  0.00     0.177 A 
ATOM      7  O   UNL d   1       0.068  -0.312  -1.150  0.00  0.00    -0.221 OA
ENDROOT
BRANCH   1   8
ATOM      8  C   UNL d   1      -0.756   2.172   1.287  0.00  0.00     0.053 A 
ATOM      9  C   UNL d   1      -0.524   3.502   0.889  0.00  0.00     0.049 A 
ATOM     10 CL   UNL d   1       0.349   3.929  -0.547  0.00  0.00    -0.083 Cl
ATOM     11  C   UNL d   1      -0.964   4.576   1.678  0.00  0.00     0.025 A 
ATOM     12  C   UNL d   1      -1.627   4.345   2.879  0.00  0.00     0.003 A 
ATOM     13  C   UNL d   1      -1.858   3.038   3.292  0.00  0.00     0.025 A 
ATOM     14  C   UNL d   1      -1.436   1.959   2.503  0.00  0.00     0.049 A 
ATOM     15 CL   UNL d   1      -1.844   0.383   3.104  0.00  0.00    -0.083 Cl
ENDBRANCH   1   8
BRANCH   6  16
ATOM     16  C   UNL d   1       1.158  -2.183  -0.019  0.00  0.00     0.358 C 
BRANCH  16  17
ATOM     17  N   UNL d   1       2.641  -2.219   0.021  0.00  0.00     0.096 N 
ATOM     18  C   UNL d   1       3.158  -1.592   1.252  0.00  0.00     0.273 C 
ATOM     19  C   UNL d   1       4.684  -1.654   1.324  0.00  0.00     0.030 C 
ATOM     20  C   UNL d   1       5.184  -3.085   1.206  0.00  0.00     0.003 C 
ATOM     21  C   UNL d   1       4.615  -3.733  -0.050  0.00  0.00     0.030 C 
ATOM     22  C   UNL d   1       3.091  -3.616  -0.087  0.00  0.00     0.273 C 
ENDBRANCH  16  17
ENDBRANCH   6  16
TORSDOF 3
