REMARK  7 active torsions:
REMARK  status: ('A' for Active; 'I' for Inactive)
REMARK    1  A    between atoms: C_8  and  C_1 
REMARK    2  A    between atoms: C_14  and  C_7 
REMARK    3  A    between atoms: O_17  and  C_9 
REMARK    4  A    between atoms: O_19  and  C_10 
REMARK    5  A    between atoms: O_18  and  C_11 
REMARK    6  A    between atoms: O_20  and  C_16 
REMARK    7  A    between atoms: C_23  and  O_20 
ROOT
ATOM      1  C   UNL d   1       1.234   1.188   0.373  0.00  0.00     0.162 A 
ATOM      2  N   UNL d   1       1.594  -0.057   0.431  0.00  0.00    -0.331 N 
ATOM      3  HN  UNL d   1       2.535  -0.450   0.429  1.00  0.00     0.168 HD
ATOM      4  C   UNL d   1       0.389  -0.712   0.497  0.00  0.00     0.111 A 
ATOM      5  O   UNL d   1      -0.082   1.472   0.486  0.00  0.00    -0.255 OA
ATOM      6  C   UNL d   1      -0.726   0.274   0.612  0.00  0.00     0.316 A 
ATOM      7  C   UNL d   1       0.289  -2.034   0.312  0.00  0.00     0.050 C 
ATOM      8  O   UNL d   1      -1.914   0.106   0.783  0.00  0.00    -0.257 OA
ENDROOT
BRANCH   1   9
ATOM      9  C   UNL d   1       2.137   2.324   0.140  0.00  0.00     0.021 A 
ATOM     10  C   UNL d   1       3.504   2.057   0.036  0.00  0.00     0.055 A 
ATOM     11  C   UNL d   1       4.420   3.067  -0.284  0.00  0.00     0.105 A 
ATOM     12  C   UNL d   1       3.956   4.387  -0.490  0.00  0.00     0.135 A 
ATOM     13  C   UNL d   1       2.565   4.643  -0.397  0.00  0.00     0.105 A 
ATOM     14  C   UNL d   1       1.669   3.617  -0.068  0.00  0.00     0.055 A 
BRANCH  11  15
ATOM     15  O   UNL d   1       5.761   2.808  -0.418  0.00  0.00    -0.353 OA
ATOM     16  C   UNL d   1       6.222   1.475  -0.226  0.00  0.00     0.210 C 
ENDBRANCH  11  15
BRANCH  12  17
ATOM     17  O   UNL d   1       4.734   5.484  -0.753  0.00  0.00    -0.351 OA
ATOM     18  C   UNL d   1       6.143   5.366  -0.857  0.00  0.00     0.210 C 
ENDBRANCH  12  17
BRANCH  13  19
ATOM     19  O   UNL d   1       1.933   5.854  -0.556  0.00  0.00    -0.353 OA
ATOM     20  C   UNL d   1       2.502   6.773  -1.482  0.00  0.00     0.210 C 
ENDBRANCH  13  19
ENDBRANCH   1   9
BRANCH   7  21
ATOM     21  C   UNL d   1      -0.953  -2.767   0.072  0.00  0.00    -0.000 A 
ATOM     22  C   UNL d   1      -1.740  -3.412   1.038  0.00  0.00     0.079 A 
ATOM     23  C   UNL d   1      -2.932  -4.034   0.635  0.00  0.00     0.037 A 
ATOM     24  C   UNL d   1      -3.331  -4.047  -0.703  0.00  0.00     0.003 A 
ATOM     25  C   UNL d   1      -2.544  -3.426  -1.663  0.00  0.00     0.001 A 
ATOM     26  C   UNL d   1      -1.366  -2.789  -1.277  0.00  0.00     0.014 A 
BRANCH  22  27
ATOM     27  O   UNL d   1      -1.528  -3.504   2.387  0.00  0.00    -0.351 OA
BRANCH  27  28
ATOM     28  C   UNL d   1      -0.189  -3.475   2.866  0.00  0.00     0.171 C 
ATOM     29  C   UNL d   1      -0.155  -4.181   4.211  0.00  0.00     0.034 C 
ENDBRANCH  27  28
ENDBRANCH  22  27
ENDBRANCH   7  21
TORSDOF 7
