REMARK  4 active torsions:
REMARK  status: ('A' for Active; 'I' for Inactive)
REMARK    1  A    between atoms: N_2  and  C_1 
REMARK       I    between atoms: C_3  and  N_6 
REMARK       I    between atoms: N_8  and  C_3 
REMARK    2  A    between atoms: N_9  and  C_4 
REMARK    3  A    between atoms: C_5  and  C_10 
REMARK    4  A    between atoms: C_11  and  N_8 
ROOT
ATOM      1  C   UNL d   1       2.796  -6.226   0.684  0.00  0.00     0.323 C 
ATOM      2  N   UNL d   1       1.596  -5.515   0.694  0.00  0.00    -0.332 N 
ATOM      3  N   UNL d   1       3.297  -6.567   1.923  0.00  0.00    -0.306 N 
ATOM      4  N   UNL d   1       1.089  -2.627   0.090  0.00  0.00    -0.377 N 
ATOM      5  O   UNL d   1       3.312  -6.545  -0.382  0.00  0.00    -0.247 OA
ATOM      6  C   UNL d   1       1.071  -5.054  -0.604  0.00  0.00     0.147 C 
ATOM      7  C   UNL d   1       1.444  -3.601  -0.978  0.00  0.00     0.143 C 
ATOM      8  C   UNL d   1       1.314  -3.650   2.348  0.00  0.00     0.040 C 
ATOM      9  C   UNL d   1       0.860  -5.018   1.854  0.00  0.00     0.129 C 
ATOM     10  C   UNL d   1       1.960  -2.762   1.289  0.00  0.00     0.124 C 
ATOM     11  H   UNL d   1       2.653  -6.503   2.690  0.00  0.00     0.171 HD
ENDROOT
BRANCH   4  12
ATOM     12  C   UNL d   1       0.808  -1.275  -0.187  0.00  0.00     0.063 A 
ATOM     13  C   UNL d   1       1.180  -0.491  -1.294  0.00  0.00     0.130 A 
ATOM     14  C   UNL d   1       1.000   0.911  -1.331  0.00  0.00     0.054 A 
ATOM     15  C   UNL d   1       0.417   1.580  -0.251  0.00  0.00     0.050 A 
ATOM     16  C   UNL d   1      -0.081   0.814   0.804  0.00  0.00     0.018 A 
ATOM     17  C   UNL d   1       0.099  -0.575   0.819  0.00  0.00     0.032 A 
BRANCH  13  18
ATOM     18  N   UNL d   1       1.838  -1.034  -2.459  0.00  0.00    -0.113 N 
ATOM     19  O   UNL d   1       3.043  -1.309  -2.351  0.00  0.00    -0.532 OA
ATOM     20  O   UNL d   1       1.168  -1.118  -3.495  0.00  0.00    -0.532 OA
ENDBRANCH  13  18
BRANCH  15  21
ATOM     21  C   UNL d   1       0.366   3.087  -0.186  0.00  0.00     0.417 C 
ATOM     22  F   UNL d   1       0.937   3.694  -1.262  0.00  0.00    -0.166 F 
ATOM     23  F   UNL d   1      -0.902   3.568  -0.104  0.00  0.00    -0.166 F 
ATOM     24  F   UNL d   1       1.024   3.570   0.905  0.00  0.00    -0.166 F 
ENDBRANCH  15  21
ENDBRANCH   4  12
BRANCH   3  25
ATOM     25  C   UNL d   1       4.431  -7.394   2.155  0.00  0.00     0.075 A 
ATOM     26  C   UNL d   1       5.496  -7.586   1.259  0.00  0.00     0.146 A 
ATOM     27  C   UNL d   1       6.491  -8.530   1.508  0.00  0.00     0.086 A 
ATOM     28  F   UNL d   1       5.648  -6.824   0.169  0.00  0.00    -0.204 F 
ATOM     29  C   UNL d   1       6.454  -9.261   2.684  0.00  0.00     0.119 A 
ATOM     30  C   UNL d   1       5.464  -9.034   3.631  0.00  0.00     0.044 A 
ATOM     31  F   UNL d   1       7.392 -10.187   2.919  0.00  0.00    -0.206 F 
ATOM     32  C   UNL d   1       4.460  -8.094   3.373  0.00  0.00     0.036 A 
ENDBRANCH   3  25
TORSDOF 4
