REMARK  7 active torsions:
REMARK  status: ('A' for Active; 'I' for Inactive)
REMARK    1  A    between atoms: C_9  and  C_1 
REMARK    2  A    between atoms: C_3  and  C_2 
REMARK    3  A    between atoms: C_6  and  C_8 
REMARK    4  A    between atoms: N_14  and  C_7 
REMARK       I    between atoms: C_8  and  N_13 
REMARK    5  A    between atoms: O_21  and  C_9 
REMARK    6  A    between atoms: N_13  and  N_14 
REMARK    7  A    between atoms: C_25  and  O_21 
ROOT
ATOM      1  C   UNL d   1      -0.042  -1.436   0.007  0.00  0.00     0.086 A 
ATOM      2  C   UNL d   1       1.160  -0.758   0.033  0.00  0.00     0.136 A 
ATOM      3  N   UNL d   1       1.194   0.608   0.170  0.00  0.00    -0.327 N 
ATOM      4  HN  UNL d   1       2.086   1.099   0.215  1.00  0.00     0.168 HD
ATOM      5  C   UNL d   1       0.042   1.290   0.243  0.00  0.00     0.176 A 
ATOM      6  N   UNL d   1      -1.160   0.700   0.170  0.00  0.00    -0.340 N 
ATOM      7  HN  UNL d   1      -2.024   1.242   0.200  1.00  0.00     0.167 HD
ATOM      8  C   UNL d   1      -1.174  -0.646   0.053  0.00  0.00     0.110 A 
ENDROOT
BRANCH   5   9
ATOM      9  N   UNL d   1       0.134   2.673   0.440  0.00  0.00    -0.172 NA
ATOM     10  H   UNL d   1       1.065   2.984   0.152  0.00  0.00     0.156 HD
BRANCH   9  11
ATOM     11  N   UNL d   1      -0.901   3.410  -0.156  0.00  0.00    -0.280 N 
ATOM     12  C   UNL d   1      -0.583   4.648  -0.677  0.00  0.00     0.269 C 
ATOM     13  O   UNL d   1       0.577   5.061  -0.722  0.00  0.00    -0.266 OA
ATOM     14  H   UNL d   1      -1.844   3.027  -0.080  0.00  0.00     0.184 HD
BRANCH  12  15
ATOM     15  C   UNL d   1      -1.695   5.491  -1.193  0.00  0.00     0.071 A 
ATOM     16  C   UNL d   1      -3.013   5.040  -1.282  0.00  0.00     0.132 A 
ATOM     17  F   UNL d   1      -3.351   3.804  -0.884  0.00  0.00    -0.205 F 
ATOM     18  C   UNL d   1      -4.020   5.862  -1.790  0.00  0.00     0.043 A 
ATOM     19  C   UNL d   1      -3.716   7.155  -2.213  0.00  0.00     0.003 A 
ATOM     20  C   UNL d   1      -2.406   7.624  -2.125  0.00  0.00     0.001 A 
ATOM     21  C   UNL d   1      -1.400   6.797  -1.618  0.00  0.00     0.020 A 
ENDBRANCH  12  15
ENDBRANCH   9  11
ENDBRANCH   5   9
BRANCH   2  22
ATOM     22  C   UNL d   1       2.509  -1.432  -0.121  0.00  0.00     0.433 C 
ATOM     23  F   UNL d   1       2.483  -2.719  -0.565  0.00  0.00    -0.165 F 
ATOM     24  F   UNL d   1       3.301  -0.784  -1.028  0.00  0.00    -0.165 F 
ATOM     25  F   UNL d   1       3.222  -1.448   1.040  0.00  0.00    -0.165 F 
ENDBRANCH   2  22
BRANCH   1  26
ATOM     26  C   UNL d   1      -0.252  -2.882  -0.094  0.00  0.00     0.296 C 
ATOM     27  O   UNL d   1      -1.154  -3.362  -0.757  0.00  0.00    -0.259 OA
BRANCH  26  28
ATOM     28  O   UNL d   1       0.599  -3.550   0.720  0.00  0.00    -0.318 OA
BRANCH  28  29
ATOM     29  C   UNL d   1       0.448  -4.982   0.728  0.00  0.00     0.174 C 
ATOM     30  C   UNL d   1       0.999  -5.615  -0.541  0.00  0.00     0.034 C 
ENDBRANCH  28  29
ENDBRANCH  26  28
ENDBRANCH   1  26
TORSDOF 7
