REMARK  2 active torsions:
REMARK  status: ('A' for Active; 'I' for Inactive)
REMARK    1  A    between atoms: N_3  and  C_1 
REMARK    2  A    between atoms: N_8  and  N_3 
ROOT
ATOM      1  C   UNL d   1       0.505  -3.086  -0.023  0.00  0.00     0.136 A 
ATOM      2  C   UNL d   1       1.451  -2.251  -0.635  0.00  0.00     0.076 A 
ATOM      3  N   UNL d   1       0.959  -4.244   0.514  0.00  0.00    -0.337 N 
ATOM      4  HN  UNL d   1       0.313  -4.893   0.964  1.00  0.00     0.168 HD
ATOM      5  S   UNL d   1       1.232  -0.732  -1.426  0.00  0.00    -0.096 SA
ATOM      6  C   UNL d   1       2.785  -2.637  -0.670  0.00  0.00     0.054 A 
ATOM      7  C   UNL d   1       2.893  -0.606  -1.810  0.00  0.00     0.053 A 
ATOM      8  C   UNL d   1       3.610  -1.683  -1.341  0.00  0.00     0.038 A 
ATOM      9  N   UNL d   1       3.231  -3.790  -0.117  0.00  0.00    -0.351 N 
ATOM     10  HN  UNL d   1       4.211  -4.071  -0.128  1.00  0.00     0.166 HD
ATOM     11  C   UNL d   1       2.266  -4.525   0.444  0.00  0.00     0.182 A 
ENDROOT
BRANCH   1  12
ATOM     12  N   UNL d   1      -0.854  -2.719   0.069  0.00  0.00    -0.303 N 
ATOM     13  H   UNL d   1      -1.065  -1.841  -0.400  0.00  0.00     0.182 HD
BRANCH  12  14
ATOM     14  N   UNL d   1      -1.843  -3.730   0.086  0.00  0.00    -0.230 NA
ATOM     15  C   UNL d   1      -2.674  -3.545   1.284  0.00  0.00     0.113 C 
ATOM     16  C   UNL d   1      -3.807  -4.571   1.345  0.00  0.00     0.016 C 
ATOM     17  C   UNL d   1      -4.660  -4.528   0.082  0.00  0.00     0.002 C 
ATOM     18  C   UNL d   1      -3.778  -4.678  -1.153  0.00  0.00     0.016 C 
ATOM     19  C   UNL d   1      -2.641  -3.655  -1.150  0.00  0.00     0.113 C 
ENDBRANCH  12  14
ENDBRANCH   1  12
TORSDOF 2
