REMARK  5 active torsions:
REMARK  status: ('A' for Active; 'I' for Inactive)
REMARK    1  A    between atoms: O_8  and  S_1 
REMARK    2  A    between atoms: C_9  and  S_1 
REMARK    3  A    between atoms: C_13  and  C_2 
REMARK    4  A    between atoms: C_16  and  O_8 
REMARK    5  A    between atoms: C_20  and  C_13 
ROOT
ATOM      1  C   UNL d   1       3.395  -5.307  -4.109  0.00  0.00     0.029 C 
ATOM      2  C   UNL d   1       4.268  -4.188  -3.650  0.00  0.00     0.295 C 
ATOM      3  C   UNL d   1       2.111  -5.405  -3.695  0.00  0.00    -0.036 C 
ATOM      4  O   UNL d   1       3.774  -3.346  -2.669  0.00  0.00    -0.274 OA
ATOM      5  C   UNL d   1       2.442  -3.427  -2.244  0.00  0.00     0.093 A 
ATOM      6  C   UNL d   1       1.585  -4.403  -2.745  0.00  0.00     0.005 A 
ATOM      7  C   UNL d   1       2.028  -2.459  -1.321  0.00  0.00     0.076 A 
ATOM      8  C   UNL d   1       0.267  -4.392  -2.275  0.00  0.00     0.017 A 
ATOM      9  C   UNL d   1       0.701  -2.434  -0.906  0.00  0.00     0.092 A 
ATOM     10  O   UNL d   1       5.400  -4.022  -4.094  0.00  0.00    -0.259 OA
ATOM     11  C   UNL d   1      -0.170  -3.425  -1.358  0.00  0.00     0.039 A 
ATOM     12  C   UNL d   1       1.169  -6.502  -4.120  0.00  0.00     0.050 C 
ENDROOT
BRANCH   9  13
ATOM     13  O   UNL d   1       0.340  -1.399  -0.078  0.00  0.00    -0.229 OA
BRANCH  13  14
ATOM     14  S   UNL d   1      -1.218  -0.912   0.019  0.00  0.00     0.303 S 
ATOM     15  O   UNL d   1      -1.881  -1.700   1.040  0.00  0.00    -0.193 OA
ATOM     16  O   UNL d   1      -1.765  -0.807  -1.320  0.00  0.00    -0.193 OA
BRANCH  14  17
ATOM     17  C   UNL d   1      -1.168   0.757   0.633  0.00  0.00     0.086 A 
ATOM     18  C   UNL d   1       0.019   1.339   1.082  0.00  0.00     0.027 A 
ATOM     19  C   UNL d   1       0.009   2.681   1.480  0.00  0.00     0.025 A 
ATOM     20  C   UNL d   1      -1.175   3.420   1.424  0.00  0.00     0.034 A 
ATOM     21  C   UNL d   1      -2.361   2.831   0.985  0.00  0.00     0.025 A 
ATOM     22 CL   UNL d   1      -1.172   5.078   1.885  0.00  0.00    -0.084 Cl
ATOM     23  C   UNL d   1      -2.358   1.496   0.588  0.00  0.00     0.027 A 
ENDBRANCH  14  17
ENDBRANCH  13  14
ENDBRANCH   9  13
BRANCH   1  24
ATOM     24  C   UNL d   1       4.123  -6.351  -4.932  0.00  0.00     0.084 C 
BRANCH  24  25
ATOM     25  C   UNL d   1       4.053  -6.210  -6.441  0.00  0.00    -0.052 A 
ATOM     26  C   UNL d   1       3.457  -7.218  -7.219  0.00  0.00     0.033 A 
ATOM     27  C   UNL d   1       3.503  -7.171  -8.619  0.00  0.00     0.056 A 
ATOM     28 CL   UNL d   1       2.777  -8.477  -9.489  0.00  0.00    -0.083 Cl
ATOM     29  C   UNL d   1       4.145  -6.110  -9.261  0.00  0.00     0.055 A 
ATOM     30  C   UNL d   1       4.723  -5.093  -8.499  0.00  0.00     0.026 A 
ATOM     31 CL   UNL d   1       4.283  -6.008 -10.980  0.00  0.00    -0.083 Cl
ATOM     32  C   UNL d   1       4.679  -5.144  -7.102  0.00  0.00     0.009 A 
ENDBRANCH  24  25
ENDBRANCH   1  24
TORSDOF 5
