REMARK  7 active torsions:
REMARK  status: ('A' for Active; 'I' for Inactive)
REMARK    1  A    between atoms: N_2  and  C_1 
REMARK       I    between atoms: C_3  and  N_2 
REMARK    2  A    between atoms: C_9  and  C_3 
REMARK    3  A    between atoms: C_5  and  C_11 
REMARK    4  A    between atoms: O_14  and  C_5 
REMARK    5  A    between atoms: C_6  and  C_9 
REMARK    6  A    between atoms: C_11  and  C_6 
REMARK    7  A    between atoms: O_17  and  C_7 
ROOT
ATOM      1  N   UNL d   1       1.566   2.922   0.981  0.00  0.00    -0.325 N 
ATOM      2  C   UNL d   1       1.561   3.716  -0.156  0.00  0.00     0.223 C 
ATOM      3  O   UNL d   1       0.961   3.472  -1.201  0.00  0.00    -0.273 OA
ATOM      4  H   UNL d   1       2.037   3.317   1.779  0.00  0.00     0.169 HD
ENDROOT
BRANCH   1   5
ATOM      5  C   UNL d   1       0.925   1.661   1.143  0.00  0.00     0.070 A 
ATOM      6  C   UNL d   1       0.467   0.964   0.002  0.00  0.00     0.056 A 
ATOM      7  C   UNL d   1      -0.180  -0.269   0.090  0.00  0.00     0.036 A 
ATOM      8 CL   UNL d   1      -0.711  -1.067  -1.339  0.00  0.00    -0.084 Cl
ATOM      9  C   UNL d   1      -0.390  -0.856   1.323  0.00  0.00     0.026 A 
ATOM     10  C   UNL d   1       0.072  -0.204   2.461  0.00  0.00     0.041 A 
ATOM     11  C   UNL d   1       0.735   1.043   2.399  0.00  0.00     0.095 A 
BRANCH  11  12
ATOM     12  O   UNL d   1       1.072   1.433   3.664  0.00  0.00    -0.354 OA
ATOM     13  C   UNL d   1       1.664   2.682   3.947  0.00  0.00     0.210 C 
ENDBRANCH  11  12
ENDBRANCH   1   5
BRANCH   2  14
ATOM     14  C   UNL d   1       2.356   5.008  -0.033  0.00  0.00     0.112 C 
BRANCH  14  15
ATOM     15  C   UNL d   1       1.494   6.302  -0.088  0.00  0.00    -0.030 C 
ATOM     16  C   UNL d   1       2.438   7.521  -0.008  0.00  0.00     0.016 C 
ATOM     17  C   UNL d   1       0.754   6.409  -1.443  0.00  0.00     0.016 C 
BRANCH  15  18
ATOM     18  C   UNL d   1       0.426   6.379   1.034  0.00  0.00     0.119 C 
BRANCH  18  19
ATOM     19  C   UNL d   1       0.962   6.392   2.451  0.00  0.00     0.140 C 
ATOM     20  O   UNL d   1       1.956   5.790   2.827  0.00  0.00    -0.650 OA
BRANCH  19  21
ATOM     21  O   UNL d   1       0.180   7.082   3.309  0.00  0.00    -0.776 OA
ATOM     22  H   UNL d   1      -0.615   7.482   2.906  0.00  0.00     0.167 HD
ENDBRANCH  19  21
ENDBRANCH  18  19
ENDBRANCH  15  18
ENDBRANCH  14  15
ENDBRANCH   2  14
TORSDOF 7
