REMARK  2 active torsions:
REMARK  status: ('A' for Active; 'I' for Inactive)
REMARK    1  A    between atoms: C_2  and  S_1 
REMARK    2  A    between atoms: C_8  and  S_1 
ROOT
ATOM      1  N   UNL d   1       3.763   1.879   1.393  0.00  0.00    -0.196 NA
ATOM      2  C   UNL d   1       2.834   1.748   0.707  0.00  0.00     0.072 C 
ATOM      3  C   UNL d   1       1.685   1.572  -0.183  0.00  0.00     0.239 C 
ENDROOT
BRANCH   3   4
ATOM      4  S   UNL d   1       1.150  -0.153  -0.130  0.00  0.00     0.079 S 
ATOM      5  O   UNL d   1      -0.050  -0.306  -1.019  0.00  0.00    -0.250 OA
BRANCH   4   6
ATOM      6  C   UNL d   1       0.527  -0.256   1.548  0.00  0.00     0.101 A 
ATOM      7  N   UNL d   1       0.293   0.933   2.146  0.00  0.00    -0.359 N 
ATOM      8  C   UNL d   1      -0.142   0.887   3.424  0.00  0.00     0.089 A 
ATOM      9  HN  UNL d   1       0.436   1.818   1.659  1.00  0.00     0.166 HD
ATOM     10  C   UNL d   1      -0.350  -0.290   4.126  0.00  0.00     0.017 A 
ATOM     11  C   UNL d   1      -0.104  -1.497   3.479  0.00  0.00     0.004 A 
ATOM     12  C   UNL d   1       0.340  -1.486   2.162  0.00  0.00     0.039 A 
ENDBRANCH   4   6
ENDBRANCH   3   4
TORSDOF 2
