REMARK  6 active torsions:
REMARK  status: ('A' for Active; 'I' for Inactive)
REMARK    1  A    between atoms: N_5  and  C_1 
REMARK    2  A    between atoms: N_13  and  C_9 
REMARK    3  A    between atoms: C_10  and  C_20 
REMARK    4  A    between atoms: C_11  and  C_21 
REMARK    5  A    between atoms: O_30  and  C_18 
REMARK    6  A    between atoms: O_31  and  C_19 
ROOT
ATOM      1  C   UNL d   1       1.055  -1.438   0.179  0.00  0.00     0.048 A 
ATOM      2  C   UNL d   1      -0.221   0.641   0.062  0.00  0.00    -0.039 A 
ATOM      3  C   UNL d   1      -0.177  -0.762   0.114  0.00  0.00    -0.016 A 
ATOM      4  C   UNL d   1      -1.591  -1.320   0.163  0.00  0.00    -0.017 C 
ATOM      5  C   UNL d   1       2.252  -0.657   0.119  0.00  0.00    -0.008 A 
ATOM      6  C   UNL d   1      -1.619   1.200   0.127  0.00  0.00    -0.019 C 
ATOM      7  C   UNL d   1       2.188   0.759  -0.015  0.00  0.00     0.040 A 
ATOM      8  C   UNL d   1       0.941   1.389   0.021  0.00  0.00     0.038 A 
ATOM      9  C   UNL d   1      -2.441  -0.063  -0.211  0.00  0.00     0.027 C 
ATOM     10  C   UNL d   1      -1.956  -1.845   1.557  0.00  0.00     0.020 C 
ATOM     11  C   UNL d   1      -1.858  -2.415  -0.881  0.00  0.00     0.020 C 
ATOM     12  C   UNL d   1       3.623  -1.284   0.198  0.00  0.00     0.053 C 
ATOM     13  C   UNL d   1      -1.929   1.753   1.524  0.00  0.00     0.020 C 
ATOM     14  C   UNL d   1      -1.860   2.308  -0.911  0.00  0.00     0.020 C 
ENDROOT
BRANCH   1  15
ATOM     15  N   UNL d   1       1.054  -2.822   0.483  0.00  0.00    -0.364 N 
ATOM     16  C   UNL d   1       1.724  -3.644  -0.260  0.00  0.00     0.102 C 
ATOM     17  HN  UNL d   1       0.527  -3.169   1.285  1.00  0.00     0.165 HD
BRANCH  16  18
ATOM     18  C   UNL d   1       1.883  -5.073   0.107  0.00  0.00     0.016 A 
ATOM     19  C   UNL d   1       2.886  -5.840  -0.491  0.00  0.00     0.099 A 
ATOM     20  C   UNL d   1       3.070  -7.176  -0.109  0.00  0.00     0.069 A 
ATOM     21 CL   UNL d   1       4.318  -8.126  -0.830  0.00  0.00    -0.081 Cl
ATOM     22  C   UNL d   1       2.259  -7.752   0.869  0.00  0.00     0.050 A 
ATOM     23  C   UNL d   1       1.267  -6.978   1.467  0.00  0.00     0.036 A 
ATOM     24  C   UNL d   1       1.075  -5.646   1.096  0.00  0.00     0.039 A 
ATOM     25 CL   UNL d   1       0.274  -7.682   2.685  0.00  0.00    -0.084 Cl
BRANCH  19  26
ATOM     26  O   UNL d   1       3.711  -5.271  -1.429  0.00  0.00    -0.358 OA
ATOM     27  H   UNL d   1       4.381  -5.936  -1.680  0.00  0.00     0.217 HD
ENDBRANCH  19  26
ENDBRANCH  16  18
ENDBRANCH   1  15
BRANCH   7  28
ATOM     28  N   UNL d   1       3.370   1.542  -0.056  0.00  0.00    -0.364 N 
ATOM     29  C   UNL d   1       3.376   2.601  -0.810  0.00  0.00     0.102 C 
ATOM     30  HN  UNL d   1       4.191   1.281   0.490  1.00  0.00     0.165 HD
BRANCH  29  31
ATOM     31  C   UNL d   1       4.501   3.557  -0.829  0.00  0.00     0.016 A 
ATOM     32  C   UNL d   1       4.397   4.749  -1.553  0.00  0.00     0.099 A 
ATOM     33  C   UNL d   1       5.458   5.661  -1.550  0.00  0.00     0.069 A 
ATOM     34 CL   UNL d   1       5.344   7.136  -2.439  0.00  0.00    -0.081 Cl
ATOM     35  C   UNL d   1       6.617   5.396  -0.821  0.00  0.00     0.050 A 
ATOM     36  C   UNL d   1       6.705   4.212  -0.092  0.00  0.00     0.036 A 
ATOM     37  C   UNL d   1       5.660   3.290  -0.089  0.00  0.00     0.039 A 
ATOM     38 CL   UNL d   1       8.127   3.890   0.825  0.00  0.00    -0.084 Cl
BRANCH  32  39
ATOM     39  O   UNL d   1       3.248   5.027  -2.248  0.00  0.00    -0.358 OA
ATOM     40  H   UNL d   1       3.349   5.911  -2.654  0.00  0.00     0.217 HD
ENDBRANCH  32  39
ENDBRANCH  29  31
ENDBRANCH   7  28
TORSDOF 6
