REMARK  4 active torsions:
REMARK  status: ('A' for Active; 'I' for Inactive)
REMARK    1  A    between atoms: N_2  and  C_1 
REMARK    2  A    between atoms: C_6  and  C_4 
REMARK    3  A    between atoms: C_5  and  N_7 
REMARK       I    between atoms: N_10  and  C_6 
REMARK    4  A    between atoms: N_7  and  N_10 
ROOT
ATOM      1  C   UNL d   1      -0.967  -2.285  -0.200  0.00  0.00     0.289 C 
ATOM      2  N   UNL d   1      -2.306  -2.615  -0.092  0.00  0.00    -0.281 N 
ATOM      3  O   UNL d   1      -0.569  -1.125  -0.102  0.00  0.00    -0.264 OA
ATOM      4  H   UNL d   1      -2.614  -3.584  -0.043  0.00  0.00     0.184 HD
ENDROOT
BRANCH   2   5
ATOM      5  N   UNL d   1      -3.232  -1.619   0.254  0.00  0.00    -0.200 NA
ATOM      6  H   UNL d   1      -2.786  -0.688   0.250  0.00  0.00     0.153 HD
BRANCH   5   7
ATOM      7  C   UNL d   1      -4.433  -1.591  -0.525  0.00  0.00     0.071 A 
ATOM      8  C   UNL d   1      -5.121  -2.735  -0.990  0.00  0.00     0.058 A 
ATOM      9 CL   UNL d   1      -4.543  -4.357  -0.774  0.00  0.00    -0.082 Cl
ATOM     10  C   UNL d   1      -6.361  -2.623  -1.643  0.00  0.00     0.026 A 
ATOM     11  C   UNL d   1      -6.963  -1.381  -1.820  0.00  0.00     0.003 A 
ATOM     12  C   UNL d   1      -6.326  -0.240  -1.349  0.00  0.00     0.026 A 
ATOM     13  C   UNL d   1      -5.085  -0.346  -0.707  0.00  0.00     0.058 A 
ATOM     14 CL   UNL d   1      -4.359   1.125  -0.143  0.00  0.00    -0.082 Cl
ENDBRANCH   5   7
ENDBRANCH   2   5
BRANCH   1  15
ATOM     15  C   UNL d   1      -0.093  -3.411  -0.469  0.00  0.00     0.146 A 
ATOM     16  O   UNL d   1      -0.567  -4.698  -0.349  0.00  0.00    -0.283 OA
ATOM     17  C   UNL d   1       0.471  -5.518  -0.677  0.00  0.00     0.215 A 
ATOM     18  C   UNL d   1       1.594  -4.804  -1.022  0.00  0.00     0.066 A 
ATOM     19  C   UNL d   1       1.233  -3.442  -0.867  0.00  0.00     0.048 A 
BRANCH  17  20
ATOM     20  N   UNL d   1       0.230  -6.925  -0.618  0.00  0.00    -0.090 N 
ATOM     21  O   UNL d   1       1.158  -7.658  -0.982  0.00  0.00    -0.530 OA
ATOM     22  O   UNL d   1      -0.875  -7.304  -0.205  0.00  0.00    -0.530 OA
ENDBRANCH  17  20
ENDBRANCH   1  15
TORSDOF 4
