REMARK  5 active torsions:
REMARK  status: ('A' for Active; 'I' for Inactive)
REMARK    1  A    between atoms: C_7  and  C_1 
REMARK    2  A    between atoms: N_14  and  C_3 
REMARK    3  A    between atoms: C_9  and  C_7 
REMARK    4  A    between atoms: C_10  and  C_7 
REMARK    5  A    between atoms: N_8  and  C_10 
ROOT
ATOM      1  C   UNL d   1      -0.176   1.662  -0.057  0.00  0.00     0.059 A 
ATOM      2  N   UNL d   1      -1.146  -0.486  -0.360  0.00  0.00    -0.294 N 
ATOM      3  C   UNL d   1      -1.182   0.894  -0.539  0.00  0.00     0.096 A 
ATOM      4  N   UNL d   1       0.865  -0.365   0.860  0.00  0.00    -0.270 N 
ATOM      5  C   UNL d   1      -0.125  -1.151   0.320  0.00  0.00     0.332 A 
ATOM      6  C   UNL d   1       0.933   0.994   0.700  0.00  0.00     0.261 A 
ATOM      7  O   UNL d   1      -0.103  -2.381   0.426  0.00  0.00    -0.246 OA
ATOM      8  O   UNL d   1       1.862   1.665   1.143  0.00  0.00    -0.267 OA
ATOM      9  C   UNL d   1      -2.167  -1.388  -0.880  0.00  0.00     0.162 C 
ATOM     10  C   UNL d   1       1.910  -1.046   1.606  0.00  0.00     0.164 C 
ENDROOT
BRANCH   1  11
ATOM     11  C   UNL d   1      -0.039   3.206  -0.100  0.00  0.00     0.089 C 
BRANCH  11  12
ATOM     12  C   UNL d   1       0.813   3.684  -1.294  0.00  0.00     0.013 A 
ATOM     13  C   UNL d   1       2.042   4.354  -1.149  0.00  0.00     0.044 A 
ATOM     14 CL   UNL d   1       2.724   4.745   0.389  0.00  0.00    -0.084 Cl
ATOM     15  C   UNL d   1       2.762   4.795  -2.272  0.00  0.00     0.024 A 
ATOM     16  C   UNL d   1       2.272   4.590  -3.561  0.00  0.00     0.005 A 
ATOM     17  C   UNL d   1       1.057   3.949  -3.728  0.00  0.00     0.043 A 
ATOM     18  C   UNL d   1       0.347   3.513  -2.611  0.00  0.00     0.125 A 
ATOM     19  F   UNL d   1      -0.845   2.954  -2.837  0.00  0.00    -0.205 F 
ENDBRANCH  11  12
BRANCH  11  20
ATOM     20  C   UNL d   1      -1.300   4.090  -0.013  0.00  0.00     0.215 C 
BRANCH  20  21
ATOM     21  N   UNL d   1      -2.115   3.786   1.208  0.00  0.00    -0.155 N 
ATOM     22  O   UNL d   1      -3.343   3.880   1.089  0.00  0.00    -0.537 OA
ATOM     23  O   UNL d   1      -1.515   3.550   2.263  0.00  0.00    -0.537 OA
ENDBRANCH  20  21
ENDBRANCH  11  20
ENDBRANCH   1  11
BRANCH   3  24
ATOM     24  N   UNL d   1      -2.228   1.492  -1.220  0.00  0.00    -0.288 NA
ATOM     25  H   UNL d   1      -2.805   0.848  -1.743  0.00  0.00     0.125 HD
ATOM     26  H   UNL d   1      -1.900   2.189  -1.888  0.00  0.00     0.125 HD
ENDBRANCH   3  24
TORSDOF 5
