REMARK  3 active torsions:
REMARK  status: ('A' for Active; 'I' for Inactive)
REMARK    1  A    between atoms: C_2  and  N_1 
REMARK    2  A    between atoms: C_6  and  C_3 
REMARK    3  A    between atoms: O_8  and  C_7 
ROOT
ATOM      1  C   UNL d   1       0.271   3.553  -0.978  0.00  0.00    -0.001 A 
ATOM      2  C   UNL d   1      -0.877   3.960  -0.276  0.00  0.00     0.078 A 
ATOM      3  C   UNL d   1       0.777   4.377  -1.997  0.00  0.00     0.014 A 
ATOM      4  C   UNL d   1      -1.503   5.167  -0.616  0.00  0.00     0.037 A 
ATOM      5  C   UNL d   1      -0.987   5.979  -1.625  0.00  0.00     0.003 A 
ATOM      6  C   UNL d   1       0.152   5.584  -2.318  0.00  0.00     0.001 A 
ENDROOT
BRANCH   1   7
ATOM      7  C   UNL d   1       0.963   2.284  -0.747  0.00  0.00     0.038 C 
ATOM      8  C   UNL d   1       0.534   1.152  -1.316  0.00  0.00     0.168 C 
BRANCH   8   9
ATOM      9  N   UNL d   1       1.226  -0.084  -1.044  0.00  0.00    -0.127 N 
ATOM     10  O   UNL d   1       0.824  -1.074  -1.661  0.00  0.00    -0.532 OA
ATOM     11  O   UNL d   1       2.156  -0.084  -0.226  0.00  0.00    -0.532 OA
ENDBRANCH   8   9
ENDBRANCH   1   7
BRANCH   2  12
ATOM     12  O   UNL d   1      -1.534   3.239   0.686  0.00  0.00    -0.355 OA
ATOM     13  C   UNL d   1      -0.720   2.679   1.712  0.00  0.00     0.210 C 
ENDBRANCH   2  12
TORSDOF 3
