REMARK  5 active torsions:
REMARK  status: ('A' for Active; 'I' for Inactive)
REMARK    1  A    between atoms: C_6  and  C_1 
REMARK    2  A    between atoms: C_5  and  C_2 
REMARK       I    between atoms: N_9  and  C_5 
REMARK    3  A    between atoms: C_23  and  N_9 
REMARK    4  A    between atoms: C_13  and  O_22 
REMARK    5  A    between atoms: O_22  and  C_16 
ROOT
ATOM      1  C   UNL d   1       1.035  -3.901  -0.151  0.00  0.00     0.261 C 
ATOM      2  N   UNL d   1      -0.011  -3.850   0.737  0.00  0.00    -0.322 N 
ATOM      3  O   UNL d   1       0.918  -4.029  -1.367  0.00  0.00    -0.267 OA
ATOM      4  H   UNL d   1       0.201  -4.045   1.712  0.00  0.00     0.169 HD
ENDROOT
BRANCH   2   5
ATOM      5  C   UNL d   1      -1.345  -3.500   0.431  0.00  0.00     0.050 A 
ATOM      6  C   UNL d   1      -2.314  -3.602   1.423  0.00  0.00     0.119 A 
ATOM      7  N   UNL d   1      -3.577  -3.124   1.325  0.00  0.00    -0.344 N 
ATOM      8  C   UNL d   1      -3.922  -2.546   0.157  0.00  0.00     0.148 A 
ATOM      9  HN  UNL d   1      -4.237  -3.197   2.099  1.00  0.00     0.167 HD
ATOM     10  C   UNL d   1      -3.050  -2.448  -0.917  0.00  0.00     0.059 A 
ATOM     11  C   UNL d   1      -1.747  -2.941  -0.782  0.00  0.00     0.035 A 
BRANCH   8  12
ATOM     12  O   UNL d   1      -5.154  -1.923  -0.024  0.00  0.00    -0.294 OA
BRANCH  12  13
ATOM     13  C   UNL d   1      -6.180  -2.010   0.888  0.00  0.00     0.079 A 
ATOM     14  C   UNL d   1      -6.384  -3.033   1.809  0.00  0.00     0.045 A 
ATOM     15  C   UNL d   1      -7.514  -3.045   2.648  0.00  0.00    -0.037 A 
ATOM     16  C   UNL d   1      -7.660  -4.174   3.631  0.00  0.00     0.050 C 
ATOM     17  C   UNL d   1      -8.487  -2.037   2.508  0.00  0.00     0.046 A 
ATOM     18  C   UNL d   1      -8.319  -1.014   1.558  0.00  0.00    -0.037 A 
ATOM     19 CL   UNL d   1      -9.911  -2.085   3.499  0.00  0.00    -0.083 Cl
ATOM     20  C   UNL d   1      -7.149  -1.005   0.775  0.00  0.00     0.045 A 
ATOM     21  C   UNL d   1      -9.307   0.106   1.368  0.00  0.00     0.050 C 
ENDBRANCH  12  13
ENDBRANCH   8  12
ENDBRANCH   2   5
BRANCH   1  22
ATOM     22  C   UNL d   1       2.346  -3.868   0.457  0.00  0.00     0.093 C 
ATOM     23  C   UNL d   1       3.042  -2.887   1.260  0.00  0.00     0.086 C 
ATOM     24  N   UNL d   1       4.328  -3.281   1.379  0.00  0.00    -0.259 N 
ATOM     25  O   UNL d   1       4.433  -4.540   0.859  0.00  0.00    -0.241 OA
ATOM     26  HN  UNL d   1       5.088  -2.735   1.785  1.00  0.00     0.195 HD
ATOM     27  C   UNL d   1       3.253  -4.903   0.323  0.00  0.00     0.090 C 
ATOM     28  C   UNL d   1       3.186  -6.279  -0.207  0.00  0.00     0.080 C 
BRANCH  23  29
ATOM     29  C   UNL d   1       2.615  -1.642   1.942  0.00  0.00     0.037 A 
ATOM     30  C   UNL d   1       3.138  -1.296   3.221  0.00  0.00     0.048 A 
ATOM     31 CL   UNL d   1       4.303  -2.239   4.104  0.00  0.00    -0.083 Cl
ATOM     32  C   UNL d   1       2.718  -0.142   3.909  0.00  0.00     0.025 A 
ATOM     33  C   UNL d   1       1.734   0.675   3.377  0.00  0.00     0.003 A 
ATOM     34  C   UNL d   1       1.220   0.375   2.123  0.00  0.00     0.025 A 
ATOM     35  C   UNL d   1       1.688  -0.735   1.392  0.00  0.00     0.048 A 
ATOM     36 CL   UNL d   1       1.132  -0.798  -0.243  0.00  0.00    -0.083 Cl
ENDBRANCH  23  29
ENDBRANCH   1  22
TORSDOF 5
