REMARK  2 active torsions:
REMARK  status: ('A' for Active; 'I' for Inactive)
REMARK    1  A    between atoms: C_13  and  C_6 
REMARK    2  A    between atoms: C_9  and  C_14 
ROOT
ATOM      1  C   UNL d   1       0.020   0.678   0.007  0.00  0.00     0.107 A 
ATOM      2  N   UNL d   1       1.231  -1.415  -0.023  0.00  0.00    -0.334 N 
ATOM      3  HN  UNL d   1       1.242  -2.434  -0.050  1.00  0.00     0.168 HD
ATOM      4  C   UNL d   1       0.026  -0.712  -0.016  0.00  0.00     0.071 A 
ATOM      5  C   UNL d   1       1.315   1.367   0.031  0.00  0.00     0.305 A 
ATOM      6  C   UNL d   1       2.329  -0.740   0.005  0.00  0.00     0.162 A 
ATOM      7  O   UNL d   1       2.433   0.602   0.036  0.00  0.00    -0.256 OA
ATOM      8  C   UNL d   1      -1.184   1.384   0.013  0.00  0.00     0.152 A 
ATOM      9  C   UNL d   1      -1.203  -1.393  -0.026  0.00  0.00     0.040 A 
ATOM     10  C   UNL d   1      -2.396   0.696  -0.000  0.00  0.00     0.052 A 
ATOM     11  C   UNL d   1      -2.413  -0.696  -0.018  0.00  0.00     0.043 A 
ATOM     12  O   UNL d   1       1.397   2.588   0.051  0.00  0.00    -0.259 OA
ATOM     13  F   UNL d   1      -1.192   2.725   0.033  0.00  0.00    -0.203 F 
ATOM     14 BR   UNL d   1      -1.272  -3.293  -0.045  0.00  0.00    -0.049 Br
ATOM     15 BR   UNL d   1      -4.037   1.637   0.009  0.00  0.00    -0.048 Br
ENDROOT
BRANCH   6  16
ATOM     16  C   UNL d   1       3.668  -1.387   0.019  0.00  0.00     0.016 A 
ATOM     17  C   UNL d   1       4.855  -0.641   0.073  0.00  0.00     0.032 A 
ATOM     18  C   UNL d   1       6.104  -1.285   0.116  0.00  0.00     0.048 A 
ATOM     19  C   UNL d   1       6.148  -2.688   0.089  0.00  0.00     0.016 A 
ATOM     20  C   UNL d   1       4.972  -3.434   0.026  0.00  0.00     0.002 A 
ATOM     21  C   UNL d   1       3.737  -2.786  -0.007  0.00  0.00     0.016 A 
BRANCH  18  22
ATOM     22  C   UNL d   1       7.387  -0.493   0.206  0.00  0.00     0.417 C 
ATOM     23  F   UNL d   1       7.194   0.854   0.223  0.00  0.00    -0.166 F 
ATOM     24  F   UNL d   1       8.094  -0.784   1.333  0.00  0.00    -0.166 F 
ATOM     25  F   UNL d   1       8.225  -0.740  -0.838  0.00  0.00    -0.166 F 
ENDBRANCH  18  22
ENDBRANCH   6  16
TORSDOF 2
