REMARK  3 active torsions:
REMARK  status: ('A' for Active; 'I' for Inactive)
REMARK    1  A    between atoms: N_2  and  C_1 
REMARK    2  A    between atoms: C_8  and  N_2 
REMARK    3  A    between atoms: C_9  and  C_4 
ROOT
ATOM      1  C   UNL d   1       2.417  -3.007   3.753  0.00  0.00    -0.054 A 
ATOM      2  C   UNL d   1       2.665  -3.123   2.375  0.00  0.00     0.010 A 
ATOM      3  C   UNL d   1       1.259  -2.309   4.131  0.00  0.00     0.010 A 
ATOM      4  C   UNL d   1       0.704  -1.803   1.825  0.00  0.00     0.034 A 
ATOM      5  C   UNL d   1       0.424  -1.704   3.183  0.00  0.00     0.030 A 
ATOM      6  C   UNL d   1       1.817  -2.537   1.425  0.00  0.00     0.030 A 
ENDROOT
BRANCH   4   7
ATOM      7  N   UNL d   1      -0.134  -1.271   0.826  0.00  0.00    -0.334 N 
ATOM      8  H   UNL d   1      -0.099  -1.733  -0.078  0.00  0.00     0.168 HD
BRANCH   7   9
ATOM      9  C   UNL d   1      -1.061  -0.285   0.905  0.00  0.00     0.169 C 
ATOM     10  S   UNL d   1      -2.259  -0.134  -0.237  0.00  0.00    -0.041 SA
ATOM     11  N   UNL d   1      -0.946   0.625   1.898  0.00  0.00    -0.376 N 
ATOM     12  H   UNL d   1      -0.021   0.786   2.276  0.00  0.00     0.158 HD
ATOM     13  H   UNL d   1      -1.544   1.440   1.838  0.00  0.00     0.158 HD
ENDBRANCH   7   9
ENDBRANCH   4   7
BRANCH   1  14
ATOM     14  C   UNL d   1       3.308  -3.701   4.791  0.00  0.00     0.018 C 
ATOM     15  C   UNL d   1       3.297  -3.064   6.202  0.00  0.00     0.009 C 
ATOM     16  C   UNL d   1       3.995  -1.705   6.231  0.00  0.00     0.001 C 
ATOM     17  C   UNL d   1       5.428  -1.791   5.710  0.00  0.00     0.000 C 
ATOM     18  C   UNL d   1       5.525  -2.508   4.366  0.00  0.00     0.001 C 
ATOM     19  C   UNL d   1       4.793  -3.850   4.385  0.00  0.00     0.009 C 
ENDBRANCH   1  14
TORSDOF 3
