REMARK  5 active torsions:
REMARK  status: ('A' for Active; 'I' for Inactive)
REMARK    1  A    between atoms: C_3  and  C_1 
REMARK    2  A    between atoms: C_2  and  C_7 
REMARK       I    between atoms: N_12  and  C_3 
REMARK    3  A    between atoms: N_20  and  C_4 
REMARK    4  A    between atoms: N_8  and  N_12 
REMARK    5  A    between atoms: C_21  and  C_19 
ROOT
ATOM      1  C   UNL d   1      -0.508  -2.655   0.354  0.00  0.00     0.289 C 
ATOM      2  N   UNL d   1       0.313  -3.733   0.038  0.00  0.00    -0.265 N 
ATOM      3  O   UNL d   1      -0.098  -1.569   0.761  0.00  0.00    -0.264 OA
ATOM      4  H   UNL d   1      -0.104  -4.619  -0.234  0.00  0.00     0.190 HD
ENDROOT
BRANCH   2   5
ATOM      5  N   UNL d   1       1.659  -3.578   0.164  0.00  0.00    -0.308 N 
ATOM      6  C   UNL d   1       2.412  -4.603  -0.076  0.00  0.00     0.118 C 
ATOM      7  HN  UNL d   1       2.061  -2.682   0.438  1.00  0.00     0.186 HD
BRANCH   6   8
ATOM      8  C   UNL d   1       3.884  -4.488   0.044  0.00  0.00    -0.019 A 
ATOM      9  C   UNL d   1       4.470  -3.265   0.394  0.00  0.00     0.013 A 
ATOM     10  C   UNL d   1       5.858  -3.154   0.509  0.00  0.00     0.017 A 
ATOM     11  C   UNL d   1       6.681  -4.266   0.278  0.00  0.00     0.048 A 
ATOM     12  C   UNL d   1       6.084  -5.490  -0.074  0.00  0.00     0.017 A 
ATOM     13  C   UNL d   1       4.692  -5.603  -0.191  0.00  0.00     0.013 A 
BRANCH  11  14
ATOM     14  C   UNL d   1       8.184  -4.160   0.403  0.00  0.00     0.417 C 
ATOM     15  F   UNL d   1       8.619  -2.916   0.748  0.00  0.00    -0.166 F 
ATOM     16  F   UNL d   1       8.687  -5.005   1.344  0.00  0.00    -0.166 F 
ATOM     17  F   UNL d   1       8.825  -4.471  -0.758  0.00  0.00    -0.166 F 
ENDBRANCH  11  14
ENDBRANCH   6   8
ENDBRANCH   2   5
BRANCH   1  18
ATOM     18  C   UNL d   1      -1.974  -2.917   0.217  0.00  0.00     0.140 A 
ATOM     19  C   UNL d   1      -2.904  -1.879   0.422  0.00  0.00     0.110 A 
ATOM     20  N   UNL d   1      -4.233  -2.132   0.407  0.00  0.00    -0.354 N 
ATOM     21  C   UNL d   1      -4.600  -3.413   0.181  0.00  0.00     0.106 A 
ATOM     22  HN  UNL d   1      -4.921  -1.394   0.558  1.00  0.00     0.166 HD
ATOM     23  C   UNL d   1      -3.680  -4.427  -0.036  0.00  0.00     0.105 A 
ATOM     24  N   UNL d   1      -2.344  -4.217  -0.019  0.00  0.00    -0.357 N 
ATOM     25  HN  UNL d   1      -1.666  -4.965  -0.170  1.00  0.00     0.165 HD
BRANCH  19  26
ATOM     26  N   UNL d   1      -2.568  -0.534   0.524  0.00  0.00    -0.287 NA
ATOM     27  H   UNL d   1      -1.704  -0.381   1.047  0.00  0.00     0.125 HD
ATOM     28  H   UNL d   1      -3.365   0.015   0.823  0.00  0.00     0.125 HD
ENDBRANCH  19  26
ENDBRANCH   1  18
TORSDOF 5
