REMARK  5 active torsions:
REMARK  status: ('A' for Active; 'I' for Inactive)
REMARK    1  A    between atoms: C_5  and  C_1 
REMARK    2  A    between atoms: N_9  and  C_2 
REMARK       I    between atoms: C_8  and  N_9 
REMARK       I    between atoms: N_15  and  C_8 
REMARK    3  A    between atoms: C_10  and  O_14 
REMARK    4  A    between atoms: O_14  and  C_16 
REMARK    5  A    between atoms: C_23  and  N_15 
ROOT
ATOM      1  C   UNL d   1       1.631  -2.737  -0.542  0.00  0.00     0.325 C 
ATOM      2  N   UNL d   1       0.395  -2.480  -0.006  0.00  0.00    -0.304 N 
ATOM      3  N   UNL d   1       2.626  -1.874  -0.141  0.00  0.00    -0.307 N 
ATOM      4  O   UNL d   1       1.931  -3.711  -1.222  0.00  0.00    -0.247 OA
ATOM      5  H   UNL d   1       0.423  -1.980   0.871  0.00  0.00     0.171 HD
ATOM      6  H   UNL d   1       3.547  -2.283  -0.238  0.00  0.00     0.170 HD
ENDROOT
BRANCH   2   7
ATOM      7  C   UNL d   1      -0.749  -3.246  -0.198  0.00  0.00     0.097 A 
ATOM      8  C   UNL d   1      -1.826  -3.390   0.742  0.00  0.00     0.097 A 
ATOM      9  N   UNL d   1      -2.778  -4.191   0.244  0.00  0.00    -0.258 N 
ATOM     10  O   UNL d   1      -2.344  -4.577  -1.003  0.00  0.00    -0.240 OA
ATOM     11  HN  UNL d   1      -3.651  -4.460   0.698  1.00  0.00     0.195 HD
ATOM     12  C   UNL d   1      -1.128  -4.028  -1.267  0.00  0.00     0.101 A 
ATOM     13  C   UNL d   1      -0.565  -4.396  -2.580  0.00  0.00     0.081 C 
BRANCH   8  14
ATOM     14  C   UNL d   1      -1.936  -2.875   2.111  0.00  0.00     0.038 A 
ATOM     15  C   UNL d   1      -3.032  -2.086   2.509  0.00  0.00     0.048 A 
ATOM     16 CL   UNL d   1      -4.256  -1.551   1.405  0.00  0.00    -0.083 Cl
ATOM     17  C   UNL d   1      -3.168  -1.663   3.840  0.00  0.00     0.025 A 
ATOM     18  C   UNL d   1      -2.208  -1.998   4.790  0.00  0.00     0.003 A 
ATOM     19  C   UNL d   1      -1.107  -2.757   4.411  0.00  0.00     0.025 A 
ATOM     20  C   UNL d   1      -0.974  -3.203   3.089  0.00  0.00     0.048 A 
ATOM     21 CL   UNL d   1       0.415  -4.188   2.765  0.00  0.00    -0.083 Cl
ENDBRANCH   8  14
ENDBRANCH   2   7
BRANCH   3  22
ATOM     22  C   UNL d   1       2.522  -0.586   0.409  0.00  0.00     0.051 A 
ATOM     23  C   UNL d   1       1.452   0.276   0.175  0.00  0.00     0.119 A 
ATOM     24  N   UNL d   1       1.319   1.497   0.742  0.00  0.00    -0.344 N 
ATOM     25  C   UNL d   1       2.315   1.897   1.562  0.00  0.00     0.148 A 
ATOM     26  HN  UNL d   1       0.507   2.086   0.559  1.00  0.00     0.167 HD
ATOM     27  C   UNL d   1       3.440   1.130   1.828  0.00  0.00     0.059 A 
ATOM     28  C   UNL d   1       3.553  -0.122   1.224  0.00  0.00     0.035 A 
BRANCH  25  29
ATOM     29  O   UNL d   1       2.231   3.117   2.223  0.00  0.00    -0.292 OA
BRANCH  29  30
ATOM     30  C   UNL d   1       1.262   3.990   1.786  0.00  0.00     0.099 A 
ATOM     31  C   UNL d   1       0.208   4.346   2.633  0.00  0.00     0.069 A 
ATOM     32  C   UNL d   1      -0.731   5.296   2.222  0.00  0.00     0.050 A 
ATOM     33 CL   UNL d   1       0.036   3.638   4.198  0.00  0.00    -0.081 Cl
ATOM     34  C   UNL d   1      -0.602   5.890   0.968  0.00  0.00     0.035 A 
ATOM     35  C   UNL d   1       0.453   5.548   0.122  0.00  0.00     0.026 A 
ATOM     36 CL   UNL d   1      -1.747   7.071   0.462  0.00  0.00    -0.084 Cl
ATOM     37  C   UNL d   1       1.394   4.603   0.534  0.00  0.00     0.041 A 
ENDBRANCH  29  30
ENDBRANCH  25  29
ENDBRANCH   3  22
TORSDOF 5
