REMARK  1 active torsions:
REMARK  status: ('A' for Active; 'I' for Inactive)
REMARK       I    between atoms: N_2  and  C_1 
REMARK       I    between atoms: N_5  and  C_1 
REMARK       I    between atoms: C_3  and  N_2 
REMARK       I    between atoms: N_17  and  C_3 
REMARK    1  A    between atoms: C_14  and  N_5 
ROOT
ATOM      1  C   UNL d   1       1.175   0.417  -0.762  0.00  0.00     0.678 C 
ATOM      2  N   UNL d   1       2.323   0.141  -0.069  0.00  0.00    -0.167 N 
ATOM      3  C   UNL d   1       2.618  -0.706   0.951  0.00  0.00     0.163 C 
ATOM      4  N   UNL d   1       0.253  -0.591  -0.764  0.00  0.00    -0.192 N 
ATOM      5  N   UNL d   1       1.012   1.538  -1.389  0.00  0.00    -0.234 N 
ATOM      6  HN  UNL d   1       0.180   1.780  -1.927  1.00  0.00     0.174 HD
ATOM      7  N   UNL d   1       1.808  -1.451   1.614  0.00  0.00    -0.376 N 
ATOM      8  HN  UNL d   1       2.066  -2.109   2.350  1.00  0.00     0.158 HD
ATOM      9  N   UNL d   1       3.924  -0.705   1.299  0.00  0.00    -0.274 NA
ATOM     10  H   UNL d   1       3.029   0.857  -0.158  0.00  0.00     0.187 HD
ATOM     11  H   UNL d   1       0.626  -1.526  -0.880  0.00  0.00     0.184 HD
ATOM     12  H   UNL d   1       1.821   2.147  -1.278  0.00  0.00     0.174 HD
ATOM     13  H   UNL d   1       0.853  -1.271   1.276  0.00  0.00     0.158 HD
ATOM     14  H   UNL d   1       4.556  -0.903   0.533  0.00  0.00     0.127 HD
ATOM     15  H   UNL d   1       4.066  -1.389   2.041  0.00  0.00     0.127 HD
ENDROOT
BRANCH   4  16
ATOM     16  C   UNL d   1      -1.138  -0.475  -0.950  0.00  0.00     0.052 A 
ATOM     17  C   UNL d   1      -1.839  -1.521  -1.568  0.00  0.00     0.069 A 
ATOM     18  C   UNL d   1      -3.210  -1.417  -1.683  0.00  0.00     0.107 A 
ATOM     19  O   UNL d   1      -4.033  -2.352  -2.231  0.00  0.00    -0.323 OA
ATOM     20  C   UNL d   1      -3.897  -0.322  -1.220  0.00  0.00     0.105 A 
ATOM     21  C   UNL d   1      -5.322  -1.751  -1.986  0.00  0.00     0.352 A 
ATOM     22  O   UNL d   1      -5.239  -0.436  -1.399  0.00  0.00    -0.323 OA
ATOM     23  C   UNL d   1      -3.246   0.743  -0.639  0.00  0.00     0.042 A 
ATOM     24  C   UNL d   1      -1.853   0.665  -0.517  0.00  0.00     0.033 A 
ENDBRANCH   4  16
TORSDOF 1
