REMARK  2 active torsions:
REMARK  status: ('A' for Active; 'I' for Inactive)
REMARK    1  A    between atoms: C_8  and  N_2 
REMARK    2  A    between atoms: C_9  and  N_6 
ROOT
ATOM      1  C   UNL d   1      -0.143  -1.220  -0.062  0.00  0.00     0.157 C 
ATOM      2  N   UNL d   1      -1.162  -0.248  -0.022  0.00  0.00    -0.295 N 
ATOM      3  S   UNL d   1       1.399  -0.375  -0.426  0.00  0.00    -0.056 SA
ATOM      4  C   UNL d   1      -0.681   1.083  -0.035  0.00  0.00     0.028 C 
ATOM      5  C   UNL d   1       0.656   1.190  -0.218  0.00  0.00     0.005 C 
ATOM      6  N   UNL d   1      -0.253  -2.500   0.128  0.00  0.00    -0.336 N 
ATOM      7  HN  UNL d   1      -1.189  -2.872   0.290  1.00  0.00     0.168 HD
ATOM      8  C   UNL d   1      -1.556   2.267   0.271  0.00  0.00     0.070 C 
ATOM      9  C   UNL d   1       1.489   2.427  -0.197  0.00  0.00     0.058 C 
ENDROOT
BRANCH   2  10
ATOM     10  C   UNL d   1      -2.548  -0.601   0.022  0.00  0.00     0.041 A 
ATOM     11  C   UNL d   1      -3.016  -1.653   0.827  0.00  0.00     0.030 A 
ATOM     12  C   UNL d   1      -4.375  -1.984   0.881  0.00  0.00     0.002 A 
ATOM     13  C   UNL d   1      -5.301  -1.263   0.133  0.00  0.00     0.000 A 
ATOM     14  C   UNL d   1      -4.864  -0.228  -0.686  0.00  0.00     0.002 A 
ATOM     15  C   UNL d   1      -3.503   0.087  -0.750  0.00  0.00     0.030 A 
ENDBRANCH   2  10
BRANCH   6  16
ATOM     16  C   UNL d   1       0.814  -3.411   0.130  0.00  0.00     0.034 A 
ATOM     17  C   UNL d   1       1.949  -3.273   0.938  0.00  0.00     0.029 A 
ATOM     18  C   UNL d   1       2.948  -4.252   0.948  0.00  0.00     0.002 A 
ATOM     19  C   UNL d   1       2.795  -5.411   0.192  0.00  0.00     0.000 A 
ATOM     20  C   UNL d   1       1.645  -5.589  -0.574  0.00  0.00     0.002 A 
ATOM     21  C   UNL d   1       0.665  -4.592  -0.604  0.00  0.00     0.029 A 
ENDBRANCH   6  16
TORSDOF 2
