REMARK  10 active torsions:
REMARK  status: ('A' for Active; 'I' for Inactive)
REMARK    1  A    between atoms: C_3  and  C_1 
REMARK    2  A    between atoms: C_4  and  C_1 
REMARK    3  A    between atoms: C_8  and  C_2 
REMARK    4  A    between atoms: O_15  and  C_3 
REMARK    5  A    between atoms: O_14  and  C_4 
REMARK    6  A    between atoms: O_13  and  C_5 
REMARK    7  A    between atoms: O_17  and  C_6 
REMARK    8  A    between atoms: O_16  and  C_7 
REMARK    9  A    between atoms: C_19  and  O_14 
REMARK   10  A    between atoms: C_18  and  O_15 
ROOT
ATOM      1  C   UNL d   1       2.342  -4.562   2.170  0.00  0.00     0.135 A 
ATOM      2  C   UNL d   1       1.911  -4.584   0.824  0.00  0.00     0.105 A 
ATOM      3  C   UNL d   1       2.160  -3.401   2.941  0.00  0.00     0.105 A 
ATOM      4  C   UNL d   1       1.218  -2.266   1.010  0.00  0.00    -0.029 A 
ATOM      5  C   UNL d   1       1.587  -2.266   2.356  0.00  0.00     0.051 A 
ATOM      6  C   UNL d   1       1.387  -3.421   0.246  0.00  0.00     0.051 A 
ENDROOT
BRANCH   4   7
ATOM      7  C   UNL d   1       0.608  -1.076   0.414  0.00  0.00     0.035 C 
ATOM      8  C   UNL d   1       1.260  -0.073  -0.209  0.00  0.00     0.115 C 
BRANCH   8   9
ATOM      9  C   UNL d   1       0.513   1.115  -0.684  0.00  0.00     0.299 C 
ATOM     10  O   UNL d   1       0.905   1.863  -1.566  0.00  0.00    -0.259 OA
BRANCH   9  11
ATOM     11  O   UNL d   1      -0.617   1.291   0.055  0.00  0.00    -0.318 OA
BRANCH  11  12
ATOM     12  C   UNL d   1      -1.254   2.570  -0.056  0.00  0.00     0.174 C 
ATOM     13  C   UNL d   1      -0.723   3.457   1.055  0.00  0.00     0.034 C 
ENDBRANCH  11  12
ENDBRANCH   9  11
ENDBRANCH   8   9
BRANCH   8  14
ATOM     14  C   UNL d   1       2.729  -0.098  -0.386  0.00  0.00     0.299 C 
ATOM     15  O   UNL d   1       3.381  -1.070  -0.738  0.00  0.00    -0.259 OA
BRANCH  14  16
ATOM     16  O   UNL d   1       3.234   1.106  -0.007  0.00  0.00    -0.318 OA
BRANCH  16  17
ATOM     17  C   UNL d   1       4.663   1.201   0.069  0.00  0.00     0.174 C 
ATOM     18  C   UNL d   1       5.274   1.516  -1.284  0.00  0.00     0.034 C 
ENDBRANCH  16  17
ENDBRANCH  14  16
ENDBRANCH   8  14
ENDBRANCH   4   7
BRANCH   3  19
ATOM     19  O   UNL d   1       2.423  -3.240   4.278  0.00  0.00    -0.353 OA
ATOM     20  C   UNL d   1       3.543  -3.943   4.797  0.00  0.00     0.210 C 
ENDBRANCH   3  19
BRANCH   2  21
ATOM     21  O   UNL d   1       2.011  -5.780   0.154  0.00  0.00    -0.353 OA
ATOM     22  C   UNL d   1       1.323  -5.889  -1.085  0.00  0.00     0.210 C 
ENDBRANCH   2  21
BRANCH   1  23
ATOM     23  O   UNL d   1       2.798  -5.702   2.786  0.00  0.00    -0.351 OA
ATOM     24  C   UNL d   1       3.961  -6.265   2.178  0.00  0.00     0.210 C 
ENDBRANCH   1  23
TORSDOF 10
