REMARK  5 active torsions:
REMARK  status: ('A' for Active; 'I' for Inactive)
REMARK    1  A    between atoms: N_2  and  C_1 
REMARK    2  A    between atoms: N_7  and  C_1 
REMARK    3  A    between atoms: C_8  and  N_2 
REMARK    4  A    between atoms: C_3  and  C_9 
REMARK    5  A    between atoms: C_9  and  N_7 
ROOT
ATOM      1  C   UNL d   1       1.464   0.066   0.041  0.00  0.00     0.168 C 
ATOM      2  S   UNL d   1       2.956  -0.670  -0.009  0.00  0.00    -0.041 SA
ENDROOT
BRANCH   1   3
ATOM      3  N   UNL d   1       0.687   0.480  -1.004  0.00  0.00    -0.359 N 
ATOM      4  H   UNL d   1      -0.260   0.704  -0.733  0.00  0.00     0.162 HD
BRANCH   3   5
ATOM      5  C   UNL d   1       0.965   0.585  -2.458  0.00  0.00     0.021 C 
ATOM      6  C   UNL d   1       1.517  -0.717  -3.067  0.00  0.00     0.037 C 
ATOM      7  C   UNL d   1      -0.373   0.900  -3.164  0.00  0.00     0.037 C 
ATOM      8  C   UNL d   1       1.933   1.749  -2.720  0.00  0.00     0.037 C 
ENDBRANCH   3   5
ENDBRANCH   1   3
BRANCH   1   9
ATOM      9  N   UNL d   1       0.923   0.279   1.279  0.00  0.00    -0.367 N 
ATOM     10  H   UNL d   1       1.498  -0.096   2.023  0.00  0.00     0.161 HD
BRANCH   9  11
ATOM     11  C   UNL d   1       0.079   1.399   1.658  0.00  0.00     0.126 C 
BRANCH  11  12
ATOM     12  C   UNL d   1      -1.349   1.028   1.908  0.00  0.00     0.003 A 
ATOM     13  C   UNL d   1      -1.714  -0.076   2.868  0.00  0.00     0.007 A 
ATOM     14  C   UNL d   1      -2.003  -0.233   1.400  0.00  0.00     0.007 A 
ENDBRANCH  11  12
ENDBRANCH   9  11
ENDBRANCH   1   9
TORSDOF 5
