REMARK  7 active torsions:
REMARK  status: ('A' for Active; 'I' for Inactive)
REMARK    1  A    between atoms: N_3  and  S_1 
REMARK    2  A    between atoms: C_6  and  S_1 
REMARK    3  A    between atoms: C_2  and  C_8 
REMARK    4  A    between atoms: N_11  and  N_3 
REMARK    5  A    between atoms: C_4  and  C_10 
REMARK    6  A    between atoms: C_5  and  C_9 
REMARK    7  A    between atoms: C_7  and  C_13 
REMARK       I    between atoms: C_8  and  N_11 
ROOT
ATOM      1  S   UNL d   1       0.992   0.104   0.071  0.00  0.00     0.276 S 
ATOM      2  O   UNL d   1       0.357   0.897   1.099  0.00  0.00    -0.199 OA
ATOM      3  O   UNL d   1       2.435   0.029  -0.018  0.00  0.00    -0.199 OA
ENDROOT
BRANCH   1   4
ATOM      4  N   UNL d   1       0.418   0.670  -1.417  0.00  0.00    -0.220 N 
ATOM      5  H   UNL d   1      -0.544   0.446  -1.693  0.00  0.00     0.200 HD
BRANCH   4   6
ATOM      6  N   UNL d   1       0.905   1.990  -1.826  0.00  0.00    -0.256 N 
ATOM      7  C   UNL d   1       0.110   2.780  -2.630  0.00  0.00     0.272 C 
ATOM      8  O   UNL d   1      -0.970   2.390  -3.064  0.00  0.00    -0.266 OA
ATOM      9  H   UNL d   1       1.766   2.323  -1.391  0.00  0.00     0.191 HD
BRANCH   7  10
ATOM     10  C   UNL d   1       0.565   4.184  -2.884  0.00  0.00     0.056 A 
ATOM     11  C   UNL d   1      -0.450   5.132  -3.133  0.00  0.00     0.035 A 
ATOM     12  C   UNL d   1      -0.152   6.487  -3.367  0.00  0.00     0.049 A 
ATOM     13  C   UNL d   1       1.188   6.894  -3.343  0.00  0.00     0.018 A 
ATOM     14  C   UNL d   1       2.203   5.964  -3.114  0.00  0.00     0.026 A 
ATOM     15  C   UNL d   1       1.901   4.612  -2.894  0.00  0.00     0.049 A 
ATOM     16 CL   UNL d   1       3.252   3.555  -2.690  0.00  0.00    -0.083 Cl
BRANCH  12  17
ATOM     17  C   UNL d   1      -1.239   7.501  -3.648  0.00  0.00     0.417 C 
ATOM     18  F   UNL d   1      -2.491   6.969  -3.664  0.00  0.00    -0.166 F 
ATOM     19  F   UNL d   1      -1.265   8.500  -2.724  0.00  0.00    -0.166 F 
ATOM     20  F   UNL d   1      -1.074   8.110  -4.854  0.00  0.00    -0.166 F 
ENDBRANCH  12  17
ENDBRANCH   7  10
ENDBRANCH   4   6
ENDBRANCH   1   4
BRANCH   1  21
ATOM     21  C   UNL d   1       0.358  -1.554   0.196  0.00  0.00     0.082 A 
ATOM     22  C   UNL d   1       1.124  -2.622  -0.288  0.00  0.00     0.041 A 
ATOM     23  C   UNL d   1       0.738  -3.946  -0.020  0.00  0.00     0.050 A 
ATOM     24  C   UNL d   1      -0.426  -4.176   0.737  0.00  0.00     0.032 A 
ATOM     25  C   UNL d   1      -1.192  -3.110   1.242  0.00  0.00     0.050 A 
ATOM     26  C   UNL d   1      -0.794  -1.793   0.957  0.00  0.00     0.041 A 
BRANCH  23  27
ATOM     27  C   UNL d   1       1.577  -5.120  -0.477  0.00  0.00     0.417 C 
ATOM     28  F   UNL d   1       2.709  -4.756  -1.139  0.00  0.00    -0.166 F 
ATOM     29  F   UNL d   1       1.984  -5.897   0.564  0.00  0.00    -0.166 F 
ATOM     30  F   UNL d   1       0.897  -5.946  -1.318  0.00  0.00    -0.166 F 
ENDBRANCH  23  27
BRANCH  25  31
ATOM     31  C   UNL d   1      -2.384  -3.395   2.130  0.00  0.00     0.417 C 
ATOM     32  F   UNL d   1      -2.992  -2.272   2.601  0.00  0.00    -0.166 F 
ATOM     33  F   UNL d   1      -3.350  -4.107   1.488  0.00  0.00    -0.166 F 
ATOM     34  F   UNL d   1      -2.044  -4.126   3.227  0.00  0.00    -0.166 F 
ENDBRANCH  25  31
ENDBRANCH   1  21
TORSDOF 7
