REMARK  2 active torsions:
REMARK  status: ('A' for Active; 'I' for Inactive)
REMARK    1  A    between atoms: C_6  and  N_1 
REMARK    2  A    between atoms: C_7  and  C_6 
ROOT
ATOM      1  N   UNL d   1      -0.070   0.860   0.016  0.00  0.00    -0.277 N 
ATOM      2  C   UNL d   1      -0.187   0.006  -1.029  0.00  0.00     0.250 A 
ATOM      3  C   UNL d   1       0.123   0.174   1.167  0.00  0.00     0.250 A 
ATOM      4  C   UNL d   1       0.080  -1.253   0.833  0.00  0.00     0.080 A 
ATOM      5  C   UNL d   1      -0.116  -1.354  -0.482  0.00  0.00     0.080 A 
ATOM      6  O   UNL d   1      -0.292   0.248  -2.217  0.00  0.00    -0.268 OA
ATOM      7  O   UNL d   1       0.329   0.600   2.289  0.00  0.00    -0.268 OA
ENDROOT
BRANCH   1   8
ATOM      8  C   UNL d   1      -0.057   2.301  -0.090  0.00  0.00     0.181 C 
BRANCH   8   9
ATOM      9  C   UNL d   1      -1.455   2.830   0.041  0.00  0.00     0.001 A 
ATOM     10  S   UNL d   1      -2.399   3.136  -1.358  0.00  0.00    -0.105 SA
ATOM     11  C   UNL d   1      -3.740   3.637  -0.425  0.00  0.00     0.050 A 
ATOM     12  C   UNL d   1      -3.473   3.601   0.925  0.00  0.00     0.008 A 
ATOM     13  C   UNL d   1      -2.149   3.146   1.194  0.00  0.00     0.017 A 
ENDBRANCH   8   9
ENDBRANCH   1   8
TORSDOF 2
