REMARK  5 active torsions:
REMARK  status: ('A' for Active; 'I' for Inactive)
REMARK    1  A    between atoms: C_2  and  C_1 
REMARK       I    between atoms: N_8  and  C_2 
REMARK    2  A    between atoms: C_3  and  C_5 
REMARK    3  A    between atoms: C_4  and  C_6 
REMARK    4  A    between atoms: O_23  and  C_7 
REMARK    5  A    between atoms: C_9  and  N_8 
ROOT
ATOM      1  C   UNL d   1       3.567  -2.798  -1.130  0.00  0.00     0.050 A 
ATOM      2  C   UNL d   1       5.188  -2.470   0.659  0.00  0.00     0.050 A 
ATOM      3  C   UNL d   1       4.099  -0.538  -0.368  0.00  0.00     0.036 A 
ATOM      4  C   UNL d   1       4.457  -3.322  -0.184  0.00  0.00     0.032 A 
ATOM      5  C   UNL d   1       3.418  -1.405  -1.225  0.00  0.00     0.045 A 
ATOM      6  C   UNL d   1       5.016  -1.077   0.543  0.00  0.00     0.045 A 
ENDROOT
BRANCH   3   7
ATOM      7  N   UNL d   1       3.861   0.855  -0.326  0.00  0.00    -0.323 N 
ATOM      8  C   UNL d   1       2.806   1.520  -0.935  0.00  0.00     0.259 C 
ATOM      9  O   UNL d   1       1.985   1.012  -1.691  0.00  0.00    -0.267 OA
ATOM     10  H   UNL d   1       4.415   1.393   0.330  0.00  0.00     0.169 HD
BRANCH   8  11
ATOM     11  C   UNL d   1       2.718   2.937  -0.589  0.00  0.00     0.072 A 
ATOM     12  C   UNL d   1       1.593   3.682  -0.069  0.00  0.00     0.090 A 
ATOM     13  C   UNL d   1       1.888   5.023   0.062  0.00  0.00     0.087 A 
ATOM     14  S   UNL d   1       3.478   5.408  -0.404  0.00  0.00    -0.110 SA
ATOM     15  C   UNL d   1       3.803   3.780  -0.798  0.00  0.00     0.069 A 
BRANCH  12  16
ATOM     16  O   UNL d   1       0.353   3.312   0.348  0.00  0.00    -0.354 OA
ATOM     17  C   UNL d   1      -0.108   2.025  -0.020  0.00  0.00     0.210 C 
ENDBRANCH  12  16
ENDBRANCH   8  11
ENDBRANCH   3   7
BRANCH   1  18
ATOM     18  C   UNL d   1       2.735  -3.688  -2.023  0.00  0.00     0.417 C 
ATOM     19  F   UNL d   1       2.830  -5.008  -1.705  0.00  0.00    -0.166 F 
ATOM     20  F   UNL d   1       1.408  -3.388  -1.963  0.00  0.00    -0.166 F 
ATOM     21  F   UNL d   1       3.087  -3.590  -3.333  0.00  0.00    -0.166 F 
ENDBRANCH   1  18
BRANCH   2  22
ATOM     22  C   UNL d   1       6.125  -3.034   1.702  0.00  0.00     0.417 C 
ATOM     23  F   UNL d   1       5.957  -4.368   1.916  0.00  0.00    -0.166 F 
ATOM     24  F   UNL d   1       7.434  -2.867   1.370  0.00  0.00    -0.166 F 
ATOM     25  F   UNL d   1       5.967  -2.439   2.917  0.00  0.00    -0.166 F 
ENDBRANCH   2  22
TORSDOF 5
