REMARK  3 active torsions:
REMARK  status: ('A' for Active; 'I' for Inactive)
REMARK    1  A    between atoms: C_2  and  C_1 
REMARK       I    between atoms: N_3  and  C_2 
REMARK    2  A    between atoms: C_11  and  N_3 
REMARK    3  A    between atoms: C_5  and  C_11 
ROOT
ATOM      1  C   UNL d   1      -0.325   2.507  -0.048  0.00  0.00     0.253 C 
ATOM      2  N   UNL d   1       0.373   3.683   0.048  0.00  0.00    -0.352 N 
ATOM      3  O   UNL d   1      -1.546   2.485  -0.170  0.00  0.00    -0.268 OA
ATOM      4  H   UNL d   1       1.382   3.669   0.102  0.00  0.00     0.163 HD
ENDROOT
BRANCH   1   5
ATOM      5  C   UNL d   1       0.439   1.213  -0.000  0.00  0.00     0.053 A 
ATOM      6  C   UNL d   1       1.837   1.063   0.004  0.00  0.00     0.049 A 
ATOM      7 CL   UNL d   1       2.968   2.372  -0.054  0.00  0.00    -0.083 Cl
ATOM      8  C   UNL d   1       2.411  -0.219   0.041  0.00  0.00     0.025 A 
ATOM      9  C   UNL d   1       1.612  -1.361   0.068  0.00  0.00     0.002 A 
ATOM     10  C   UNL d   1       0.230  -1.230   0.060  0.00  0.00     0.001 A 
ATOM     11  C   UNL d   1      -0.349   0.042   0.026  0.00  0.00     0.019 A 
ENDBRANCH   1   5
BRANCH   2  12
ATOM     12  C   UNL d   1      -0.251   4.981  -0.090  0.00  0.00     0.169 C 
BRANCH  12  13
ATOM     13  C   UNL d   1       0.232   5.859   1.020  0.00  0.00     0.000 A 
ATOM     14  S   UNL d   1       1.683   6.759   0.854  0.00  0.00    -0.105 SA
ATOM     15  C   UNL d   1       1.505   7.454   2.407  0.00  0.00     0.050 A 
ATOM     16  C   UNL d   1       0.371   7.006   3.046  0.00  0.00     0.008 A 
ATOM     17  C   UNL d   1      -0.361   6.081   2.248  0.00  0.00     0.017 A 
ENDBRANCH  12  13
ENDBRANCH   2  12
TORSDOF 3
