REMARK  6 active torsions:
REMARK  status: ('A' for Active; 'I' for Inactive)
REMARK    1  A    between atoms: C_3  and  C_1 
REMARK    2  A    between atoms: N_5  and  C_2 
REMARK    3  A    between atoms: O_16  and  C_3 
REMARK       I    between atoms: C_7  and  N_5 
REMARK    4  A    between atoms: C_15  and  C_7 
REMARK    5  A    between atoms: C_9  and  S_12 
REMARK    6  A    between atoms: S_12  and  C_15 
ROOT
ATOM      1  N   UNL d   1       2.688   1.634  -0.031  0.00  0.00    -0.325 N 
ATOM      2  C   UNL d   1       2.752   2.906   0.510  0.00  0.00     0.231 C 
ATOM      3  O   UNL d   1       1.920   3.401   1.269  0.00  0.00    -0.272 OA
ATOM      4  H   UNL d   1       3.604   1.208  -0.160  0.00  0.00     0.169 HD
ENDROOT
BRANCH   1   5
ATOM      5  C   UNL d   1       1.646   0.744   0.224  0.00  0.00     0.058 A 
ATOM      6  C   UNL d   1       0.272   0.971   0.238  0.00  0.00     0.106 A 
ATOM      7  S   UNL d   1      -0.569  -0.463   0.739  0.00  0.00    -0.094 SA
ATOM      8  C   UNL d   1       0.857  -1.378   0.824  0.00  0.00     0.053 A 
ATOM      9  C   UNL d   1       1.960  -0.631   0.490  0.00  0.00     0.038 A 
BRANCH   6  10
ATOM     10  C   UNL d   1      -0.582   2.104  -0.104  0.00  0.00     0.302 C 
ATOM     11  O   UNL d   1      -1.790   2.165   0.096  0.00  0.00    -0.259 OA
BRANCH  10  12
ATOM     12  O   UNL d   1       0.112   3.074  -0.770  0.00  0.00    -0.322 OA
ATOM     13  C   UNL d   1      -0.635   4.262  -1.073  0.00  0.00     0.213 C 
ENDBRANCH  10  12
ENDBRANCH   6  10
ENDBRANCH   1   5
BRANCH   2  14
ATOM     14  C   UNL d   1       4.018   3.645   0.104  0.00  0.00     0.184 C 
BRANCH  14  15
ATOM     15  S   UNL d   1       5.081   3.960   1.540  0.00  0.00    -0.103 SA
BRANCH  15  16
ATOM     16  C   UNL d   1       5.540   2.302   2.012  0.00  0.00     0.069 A 
ATOM     17  N   UNL d   1       5.546   1.325   1.072  0.00  0.00    -0.361 N 
ATOM     18  C   UNL d   1       6.006   0.114   1.463  0.00  0.00     0.089 A 
ATOM     19  HN  UNL d   1       5.221   1.494   0.120  1.00  0.00     0.165 HD
ATOM     20  C   UNL d   1       6.427  -0.187   2.751  0.00  0.00     0.017 A 
ATOM     21  C   UNL d   1       6.386   0.822   3.704  0.00  0.00     0.004 A 
ATOM     22  C   UNL d   1       5.946   2.087   3.329  0.00  0.00     0.037 A 
ENDBRANCH  15  16
ENDBRANCH  14  15
ENDBRANCH   2  14
TORSDOF 6
