REMARK  7 active torsions:
REMARK  status: ('A' for Active; 'I' for Inactive)
REMARK    1  A    between atoms: C_4  and  N_1 
REMARK    2  A    between atoms: N_2  and  C_3 
REMARK    3  A    between atoms: O_8  and  C_5 
REMARK    4  A    between atoms: C_6  and  O_7 
REMARK    5  A    between atoms: O_7  and  C_21 
REMARK    6  A    between atoms: C_22  and  O_8 
REMARK    7  A    between atoms: C_15  and  C_16 
ROOT
ATOM      1  C   UNL d   1       3.201   2.573   7.758  0.00  0.00    -0.026 A 
ATOM      2  C   UNL d   1       4.502   2.386   8.263  0.00  0.00     0.015 A 
ATOM      3  C   UNL d   1       2.296   3.290   8.560  0.00  0.00     0.015 A 
ATOM      4  C   UNL d   1       3.936   3.514  10.325  0.00  0.00     0.076 A 
ATOM      5  C   UNL d   1       2.661   3.763   9.823  0.00  0.00     0.038 A 
ATOM      6  C   UNL d   1       4.876   2.868   9.525  0.00  0.00     0.038 A 
ENDROOT
BRANCH   1   7
ATOM      7  C   UNL d   1       2.805   2.061   6.427  0.00  0.00    -0.026 A 
ATOM      8  C   UNL d   1       3.213   0.796   5.965  0.00  0.00     0.015 A 
ATOM      9  C   UNL d   1       2.871   0.333   4.684  0.00  0.00     0.038 A 
ATOM     10  C   UNL d   1       2.144   1.152   3.823  0.00  0.00     0.076 A 
ATOM     11  C   UNL d   1       1.676   2.381   4.287  0.00  0.00     0.038 A 
ATOM     12  C   UNL d   1       2.005   2.831   5.567  0.00  0.00     0.015 A 
BRANCH  10  13
ATOM     13  O   UNL d   1       1.803   0.874   2.522  0.00  0.00    -0.307 OA
BRANCH  13  14
ATOM     14  C   UNL d   1       2.470  -0.073   1.784  0.00  0.00     0.130 A 
ATOM     15  C   UNL d   1       1.686  -0.973   1.046  0.00  0.00     0.138 A 
ATOM     16  C   UNL d   1       2.237  -1.892   0.141  0.00  0.00     0.039 A 
ATOM     17  C   UNL d   1       3.619  -1.930  -0.025  0.00  0.00     0.004 A 
ATOM     18  C   UNL d   1       4.420  -1.035   0.686  0.00  0.00     0.027 A 
ATOM     19  C   UNL d   1       3.853  -0.089   1.558  0.00  0.00     0.070 A 
ATOM     20 CL   UNL d   1       4.941   1.076   2.229  0.00  0.00    -0.081 Cl
BRANCH  15  21
ATOM     21  N   UNL d   1       0.244  -0.943   1.173  0.00  0.00    -0.113 N 
ATOM     22  O   UNL d   1      -0.235  -1.221   2.279  0.00  0.00    -0.532 OA
ATOM     23  O   UNL d   1      -0.403  -0.696   0.145  0.00  0.00    -0.532 OA
ENDBRANCH  15  21
ENDBRANCH  13  14
ENDBRANCH  10  13
ENDBRANCH   1   7
BRANCH   4  24
ATOM     24  O   UNL d   1       4.158   3.963  11.604  0.00  0.00    -0.307 OA
BRANCH  24  25
ATOM     25  C   UNL d   1       5.004   3.287  12.452  0.00  0.00     0.130 A 
ATOM     26  C   UNL d   1       5.847   4.064  13.265  0.00  0.00     0.138 A 
ATOM     27  C   UNL d   1       6.740   3.493  14.184  0.00  0.00     0.039 A 
ATOM     28  C   UNL d   1       6.793   2.110  14.309  0.00  0.00     0.004 A 
ATOM     29  C   UNL d   1       5.933   1.318  13.548  0.00  0.00     0.027 A 
ATOM     30  C   UNL d   1       5.020   1.897  12.651  0.00  0.00     0.070 A 
ATOM     31 CL   UNL d   1       3.899   0.805  11.911  0.00  0.00    -0.081 Cl
BRANCH  26  32
ATOM     32  N   UNL d   1       5.806   5.512  13.195  0.00  0.00    -0.113 N 
ATOM     33  O   UNL d   1       4.720   6.068  13.421  0.00  0.00    -0.532 OA
ATOM     34  O   UNL d   1       6.874   6.092  12.952  0.00  0.00    -0.532 OA
ENDBRANCH  26  32
ENDBRANCH  24  25
ENDBRANCH   4  24
TORSDOF 7
