REMARK  2 active torsions:
REMARK  status: ('A' for Active; 'I' for Inactive)
REMARK    1  A    between atoms: C_8  and  C_1 
REMARK    2  A    between atoms: C_10  and  C_4 
ROOT
ATOM      1  C   UNL d   1      -0.744   1.240   0.071  0.00  0.00     0.047 C 
ATOM      2  S   UNL d   1      -0.968  -1.504   0.359  0.00  0.00    -0.029 SA
ATOM      3  C   UNL d   1      -1.626   0.059  -0.036  0.00  0.00     0.227 C 
ATOM      4  C   UNL d   1       0.721  -1.221   0.037  0.00  0.00     0.087 C 
ATOM      5  N   UNL d   1       1.300  -0.064  -0.018  0.00  0.00    -0.359 N 
ATOM      6  HN  UNL d   1       2.311  -0.016  -0.148  1.00  0.00     0.166 HD
ATOM      7  C   UNL d   1       0.587   1.090   0.096  0.00  0.00     0.105 C 
ATOM      8  O   UNL d   1      -2.811   0.165  -0.327  0.00  0.00    -0.279 OA
ENDROOT
BRANCH   1   9
ATOM      9  C   UNL d   1      -1.295   2.602   0.080  0.00  0.00    -0.020 A 
ATOM     10  C   UNL d   1      -1.584   3.253  -1.128  0.00  0.00     0.012 A 
ATOM     11  C   UNL d   1      -2.051   4.568  -1.124  0.00  0.00     0.001 A 
ATOM     12  C   UNL d   1      -2.234   5.240   0.083  0.00  0.00     0.000 A 
ATOM     13  C   UNL d   1      -1.958   4.597   1.289  0.00  0.00     0.001 A 
ATOM     14  C   UNL d   1      -1.489   3.282   1.290  0.00  0.00     0.012 A 
ENDBRANCH   1   9
BRANCH   4  15
ATOM     15  C   UNL d   1       1.563  -2.443  -0.139  0.00  0.00    -0.002 A 
ATOM     16  C   UNL d   1       2.861  -2.448   0.391  0.00  0.00     0.014 A 
ATOM     17  C   UNL d   1       3.694  -3.554   0.204  0.00  0.00     0.001 A 
ATOM     18  C   UNL d   1       3.239  -4.654  -0.521  0.00  0.00     0.000 A 
ATOM     19  C   UNL d   1       1.952  -4.654  -1.057  0.00  0.00     0.001 A 
ATOM     20  C   UNL d   1       1.114  -3.552  -0.869  0.00  0.00     0.014 A 
ENDBRANCH   4  15
TORSDOF 2
