REMARK  1 active torsions:
REMARK  status: ('A' for Active; 'I' for Inactive)
REMARK    1  A    between atoms: N_3  and  C_4 
ROOT
ATOM      1  C   UNL d   1       0.587  -0.703  -0.002  0.00  0.00     0.044 A 
ATOM      2  C   UNL d   1       1.180   0.552  -0.004  0.00  0.00     0.089 A 
ATOM      3  C   UNL d   1       1.478  -1.807  -0.019  0.00  0.00     0.097 A 
ATOM      4  S   UNL d   1       0.046   1.827   0.014  0.00  0.00    -0.075 SA
ATOM      5  C   UNL d   1      -0.859  -0.580  -0.019  0.00  0.00    -0.029 A 
ATOM      6  C   UNL d   1      -1.262   0.742   0.017  0.00  0.00    -0.008 A 
ATOM      7  N   UNL d   1       2.495   0.817  -0.021  0.00  0.00    -0.346 N 
ATOM      8  HN  UNL d   1       2.885   1.759  -0.007  1.00  0.00     0.167 HD
ATOM      9  N   UNL d   1       2.807  -1.566  -0.070  0.00  0.00    -0.342 N 
ATOM     10  HN  UNL d   1       3.473  -2.337  -0.117  1.00  0.00     0.167 HD
ATOM     11  C   UNL d   1       3.233  -0.292  -0.059  0.00  0.00     0.182 A 
ATOM     12  C   UNL d   1      -1.862  -1.698  -0.033  0.00  0.00     0.041 C 
ATOM     13  C   UNL d   1      -2.685   1.210   0.021  0.00  0.00     0.047 C 
ATOM     14  C   UNL d   1      -3.292  -1.224  -0.318  0.00  0.00     0.005 C 
ATOM     15  C   UNL d   1      -3.619   0.067   0.443  0.00  0.00     0.005 C 
ENDROOT
BRANCH   3  16
ATOM     16  N   UNL d   1       1.002  -3.110  -0.053  0.00  0.00    -0.264 NA
ATOM     17  C   UNL d   1       1.820  -4.112  -0.754  0.00  0.00     0.128 C 
ATOM     18  C   UNL d   1       0.897  -5.331  -1.015  0.00  0.00     0.131 C 
ATOM     19  C   UNL d   1       1.627  -6.454  -1.731  0.00  0.00     0.040 C 
ATOM     20  O   UNL d   1       0.364  -5.859   0.225  0.00  0.00    -0.379 OA
ATOM     21  C   UNL d   1      -0.373  -4.840   0.936  0.00  0.00     0.131 C 
ATOM     22  C   UNL d   1       0.542  -3.632   1.245  0.00  0.00     0.128 C 
ATOM     23  C   UNL d   1      -0.956  -5.437   2.203  0.00  0.00     0.040 C 
ENDBRANCH   3  16
TORSDOF 1
