REMARK  3 active torsions:
REMARK  status: ('A' for Active; 'I' for Inactive)
REMARK    1  A    between atoms: S_9  and  C_1 
REMARK    2  A    between atoms: C_10  and  N_4 
REMARK    3  A    between atoms: C_11  and  C_10 
ROOT
ATOM      1  N   UNL d   1       3.174  -5.515   0.959  0.00  0.00    -0.197 NA
ATOM      2  C   UNL d   1       2.835  -4.419   1.121  0.00  0.00     0.060 C 
ATOM      3  C   UNL d   1       2.388  -3.028   1.303  0.00  0.00     0.144 C 
ENDROOT
BRANCH   3   4
ATOM      4  C   UNL d   1       2.187  -2.362  -0.055  0.00  0.00     0.145 C 
BRANCH   4   5
ATOM      5  N   UNL d   1       1.663  -1.010   0.036  0.00  0.00    -0.325 N 
ATOM      6  C   UNL d   1       2.363   0.168   0.044  0.00  0.00     0.144 A 
ATOM      7  N   UNL d   1       1.579   1.217   0.051  0.00  0.00    -0.335 N 
ATOM      8  C   UNL d   1       0.306   0.712   0.035  0.00  0.00     0.061 A 
ATOM      9  HN  UNL d   1       1.857   2.199   0.065  1.00  0.00     0.168 HD
ATOM     10  C   UNL d   1      -0.919   1.394   0.015  0.00  0.00     0.032 A 
ATOM     11  C   UNL d   1       0.320  -0.683   0.035  0.00  0.00     0.063 A 
ATOM     12  C   UNL d   1      -2.103   0.650  -0.003  0.00  0.00     0.002 A 
ATOM     13  C   UNL d   1      -2.069  -0.745  -0.001  0.00  0.00     0.002 A 
ATOM     14  C   UNL d   1      -0.856  -1.444   0.018  0.00  0.00     0.032 A 
BRANCH   6  15
ATOM     15  S   UNL d   1       4.085   0.280   0.044  0.00  0.00    -0.107 SA
ATOM     16  H   UNL d   1       4.128   1.622   0.003  0.00  0.00     0.110 HD
ENDBRANCH   6  15
ENDBRANCH   4   5
ENDBRANCH   3   4
TORSDOF 3
