REMARK  3 active torsions:
REMARK  status: ('A' for Active; 'I' for Inactive)
REMARK    1  A    between atoms: C_6  and  C_5 
REMARK    2  A    between atoms: C_16  and  C_15 
REMARK    3  A    between atoms: C_17  and  C_16 
ROOT
ATOM      1  N   UNL d   1      -4.507   6.946  -0.511  0.00  0.00    -0.191 NA
ATOM      2  C   UNL d   1      -3.889   5.969  -0.395  0.00  0.00     0.099 C 
ATOM      3  C   UNL d   1      -1.537   2.426  -0.052  0.00  0.00    -0.009 A 
ATOM      4  C   UNL d   1      -1.117   3.643   0.517  0.00  0.00     0.015 A 
ATOM      5  C   UNL d   1      -2.791   2.411  -0.691  0.00  0.00     0.015 A 
ATOM      6  C   UNL d   1      -3.114   4.772  -0.258  0.00  0.00     0.044 A 
ATOM      7  C   UNL d   1      -3.571   3.569  -0.799  0.00  0.00     0.023 A 
ATOM      8  C   UNL d   1      -1.890   4.804   0.411  0.00  0.00     0.023 A 
ENDROOT
BRANCH   3   9
ATOM      9  C   UNL d   1      -0.691   1.214  -0.013  0.00  0.00     0.042 A 
ATOM     10  N   UNL d   1      -1.346   0.026   0.003  0.00  0.00    -0.365 N 
ATOM     11  C   UNL d   1      -0.603  -1.106   0.011  0.00  0.00     0.095 A 
ATOM     12  HN  UNL d   1      -2.366  -0.013   0.007  1.00  0.00     0.165 HD
ATOM     13  C   UNL d   1       0.786  -1.134  -0.000  0.00  0.00    -0.043 A 
ATOM     14  C   UNL d   1       1.442   0.095  -0.030  0.00  0.00     0.011 A 
ATOM     15  C   UNL d   1       0.702   1.274  -0.033  0.00  0.00     0.031 A 
BRANCH  13  16
ATOM     16  C   UNL d   1       1.543  -2.433  -0.001  0.00  0.00     0.039 C 
BRANCH  16  17
ATOM     17  C   UNL d   1       2.499  -2.608   1.185  0.00  0.00     0.000 C 
ATOM     18  C   UNL d   1       1.788  -2.618   2.531  0.00  0.00     0.005 C 
ENDBRANCH  16  17
ENDBRANCH  13  16
ENDBRANCH   3   9
TORSDOF 3
