REMARK  4 active torsions:
REMARK  status: ('A' for Active; 'I' for Inactive)
REMARK    1  A    between atoms: C_2  and  C_1 
REMARK    2  A    between atoms: O_8  and  C_2 
REMARK    3  A    between atoms: C_14  and  O_8 
REMARK    4  A    between atoms: C_10  and  C_11 
ROOT
ATOM      1  O   UNL d   1      -1.172   3.409  -0.159  0.00  0.00    -0.275 OA
ENDROOT
BRANCH   1   2
ATOM      2  C   UNL d   1      -0.087   3.558   0.709  0.00  0.00     0.303 C 
ATOM      3  O   UNL d   1      -0.146   3.466   1.929  0.00  0.00    -0.259 OA
BRANCH   2   4
ATOM      4  C   UNL d   1       1.143   3.841  -0.010  0.00  0.00     0.095 A 
ATOM      5  C   UNL d   1       1.345   3.819  -1.378  0.00  0.00     0.090 A 
ATOM      6  O   UNL d   1       2.638   4.136  -1.650  0.00  0.00    -0.242 OA
ATOM      7  C   UNL d   1       0.503   3.521  -2.554  0.00  0.00     0.080 C 
ATOM      8  N   UNL d   1       3.318   4.358  -0.474  0.00  0.00    -0.265 N 
ATOM      9  C   UNL d   1       2.427   4.167   0.508  0.00  0.00     0.047 A 
ATOM     10  HN  UNL d   1       4.299   4.616  -0.372  1.00  0.00     0.194 HD
ATOM     11  C   UNL d   1       2.865   4.323   1.916  0.00  0.00     0.071 C 
ENDBRANCH   2   4
ENDBRANCH   1   2
BRANCH   1  12
ATOM     12  C   UNL d   1      -2.442   2.862   0.146  0.00  0.00     0.079 A 
ATOM     13  C   UNL d   1      -3.414   3.056  -0.831  0.00  0.00     0.038 A 
ATOM     14  C   UNL d   1      -4.644   2.403  -0.724  0.00  0.00     0.011 A 
ATOM     15  C   UNL d   1      -4.922   1.534   0.349  0.00  0.00    -0.050 A 
ATOM     16  C   UNL d   1      -3.942   1.415   1.352  0.00  0.00     0.011 A 
ATOM     17  C   UNL d   1      -2.704   2.066   1.252  0.00  0.00     0.038 A 
BRANCH  15  18
ATOM     18  C   UNL d   1      -6.223   0.708   0.353  0.00  0.00    -0.024 C 
ATOM     19  C   UNL d   1      -6.345  -0.257   1.553  0.00  0.00     0.019 C 
ATOM     20  C   UNL d   1      -7.454   1.637   0.379  0.00  0.00     0.019 C 
ATOM     21  C   UNL d   1      -6.273  -0.159  -0.928  0.00  0.00     0.019 C 
ENDBRANCH  15  18
ENDBRANCH   1  12
TORSDOF 4
