REMARK  5 active torsions:
REMARK  status: ('A' for Active; 'I' for Inactive)
REMARK    1  A    between atoms: C_6  and  N_1 
REMARK    2  A    between atoms: C_2  and  C_7 
REMARK    3  A    between atoms: C_3  and  C_8 
REMARK    4  A    between atoms: N_10  and  C_6 
REMARK    5  A    between atoms: C_11  and  N_10 
ROOT
ATOM      1  C   UNL d   1      -0.995   6.433  -1.256  0.00  0.00     0.050 A 
ATOM      2  C   UNL d   1      -2.611   6.204   0.552  0.00  0.00     0.050 A 
ATOM      3  C   UNL d   1      -1.874   7.008  -0.329  0.00  0.00     0.032 A 
ATOM      4  C   UNL d   1      -1.538   4.210  -0.386  0.00  0.00     0.011 A 
ATOM      5  C   UNL d   1      -0.857   5.034  -1.288  0.00  0.00     0.039 A 
ATOM      6  C   UNL d   1      -2.448   4.809   0.496  0.00  0.00     0.039 A 
ENDROOT
BRANCH   4   7
ATOM      7  N   UNL d   1      -1.428   2.808  -0.400  0.00  0.00    -0.276 NA
ATOM      8  H   UNL d   1      -1.730   2.425   0.502  0.00  0.00     0.129 HD
BRANCH   7   9
ATOM      9  C   UNL d   1      -0.124   2.268  -0.755  0.00  0.00     0.229 C 
BRANCH   9  10
ATOM     10  N   UNL d   1       0.066   0.950  -0.204  0.00  0.00    -0.275 N 
ATOM     11  C   UNL d   1      -0.330   0.559   1.038  0.00  0.00     0.227 C 
ATOM     12  C   UNL d   1       0.232  -0.797   1.335  0.00  0.00     0.112 C 
ATOM     13  O   UNL d   1      -1.028   1.195   1.816  0.00  0.00    -0.273 OA
ATOM     14  C   UNL d   1       1.238  -1.027   0.226  0.00  0.00     0.112 C 
ATOM     15  C   UNL d   1       1.077   0.162  -0.672  0.00  0.00     0.227 C 
ATOM     16  O   UNL d   1       1.807   0.405  -1.623  0.00  0.00    -0.273 OA
ENDBRANCH   9  10
ENDBRANCH   7   9
ENDBRANCH   4   7
BRANCH   1  17
ATOM     17  C   UNL d   1      -0.176   7.282  -2.197  0.00  0.00     0.417 C 
ATOM     18  F   UNL d   1      -0.428   8.615  -2.086  0.00  0.00    -0.166 F 
ATOM     19  F   UNL d   1       1.161   7.136  -1.987  0.00  0.00    -0.166 F 
ATOM     20  F   UNL d   1      -0.387   6.966  -3.504  0.00  0.00    -0.166 F 
ENDBRANCH   1  17
BRANCH   2  21
ATOM     21  C   UNL d   1      -3.550   6.813   1.564  0.00  0.00     0.417 C 
ATOM     22  F   UNL d   1      -3.585   8.175   1.518  0.00  0.00    -0.166 F 
ATOM     23  F   UNL d   1      -4.838   6.402   1.403  0.00  0.00    -0.166 F 
ATOM     24  F   UNL d   1      -3.211   6.496   2.844  0.00  0.00    -0.166 F 
ENDBRANCH   2  21
TORSDOF 5
