REMARK  4 active torsions:
REMARK  status: ('A' for Active; 'I' for Inactive)
REMARK    1  A    between atoms: C_4  and  C_3 
REMARK    2  A    between atoms: C_10  and  N_6 
REMARK    3  A    between atoms: C_9  and  O_15 
REMARK    4  A    between atoms: O_15  and  C_21 
ROOT
ATOM      1  C   UNL d   1      -3.234  -2.050   0.089  0.00  0.00     0.040 A 
ATOM      2  N   UNL d   1      -3.998  -1.482  -0.936  0.00  0.00    -0.322 N 
ATOM      3  C   UNL d   1      -5.327  -1.582  -0.543  0.00  0.00     0.097 A 
ATOM      4  C   UNL d   1      -4.095  -2.575   1.036  0.00  0.00     0.031 A 
ATOM      5  C   UNL d   1      -5.410  -2.268   0.646  0.00  0.00     0.020 A 
ENDROOT
BRANCH   1   6
ATOM      6  C   UNL d   1      -1.822  -1.972   0.116  0.00  0.00     0.048 C 
ATOM      7  C   UNL d   1      -1.165  -0.905   0.601  0.00  0.00     0.047 A 
ATOM      8  C   UNL d   1      -1.753   0.337   1.227  0.00  0.00     0.257 A 
ATOM      9  C   UNL d   1       0.293  -0.738   0.607  0.00  0.00     0.006 A 
ATOM     10  N   UNL d   1      -0.656   1.113   1.570  0.00  0.00    -0.322 N 
ATOM     11  O   UNL d   1      -2.918   0.628   1.411  0.00  0.00    -0.267 OA
ATOM     12  C   UNL d   1       0.537   0.502   1.204  0.00  0.00     0.046 A 
ATOM     13  H   UNL d   1      -0.752   2.013   2.013  0.00  0.00     0.169 HD
ATOM     14  C   UNL d   1       1.808   1.013   1.367  0.00  0.00     0.030 A 
ATOM     15  C   UNL d   1       2.871   0.242   0.896  0.00  0.00     0.002 A 
ATOM     16  C   UNL d   1       2.642  -1.005   0.285  0.00  0.00     0.001 A 
ATOM     17  C   UNL d   1       1.343  -1.507   0.137  0.00  0.00     0.015 A 
ENDBRANCH   1   6
BRANCH   2  18
ATOM     18  C   UNL d   1      -3.576  -0.919  -2.189  0.00  0.00     0.039 A 
ATOM     19  C   UNL d   1      -2.394  -1.330  -2.822  0.00  0.00     0.033 A 
ATOM     20  C   UNL d   1      -2.030  -0.813  -4.075  0.00  0.00     0.039 A 
ATOM     21  C   UNL d   1      -2.858   0.095  -4.726  0.00  0.00     0.078 A 
ATOM     22  C   UNL d   1      -4.014   0.539  -4.081  0.00  0.00     0.039 A 
ATOM     23  C   UNL d   1      -4.380   0.031  -2.829  0.00  0.00     0.033 A 
BRANCH  21  24
ATOM     24  O   UNL d   1      -2.665   0.629  -5.964  0.00  0.00    -0.255 OA
BRANCH  24  25
ATOM     25  C   UNL d   1      -1.851  -0.069  -6.893  0.00  0.00     0.530 C 
ATOM     26  F   UNL d   1      -1.822  -1.403  -6.687  0.00  0.00    -0.144 F 
ATOM     27  F   UNL d   1      -2.346   0.142  -8.134  0.00  0.00    -0.144 F 
ATOM     28  F   UNL d   1      -0.590   0.413  -6.854  0.00  0.00    -0.144 F 
ENDBRANCH  24  25
ENDBRANCH  21  24
ENDBRANCH   2  18
TORSDOF 4
