REMARK  11 active torsions:
REMARK  status: ('A' for Active; 'I' for Inactive)
REMARK    1  A    between atoms: C_7  and  C_1 
REMARK    2  A    between atoms: O_13  and  C_1 
REMARK    3  A    between atoms: C_8  and  C_2 
REMARK    4  A    between atoms: O_14  and  C_2 
REMARK    5  A    between atoms: C_10  and  C_4 
REMARK    6  A    between atoms: C_11  and  C_5 
REMARK    7  A    between atoms: C_9  and  C_6 
REMARK    8  A    between atoms: O_25  and  C_10 
REMARK    9  A    between atoms: O_24  and  C_11 
REMARK   10  A    between atoms: C_30  and  O_24 
REMARK   11  A    between atoms: C_31  and  O_25 
ROOT
ATOM      1  C   UNL d   1       0.761   1.326  -0.322  0.00  0.00     0.371 C 
ATOM      2  C   UNL d   1       0.792  -1.180  -0.298  0.00  0.00     0.371 C 
ATOM      3  N   UNL d   1       1.466   0.080   0.045  0.00  0.00     0.174 N 
ATOM      4  C   UNL d   1      -0.608  -1.204   0.381  0.00  0.00     0.170 C 
ATOM      5  C   UNL d   1      -0.706   1.355   0.192  0.00  0.00     0.170 C 
ATOM      6  C   UNL d   1      -1.445   0.026  -0.086  0.00  0.00     0.056 C 
ATOM      7  H   UNL d   1       2.373   0.112  -0.423  0.00  0.00     0.324 HD
ENDROOT
BRANCH   6   8
ATOM      8  C   UNL d   1      -2.897  -0.026   0.381  0.00  0.00    -0.050 A 
ATOM      9  C   UNL d   1      -3.329   0.510   1.604  0.00  0.00     0.031 A 
ATOM     10  C   UNL d   1      -4.682   0.476   1.955  0.00  0.00     0.034 A 
ATOM     11 CL   UNL d   1      -5.192   1.160   3.450  0.00  0.00    -0.084 Cl
ATOM     12  C   UNL d   1      -5.625  -0.094   1.104  0.00  0.00     0.024 A 
ATOM     13  C   UNL d   1      -5.211  -0.640  -0.108  0.00  0.00     0.002 A 
ATOM     14  C   UNL d   1      -3.859  -0.610  -0.463  0.00  0.00     0.007 A 
ENDBRANCH   6   8
BRANCH   4  15
ATOM     15  C   UNL d   1      -0.412  -1.222   1.898  0.00  0.00     0.269 C 
ATOM     16  O   UNL d   1      -0.358  -0.227   2.604  0.00  0.00    -0.265 OA
BRANCH  15  17
ATOM     17  O   UNL d   1      -0.216  -2.492   2.354  0.00  0.00    -0.321 OA
BRANCH  17  18
ATOM     18  C   UNL d   1       0.470  -2.572   3.615  0.00  0.00     0.174 C 
ATOM     19  C   UNL d   1       1.970  -2.567   3.367  0.00  0.00     0.034 C 
ENDBRANCH  17  18
ENDBRANCH  15  17
ENDBRANCH   4  15
BRANCH   5  20
ATOM     20  C   UNL d   1      -1.424   2.502  -0.495  0.00  0.00     0.269 C 
ATOM     21  O   UNL d   1      -1.502   2.589  -1.708  0.00  0.00    -0.265 OA
BRANCH  20  22
ATOM     22  O   UNL d   1      -1.897   3.402   0.401  0.00  0.00    -0.321 OA
BRANCH  22  23
ATOM     23  C   UNL d   1      -2.553   4.553  -0.155  0.00  0.00     0.174 C 
ATOM     24  C   UNL d   1      -1.535   5.577  -0.625  0.00  0.00     0.034 C 
ENDBRANCH  22  23
ENDBRANCH  20  22
ENDBRANCH   5  20
BRANCH   2  25
ATOM     25  C   UNL d   1       0.673  -1.616  -1.845  0.00  0.00     0.449 C 
ATOM     26  F   UNL d   1       1.475  -0.890  -2.654  0.00  0.00    -0.166 F 
ATOM     27  F   UNL d   1       1.093  -2.903  -1.995  0.00  0.00    -0.166 F 
ATOM     28  F   UNL d   1      -0.584  -1.565  -2.328  0.00  0.00    -0.166 F 
ENDBRANCH   2  25
BRANCH   2  29
ATOM     29  O   UNL d   1       1.603  -2.188   0.333  0.00  0.00    -0.355 OA
ATOM     30  H   UNL d   1       2.397  -2.319  -0.215  0.00  0.00     0.213 HD
ENDBRANCH   2  29
BRANCH   1  31
ATOM     31  C   UNL d   1       1.531   2.608   0.279  0.00  0.00     0.449 C 
ATOM     32  F   UNL d   1       2.710   2.257   0.854  0.00  0.00    -0.166 F 
ATOM     33  F   UNL d   1       1.820   3.509  -0.688  0.00  0.00    -0.166 F 
ATOM     34  F   UNL d   1       0.812   3.258   1.223  0.00  0.00    -0.166 F 
ENDBRANCH   1  31
BRANCH   1  35
ATOM     35  O   UNL d   1       0.811   1.301  -1.750  0.00  0.00    -0.355 OA
ATOM     36  H   UNL d   1       0.062   1.802  -2.136  0.00  0.00     0.213 HD
ENDBRANCH   1  35
TORSDOF 11
