REMARK  3 active torsions:
REMARK  status: ('A' for Active; 'I' for Inactive)
REMARK    1  A    between atoms: C_3  and  C_1 
REMARK    2  A    between atoms: O_8  and  C_2 
REMARK    3  A    between atoms: O_9  and  C_3 
ROOT
ATOM      1  C   UNL d   1       1.051  -0.780  -0.002  0.00  0.00     0.113 A 
ATOM      2  C   UNL d   1      -0.281  -1.152   0.001  0.00  0.00     0.089 A 
ATOM      3  S   UNL d   1       1.193   0.936  -0.002  0.00  0.00    -0.093 SA
ATOM      4  C   UNL d   1      -1.173  -0.048   0.002  0.00  0.00     0.045 A 
ATOM      5  C   UNL d   1      -0.502   1.153   0.001  0.00  0.00     0.053 A 
ENDROOT
BRANCH   1   6
ATOM      6  C   UNL d   1       2.266  -1.571  -0.004  0.00  0.00     0.302 C 
ATOM      7  O   UNL d   1       3.415  -1.145  -0.004  0.00  0.00    -0.259 OA
BRANCH   6   8
ATOM      8  O   UNL d   1       1.955  -2.906  -0.005  0.00  0.00    -0.322 OA
ATOM      9  C   UNL d   1       3.106  -3.756  -0.006  0.00  0.00     0.213 C 
ENDBRANCH   6   8
ENDBRANCH   1   6
BRANCH   2  10
ATOM     10  O   UNL d   1      -0.717  -2.428   0.002  0.00  0.00    -0.359 OA
ATOM     11  H   UNL d   1       0.037  -3.049   0.001  0.00  0.00     0.217 HD
ENDBRANCH   2  10
TORSDOF 3
