REMARK  3 active torsions:
REMARK  status: ('A' for Active; 'I' for Inactive)
REMARK    1  A    between atoms: C_5  and  C_1 
REMARK    2  A    between atoms: N_9  and  C_2 
REMARK       I    between atoms: C_8  and  N_11 
REMARK       I    between atoms: N_13  and  C_8 
REMARK       I    between atoms: C_10  and  N_9 
REMARK       I    between atoms: N_12  and  C_10 
REMARK    3  A    between atoms: N_11  and  N_12 
ROOT
ATOM      1  C   UNL d   1      -1.549  -0.843   0.311  0.00  0.00     0.097 A 
ATOM      2  C   UNL d   1      -0.180  -1.190   0.052  0.00  0.00     0.097 A 
ATOM      3  N   UNL d   1      -1.655   0.464   0.591  0.00  0.00    -0.258 N 
ATOM      4  HN  UNL d   1      -2.509   0.975   0.812  1.00  0.00     0.195 HD
ATOM      5  C   UNL d   1       0.509  -0.011   0.225  0.00  0.00     0.101 A 
ATOM      6  O   UNL d   1      -0.380   0.978   0.521  0.00  0.00    -0.240 OA
ATOM      7  C   UNL d   1       1.926   0.395   0.298  0.00  0.00     0.081 C 
ENDROOT
BRANCH   2   8
ATOM      8  N   UNL d   1       0.300  -2.465  -0.178  0.00  0.00    -0.303 N 
ATOM      9  C   UNL d   1       1.230  -2.928  -1.045  0.00  0.00     0.339 C 
ATOM     10  N   UNL d   1       1.733  -2.089  -1.998  0.00  0.00    -0.247 N 
ATOM     11  O   UNL d   1       1.465  -4.139  -1.071  0.00  0.00    -0.245 OA
ATOM     12  H   UNL d   1       1.935  -1.113  -1.814  0.00  0.00     0.192 HD
ATOM     13  H   UNL d   1      -0.253  -3.228   0.194  0.00  0.00     0.171 HD
BRANCH  10  14
ATOM     14  N   UNL d   1       2.554  -2.708  -2.975  0.00  0.00    -0.248 N 
ATOM     15  C   UNL d   1       3.719  -2.072  -3.339  0.00  0.00     0.336 C 
ATOM     16  N   UNL d   1       4.525  -2.795  -4.218  0.00  0.00    -0.342 N 
ATOM     17  O   UNL d   1       3.985  -0.943  -2.929  0.00  0.00    -0.245 OA
ATOM     18  C   UNL d   1       5.704  -2.130  -4.747  0.00  0.00     0.154 C 
ATOM     19  C   UNL d   1       4.087  -3.974  -4.953  0.00  0.00     0.154 C 
ATOM     20  H   UNL d   1       2.622  -3.712  -2.825  0.00  0.00     0.192 HD
ENDBRANCH  10  14
ENDBRANCH   2   8
BRANCH   1  21
ATOM     21  C   UNL d   1      -2.735  -1.701   0.239  0.00  0.00     0.038 A 
ATOM     22  C   UNL d   1      -2.865  -2.847   1.047  0.00  0.00     0.048 A 
ATOM     23 CL   UNL d   1      -1.682  -3.305   2.229  0.00  0.00    -0.083 Cl
ATOM     24  C   UNL d   1      -3.982  -3.687   0.938  0.00  0.00     0.025 A 
ATOM     25  C   UNL d   1      -5.005  -3.385   0.045  0.00  0.00     0.003 A 
ATOM     26  C   UNL d   1      -4.906  -2.248  -0.750  0.00  0.00     0.025 A 
ATOM     27  C   UNL d   1      -3.779  -1.417  -0.666  0.00  0.00     0.048 A 
ATOM     28 CL   UNL d   1      -3.737  -0.079  -1.767  0.00  0.00    -0.083 Cl
ENDBRANCH   1  21
TORSDOF 3
