REMARK  4 active torsions:
REMARK  status: ('A' for Active; 'I' for Inactive)
REMARK    1  A    between atoms: C_5  and  N_1 
REMARK    2  A    between atoms: C_2  and  C_3 
REMARK    3  A    between atoms: O_11  and  C_4 
REMARK    4  A    between atoms: C_10  and  C_5 
ROOT
ATOM      1  N   UNL d   1       1.354  -0.057   0.695  0.00  0.00     0.092 N 
ATOM      2  C   UNL d   1      -1.474   0.106  -0.303  0.00  0.00     0.025 C 
ATOM      3  C   UNL d   1      -0.755   1.321   0.304  0.00  0.00     0.040 C 
ATOM      4  C   UNL d   1      -0.873  -1.166   0.299  0.00  0.00     0.040 C 
ATOM      5  C   UNL d   1       0.777   1.242   0.320  0.00  0.00     0.273 C 
ATOM      6  C   UNL d   1       0.642  -1.218   0.132  0.00  0.00     0.273 C 
ENDROOT
BRANCH   2   7
ATOM      7  C   UNL d   1      -1.571   0.040  -1.832  0.00  0.00    -0.021 A 
ATOM      8  C   UNL d   1      -2.763  -0.388  -2.462  0.00  0.00     0.074 A 
ATOM      9  C   UNL d   1      -2.821  -0.514  -3.858  0.00  0.00     0.037 A 
ATOM     10  C   UNL d   1      -1.721  -0.193  -4.651  0.00  0.00     0.003 A 
ATOM     11  C   UNL d   1      -0.551   0.245  -4.051  0.00  0.00     0.001 A 
ATOM     12  C   UNL d   1      -0.477   0.351  -2.662  0.00  0.00     0.010 A 
BRANCH   8  13
ATOM     13  O   UNL d   1      -3.819  -0.704  -1.645  0.00  0.00    -0.355 OA
ATOM     14  C   UNL d   1      -5.113  -0.631  -2.235  0.00  0.00     0.210 C 
ENDBRANCH   8  13
ENDBRANCH   2   7
BRANCH   1  15
ATOM     15  C   UNL d   1       2.770  -0.151   0.271  0.00  0.00     0.311 C 
BRANCH  15  16
ATOM     16  C   UNL d   1       3.702   0.896   0.839  0.00  0.00    -0.030 A 
ATOM     17  C   UNL d   1       4.008   0.914   2.205  0.00  0.00     0.009 A 
ATOM     18  C   UNL d   1       4.928   1.833   2.712  0.00  0.00     0.001 A 
ATOM     19  C   UNL d   1       5.546   2.749   1.860  0.00  0.00     0.000 A 
ATOM     20  C   UNL d   1       5.237   2.753   0.501  0.00  0.00     0.001 A 
ATOM     21  C   UNL d   1       4.320   1.831  -0.007  0.00  0.00     0.009 A 
ENDBRANCH  15  16
ENDBRANCH   1  15
TORSDOF 4
