REMARK  8 active torsions:
REMARK  status: ('A' for Active; 'I' for Inactive)
REMARK    1  A    between atoms: N_4  and  S_1 
REMARK    2  A    between atoms: C_12  and  S_1 
REMARK    3  A    between atoms: C_7  and  C_2 
REMARK    4  A    between atoms: C_3  and  O_8 
REMARK    5  A    between atoms: C_5  and  N_4 
REMARK    6  A    between atoms: C_6  and  C_11 
REMARK    7  A    between atoms: O_29  and  C_7 
REMARK    8  A    between atoms: O_8  and  C_10 
ROOT
ATOM      1  C   UNL d   1      -1.840   1.071   2.595  0.00  0.00     0.074 A 
ATOM      2  N   UNL d   1      -6.251   3.933   3.823  0.00  0.00    -0.191 NA
ATOM      3  C   UNL d   1      -5.342   3.277   3.530  0.00  0.00     0.099 C 
ATOM      4  C   UNL d   1      -2.459   0.910   3.843  0.00  0.00     0.026 A 
ATOM      5  C   UNL d   1      -2.419   1.895   1.626  0.00  0.00     0.026 A 
ATOM      6  C   UNL d   1      -4.197   2.475   3.188  0.00  0.00     0.044 A 
ATOM      7  C   UNL d   1      -3.633   1.614   4.138  0.00  0.00     0.024 A 
ATOM      8  C   UNL d   1      -3.600   2.590   1.925  0.00  0.00     0.024 A 
ENDROOT
BRANCH   1   9
ATOM      9  S   UNL d   1      -0.167   0.456   2.369  0.00  0.00     0.245 S 
ATOM     10  O   UNL d   1       0.568   1.523   1.728  0.00  0.00    -0.206 OA
ATOM     11  O   UNL d   1       0.216  -0.084   3.655  0.00  0.00    -0.206 OA
BRANCH   9  12
ATOM     12  N   UNL d   1      -0.344  -0.819   1.256  0.00  0.00    -0.179 NA
ATOM     13  H   UNL d   1      -1.302  -0.918   0.926  0.00  0.00     0.146 HD
BRANCH  12  14
ATOM     14  C   UNL d   1       0.267  -2.060   1.662  0.00  0.00     0.057 A 
ATOM     15  C   UNL d   1       1.643  -2.322   1.507  0.00  0.00     0.098 A 
ATOM     16  C   UNL d   1       2.150  -3.559   1.931  0.00  0.00     0.040 A 
ATOM     17  C   UNL d   1       1.334  -4.462   2.619  0.00  0.00     0.019 A 
ATOM     18  C   UNL d   1      -0.013  -4.165   2.860  0.00  0.00     0.049 A 
ATOM     19  C   UNL d   1      -0.544  -2.973   2.348  0.00  0.00     0.043 A 
BRANCH  15  20
ATOM     20  O   UNL d   1       2.430  -1.367   0.894  0.00  0.00    -0.307 OA
BRANCH  20  21
ATOM     21  C   UNL d   1       3.791  -1.356   0.961  0.00  0.00     0.099 A 
ATOM     22  C   UNL d   1       4.565  -1.431   2.109  0.00  0.00     0.114 A 
ATOM     23  S   UNL d   1       6.245  -1.445   1.729  0.00  0.00    -0.093 SA
ATOM     24  C   UNL d   1       5.943  -1.207   0.069  0.00  0.00     0.053 A 
ATOM     25  C   UNL d   1       4.595  -1.185  -0.209  0.00  0.00     0.046 A 
BRANCH  22  26
ATOM     26  C   UNL d   1       4.213  -1.495   3.509  0.00  0.00     0.302 C 
ATOM     27  O   UNL d   1       4.796  -2.153   4.364  0.00  0.00    -0.259 OA
BRANCH  26  28
ATOM     28  O   UNL d   1       3.167  -0.664   3.762  0.00  0.00    -0.322 OA
ATOM     29  C   UNL d   1       2.830  -0.572   5.145  0.00  0.00     0.213 C 
ENDBRANCH  26  28
ENDBRANCH  22  26
ENDBRANCH  20  21
ENDBRANCH  15  20
BRANCH  18  30
ATOM     30  C   UNL d   1      -0.865  -5.100   3.683  0.00  0.00     0.417 C 
ATOM     31  F   UNL d   1      -2.144  -4.658   3.843  0.00  0.00    -0.166 F 
ATOM     32  F   UNL d   1      -0.964  -6.339   3.131  0.00  0.00    -0.166 F 
ATOM     33  F   UNL d   1      -0.374  -5.281   4.939  0.00  0.00    -0.166 F 
ENDBRANCH  18  30
ENDBRANCH  12  14
ENDBRANCH   9  12
ENDBRANCH   1   9
TORSDOF 8
