REMARK  5 active torsions:
REMARK  status: ('A' for Active; 'I' for Inactive)
REMARK    1  A    between atoms: C_7  and  C_1 
REMARK    2  A    between atoms: N_14  and  C_3 
REMARK    3  A    between atoms: C_9  and  C_7 
REMARK    4  A    between atoms: C_10  and  C_7 
REMARK    5  A    between atoms: N_8  and  C_10 
ROOT
ATOM      1  C   UNL d   1      -0.184   1.668   0.040  0.00  0.00     0.059 A 
ATOM      2  N   UNL d   1      -1.146  -0.479  -0.248  0.00  0.00    -0.294 N 
ATOM      3  C   UNL d   1      -1.202   0.900  -0.417  0.00  0.00     0.096 A 
ATOM      4  N   UNL d   1       0.934  -0.350   0.861  0.00  0.00    -0.270 N 
ATOM      5  C   UNL d   1      -0.073  -1.140   0.357  0.00  0.00     0.332 A 
ATOM      6  C   UNL d   1       0.957   1.017   0.756  0.00  0.00     0.261 A 
ATOM      7  O   UNL d   1      -0.020  -2.371   0.423  0.00  0.00    -0.246 OA
ATOM      8  O   UNL d   1       1.880   1.701   1.194  0.00  0.00    -0.267 OA
ATOM      9  C   UNL d   1      -2.163  -1.391  -0.757  0.00  0.00     0.162 C 
ATOM     10  C   UNL d   1       2.042  -1.027   1.510  0.00  0.00     0.164 C 
ENDROOT
BRANCH   1  11
ATOM     11  C   UNL d   1      -0.010   3.198  -0.107  0.00  0.00     0.086 C 
BRANCH  11  12
ATOM     12  C   UNL d   1       0.785   3.557  -1.384  0.00  0.00    -0.026 A 
ATOM     13  C   UNL d   1       1.619   4.693  -1.448  0.00  0.00     0.041 A 
ATOM     14 CL   UNL d   1       1.796   5.794  -0.125  0.00  0.00    -0.084 Cl
ATOM     15  C   UNL d   1       2.353   4.984  -2.605  0.00  0.00     0.024 A 
ATOM     16  C   UNL d   1       2.277   4.157  -3.721  0.00  0.00     0.002 A 
ATOM     17  C   UNL d   1       1.457   3.038  -3.688  0.00  0.00     0.001 A 
ATOM     18  C   UNL d   1       0.720   2.747  -2.538  0.00  0.00     0.009 A 
ENDBRANCH  11  12
BRANCH  11  19
ATOM     19  C   UNL d   1      -1.254   4.101   0.015  0.00  0.00     0.215 C 
BRANCH  19  20
ATOM     20  N   UNL d   1      -1.983   3.866   1.304  0.00  0.00    -0.155 N 
ATOM     21  O   UNL d   1      -3.218   3.944   1.261  0.00  0.00    -0.537 OA
ATOM     22  O   UNL d   1      -1.314   3.686   2.328  0.00  0.00    -0.537 OA
ENDBRANCH  19  20
ENDBRANCH  11  19
ENDBRANCH   1  11
BRANCH   3  23
ATOM     23  N   UNL d   1      -2.256   1.497  -1.091  0.00  0.00    -0.288 NA
ATOM     24  H   UNL d   1      -2.891   0.858  -1.549  0.00  0.00     0.125 HD
ATOM     25  H   UNL d   1      -1.972   2.203  -1.763  0.00  0.00     0.125 HD
ENDBRANCH   3  23
TORSDOF 5
