REMARK  3 active torsions:
REMARK  status: ('A' for Active; 'I' for Inactive)
REMARK    1  A    between atoms: N_2  and  S_1 
REMARK    2  A    between atoms: C_5  and  S_1 
REMARK    3  A    between atoms: C_3  and  N_4 
ROOT
ATOM      1  N   UNL d   1       0.392  -0.045  -1.388  0.00  0.00    -0.203 NA
ATOM      2  N   UNL d   1      -2.467   0.221  -1.422  0.00  0.00    -0.215 N 
ATOM      3  C   UNL d   1      -0.256   1.274  -1.704  0.00  0.00     0.128 C 
ATOM      4  C   UNL d   1      -0.507  -1.183  -1.767  0.00  0.00     0.128 C 
ATOM      5  C   UNL d   1      -1.881  -1.077  -1.084  0.00  0.00     0.157 C 
ATOM      6  C   UNL d   1      -1.665   1.397  -1.073  0.00  0.00     0.157 C 
ENDROOT
BRANCH   1   7
ATOM      7  S   UNL d   1       1.157  -0.168   0.123  0.00  0.00     0.243 S 
ATOM      8  O   UNL d   1       1.272  -1.568   0.478  0.00  0.00    -0.206 OA
ATOM      9  O   UNL d   1       0.564   0.795   1.024  0.00  0.00    -0.206 OA
BRANCH   7  10
ATOM     10  C   UNL d   1       2.808   0.382  -0.259  0.00  0.00     0.074 A 
ATOM     11  C   UNL d   1       3.337   1.518   0.361  0.00  0.00     0.026 A 
ATOM     12  C   UNL d   1       4.653   1.900   0.084  0.00  0.00     0.025 A 
ATOM     13  C   UNL d   1       5.427   1.147  -0.801  0.00  0.00     0.034 A 
ATOM     14  C   UNL d   1       4.901   0.007  -1.410  0.00  0.00     0.025 A 
ATOM     15 CL   UNL d   1       7.045   1.624  -1.139  0.00  0.00    -0.084 Cl
ATOM     16  C   UNL d   1       3.587  -0.381  -1.137  0.00  0.00     0.026 A 
ENDBRANCH   7  10
ENDBRANCH   1   7
BRANCH   2  17
ATOM     17  C   UNL d   1      -3.831   0.339  -1.538  0.00  0.00     0.679 A 
ATOM     18  N   UNL d   1      -4.581  -0.776  -1.561  0.00  0.00    -0.202 N 
ATOM     19  C   UNL d   1      -5.902  -0.645  -1.785  0.00  0.00     0.107 A 
ATOM     20  HN  UNL d   1      -4.161  -1.694  -1.414  1.00  0.00     0.183 HD
ATOM     21  C   UNL d   1      -6.517   0.560  -1.996  0.00  0.00     0.035 A 
ATOM     22  C   UNL d   1      -5.684   1.647  -1.950  0.00  0.00     0.107 A 
ATOM     23  N   UNL d   1      -4.360   1.561  -1.723  0.00  0.00    -0.202 N 
ATOM     24  HN  UNL d   1      -3.776   2.397  -1.691  1.00  0.00     0.183 HD
ENDBRANCH   2  17
TORSDOF 3
