REMARK  5 active torsions:
REMARK  status: ('A' for Active; 'I' for Inactive)
REMARK    1  A    between atoms: C_2  and  S_1 
REMARK    2  A    between atoms: C_3  and  S_1 
REMARK    3  A    between atoms: C_10  and  N_16 
REMARK    4  A    between atoms: S_20  and  C_11 
REMARK    5  A    between atoms: N_16  and  C_13 
ROOT
ATOM      1  C   UNL d   1       0.539  -0.247  -1.579  0.00  0.00     0.160 C 
ATOM      2  C   UNL d   1      -0.242  -1.302  -1.870  0.00  0.00     0.141 C 
ATOM      3  C   UNL d   1       1.017   0.017  -0.278  0.00  0.00     0.113 C 
ATOM      4  N   UNL d   1       1.413   0.184   0.799  0.00  0.00    -0.191 NA
ENDROOT
BRANCH   1   5
ATOM      5  S   UNL d   1       0.930   0.899  -2.819  0.00  0.00     0.219 S 
ATOM      6  O   UNL d   1       0.398   2.187  -2.409  0.00  0.00    -0.216 OA
ATOM      7  O   UNL d   1       0.594   0.397  -4.140  0.00  0.00    -0.216 OA
BRANCH   5   8
ATOM      8  C   UNL d   1       2.705   1.039  -2.775  0.00  0.00     0.086 A 
ATOM      9  C   UNL d   1       3.537  -0.030  -3.114  0.00  0.00     0.056 A 
ATOM     10 CL   UNL d   1       2.965  -1.596  -3.556  0.00  0.00    -0.083 Cl
ATOM     11  C   UNL d   1       4.926   0.146  -3.086  0.00  0.00     0.025 A 
ATOM     12  C   UNL d   1       5.479   1.377  -2.727  0.00  0.00     0.002 A 
ATOM     13  C   UNL d   1       4.648   2.444  -2.400  0.00  0.00     0.002 A 
ATOM     14  C   UNL d   1       3.263   2.281  -2.427  0.00  0.00     0.025 A 
ENDBRANCH   5   8
ENDBRANCH   1   5
BRANCH   2  15
ATOM     15  N   UNL d   1      -0.735  -2.264  -1.019  0.00  0.00    -0.199 N 
ATOM     16  H   UNL d   1      -0.622  -2.175  -0.017  0.00  0.00     0.183 HD
BRANCH  15  17
ATOM     17  C   UNL d   1      -1.462  -3.405  -1.357  0.00  0.00     0.685 A 
ATOM     18  N   UNL d   1      -1.657  -3.712  -2.632  0.00  0.00    -0.170 N 
ATOM     19  C   UNL d   1      -2.341  -4.828  -2.857  0.00  0.00     0.160 A 
ATOM     20  HN  UNL d   1      -1.303  -3.130  -3.390  1.00  0.00     0.186 HD
ATOM     21  N   UNL d   1      -2.844  -5.623  -1.916  0.00  0.00    -0.326 N 
ATOM     22  C   UNL d   1      -2.608  -5.223  -0.669  0.00  0.00     0.095 A 
ATOM     23  HN  UNL d   1      -3.367  -6.471  -2.133  1.00  0.00     0.169 HD
ATOM     24  N   UNL d   1      -1.915  -4.131  -0.340  0.00  0.00    -0.181 N 
ATOM     25  C   UNL d   1      -3.160  -6.047   0.454  0.00  0.00     0.089 C 
ATOM     26  HN  UNL d   1      -1.743  -3.870   0.631  1.00  0.00     0.185 HD
BRANCH  19  27
ATOM     27  S   UNL d   1      -2.578  -5.236  -4.573  0.00  0.00    -0.098 SA
ATOM     28  C   UNL d   1      -3.495  -6.787  -4.434  0.00  0.00     0.099 C 
ENDBRANCH  19  27
ENDBRANCH  15  17
ENDBRANCH   2  15
TORSDOF 5
