REMARK  5 active torsions:
REMARK  status: ('A' for Active; 'I' for Inactive)
REMARK    1  A    between atoms: N_5  and  C_11 
REMARK    2  A    between atoms: C_7  and  C_9 
REMARK    3  A    between atoms: C_10  and  C_8 
REMARK    4  A    between atoms: S_15  and  C_12 
REMARK    5  A    between atoms: C_17  and  S_15 
ROOT
ATOM      1  C   UNL d   1      -3.831   0.423  -0.049  0.00  0.00    -0.015 A 
ATOM      2  C   UNL d   1      -6.086  -0.125  -0.766  0.00  0.00     0.103 A 
ATOM      3  C   UNL d   1      -4.007  -0.369   1.109  0.00  0.00     0.017 A 
ATOM      4  C   UNL d   1      -4.877   0.553  -0.974  0.00  0.00     0.048 A 
ATOM      5  C   UNL d   1      -6.246  -0.963   0.340  0.00  0.00     0.037 A 
ATOM      6  C   UNL d   1      -5.204  -1.089   1.261  0.00  0.00     0.022 A 
ENDROOT
BRANCH   3   7
ATOM      7  S   UNL d   1      -2.729  -0.498   2.365  0.00  0.00    -0.072 SA
BRANCH   7   8
ATOM      8  C   UNL d   1      -3.581  -0.111   3.892  0.00  0.00     0.074 A 
ATOM      9  N   UNL d   1      -4.841   0.376   3.836  0.00  0.00    -0.359 N 
ATOM     10  C   UNL d   1      -5.500   0.572   5.002  0.00  0.00     0.105 A 
ATOM     11  HN  UNL d   1      -5.283   0.589   2.941  1.00  0.00     0.166 HD
ATOM     12  C   UNL d   1      -4.957   0.315   6.250  0.00  0.00     0.063 A 
ATOM     13  C   UNL d   1      -3.637  -0.140   6.291  0.00  0.00     0.020 A 
ATOM     14  C   UNL d   1      -2.940  -0.357   5.101  0.00  0.00     0.038 A 
BRANCH  12  15
ATOM     15  C   UNL d   1      -5.771   0.501   7.493  0.00  0.00     0.418 C 
ATOM     16  F   UNL d   1      -7.057   0.880   7.251  0.00  0.00    -0.166 F 
ATOM     17  F   UNL d   1      -5.856  -0.642   8.230  0.00  0.00    -0.166 F 
ATOM     18  F   UNL d   1      -5.252   1.444   8.324  0.00  0.00    -0.166 F 
ENDBRANCH  12  15
ENDBRANCH   7   8
ENDBRANCH   3   7
BRANCH   1  19
ATOM     19  C   UNL d   1      -2.568   1.104  -0.374  0.00  0.00     0.037 C 
ATOM     20  C   UNL d   1      -1.551   0.527  -1.028  0.00  0.00     0.076 A 
ATOM     21  C   UNL d   1      -0.296   1.258  -1.346  0.00  0.00     0.264 A 
ATOM     22  S   UNL d   1      -1.439  -1.102  -1.592  0.00  0.00    -0.055 SA
ATOM     23  N   UNL d   1       0.600   0.400  -1.919  0.00  0.00    -0.307 N 
ATOM     24  O   UNL d   1      -0.088   2.440  -1.128  0.00  0.00    -0.267 OA
ATOM     25  C   UNL d   1       0.220  -0.894  -2.106  0.00  0.00     0.146 A 
ATOM     26  H   UNL d   1       1.521   0.724  -2.172  0.00  0.00     0.170 HD
ATOM     27  S   UNL d   1       1.215  -2.065  -2.722  0.00  0.00    -0.052 SA
ENDBRANCH   1  19
BRANCH   2  28
ATOM     28  N   UNL d   1      -7.188   0.045  -1.720  0.00  0.00    -0.116 N 
ATOM     29  O   UNL d   1      -7.005   0.802  -2.684  0.00  0.00    -0.532 OA
ATOM     30  O   UNL d   1      -8.239  -0.569  -1.500  0.00  0.00    -0.532 OA
ENDBRANCH   2  28
TORSDOF 5
