REMARK  2 active torsions:
REMARK  status: ('A' for Active; 'I' for Inactive)
REMARK       I    between atoms: N_2  and  C_1 
REMARK    1  A    between atoms: C_7  and  C_1 
REMARK    2  A    between atoms: C_3  and  N_2 
ROOT
ATOM      1  C   UNL d   1       1.134  -0.130  -0.496  0.00  0.00     0.256 C 
ATOM      2  N   UNL d   1       0.505  -1.173   0.153  0.00  0.00    -0.321 N 
ATOM      3  O   UNL d   1       0.584   0.765  -1.130  0.00  0.00    -0.267 OA
ATOM      4  H   UNL d   1       0.987  -1.599   0.940  0.00  0.00     0.169 HD
ENDROOT
BRANCH   2   5
ATOM      5  C   UNL d   1      -0.843  -1.552  -0.046  0.00  0.00     0.057 A 
ATOM      6  C   UNL d   1      -1.530  -2.268   0.950  0.00  0.00     0.062 A 
ATOM      7  C   UNL d   1      -2.852  -2.676   0.755  0.00  0.00     0.050 A 
ATOM      8 CL   UNL d   1      -0.776  -2.631   2.465  0.00  0.00    -0.082 Cl
ATOM      9  C   UNL d   1      -3.484  -2.402  -0.457  0.00  0.00     0.035 A 
ATOM     10  C   UNL d   1      -2.812  -1.714  -1.462  0.00  0.00     0.026 A 
ATOM     11 CL   UNL d   1      -5.102  -2.924  -0.717  0.00  0.00    -0.084 Cl
ATOM     12  C   UNL d   1      -1.500  -1.283  -1.253  0.00  0.00     0.033 A 
ENDBRANCH   2   5
BRANCH   1  13
ATOM     13  C   UNL d   1       2.607  -0.107  -0.378  0.00  0.00     0.032 A 
ATOM     14  C   UNL d   1       3.348  -1.241  -0.733  0.00  0.00     0.017 A 
ATOM     15  C   UNL d   1       4.740  -1.170  -0.768  0.00  0.00     0.001 A 
ATOM     16  C   UNL d   1       5.387   0.022  -0.437  0.00  0.00     0.000 A 
ATOM     17  C   UNL d   1       4.646   1.147  -0.068  0.00  0.00     0.001 A 
ATOM     18  C   UNL d   1       3.252   1.087  -0.047  0.00  0.00     0.017 A 
ENDBRANCH   1  13
TORSDOF 2
