REMARK  1 active torsions:
REMARK  status: ('A' for Active; 'I' for Inactive)
REMARK    1  A    between atoms: C_9  and  C_3 
ROOT
ATOM      1  N   UNL d   1       5.192  -6.861   0.011  0.00  0.00    -0.191 NA
ATOM      2  C   UNL d   1       4.530  -5.908  -0.015  0.00  0.00     0.099 C 
ATOM      3  C   UNL d   1       2.055  -2.450  -0.015  0.00  0.00    -0.009 A 
ATOM      4  C   UNL d   1       2.986  -2.667   1.013  0.00  0.00     0.015 A 
ATOM      5  C   UNL d   1       1.987  -3.376  -1.065  0.00  0.00     0.015 A 
ATOM      6  C   UNL d   1       3.708  -4.732  -0.027  0.00  0.00     0.044 A 
ATOM      7  C   UNL d   1       2.804  -4.513  -1.071  0.00  0.00     0.023 A 
ATOM      8  C   UNL d   1       3.805  -3.801   1.009  0.00  0.00     0.023 A 
ENDROOT
BRANCH   3   9
ATOM      9  C   UNL d   1       1.165  -1.293  -0.006  0.00  0.00     0.049 A 
ATOM     10  N   UNL d   1       0.667  -0.749  -1.182  0.00  0.00    -0.353 N 
ATOM     11  C   UNL d   1      -0.110   0.279  -0.910  0.00  0.00     0.047 A 
ATOM     12  HN  UNL d   1       0.874  -1.094  -2.119  1.00  0.00     0.166 HD
ATOM     13  S   UNL d   1      -0.314   0.633   0.759  0.00  0.00    -0.087 SA
ATOM     14  C   UNL d   1      -0.797   1.119  -1.929  0.00  0.00     0.076 C 
ATOM     15  C   UNL d   1       0.718  -0.677   1.147  0.00  0.00     0.081 A 
ENDBRANCH   3   9
TORSDOF 1
