REMARK  6 active torsions:
REMARK  status: ('A' for Active; 'I' for Inactive)
REMARK       I    between atoms: N_4  and  C_1 
REMARK    1  A    between atoms: C_5  and  C_1 
REMARK    2  A    between atoms: C_8  and  N_2 
REMARK    3  A    between atoms: C_3  and  C_5 
REMARK    4  A    between atoms: C_11  and  N_4 
REMARK    5  A    between atoms: O_15  and  C_7 
REMARK    6  A    between atoms: C_14  and  C_8 
ROOT
ATOM      1  N   UNL d   1       2.337   3.251  -1.561  0.00  0.00     0.092 N 
ATOM      2  C   UNL d   1       0.717   3.634   0.357  0.00  0.00     0.055 C 
ATOM      3  C   UNL d   1       2.695   2.231   0.684  0.00  0.00     0.055 C 
ATOM      4  C   UNL d   1       1.210   2.348   1.030  0.00  0.00     0.087 C 
ATOM      5  C   UNL d   1       0.958   3.593  -1.159  0.00  0.00     0.275 C 
ATOM      6  C   UNL d   1       2.875   2.092  -0.825  0.00  0.00     0.275 C 
ENDROOT
BRANCH   4   7
ATOM      7  N   UNL d   1       0.397   1.210   0.580  0.00  0.00    -0.356 N 
ATOM      8  C   UNL d   1       0.783  -0.113   0.698  0.00  0.00     0.222 C 
ATOM      9  O   UNL d   1       1.784  -0.487   1.289  0.00  0.00    -0.273 OA
ATOM     10  H   UNL d   1      -0.591   1.376   0.439  0.00  0.00     0.162 HD
BRANCH   8  11
ATOM     11  C   UNL d   1      -0.120  -1.080  -0.049  0.00  0.00     0.144 C 
BRANCH  11  12
ATOM     12  C   UNL d   1      -1.053  -1.882   0.821  0.00  0.00    -0.016 A 
ATOM     13  C   UNL d   1      -1.423  -3.204   0.519  0.00  0.00     0.074 A 
ATOM     14  C   UNL d   1      -2.195  -3.934   1.434  0.00  0.00     0.037 A 
ATOM     15  C   UNL d   1      -2.650  -3.354   2.617  0.00  0.00     0.003 A 
ATOM     16  C   UNL d   1      -2.351  -2.029   2.892  0.00  0.00     0.001 A 
ATOM     17  C   UNL d   1      -1.570  -1.296   1.996  0.00  0.00     0.010 A 
BRANCH  13  18
ATOM     18  O   UNL d   1      -1.011  -3.943  -0.558  0.00  0.00    -0.355 OA
ATOM     19  C   UNL d   1      -1.087  -3.332  -1.840  0.00  0.00     0.210 C 
ENDBRANCH  13  18
ENDBRANCH  11  12
ENDBRANCH   8  11
ENDBRANCH   4   7
BRANCH   1  20
ATOM     20  C   UNL d   1       2.355   2.996  -3.022  0.00  0.00     0.311 C 
BRANCH  20  21
ATOM     21  C   UNL d   1       3.700   2.589  -3.585  0.00  0.00    -0.030 A 
ATOM     22  C   UNL d   1       3.871   1.326  -4.174  0.00  0.00     0.009 A 
ATOM     23  C   UNL d   1       5.115   0.936  -4.671  0.00  0.00     0.001 A 
ATOM     24  C   UNL d   1       6.200   1.807  -4.588  0.00  0.00     0.000 A 
ATOM     25  C   UNL d   1       6.041   3.066  -4.011  0.00  0.00     0.001 A 
ATOM     26  C   UNL d   1       4.797   3.457  -3.514  0.00  0.00     0.009 A 
ENDBRANCH  20  21
ENDBRANCH   1  20
TORSDOF 6
