REMARK  2 active torsions:
REMARK  status: ('A' for Active; 'I' for Inactive)
REMARK    1  A    between atoms: C_8  and  C_4 
REMARK    2  A    between atoms: O_15  and  C_8 
ROOT
ATOM      1  C   UNL d   1      -0.877  -0.449   0.014  0.00  0.00     0.024 A 
ATOM      2  S   UNL d   1      -1.721  -1.939   0.035  0.00  0.00    -0.083 SA
ATOM      3  C   UNL d   1      -1.753   0.622   0.005  0.00  0.00    -0.029 A 
ATOM      4  C   UNL d   1      -3.255  -1.190   0.026  0.00  0.00     0.081 A 
ATOM      5  C   UNL d   1       0.594  -0.379   0.005  0.00  0.00     0.001 A 
ATOM      6  C   UNL d   1      -3.125   0.183   0.018  0.00  0.00     0.034 A 
ATOM      7  S   UNL d   1       0.397   2.461   0.074  0.00  0.00    -0.124 SA
ATOM      8  C   UNL d   1       1.231   0.878   0.016  0.00  0.00     0.012 A 
ATOM      9  C   UNL d   1      -1.367   2.061  -0.032  0.00  0.00     0.119 A 
ATOM     10  C   UNL d   1       1.400  -1.534  -0.010  0.00  0.00     0.056 A 
ATOM     11  C   UNL d   1       2.639   0.951   0.006  0.00  0.00     0.022 A 
ATOM     12  C   UNL d   1       2.788  -1.437  -0.014  0.00  0.00     0.117 A 
ATOM     13  C   UNL d   1       3.417  -0.204  -0.009  0.00  0.00     0.043 A 
ATOM     14  F   UNL d   1       3.528  -2.553  -0.022  0.00  0.00    -0.206 F 
ENDROOT
BRANCH   4  15
ATOM     15  C   UNL d   1      -4.443  -2.026   0.026  0.00  0.00     0.299 C 
ATOM     16  O   UNL d   1      -4.463  -3.252   0.030  0.00  0.00    -0.259 OA
BRANCH  15  17
ATOM     17  O   UNL d   1      -5.568  -1.251   0.017  0.00  0.00    -0.322 OA
ATOM     18  C   UNL d   1      -6.777  -2.015   0.009  0.00  0.00     0.213 C 
ENDBRANCH  15  17
ENDBRANCH   4  15
TORSDOF 2
