REMARK  4 active torsions:
REMARK  status: ('A' for Active; 'I' for Inactive)
REMARK    1  A    between atoms: C_2  and  S_1 
REMARK    2  A    between atoms: C_6  and  S_1 
REMARK    3  A    between atoms: C_7  and  C_2 
REMARK    4  A    between atoms: N_3  and  C_7 
ROOT
ATOM      1  S   UNL d   1       0.836   0.367   0.047  0.00  0.00     0.177 S 
ATOM      2  O   UNL d   1       0.453   1.756  -0.126  0.00  0.00    -0.223 OA
ATOM      3  O   UNL d   1       2.230   0.007   0.229  0.00  0.00    -0.223 OA
ENDROOT
BRANCH   1   4
ATOM      4  C   UNL d   1       0.201  -0.571  -1.329  0.00  0.00     0.176 C 
BRANCH   4   5
ATOM      5  C   UNL d   1       0.846  -0.073  -2.624  0.00  0.00     0.287 C 
BRANCH   5   6
ATOM      6  N   UNL d   1       0.358  -0.750  -3.844  0.00  0.00     0.093 N 
ATOM      7  C   UNL d   1       0.690  -2.191  -3.908  0.00  0.00     0.298 C 
ATOM      8  C   UNL d   1       2.179  -2.483  -4.160  0.00  0.00     0.198 C 
ATOM      9  O   UNL d   1       2.631  -1.855  -5.365  0.00  0.00    -0.388 OA
ATOM     10  C   UNL d   1       2.408  -0.440  -5.317  0.00  0.00     0.198 C 
ATOM     11  C   UNL d   1       0.924  -0.112  -5.063  0.00  0.00     0.298 C 
ENDBRANCH   5   6
ENDBRANCH   4   5
ENDBRANCH   1   4
BRANCH   1  12
ATOM     12  C   UNL d   1      -0.054  -0.251   1.460  0.00  0.00     0.059 A 
ATOM     13  C   UNL d   1       0.460  -1.331   2.182  0.00  0.00     0.023 A 
ATOM     14  C   UNL d   1      -0.187  -1.752   3.346  0.00  0.00     0.002 A 
ATOM     15  C   UNL d   1      -1.335  -1.088   3.787  0.00  0.00     0.000 A 
ATOM     16  C   UNL d   1      -1.840  -0.005   3.066  0.00  0.00     0.002 A 
ATOM     17  C   UNL d   1      -1.200   0.420   1.901  0.00  0.00     0.023 A 
ENDBRANCH   1  12
TORSDOF 4
