REMARK  2 active torsions:
REMARK  status: ('A' for Active; 'I' for Inactive)
REMARK    1  A    between atoms: C_5  and  N_1 
REMARK    2  A    between atoms: O_19  and  C_10 
ROOT
ATOM      1  N   UNL d   1      -2.326  -0.761   0.147  0.00  0.00    -0.241 N 
ATOM      2  C   UNL d   1      -1.235  -1.596   0.230  0.00  0.00     0.268 A 
ATOM      3  C   UNL d   1      -1.943   0.564   0.179  0.00  0.00     0.266 A 
ATOM      4  C   UNL d   1      -0.065  -0.738   0.226  0.00  0.00     0.064 A 
ATOM      5  C   UNL d   1      -0.483   0.571   0.199  0.00  0.00     0.051 A 
ATOM      6  O   UNL d   1      -1.155  -2.809   0.249  0.00  0.00    -0.267 OA
ATOM      7  O   UNL d   1      -2.586   1.593   0.249  0.00  0.00    -0.267 OA
ATOM      8  N   UNL d   1       2.191  -0.032   0.182  0.00  0.00    -0.374 N 
ATOM      9  HN  UNL d   1       3.189  -0.242   0.168  1.00  0.00     0.164 HD
ATOM     10  C   UNL d   1       1.270  -1.026   0.208  0.00  0.00     0.105 A 
ATOM     11  C   UNL d   1       0.408   1.621   0.183  0.00  0.00     0.035 A 
ATOM     12  C   UNL d   1       1.744   1.259   0.177  0.00  0.00     0.088 A 
ENDROOT
BRANCH   1  13
ATOM     13  C   UNL d   1      -3.664  -1.216   0.058  0.00  0.00     0.081 A 
ATOM     14  C   UNL d   1      -4.070  -2.318   0.829  0.00  0.00     0.057 A 
ATOM     15  C   UNL d   1      -5.396  -2.755   0.800  0.00  0.00     0.036 A 
ATOM     16 CL   UNL d   1      -5.881  -4.075   1.792  0.00  0.00    -0.084 Cl
ATOM     17  C   UNL d   1      -6.334  -2.123  -0.010  0.00  0.00     0.026 A 
ATOM     18  C   UNL d   1      -5.940  -1.049  -0.806  0.00  0.00     0.041 A 
ATOM     19  C   UNL d   1      -4.611  -0.610  -0.789  0.00  0.00     0.095 A 
BRANCH  19  20
ATOM     20  O   UNL d   1      -4.322   0.401  -1.668  0.00  0.00    -0.354 OA
ATOM     21  C   UNL d   1      -3.426  -0.000  -2.705  0.00  0.00     0.210 C 
ENDBRANCH  19  20
ENDBRANCH   1  13
TORSDOF 2
