REMARK  2 active torsions:
REMARK  status: ('A' for Active; 'I' for Inactive)
REMARK    1  A    between atoms: C_9  and  C_4 
REMARK    2  A    between atoms: O_16  and  C_10 
ROOT
ATOM      1  C   UNL d   1      -2.077   0.303   0.069  0.00  0.00    -0.006 C 
ATOM      2  C   UNL d   1      -1.092  -0.822   0.035  0.00  0.00     0.189 C 
ATOM      3  C   UNL d   1       0.351  -0.431   0.026  0.00  0.00     0.021 A 
ATOM      4  C   UNL d   1      -3.283   0.100  -0.492  0.00  0.00     0.022 C 
ATOM      5  C   UNL d   1       0.732   0.924  -0.024  0.00  0.00    -0.044 A 
ATOM      6  C   UNL d   1      -1.567   1.575   0.684  0.00  0.00     0.047 C 
ATOM      7  O   UNL d   1      -1.437  -1.998  -0.007  0.00  0.00    -0.287 OA
ATOM      8  C   UNL d   1      -0.303   2.018  -0.040  0.00  0.00     0.044 C 
ATOM      9  C   UNL d   1       1.330  -1.433   0.032  0.00  0.00     0.016 A 
ATOM     10  C   UNL d   1       2.092   1.253  -0.102  0.00  0.00     0.008 A 
ATOM     11  C   UNL d   1       2.682  -1.089  -0.025  0.00  0.00     0.001 A 
ATOM     12  C   UNL d   1       3.061   0.250  -0.098  0.00  0.00     0.001 A 
ENDROOT
BRANCH   4  13
ATOM     13  C   UNL d   1      -4.279   1.159  -0.661  0.00  0.00    -0.035 A 
ATOM     14  C   UNL d   1      -4.260   1.938  -1.823  0.00  0.00     0.014 A 
ATOM     15  C   UNL d   1      -5.153   3.004  -1.980  0.00  0.00     0.037 A 
ATOM     16  C   UNL d   1      -6.073   3.300  -0.974  0.00  0.00     0.068 A 
ATOM     17  C   UNL d   1      -6.105   2.506   0.176  0.00  0.00     0.037 A 
ATOM     18  C   UNL d   1      -5.213   1.441   0.337  0.00  0.00     0.014 A 
BRANCH  16  19
ATOM     19  O   UNL d   1      -6.977   4.327  -0.992  0.00  0.00    -0.356 OA
ATOM     20  C   UNL d   1      -6.960   5.177  -2.133  0.00  0.00     0.210 C 
ENDBRANCH  16  19
ENDBRANCH   4  13
TORSDOF 2
