REMARK  7 active torsions:
REMARK  status: ('A' for Active; 'I' for Inactive)
REMARK       I    between atoms: C_3  and  N_1 
REMARK    1  A    between atoms: C_6  and  N_1 
REMARK    2  A    between atoms: C_4  and  C_3 
REMARK    3  A    between atoms: C_7  and  C_8 
REMARK    4  A    between atoms: O_14  and  C_7 
REMARK    5  A    between atoms: S_12  and  C_9 
REMARK    6  A    between atoms: C_16  and  S_12 
REMARK    7  A    between atoms: C_13  and  C_16 
ROOT
ATOM      1  N   UNL d   1      -1.627   3.623   1.857  0.00  0.00    -0.197 NA
ATOM      2  C   UNL d   1      -0.546   3.417   1.501  0.00  0.00     0.059 C 
ATOM      3  C   UNL d   1       0.824   3.164   1.027  0.00  0.00     0.134 C 
ENDROOT
BRANCH   3   4
ATOM      4  C   UNL d   1       0.798   2.716  -0.429  0.00  0.00     0.093 C 
BRANCH   4   5
ATOM      5  S   UNL d   1       2.464   2.541  -1.149  0.00  0.00    -0.127 SA
BRANCH   5   6
ATOM      6  C   UNL d   1       3.186   0.973  -0.655  0.00  0.00     0.027 A 
ATOM      7  C   UNL d   1       2.654  -0.120   0.048  0.00  0.00     0.051 A 
ATOM      8  C   UNL d   1       3.430  -1.287   0.233  0.00  0.00     0.031 A 
ATOM      9  C   UNL d   1       4.765  -1.342  -0.147  0.00  0.00     0.002 A 
ATOM     10  C   UNL d   1       5.337  -0.234  -0.747  0.00  0.00     0.002 A 
ATOM     11  C   UNL d   1       4.551   0.891  -1.018  0.00  0.00     0.021 A 
BRANCH   7  12
ATOM     12  N   UNL d   1       1.383  -0.102   0.649  0.00  0.00    -0.322 N 
ATOM     13  C   UNL d   1       1.095  -0.500   1.937  0.00  0.00     0.245 C 
ATOM     14  O   UNL d   1      -0.056  -0.699   2.310  0.00  0.00    -0.268 OA
ATOM     15  H   UNL d   1       0.581   0.069   0.059  0.00  0.00     0.169 HD
BRANCH  13  16
ATOM     16  C   UNL d   1       2.242  -0.593   2.874  0.00  0.00     0.081 C 
ATOM     17  C   UNL d   1       2.196  -1.383   3.954  0.00  0.00     0.086 C 
BRANCH  17  18
ATOM     18  C   UNL d   1       3.442  -1.530   4.724  0.00  0.00     0.165 C 
ATOM     19  O   UNL d   1       4.530  -1.118   4.359  0.00  0.00    -0.647 OA
BRANCH  18  20
ATOM     20  O   UNL d   1       3.256  -2.203   5.875  0.00  0.00    -0.773 OA
ATOM     21  H   UNL d   1       2.332  -2.442   6.077  0.00  0.00     0.167 HD
ENDBRANCH  18  20
ENDBRANCH  17  18
ENDBRANCH  13  16
ENDBRANCH   7  12
ENDBRANCH   5   6
ENDBRANCH   4   5
ENDBRANCH   3   4
TORSDOF 7
