REMARK  1 active torsions:
REMARK  status: ('A' for Active; 'I' for Inactive)
REMARK    1  A    between atoms: C_4  and  N_1 
ROOT
ATOM      1  N   UNL d   1       2.604   0.019   0.218  0.00  0.00    -0.252 N 
ATOM      2  C   UNL d   1       1.975   1.076  -0.433  0.00  0.00     0.232 C 
ATOM      3  C   UNL d   1       1.898  -1.168   0.393  0.00  0.00     0.232 C 
ATOM      4  C   UNL d   1       0.502  -0.955   0.944  0.00  0.00     0.113 C 
ATOM      5  C   UNL d   1       0.581   1.370   0.055  0.00  0.00     0.113 C 
ATOM      6  C   UNL d   1      -0.288   0.127   0.204  0.00  0.00    -0.024 C 
ATOM      7  O   UNL d   1       2.314  -2.310   0.213  0.00  0.00    -0.273 OA
ATOM      8  O   UNL d   1       2.497   1.793  -1.289  0.00  0.00    -0.273 OA
ATOM      9  C   UNL d   1      -0.798  -0.389  -1.160  0.00  0.00     0.010 C 
ATOM     10  C   UNL d   1      -1.572   0.479   1.002  0.00  0.00     0.010 C 
ATOM     11  C   UNL d   1      -2.234  -0.822  -0.894  0.00  0.00     0.001 C 
ATOM     12  C   UNL d   1      -2.740   0.249   0.054  0.00  0.00     0.001 C 
ENDROOT
BRANCH   1  13
ATOM     13  C   UNL d   1       4.016   0.112   0.470  0.00  0.00     0.048 A 
ATOM     14  C   UNL d   1       4.865  -0.999   0.589  0.00  0.00     0.070 A 
ATOM     15  C   UNL d   1       6.174  -0.788   0.985  0.00  0.00     0.107 A 
ATOM     16  O   UNL d   1       7.122  -1.753   1.137  0.00  0.00    -0.323 OA
ATOM     17  C   UNL d   1       6.656   0.462   1.293  0.00  0.00     0.105 A 
ATOM     18  C   UNL d   1       8.261  -0.957   1.527  0.00  0.00     0.352 A 
ATOM     19  O   UNL d   1       7.952   0.441   1.694  0.00  0.00    -0.323 OA
ATOM     20  C   UNL d   1       5.865   1.578   1.202  0.00  0.00     0.042 A 
ATOM     21  C   UNL d   1       4.549   1.399   0.772  0.00  0.00     0.033 A 
ENDBRANCH   1  13
TORSDOF 1
