REMARK  3 active torsions:
REMARK  status: ('A' for Active; 'I' for Inactive)
REMARK    1  A    between atoms: N_2  and  C_1 
REMARK    2  A    between atoms: C_9  and  C_4 
REMARK    3  A    between atoms: O_21  and  C_16 
ROOT
ATOM      1  C   UNL d   1       2.365  -0.839  -0.054  0.00  0.00     0.115 C 
ATOM      2  C   UNL d   1       1.234  -1.551  -0.070  0.00  0.00     0.049 C 
ATOM      3  C   UNL d   1       2.460   0.653   0.006  0.00  0.00     0.218 C 
ATOM      4  O   UNL d   1       1.185   1.343  -0.095  0.00  0.00    -0.334 OA
ATOM      5  C   UNL d   1      -0.007  -0.789  -0.033  0.00  0.00     0.001 A 
ATOM      6  C   UNL d   1       0.031   0.611  -0.046  0.00  0.00     0.080 A 
ATOM      7  C   UNL d   1      -1.243  -1.445  -0.005  0.00  0.00     0.038 A 
ATOM      8  C   UNL d   1      -1.154   1.347  -0.024  0.00  0.00     0.039 A 
ATOM      9  C   UNL d   1      -2.424  -0.702   0.012  0.00  0.00     0.035 A 
ATOM     10  C   UNL d   1      -2.385   0.691   0.006  0.00  0.00     0.026 A 
ATOM     11 CL   UNL d   1      -3.941  -1.513   0.034  0.00  0.00    -0.084 Cl
ENDROOT
BRANCH   3  12
ATOM     12  C   UNL d   1       3.117   1.171   1.280  0.00  0.00    -0.023 A 
ATOM     13  C   UNL d   1       4.301   1.919   1.220  0.00  0.00     0.013 A 
ATOM     14  C   UNL d   1       4.900   2.393   2.391  0.00  0.00     0.037 A 
ATOM     15  C   UNL d   1       4.332   2.133   3.640  0.00  0.00     0.068 A 
ATOM     16  C   UNL d   1       3.149   1.399   3.708  0.00  0.00     0.037 A 
ATOM     17  C   UNL d   1       2.550   0.919   2.539  0.00  0.00     0.013 A 
BRANCH  15  18
ATOM     18  O   UNL d   1       5.022   2.639   4.707  0.00  0.00    -0.356 OA
ATOM     19  C   UNL d   1       4.475   2.392   5.997  0.00  0.00     0.210 C 
ENDBRANCH  15  18
ENDBRANCH   3  12
BRANCH   1  20
ATOM     20  N   UNL d   1       3.621  -1.553  -0.152  0.00  0.00    -0.117 N 
ATOM     21  O   UNL d   1       3.663  -2.713   0.277  0.00  0.00    -0.532 OA
ATOM     22  O   UNL d   1       4.569  -0.958  -0.681  0.00  0.00    -0.532 OA
ENDBRANCH   1  20
TORSDOF 3
