REMARK  8 active torsions:
REMARK  status: ('A' for Active; 'I' for Inactive)
REMARK    1  A    between atoms: C_13  and  C_3 
REMARK       I    between atoms: C_6  and  N_10 
REMARK    2  A    between atoms: C_14  and  C_6 
REMARK    3  A    between atoms: C_7  and  C_15 
REMARK    4  A    between atoms: O_11  and  C_7 
REMARK    5  A    between atoms: N_10  and  C_12 
REMARK    6  A    between atoms: C_12  and  C_13 
REMARK    7  A    between atoms: C_16  and  C_14 
REMARK    8  A    between atoms: C_15  and  C_16 
ROOT
ATOM      1  C   UNL d   1      -0.909  -3.642   0.016  0.00  0.00     0.127 C 
ENDROOT
BRANCH   1   2
ATOM      2  N   UNL d   1      -1.261  -5.050  -0.052  0.00  0.00    -0.361 N 
ATOM      3  C   UNL d   1      -0.276  -5.999   0.084  0.00  0.00     0.217 C 
ATOM      4  O   UNL d   1       0.917  -5.724   0.138  0.00  0.00    -0.274 OA
ATOM      5  H   UNL d   1      -2.230  -5.313   0.097  0.00  0.00     0.162 HD
BRANCH   3   6
ATOM      6  C   UNL d   1      -0.779  -7.426   0.160  0.00  0.00     0.103 C 
BRANCH   6   7
ATOM      7  C   UNL d   1       0.215  -8.336   0.886  0.00  0.00     0.019 C 
BRANCH   7   8
ATOM      8  C   UNL d   1       0.392  -7.940   2.350  0.00  0.00     0.110 C 
BRANCH   8   9
ATOM      9  C   UNL d   1       1.397  -8.832   3.028  0.00  0.00     0.139 C 
ATOM     10  O   UNL d   1       1.106  -9.863   3.615  0.00  0.00    -0.650 OA
BRANCH   9  11
ATOM     11  O   UNL d   1       2.671  -8.396   2.901  0.00  0.00    -0.776 OA
ATOM     12  H   UNL d   1       2.753  -7.572   2.382  0.00  0.00     0.167 HD
ENDBRANCH   9  11
ENDBRANCH   8   9
ENDBRANCH   7   8
ENDBRANCH   6   7
ENDBRANCH   3   6
ENDBRANCH   1   2
BRANCH   1  13
ATOM     13  C   UNL d   1      -2.103  -2.687  -0.034  0.00  0.00     0.060 C 
BRANCH  13  14
ATOM     14  C   UNL d   1      -3.003  -2.771   1.164  0.00  0.00    -0.029 A 
ATOM     15  C   UNL d   1      -2.633  -2.575   2.482  0.00  0.00     0.096 A 
ATOM     16  N   UNL d   1      -3.742  -2.714   3.271  0.00  0.00    -0.365 N 
ATOM     17  C   UNL d   1      -4.843  -2.990   2.496  0.00  0.00     0.042 A 
ATOM     18  H   UNL d   1      -3.760  -2.615   4.277  0.00  0.00     0.165 HD
ATOM     19  C   UNL d   1      -4.415  -3.024   1.169  0.00  0.00    -0.002 A 
ATOM     20  C   UNL d   1      -6.176  -3.200   2.872  0.00  0.00     0.030 A 
ATOM     21  C   UNL d   1      -5.374  -3.270   0.164  0.00  0.00     0.014 A 
ATOM     22  C   UNL d   1      -6.712  -3.480   0.522  0.00  0.00     0.001 A 
ATOM     23  C   UNL d   1      -7.104  -3.448   1.857  0.00  0.00     0.002 A 
ENDBRANCH  13  14
ENDBRANCH   1  13
TORSDOF 8
