REMARK  4 active torsions:
REMARK  status: ('A' for Active; 'I' for Inactive)
REMARK    1  A    between atoms: C_2  and  C_1 
REMARK       I    between atoms: N_7  and  C_1 
REMARK    2  A    between atoms: N_5  and  C_3 
REMARK       I    between atoms: C_4  and  N_5 
REMARK    3  A    between atoms: C_6  and  C_4 
REMARK    4  A    between atoms: C_11  and  N_7 
ROOT
ATOM      1  C   UNL d   1       0.126  -1.360  -0.207  0.00  0.00     0.097 A 
ATOM      2  C   UNL d   1      -0.647  -1.031  -1.337  0.00  0.00     0.053 A 
ATOM      3  C   UNL d   1       0.323  -2.711   0.109  0.00  0.00     0.134 A 
ATOM      4  F   UNL d   1       1.055  -3.072   1.175  0.00  0.00    -0.205 F 
ATOM      5  C   UNL d   1      -1.286  -2.062  -2.049  0.00  0.00     0.031 A 
ATOM      6  C   UNL d   1      -1.097  -3.401  -1.705  0.00  0.00     0.005 A 
ATOM      7  C   UNL d   1      -0.268  -3.727  -0.639  0.00  0.00     0.043 A 
ENDROOT
BRANCH   1   8
ATOM      8  C   UNL d   1       0.462  -0.362   0.845  0.00  0.00     0.261 C 
ATOM      9  N   UNL d   1       1.707  -0.499   1.436  0.00  0.00    -0.323 N 
ATOM     10  H   UNL d   1       2.352  -1.141   0.989  0.00  0.00     0.169 HD
ATOM     11  O   UNL d   1      -0.403   0.455   1.147  0.00  0.00    -0.267 OA
BRANCH   9  12
ATOM     12  C   UNL d   1       2.163   0.134   2.611  0.00  0.00     0.036 A 
ATOM     13  C   UNL d   1       1.349   0.919   3.433  0.00  0.00     0.056 A 
ATOM     14  C   UNL d   1       1.861   1.473   4.610  0.00  0.00     0.074 A 
ATOM     15 CL   UNL d   1       0.833   2.415   5.622  0.00  0.00    -0.081 Cl
ATOM     16  C   UNL d   1       3.188   1.250   4.965  0.00  0.00     0.138 A 
ATOM     17  C   UNL d   1       4.010   0.472   4.158  0.00  0.00     0.046 A 
ATOM     18  F   UNL d   1       3.696   1.772   6.091  0.00  0.00    -0.204 F 
ATOM     19  C   UNL d   1       3.497  -0.089   2.986  0.00  0.00     0.032 A 
ENDBRANCH   9  12
ENDBRANCH   1   8
BRANCH   2  20
ATOM     20  N   UNL d   1      -0.845   0.266  -1.855  0.00  0.00    -0.321 N 
ATOM     21  C   UNL d   1       0.067   1.310  -1.831  0.00  0.00     0.263 C 
ATOM     22  O   UNL d   1       1.209   1.196  -1.389  0.00  0.00    -0.267 OA
ATOM     23  H   UNL d   1      -1.624   0.403  -2.488  0.00  0.00     0.169 HD
BRANCH  21  24
ATOM     24  C   UNL d   1      -0.395   2.534  -2.489  0.00  0.00     0.072 A 
ATOM     25  S   UNL d   1      -1.924   2.631  -3.270  0.00  0.00    -0.097 SA
ATOM     26  C   UNL d   1      -1.660   4.248  -3.752  0.00  0.00     0.050 A 
ATOM     27  C   UNL d   1      -0.438   4.718  -3.330  0.00  0.00     0.009 A 
ATOM     28  C   UNL d   1       0.291   3.730  -2.606  0.00  0.00     0.025 A 
ENDBRANCH  21  24
ENDBRANCH   2  20
TORSDOF 4
