REMARK  8 active torsions:
REMARK  status: ('A' for Active; 'I' for Inactive)
REMARK    1  A    between atoms: C_6  and  C_1 
REMARK    2  A    between atoms: C_7  and  C_1 
REMARK    3  A    between atoms: C_14  and  C_1 
REMARK    4  A    between atoms: C_2  and  C_6 
REMARK       I    between atoms: N_8  and  C_2 
REMARK    5  A    between atoms: C_3  and  C_7 
REMARK    6  A    between atoms: O_16  and  C_3 
REMARK    7  A    between atoms: C_4  and  C_15 
REMARK    8  A    between atoms: C_15  and  N_8 
ROOT
ATOM      1  C   UNL d   1       1.148   0.133   0.409  0.00  0.00     0.037 C 
ENDROOT
BRANCH   1   2
ATOM      2  C   UNL d   1       0.526  -0.971   1.290  0.00  0.00     0.112 C 
BRANCH   2   3
ATOM      3  C   UNL d   1      -0.887  -1.335   0.887  0.00  0.00     0.218 C 
ATOM      4  N   UNL d   1      -1.446  -2.313   1.671  0.00  0.00    -0.355 N 
ATOM      5  H   UNL d   1      -0.941  -2.708   2.456  0.00  0.00     0.162 HD
ATOM      6  O   UNL d   1      -1.475  -0.828  -0.063  0.00  0.00    -0.274 OA
BRANCH   4   7
ATOM      7  C   UNL d   1      -2.782  -2.794   1.419  0.00  0.00     0.187 C 
BRANCH   7   8
ATOM      8  C   UNL d   1      -3.168  -3.852   2.390  0.00  0.00     0.070 A 
ATOM      9  O   UNL d   1      -2.231  -4.283   3.288  0.00  0.00    -0.325 OA
ATOM     10  C   UNL d   1      -2.821  -5.239   4.051  0.00  0.00     0.142 A 
ATOM     11  C   UNL d   1      -4.126  -5.433   3.659  0.00  0.00     0.027 A 
ATOM     12  C   UNL d   1      -4.351  -4.537   2.587  0.00  0.00     0.036 A 
ENDBRANCH   7   8
ENDBRANCH   4   7
ENDBRANCH   2   3
ENDBRANCH   1   2
BRANCH   1  13
ATOM     13  C   UNL d   1       0.485   1.524   0.479  0.00  0.00     0.119 C 
BRANCH  13  14
ATOM     14  C   UNL d   1       0.406   2.179   1.840  0.00  0.00     0.140 C 
ATOM     15  O   UNL d   1       0.418   1.600   2.914  0.00  0.00    -0.650 OA
BRANCH  14  16
ATOM     16  O   UNL d   1       0.249   3.522   1.760  0.00  0.00    -0.776 OA
ATOM     17  H   UNL d   1       0.215   3.864   0.847  0.00  0.00     0.167 HD
ENDBRANCH  14  16
ENDBRANCH  13  14
ENDBRANCH   1  13
BRANCH   1  18
ATOM     18  C   UNL d   1       2.661   0.207   0.591  0.00  0.00    -0.053 A 
ATOM     19  C   UNL d   1       3.498   0.118  -0.533  0.00  0.00     0.007 A 
ATOM     20  C   UNL d   1       4.888   0.116  -0.393  0.00  0.00     0.001 A 
ATOM     21  C   UNL d   1       5.461   0.215   0.871  0.00  0.00     0.000 A 
ATOM     22  C   UNL d   1       4.646   0.330   1.994  0.00  0.00     0.001 A 
ATOM     23  C   UNL d   1       3.255   0.329   1.856  0.00  0.00     0.007 A 
ENDBRANCH   1  18
TORSDOF 8
