REMARK  3 active torsions:
REMARK  status: ('A' for Active; 'I' for Inactive)
REMARK    1  A    between atoms: C_7  and  N_1 
REMARK    2  A    between atoms: O_9  and  C_4 
REMARK    3  A    between atoms: C_8  and  C_6 
ROOT
ATOM      1  N   UNL d   1       0.796  -0.721  -0.058  0.00  0.00    -0.262 N 
ATOM      2  N   UNL d   1       0.883   0.628  -0.102  0.00  0.00    -0.295 N 
ATOM      3  HN  UNL d   1       1.730   1.190  -0.187  1.00  0.00     0.187 HD
ATOM      4  C   UNL d   1      -0.517  -1.154  -0.005  0.00  0.00     0.160 A 
ATOM      5  C   UNL d   1      -1.281  -0.013   0.030  0.00  0.00     0.089 A 
ATOM      6  C   UNL d   1      -0.378   1.074  -0.010  0.00  0.00     0.062 A 
ENDROOT
BRANCH   6   7
ATOM      7  C   UNL d   1      -0.682   2.505   0.044  0.00  0.00    -0.008 A 
ATOM      8  C   UNL d   1       0.171   3.436  -0.565  0.00  0.00     0.014 A 
ATOM      9  C   UNL d   1      -0.107   4.804  -0.505  0.00  0.00     0.001 A 
ATOM     10  C   UNL d   1      -1.238   5.255   0.172  0.00  0.00     0.000 A 
ATOM     11  C   UNL d   1      -2.093   4.341   0.784  0.00  0.00     0.001 A 
ATOM     12  C   UNL d   1      -1.820   2.973   0.719  0.00  0.00     0.014 A 
ENDBRANCH   6   7
BRANCH   1  13
ATOM     13  C   UNL d   1       2.048  -1.506  -0.021  0.00  0.00     0.045 C 
ATOM     14  C   UNL d   1       3.302  -0.591  -0.067  0.00  0.00     0.039 C 
ATOM     15  C   UNL d   1       2.129  -2.309   1.292  0.00  0.00     0.039 C 
ATOM     16  C   UNL d   1       2.141  -2.445  -1.238  0.00  0.00     0.039 C 
ENDBRANCH   1  13
BRANCH   4  17
ATOM     17  O   UNL d   1      -0.938  -2.414   0.024  0.00  0.00    -0.345 OA
ATOM     18  H   UNL d   1      -0.197  -3.034  -0.019  0.00  0.00     0.219 HD
ENDBRANCH   4  17
TORSDOF 3
