REMARK  5 active torsions:
REMARK  status: ('A' for Active; 'I' for Inactive)
REMARK    1  A    between atoms: C_3  and  C_1 
REMARK       I    between atoms: N_7  and  C_3 
REMARK    2  A    between atoms: C_13  and  N_7 
REMARK    3  A    between atoms: O_14  and  C_11 
REMARK    4  A    between atoms: C_16  and  C_13 
REMARK    5  A    between atoms: O_15  and  C_16 
ROOT
ATOM      1  C   UNL d   1      -2.367  -0.177  -0.437  0.00  0.00     0.102 A 
ATOM      2  N   UNL d   1      -1.604   0.954  -0.225  0.00  0.00    -0.351 N 
ATOM      3  C   UNL d   1      -1.470  -1.224  -0.579  0.00  0.00     0.049 A 
ATOM      4  C   UNL d   1      -0.154  -0.722  -0.377  0.00  0.00    -0.004 A 
ATOM      5  C   UNL d   1      -0.265   0.650  -0.169  0.00  0.00     0.043 A 
ATOM      6  C   UNL d   1       1.124  -1.310  -0.338  0.00  0.00     0.050 A 
ATOM      7  C   UNL d   1       0.851   1.467   0.057  0.00  0.00     0.033 A 
ATOM      8  C   UNL d   1       2.254  -0.520  -0.083  0.00  0.00     0.069 A 
ATOM      9  C   UNL d   1       2.112   0.854   0.102  0.00  0.00     0.039 A 
ATOM     10  H   UNL d   1      -2.002   1.875  -0.088  0.00  0.00     0.166 HD
ENDROOT
BRANCH   1  11
ATOM     11  C   UNL d   1      -3.815  -0.116  -0.453  0.00  0.00     0.268 C 
ATOM     12  N   UNL d   1      -4.457  -1.305  -0.731  0.00  0.00    -0.349 N 
ATOM     13  H   UNL d   1      -3.895  -2.139  -0.804  0.00  0.00     0.163 HD
ATOM     14  O   UNL d   1      -4.419   0.924  -0.218  0.00  0.00    -0.266 OA
BRANCH  12  15
ATOM     15  C   UNL d   1      -5.905  -1.461  -0.573  0.00  0.00     0.104 C 
ATOM     16  C   UNL d   1      -6.253  -1.734   0.893  0.00  0.00     0.034 C 
BRANCH  15  17
ATOM     17  C   UNL d   1      -6.444  -2.575  -1.491  0.00  0.00     0.191 C 
BRANCH  17  18
ATOM     18  O   UNL d   1      -7.843  -2.764  -1.275  0.00  0.00    -0.394 OA
ATOM     19  C   UNL d   1      -8.393  -3.738  -2.149  0.00  0.00     0.201 C 
ENDBRANCH  17  18
ENDBRANCH  15  17
ENDBRANCH  12  15
ENDBRANCH   1  11
BRANCH   8  20
ATOM     20  O   UNL d   1       3.429  -1.225  -0.044  0.00  0.00    -0.356 OA
ATOM     21  C   UNL d   1       4.610  -0.502   0.277  0.00  0.00     0.210 C 
ENDBRANCH   8  20
TORSDOF 5
