REMARK  4 active torsions:
REMARK  status: ('A' for Active; 'I' for Inactive)
REMARK    1  A    between atoms: N_11  and  N_1 
REMARK    2  A    between atoms: C_2  and  N_11 
REMARK    3  A    between atoms: N_10  and  C_2 
REMARK    4  A    between atoms: C_9  and  N_10 
ROOT
ATOM      1  C   UNL d   1      -1.930   2.673   0.034  0.00  0.00     0.191 C 
ATOM      2  S   UNL d   1      -0.530   2.721   0.950  0.00  0.00    -0.039 SA
ENDROOT
BRANCH   1   3
ATOM      3  N   UNL d   1      -2.194   3.777  -0.728  0.00  0.00    -0.268 N 
ATOM      4  H   UNL d   1      -1.454   4.473  -0.763  0.00  0.00     0.190 HD
BRANCH   3   5
ATOM      5  N   UNL d   1      -2.971   3.751  -1.833  0.00  0.00    -0.243 N 
ATOM      6  C   UNL d   1      -3.821   4.745  -2.194  0.00  0.00     0.224 A 
ATOM      7  N   UNL d   1      -4.255   4.505  -3.413  0.00  0.00    -0.293 N 
ATOM      8  N   UNL d   1      -3.642   3.348  -3.858  0.00  0.00    -0.293 N 
ATOM      9  HN  UNL d   1      -4.924   5.071  -3.935  1.00  0.00     0.187 HD
ATOM     10  C   UNL d   1      -2.847   2.922  -2.900  0.00  0.00     0.224 A 
ATOM     11  HN  UNL d   1      -3.780   2.905  -4.767  1.00  0.00     0.187 HD
ENDBRANCH   3   5
ENDBRANCH   1   3
BRANCH   1  12
ATOM     12  N   UNL d   1      -2.872   1.669   0.006  0.00  0.00    -0.331 N 
ATOM     13  H   UNL d   1      -3.836   1.992   0.049  0.00  0.00     0.168 HD
BRANCH  12  14
ATOM     14  C   UNL d   1      -2.695   0.311   0.392  0.00  0.00     0.057 A 
ATOM     15  C   UNL d   1      -1.507  -0.376   0.116  0.00  0.00     0.055 A 
ATOM     16  C   UNL d   1      -1.359  -1.710   0.499  0.00  0.00     0.036 A 
ATOM     17 CL   UNL d   1       0.108  -2.538   0.150  0.00  0.00    -0.084 Cl
ATOM     18  C   UNL d   1      -2.393  -2.381   1.149  0.00  0.00     0.026 A 
ATOM     19  C   UNL d   1      -3.597  -1.719   1.395  0.00  0.00     0.028 A 
ATOM     20  C   UNL d   1      -3.752  -0.387   1.001  0.00  0.00     0.060 A 
ATOM     21 CL   UNL d   1      -5.262   0.393   1.324  0.00  0.00    -0.082 Cl
ENDBRANCH  12  14
ENDBRANCH   1  12
TORSDOF 4
