REMARK  8 active torsions:
REMARK  status: ('A' for Active; 'I' for Inactive)
REMARK    1  A    between atoms: C_2  and  S_1 
REMARK    2  A    between atoms: C_7  and  S_1 
REMARK    3  A    between atoms: C_3  and  C_8 
REMARK    4  A    between atoms: N_18  and  C_3 
REMARK    5  A    between atoms: O_12  and  N_4 
REMARK    6  A    between atoms: C_6  and  O_12 
REMARK       I    between atoms: N_11  and  C_6 
REMARK    7  A    between atoms: C_17  and  C_7 
REMARK    8  A    between atoms: C_19  and  N_11 
ROOT
ATOM      1  C   UNL d   1       0.517  -2.811   4.661  0.00  0.00     0.130 C 
ATOM      2  N   UNL d   1       1.129  -3.681   5.427  0.00  0.00    -0.240 N 
ATOM      3  HN  UNL d   1       0.740  -4.591   5.676  1.00  0.00     0.196 HD
ENDROOT
BRANCH   1   4
ATOM      4  C   UNL d   1       0.961  -1.408   4.309  0.00  0.00     0.010 A 
ATOM      5  C   UNL d   1       0.673  -0.907   3.027  0.00  0.00     0.023 A 
ATOM      6  C   UNL d   1       0.837   0.453   2.705  0.00  0.00    -0.043 A 
ATOM      7  C   UNL d   1       1.395   1.301   3.668  0.00  0.00     0.008 A 
ATOM      8  C   UNL d   1       1.749   0.803   4.925  0.00  0.00     0.002 A 
ATOM      9  C   UNL d   1       1.513  -0.539   5.254  0.00  0.00     0.015 A 
BRANCH   6  10
ATOM     10  C   UNL d   1       0.436   0.991   1.350  0.00  0.00     0.185 C 
BRANCH  10  11
ATOM     11  S   UNL d   1      -1.336   0.880   1.087  0.00  0.00     0.195 S 
ATOM     12  O   UNL d   1      -1.650   1.534  -0.172  0.00  0.00    -0.221 OA
ATOM     13  O   UNL d   1      -1.749  -0.503   1.284  0.00  0.00    -0.221 OA
BRANCH  11  14
ATOM     14  C   UNL d   1      -2.050   1.851   2.398  0.00  0.00     0.128 A 
ATOM     15  N   UNL d   1      -1.700   3.164   2.374  0.00  0.00    -0.357 N 
ATOM     16  C   UNL d   1      -2.265   3.937   3.327  0.00  0.00     0.089 A 
ATOM     17  HN  UNL d   1      -1.053   3.542   1.681  1.00  0.00     0.166 HD
ATOM     18  C   UNL d   1      -3.119   3.453   4.309  0.00  0.00     0.017 A 
ATOM     19  C   UNL d   1      -3.434   2.096   4.311  0.00  0.00     0.004 A 
ATOM     20  C   UNL d   1      -2.898   1.270   3.329  0.00  0.00     0.042 A 
ENDBRANCH  11  14
ENDBRANCH  10  11
ENDBRANCH   6  10
ENDBRANCH   1   4
BRANCH   1  21
ATOM     21  N   UNL d   1      -0.682  -3.242   4.141  0.00  0.00    -0.383 N 
ATOM     22  H   UNL d   1      -1.040  -2.823   3.291  0.00  0.00     0.157 HD
ATOM     23  H   UNL d   1      -0.820  -4.244   4.193  0.00  0.00     0.157 HD
ENDBRANCH   1  21
BRANCH   2  24
ATOM     24  O   UNL d   1       2.377  -3.220   5.867  0.00  0.00    -0.179 OA
BRANCH  24  25
ATOM     25  C   UNL d   1       3.015  -4.096   6.730  0.00  0.00     0.387 C 
ATOM     26  N   UNL d   1       2.337  -5.262   7.020  0.00  0.00    -0.301 N 
ATOM     27  H   UNL d   1       1.487  -5.364   6.474  0.00  0.00     0.171 HD
ATOM     28  O   UNL d   1       4.124  -3.789   7.154  0.00  0.00    -0.236 OA
BRANCH  26  29
ATOM     29  C   UNL d   1       2.798  -6.327   7.832  0.00  0.00     0.037 A 
ATOM     30  C   UNL d   1       3.881  -6.196   8.710  0.00  0.00     0.031 A 
ATOM     31  C   UNL d   1       4.375  -7.295   9.422  0.00  0.00     0.026 A 
ATOM     32  C   UNL d   1       3.780  -8.542   9.271  0.00  0.00     0.034 A 
ATOM     33  C   UNL d   1       2.665  -8.683   8.451  0.00  0.00     0.026 A 
ATOM     34 CL   UNL d   1       4.435  -9.906  10.088  0.00  0.00    -0.084 Cl
ATOM     35  C   UNL d   1       2.165  -7.575   7.745  0.00  0.00     0.031 A 
ENDBRANCH  26  29
ENDBRANCH  24  25
ENDBRANCH   2  24
TORSDOF 8
