REMARK  6 active torsions:
REMARK  status: ('A' for Active; 'I' for Inactive)
REMARK    1  A    between atoms: N_5  and  C_1 
REMARK    2  A    between atoms: C_4  and  N_5 
REMARK    3  A    between atoms: C_13  and  C_6 
REMARK       I    between atoms: C_10  and  N_7 
REMARK    4  A    between atoms: C_11  and  C_10 
REMARK    5  A    between atoms: C_22  and  C_14 
REMARK    6  A    between atoms: C_21  and  C_15 
ROOT
ATOM      1  C   UNL d   1      -0.413  -0.900  -0.472  0.00  0.00     0.130 A 
ATOM      2  N   UNL d   1       0.764  -0.424  -0.803  0.00  0.00    -0.340 N 
ATOM      3  HN  UNL d   1       1.433  -0.892  -1.413  1.00  0.00     0.167 HD
ATOM      4  C   UNL d   1       0.965   0.811  -0.201  0.00  0.00     0.050 A 
ATOM      5  S   UNL d   1      -1.355   0.094   0.534  0.00  0.00    -0.069 SA
ATOM      6  C   UNL d   1      -0.121   1.288   0.506  0.00  0.00     0.083 A 
ENDROOT
BRANCH   1   7
ATOM      7  N   UNL d   1      -0.818  -2.144  -0.930  0.00  0.00    -0.215 NA
ATOM      8  H   UNL d   1      -0.034  -2.518  -1.457  0.00  0.00     0.138 HD
BRANCH   7   9
ATOM      9  C   UNL d   1      -1.357  -3.084  -0.122  0.00  0.00     0.159 C 
ATOM     10  N   UNL d   1      -2.570  -2.958   0.483  0.00  0.00    -0.305 N 
ATOM     11  C   UNL d   1      -3.660  -2.159   0.175  0.00  0.00     0.247 C 
ATOM     12  H   UNL d   1      -2.732  -3.690   1.157  0.00  0.00     0.171 HD
ATOM     13  O   UNL d   1      -3.819  -1.508  -0.846  0.00  0.00    -0.268 OA
ATOM     14  S   UNL d   1      -0.535  -4.530   0.110  0.00  0.00    -0.046 SA
BRANCH  11  15
ATOM     15  C   UNL d   1      -4.690  -2.241   1.248  0.00  0.00     0.075 C 
ATOM     16  C   UNL d   1      -5.884  -1.642   1.127  0.00  0.00     0.017 C 
BRANCH  16  17
ATOM     17  C   UNL d   1      -6.859  -1.617   2.228  0.00  0.00    -0.036 A 
ATOM     18  C   UNL d   1      -7.600  -0.450   2.447  0.00  0.00     0.011 A 
ATOM     19  C   UNL d   1      -8.496  -0.366   3.516  0.00  0.00     0.001 A 
ATOM     20  C   UNL d   1      -8.671  -1.454   4.369  0.00  0.00     0.000 A 
ATOM     21  C   UNL d   1      -7.966  -2.634   4.141  0.00  0.00     0.001 A 
ATOM     22  C   UNL d   1      -7.072  -2.719   3.070  0.00  0.00     0.011 A 
ENDBRANCH  16  17
ENDBRANCH  11  15
ENDBRANCH   7   9
ENDBRANCH   1   7
BRANCH   4  23
ATOM     23  C   UNL d   1       2.271   1.457  -0.234  0.00  0.00    -0.009 A 
ATOM     24  C   UNL d   1       2.437   2.845  -0.212  0.00  0.00     0.014 A 
ATOM     25  C   UNL d   1       3.725   3.407  -0.152  0.00  0.00     0.013 A 
ATOM     26  C   UNL d   1       4.880   2.605  -0.097  0.00  0.00    -0.026 A 
ATOM     27  C   UNL d   1       4.691   1.214  -0.148  0.00  0.00     0.013 A 
ATOM     28  C   UNL d   1       3.413   0.650  -0.227  0.00  0.00     0.014 A 
BRANCH  26  29
ATOM     29  C   UNL d   1       6.239   3.181   0.046  0.00  0.00    -0.026 A 
ATOM     30  C   UNL d   1       7.355   2.587  -0.575  0.00  0.00     0.012 A 
ATOM     31  C   UNL d   1       8.650   3.085  -0.387  0.00  0.00     0.001 A 
ATOM     32  C   UNL d   1       8.857   4.202   0.414  0.00  0.00     0.000 A 
ATOM     33  C   UNL d   1       7.770   4.821   1.024  0.00  0.00     0.001 A 
ATOM     34  C   UNL d   1       6.478   4.314   0.845  0.00  0.00     0.012 A 
ENDBRANCH  26  29
ENDBRANCH   4  23
TORSDOF 6
