REMARK  2 active torsions:
REMARK  status: ('A' for Active; 'I' for Inactive)
REMARK    1  A    between atoms: N_6  and  C_12 
REMARK    2  A    between atoms: C_14  and  C_7 
ROOT
ATOM      1  C   UNL d   1       1.972   1.351   0.007  0.00  0.00     0.026 C 
ATOM      2  N   UNL d   1       0.882   1.431  -0.672  0.00  0.00    -0.357 N 
ATOM      3  HN  UNL d   1       0.845   2.130  -1.414  1.00  0.00     0.166 HD
ATOM      4  C   UNL d   1       2.404   0.305   0.990  0.00  0.00     0.055 C 
ATOM      5  S   UNL d   1       0.743  -1.906   0.577  0.00  0.00    -0.117 SA
ATOM      6  C   UNL d   1       2.323  -1.091   0.410  0.00  0.00     0.095 C 
ATOM      7  C   UNL d   1       2.926   2.474   0.096  0.00  0.00    -0.007 A 
ATOM      8  C   UNL d   1      -0.274   0.629  -0.475  0.00  0.00     0.049 A 
ATOM      9  C   UNL d   1      -0.438  -0.705  -0.047  0.00  0.00     0.028 A 
ATOM     10  C   UNL d   1       1.839   0.813   2.310  0.00  0.00     0.017 C 
ATOM     11  C   UNL d   1       3.295   2.795   1.428  0.00  0.00    -0.046 A 
ATOM     12  C   UNL d   1       2.527   2.189   2.613  0.00  0.00     0.040 C 
ATOM     13  C   UNL d   1       3.682   2.870  -1.002  0.00  0.00     0.014 A 
ATOM     14  C   UNL d   1      -1.449   1.374  -0.732  0.00  0.00     0.031 A 
ATOM     15  C   UNL d   1      -1.748  -1.245   0.011  0.00  0.00     0.021 A 
ATOM     16  C   UNL d   1       4.466   3.526   1.635  0.00  0.00     0.008 A 
ATOM     17  C   UNL d   1       4.863   3.575  -0.769  0.00  0.00     0.001 A 
ATOM     18  C   UNL d   1      -2.734   0.843  -0.611  0.00  0.00     0.002 A 
ATOM     19  C   UNL d   1      -2.884  -0.485  -0.263  0.00  0.00     0.002 A 
ATOM     20  C   UNL d   1       5.257   3.889   0.539  0.00  0.00     0.001 A 
ENDROOT
BRANCH   6  21
ATOM     21  C   UNL d   1       3.515  -1.843   1.037  0.00  0.00    -0.043 A 
ATOM     22  C   UNL d   1       4.780  -1.692   0.425  0.00  0.00     0.011 A 
ATOM     23  C   UNL d   1       5.955  -2.008   1.111  0.00  0.00     0.037 A 
ATOM     24  C   UNL d   1       5.873  -2.513   2.412  0.00  0.00     0.102 A 
ATOM     25  C   UNL d   1       4.628  -2.731   3.014  0.00  0.00     0.037 A 
ATOM     26  C   UNL d   1       3.455  -2.394   2.329  0.00  0.00     0.011 A 
BRANCH  24  27
ATOM     27  N   UNL d   1       7.105  -2.760   3.171  0.00  0.00    -0.116 N 
ATOM     28  O   UNL d   1       8.185  -2.499   2.622  0.00  0.00    -0.532 OA
ATOM     29  O   UNL d   1       6.994  -3.203   4.324  0.00  0.00    -0.532 OA
ENDBRANCH  24  27
ENDBRANCH   6  21
TORSDOF 2
