REMARK  5 active torsions:
REMARK  status: ('A' for Active; 'I' for Inactive)
REMARK    1  A    between atoms: N_2  and  C_1 
REMARK    2  A    between atoms: C_3  and  C_6 
REMARK    3  A    between atoms: S_8  and  C_4 
REMARK    4  A    between atoms: C_7  and  C_9 
REMARK    5  A    between atoms: C_12  and  S_8 
ROOT
ATOM      1  C   UNL d   1       1.434  -0.162  -0.116  0.00  0.00     0.120 A 
ATOM      2  C   UNL d   1       0.630  -1.308  -0.076  0.00  0.00     0.040 A 
ATOM      3  C   UNL d   1       0.898   1.133   0.005  0.00  0.00     0.046 A 
ATOM      4  C   UNL d   1      -0.487   1.313   0.151  0.00  0.00    -0.032 A 
ATOM      5  C   UNL d   1      -0.753  -1.118   0.042  0.00  0.00     0.022 A 
ATOM      6  C   UNL d   1      -1.302   0.167   0.149  0.00  0.00     0.011 A 
ENDROOT
BRANCH   2   7
ATOM      7  S   UNL d   1       1.234  -2.989  -0.009  0.00  0.00    -0.070 SA
BRANCH   7   8
ATOM      8  C   UNL d   1       1.375  -3.415  -1.734  0.00  0.00     0.074 A 
ATOM      9  N   UNL d   1       0.571  -2.791  -2.624  0.00  0.00    -0.359 N 
ATOM     10  C   UNL d   1       0.730  -3.104  -3.932  0.00  0.00     0.105 A 
ATOM     11  HN  UNL d   1      -0.127  -2.112  -2.323  1.00  0.00     0.166 HD
ATOM     12  C   UNL d   1       1.650  -4.028  -4.406  0.00  0.00     0.063 A 
ATOM     13  C   UNL d   1       2.440  -4.688  -3.462  0.00  0.00     0.020 A 
ATOM     14  C   UNL d   1       2.301  -4.381  -2.111  0.00  0.00     0.038 A 
BRANCH  12  15
ATOM     15  C   UNL d   1       1.802  -4.283  -5.873  0.00  0.00     0.418 C 
ATOM     16  F   UNL d   1       0.945  -3.560  -6.646  0.00  0.00    -0.166 F 
ATOM     17  F   UNL d   1       3.052  -3.985  -6.324  0.00  0.00    -0.166 F 
ATOM     18  F   UNL d   1       1.590  -5.587  -6.201  0.00  0.00    -0.166 F 
ENDBRANCH  12  15
ENDBRANCH   7   8
ENDBRANCH   2   7
BRANCH   1  19
ATOM     19  N   UNL d   1       2.876  -0.272  -0.244  0.00  0.00    -0.114 N 
ATOM     20  O   UNL d   1       3.324  -0.775  -1.282  0.00  0.00    -0.532 OA
ATOM     21  O   UNL d   1       3.555   0.190   0.683  0.00  0.00    -0.532 OA
ENDBRANCH   1  19
BRANCH   4  22
ATOM     22  C   UNL d   1      -1.119   2.673   0.364  0.00  0.00     0.141 C 
ATOM     23  S   UNL d   1      -0.715   3.886  -0.921  0.00  0.00    -0.148 SA
ATOM     24  C   UNL d   1      -1.017   5.327   0.128  0.00  0.00     0.085 C 
ATOM     25  C   UNL d   1      -0.322   5.060   1.450  0.00  0.00     0.085 C 
ATOM     26  S   UNL d   1      -0.708   3.371   2.001  0.00  0.00    -0.148 SA
ENDBRANCH   4  22
TORSDOF 5
