REMARK  8 active torsions:
REMARK  status: ('A' for Active; 'I' for Inactive)
REMARK    1  A    between atoms: C_7  and  N_1 
REMARK    2  A    between atoms: C_8  and  N_2 
REMARK    3  A    between atoms: C_6  and  C_3 
REMARK    4  A    between atoms: C_15  and  C_3 
REMARK    5  A    between atoms: N_12  and  C_6 
REMARK    6  A    between atoms: C_16  and  N_12 
REMARK    7  A    between atoms: C_25  and  C_15 
REMARK    8  A    between atoms: C_26  and  C_25 
ROOT
ATOM      1  N   UNL d   1      -0.576   1.176   0.437  0.00  0.00    -0.213 N 
ATOM      2  N   UNL d   1       0.750   1.163  -0.074  0.00  0.00    -0.213 N 
ATOM      3  C   UNL d   1      -0.055  -1.024  -0.248  0.00  0.00     0.141 C 
ATOM      4  C   UNL d   1      -1.170  -0.066   0.121  0.00  0.00     0.263 C 
ATOM      5  C   UNL d   1       1.164  -0.141  -0.344  0.00  0.00     0.263 C 
ATOM      6  O   UNL d   1      -2.366  -0.334   0.091  0.00  0.00    -0.270 OA
ATOM      7  O   UNL d   1       2.286  -0.544  -0.621  0.00  0.00    -0.270 OA
ENDROOT
BRANCH   3   8
ATOM      8  C   UNL d   1       0.204  -2.007   0.906  0.00  0.00     0.149 C 
BRANCH   8   9
ATOM      9  N   UNL d   1      -0.884  -2.969   1.107  0.00  0.00    -0.388 N 
ATOM     10  H   UNL d   1      -1.265  -3.356   0.246  0.00  0.00     0.159 HD
BRANCH   9  11
ATOM     11  C   UNL d   1      -0.774  -3.950   2.100  0.00  0.00     0.028 A 
ATOM     12  C   UNL d   1       0.002  -3.800   3.258  0.00  0.00     0.037 A 
ATOM     13  C   UNL d   1       0.035  -4.779   4.272  0.00  0.00    -0.043 A 
ATOM     14  C   UNL d   1       0.894  -4.548   5.484  0.00  0.00     0.049 C 
ATOM     15  C   UNL d   1      -0.751  -5.929   4.121  0.00  0.00     0.017 A 
ATOM     16  C   UNL d   1      -1.560  -6.080   2.996  0.00  0.00     0.022 A 
ATOM     17 BR   UNL d   1      -0.776  -7.314   5.420  0.00  0.00    -0.051 Br
ATOM     18  C   UNL d   1      -1.583  -5.092   2.008  0.00  0.00     0.030 A 
ENDBRANCH   9  11
ENDBRANCH   8   9
ENDBRANCH   3   8
BRANCH   3  19
ATOM     19  C   UNL d   1      -0.283  -1.695  -1.621  0.00  0.00     0.031 C 
BRANCH  19  20
ATOM     20  C   UNL d   1      -0.287  -0.697  -2.793  0.00  0.00     0.001 C 
BRANCH  20  21
ATOM     21  C   UNL d   1      -0.372  -1.387  -4.150  0.00  0.00    -0.005 C 
ATOM     22  C   UNL d   1      -0.322  -0.361  -5.274  0.00  0.00     0.005 C 
ENDBRANCH  20  21
ENDBRANCH  19  20
ENDBRANCH   3  19
BRANCH   1  23
ATOM     23  C   UNL d   1      -1.395   2.329   0.304  0.00  0.00     0.060 A 
ATOM     24  C   UNL d   1      -1.848   2.946   1.475  0.00  0.00     0.031 A 
ATOM     25  C   UNL d   1      -2.581   4.130   1.405  0.00  0.00     0.002 A 
ATOM     26  C   UNL d   1      -2.895   4.681   0.164  0.00  0.00     0.000 A 
ATOM     27  C   UNL d   1      -2.478   4.048  -1.009  0.00  0.00     0.002 A 
ATOM     28  C   UNL d   1      -1.720   2.876  -0.943  0.00  0.00     0.031 A 
ENDBRANCH   1  23
BRANCH   2  29
ATOM     29  C   UNL d   1       1.619   2.280  -0.145  0.00  0.00     0.060 A 
ATOM     30  C   UNL d   1       2.562   2.364  -1.183  0.00  0.00     0.031 A 
ATOM     31  C   UNL d   1       3.409   3.468  -1.295  0.00  0.00     0.002 A 
ATOM     32  C   UNL d   1       3.341   4.492  -0.356  0.00  0.00     0.000 A 
ATOM     33  C   UNL d   1       2.422   4.416   0.687  0.00  0.00     0.002 A 
ATOM     34  C   UNL d   1       1.560   3.321   0.786  0.00  0.00     0.031 A 
ENDBRANCH   2  29
TORSDOF 8
