REMARK  5 active torsions:
REMARK  status: ('A' for Active; 'I' for Inactive)
REMARK    1  A    between atoms: C_3  and  C_1 
REMARK    2  A    between atoms: C_4  and  O_8 
REMARK    3  A    between atoms: O_8  and  C_6 
REMARK    4  A    between atoms: C_10  and  C_7 
REMARK    5  A    between atoms: O_16  and  N_11 
ROOT
ATOM      1  C   UNL d   1      -0.554   2.392   0.038  0.00  0.00     0.031 A 
ATOM      2  C   UNL d   1      -0.160   3.132  -1.094  0.00  0.00     0.091 A 
ATOM      3  C   UNL d   1      -1.450   2.996   0.945  0.00  0.00     0.017 A 
ATOM      4  C   UNL d   1      -0.631   4.446  -1.264  0.00  0.00     0.038 A 
ATOM      5  C   UNL d   1      -1.918   4.299   0.762  0.00  0.00     0.001 A 
ATOM      6  C   UNL d   1      -1.506   5.024  -0.345  0.00  0.00     0.003 A 
ENDROOT
BRANCH   1   7
ATOM      7  C   UNL d   1      -0.086   1.049   0.372  0.00  0.00     0.089 A 
ATOM      8  O   UNL d   1       1.194   0.729   0.025  0.00  0.00    -0.308 OA
ATOM      9  C   UNL d   1       1.422  -0.550   0.452  0.00  0.00     0.093 A 
ATOM     10  C   UNL d   1       0.297  -1.040   1.081  0.00  0.00     0.041 A 
ATOM     11  C   UNL d   1      -0.672  -0.016   1.026  0.00  0.00     0.041 A 
BRANCH   9  12
ATOM     12  C   UNL d   1       2.703  -1.143   0.204  0.00  0.00     0.151 C 
ATOM     13  N   UNL d   1       2.969  -2.332   0.646  0.00  0.00    -0.278 N 
ATOM     14  HN  UNL d   1       2.326  -2.920   1.177  1.00  0.00     0.193 HD
BRANCH  13  15
ATOM     15  O   UNL d   1       4.274  -2.686   0.284  0.00  0.00    -0.290 OA
ATOM     16  H   UNL d   1       4.366  -3.578   0.672  0.00  0.00     0.244 HD
ENDBRANCH  13  15
ENDBRANCH   9  12
ENDBRANCH   1   7
BRANCH   2  17
ATOM     17  O   UNL d   1       0.775   2.753  -2.012  0.00  0.00    -0.254 OA
BRANCH  17  18
ATOM     18  C   UNL d   1       0.548   1.552  -2.744  0.00  0.00     0.530 C 
ATOM     19  F   UNL d   1      -0.536   0.853  -2.346  0.00  0.00    -0.144 F 
ATOM     20  F   UNL d   1       0.377   1.867  -4.050  0.00  0.00    -0.144 F 
ATOM     21  F   UNL d   1       1.644   0.769  -2.656  0.00  0.00    -0.144 F 
ENDBRANCH  17  18
ENDBRANCH   2  17
TORSDOF 5
