REMARK  9 active torsions:
REMARK  status: ('A' for Active; 'I' for Inactive)
REMARK    1  A    between atoms: N_4  and  C_1 
REMARK    2  A    between atoms: C_2  and  N_4 
REMARK    3  A    between atoms: N_15  and  C_2 
REMARK    4  A    between atoms: O_21  and  C_6 
REMARK    5  A    between atoms: O_23  and  C_8 
REMARK    6  A    between atoms: O_20  and  C_9 
REMARK    7  A    between atoms: C_10  and  C_16 
REMARK    8  A    between atoms: N_11  and  N_15 
REMARK    9  A    between atoms: O_24  and  C_18 
ROOT
ATOM      1  C   UNL d   1       4.719   1.319   0.280  0.00  0.00     0.191 C 
ATOM      2  S   UNL d   1       4.764   2.865  -0.337  0.00  0.00    -0.039 SA
ENDROOT
BRANCH   1   3
ATOM      3  N   UNL d   1       3.700   0.392   0.253  0.00  0.00    -0.330 N 
ATOM      4  H   UNL d   1       4.053  -0.555   0.377  0.00  0.00     0.168 HD
BRANCH   3   5
ATOM      5  C   UNL d   1       2.315   0.464   0.030  0.00  0.00     0.070 A 
ATOM      6  C   UNL d   1       1.571   1.635   0.177  0.00  0.00     0.071 A 
ATOM      7  C   UNL d   1       0.172   1.645   0.030  0.00  0.00     0.092 A 
ATOM      8  C   UNL d   1      -0.475   0.446  -0.294  0.00  0.00     0.070 A 
ATOM      9  C   UNL d   1       0.267  -0.739  -0.431  0.00  0.00     0.065 A 
ATOM     10 CL   UNL d   1      -2.173   0.266  -0.572  0.00  0.00    -0.081 Cl
ATOM     11  C   UNL d   1       1.652  -0.742  -0.265  0.00  0.00     0.096 A 
BRANCH   7  12
ATOM     12  O   UNL d   1      -0.333   2.898   0.241  0.00  0.00    -0.354 OA
ATOM     13  C   UNL d   1      -1.730   3.106   0.341  0.00  0.00     0.210 C 
ENDBRANCH   7  12
BRANCH  11  14
ATOM     14  O   UNL d   1       2.447  -1.859  -0.367  0.00  0.00    -0.354 OA
ATOM     15  C   UNL d   1       1.848  -3.030  -0.911  0.00  0.00     0.210 C 
ENDBRANCH  11  14
ENDBRANCH   3   5
ENDBRANCH   1   3
BRANCH   1  16
ATOM     16  N   UNL d   1       5.857   0.802   0.893  0.00  0.00    -0.276 N 
ATOM     17  H   UNL d   1       6.670   1.409   0.974  0.00  0.00     0.189 HD
BRANCH  16  18
ATOM     18  N   UNL d   1       5.683  -0.208   1.788  0.00  0.00    -0.309 N 
ATOM     19  C   UNL d   1       6.735  -0.703   2.350  0.00  0.00     0.121 C 
ATOM     20  HN  UNL d   1       4.752  -0.563   2.007  1.00  0.00     0.186 HD
BRANCH  19  21
ATOM     21  C   UNL d   1       6.554  -1.659   3.462  0.00  0.00     0.014 A 
ATOM     22  C   UNL d   1       5.343  -1.723   4.168  0.00  0.00     0.080 A 
ATOM     23  C   UNL d   1       5.203  -2.595   5.243  0.00  0.00     0.074 A 
ATOM     24  C   UNL d   1       6.268  -3.408   5.601  0.00  0.00     0.068 A 
ATOM     25  C   UNL d   1       7.475  -3.363   4.907  0.00  0.00     0.037 A 
ATOM     26  C   UNL d   1       7.626  -2.479   3.834  0.00  0.00     0.018 A 
BRANCH  22  27
ATOM     27  O   UNL d   1       4.258  -0.940   3.880  0.00  0.00    -0.360 OA
ATOM     28  H   UNL d   1       4.455  -0.437   3.060  0.00  0.00     0.217 HD
ENDBRANCH  22  27
BRANCH  24  29
ATOM     29  O   UNL d   1       6.087  -4.249   6.660  0.00  0.00    -0.361 OA
ATOM     30  H   UNL d   1       6.903  -4.748   6.816  0.00  0.00     0.217 HD
ENDBRANCH  24  29
ENDBRANCH  19  21
ENDBRANCH  16  18
ENDBRANCH   1  16
TORSDOF 9
