REMARK  1 active torsions:
REMARK  status: ('A' for Active; 'I' for Inactive)
REMARK    1  A    between atoms: C_13  and  C_6 
ROOT
ATOM      1  C   UNL d   1      -1.266  -0.274  -0.194  0.00  0.00     0.019 C 
ATOM      2  C   UNL d   1       1.237  -0.284  -0.237  0.00  0.00     0.019 C 
ATOM      3  C   UNL d   1      -1.218   1.072  -0.070  0.00  0.00     0.020 C 
ATOM      4  C   UNL d   1       1.210   1.062  -0.113  0.00  0.00     0.020 C 
ATOM      5  N   UNL d   1      -0.004   1.733  -0.204  0.00  0.00    -0.362 N 
ATOM      6  C   UNL d   1      -0.026  -1.064  -0.588  0.00  0.00     0.062 C 
ATOM      7  C   UNL d   1      -2.515  -1.013   0.151  0.00  0.00     0.158 C 
ATOM      8  C   UNL d   1       2.496  -1.033   0.029  0.00  0.00     0.158 C 
ATOM      9  O   UNL d   1      -2.529  -2.242   0.180  0.00  0.00    -0.293 OA
ATOM     10  O   UNL d   1       2.533  -2.257  -0.073  0.00  0.00    -0.293 OA
ATOM     11  C   UNL d   1       2.443   1.890   0.145  0.00  0.00     0.058 C 
ATOM     12  C   UNL d   1      -2.433   1.907   0.241  0.00  0.00     0.058 C 
ATOM     13  C   UNL d   1       3.693  -0.253   0.524  0.00  0.00     0.084 C 
ATOM     14  C   UNL d   1      -3.733  -0.217   0.561  0.00  0.00     0.084 C 
ATOM     15  C   UNL d   1      -3.731   1.167  -0.066  0.00  0.00     0.014 C 
ATOM     16  C   UNL d   1       3.735   1.122  -0.122  0.00  0.00     0.014 C 
ATOM     17  H   UNL d   1       0.005   2.727   0.015  0.00  0.00     0.165 HD
ENDROOT
BRANCH   6  18
ATOM     18  C   UNL d   1      -0.001  -1.338  -2.114  0.00  0.00     0.010 C 
ATOM     19  C   UNL d   1      -1.191  -2.120  -2.655  0.00  0.00     0.006 C 
ENDBRANCH   6  18
TORSDOF 1
