REMARK  1 active torsions:
REMARK  status: ('A' for Active; 'I' for Inactive)
REMARK    1  A    between atoms: C_9  and  N_2 
ROOT
ATOM      1  C   UNL d   1       0.912  -0.194  -0.092  0.00  0.00     0.201 A 
ATOM      2  N   UNL d   1       1.718   0.345  -1.188  0.00  0.00    -0.285 N 
ATOM      3  C   UNL d   1       0.759  -1.756  -0.211  0.00  0.00     0.267 A 
ATOM      4  C   UNL d   1      -0.524   0.246   0.038  0.00  0.00     0.017 A 
ATOM      5  N   UNL d   1      -0.605  -2.040  -0.122  0.00  0.00    -0.323 N 
ATOM      6  S   UNL d   1       1.793   0.155   1.469  0.00  0.00    -0.113 SA
ATOM      7  C   UNL d   1       3.027   0.698  -0.822  0.00  0.00     0.235 C 
ATOM      8  C   UNL d   1      -1.355  -0.879   0.006  0.00  0.00     0.045 A 
ATOM      9  C   UNL d   1       3.346   0.420   0.627  0.00  0.00     0.180 C 
ATOM     10  O   UNL d   1       1.643  -2.588  -0.367  0.00  0.00    -0.269 OA
ATOM     11  O   UNL d   1       3.876   1.196  -1.559  0.00  0.00    -0.272 OA
ATOM     12  C   UNL d   1      -1.065   1.520   0.147  0.00  0.00     0.013 A 
ATOM     13  C   UNL d   1      -2.729  -0.782   0.053  0.00  0.00     0.030 A 
ATOM     14  C   UNL d   1      -2.456   1.639   0.188  0.00  0.00     0.001 A 
ATOM     15  C   UNL d   1      -3.280   0.499   0.137  0.00  0.00     0.002 A 
ATOM     16  H   UNL d   1      -0.971  -2.978  -0.187  0.00  0.00     0.169 HD
ENDROOT
BRANCH   2  17
ATOM     17  C   UNL d   1       1.347   0.178  -2.572  0.00  0.00     0.040 A 
ATOM     18  C   UNL d   1       2.322  -0.107  -3.546  0.00  0.00     0.033 A 
ATOM     19  C   UNL d   1       1.990  -0.280  -4.895  0.00  0.00     0.044 A 
ATOM     20  C   UNL d   1       0.670  -0.169  -5.295  0.00  0.00     0.116 A 
ATOM     21  C   UNL d   1      -0.319   0.105  -4.368  0.00  0.00     0.044 A 
ATOM     22  F   UNL d   1       0.348  -0.324  -6.585  0.00  0.00    -0.206 F 
ATOM     23  C   UNL d   1       0.019   0.275  -3.019  0.00  0.00     0.033 A 
ENDBRANCH   2  17
TORSDOF 1
