REMARK  2 active torsions:
REMARK  status: ('A' for Active; 'I' for Inactive)
REMARK    1  A    between atoms: N_7  and  C_3 
REMARK    2  A    between atoms: C_12  and  C_4 
ROOT
ATOM      1  C   UNL d   1       0.060  -0.550   0.033  0.00  0.00     0.070 A 
ATOM      2  S   UNL d   1       1.766  -0.767  -0.000  0.00  0.00    -0.088 SA
ATOM      3  C   UNL d   1      -0.970  -1.509   0.030  0.00  0.00     0.103 A 
ATOM      4  C   UNL d   1       2.093   0.921   0.004  0.00  0.00    -0.007 A 
ATOM      5  C   UNL d   1       0.902   1.630   0.023  0.00  0.00     0.046 A 
ATOM      6  C   UNL d   1      -0.258   0.800   0.030  0.00  0.00     0.054 A 
ATOM      7  N   UNL d   1      -2.241  -1.048  -0.015  0.00  0.00    -0.342 N 
ATOM      8  HN  UNL d   1      -3.027  -1.697  -0.053  1.00  0.00     0.167 HD
ATOM      9  N   UNL d   1      -1.537   1.252   0.021  0.00  0.00    -0.351 N 
ATOM     10  HN  UNL d   1      -1.778   2.243   0.036  1.00  0.00     0.166 HD
ATOM     11  C   UNL d   1      -2.450   0.278  -0.009  0.00  0.00     0.182 A 
ENDROOT
BRANCH   3  12
ATOM     12  N   UNL d   1      -0.704  -2.877  -0.010  0.00  0.00    -0.264 NA
ATOM     13  C   UNL d   1      -1.769  -3.716  -0.586  0.00  0.00     0.123 C 
ATOM     14  C   UNL d   1      -1.199  -5.133  -0.788  0.00  0.00     0.182 C 
ATOM     15  O   UNL d   1      -0.715  -5.693   0.449  0.00  0.00    -0.389 OA
ATOM     16  C   UNL d   1       0.297  -4.846   1.025  0.00  0.00     0.182 C 
ATOM     17  C   UNL d   1      -0.241  -3.428   1.279  0.00  0.00     0.123 C 
ENDBRANCH   3  12
BRANCH   4  18
ATOM     18  C   UNL d   1       3.538   1.435  -0.024  0.00  0.00    -0.018 C 
ATOM     19  C   UNL d   1       4.261   0.946  -1.295  0.00  0.00     0.020 C 
ATOM     20  C   UNL d   1       3.578   2.978  -0.027  0.00  0.00     0.020 C 
ATOM     21  C   UNL d   1       4.309   0.951   1.221  0.00  0.00     0.020 C 
ENDBRANCH   4  18
TORSDOF 2
