REMARK  2 active torsions:
REMARK  status: ('A' for Active; 'I' for Inactive)
REMARK    1  A    between atoms: C_2  and  N_1 
REMARK       I    between atoms: C_3  and  N_1 
REMARK    2  A    between atoms: C_10  and  C_3 
ROOT
ATOM      1  N   UNL d   1       1.140   0.192  -0.166  0.00  0.00    -0.303 N 
ATOM      2  C   UNL d   1       2.491  -0.063  -0.117  0.00  0.00     0.257 C 
ATOM      3  O   UNL d   1       3.109  -0.610   0.788  0.00  0.00    -0.267 OA
ATOM      4  H   UNL d   1       0.740   0.782  -0.878  0.00  0.00     0.171 HD
ENDROOT
BRANCH   2   5
ATOM      5  C   UNL d   1       3.272   0.446  -1.278  0.00  0.00     0.035 A 
ATOM      6  C   UNL d   1       4.582   0.871  -1.055  0.00  0.00     0.034 A 
ATOM      7  C   UNL d   1       5.308   1.339  -2.133  0.00  0.00     0.088 A 
ATOM      8  N   UNL d   1       4.821   1.399  -3.391  0.00  0.00    -0.375 N 
ATOM      9  C   UNL d   1       3.561   0.956  -3.585  0.00  0.00     0.088 A 
ATOM     10  HN  UNL d   1       5.382   1.763  -4.161  1.00  0.00     0.164 HD
ATOM     11  C   UNL d   1       2.749   0.474  -2.573  0.00  0.00     0.034 A 
ENDBRANCH   2   5
BRANCH   1  12
ATOM     12  C   UNL d   1       0.284  -0.231   0.814  0.00  0.00     0.151 A 
ATOM     13  N   UNL d   1       0.504  -1.019   1.834  0.00  0.00    -0.346 N 
ATOM     14  C   UNL d   1      -0.664  -1.177   2.552  0.00  0.00     0.097 A 
ATOM     15  HN  UNL d   1       1.400  -1.449   2.063  1.00  0.00     0.167 HD
ATOM     16  C   UNL d   1      -1.758  -0.494   2.066  0.00  0.00     0.070 A 
ATOM     17  S   UNL d   1      -1.312   0.361   0.645  0.00  0.00    -0.064 SA
ENDBRANCH   1  12
TORSDOF 2
