REMARK  8 active torsions:
REMARK  status: ('A' for Active; 'I' for Inactive)
REMARK    1  A    between atoms: C_9  and  C_3 
REMARK    2  A    between atoms: N_5  and  C_4 
REMARK    3  A    between atoms: C_19  and  C_6 
REMARK    4  A    between atoms: O_16  and  C_10 
REMARK    5  A    between atoms: C_12  and  C_15 
REMARK    6  A    between atoms: C_14  and  O_21 
REMARK    7  A    between atoms: C_31  and  O_16 
REMARK    8  A    between atoms: O_21  and  C_30 
ROOT
ATOM      1  N   UNL d   1       0.193   0.556   1.762  0.00  0.00    -0.318 N 
ATOM      2  HN  UNL d   1       0.087   1.017   2.666  1.00  0.00     0.169 HD
ATOM      3  C   UNL d   1       0.080  -0.721   1.473  0.00  0.00     0.186 A 
ATOM      4  C   UNL d   1       0.493   1.118   0.537  0.00  0.00     0.138 A 
ATOM      5  N   UNL d   1       0.566   0.233  -0.469  0.00  0.00    -0.242 N 
ATOM      6  HN  UNL d   1       0.776   0.409  -1.451  1.00  0.00     0.196 HD
ATOM      7  O   UNL d   1       0.288  -0.980   0.145  0.00  0.00    -0.217 OA
ENDROOT
BRANCH   4   8
ATOM      8  C   UNL d   1       0.702   2.546   0.350  0.00  0.00     0.010 A 
ATOM      9  C   UNL d   1       1.480   3.021  -0.717  0.00  0.00     0.018 A 
ATOM     10  C   UNL d   1       1.679   4.392  -0.900  0.00  0.00     0.038 A 
ATOM     11  C   UNL d   1       1.131   5.301   0.007  0.00  0.00     0.076 A 
ATOM     12  C   UNL d   1       0.320   4.841   1.046  0.00  0.00     0.038 A 
ATOM     13  C   UNL d   1       0.112   3.470   1.223  0.00  0.00     0.018 A 
BRANCH  11  14
ATOM     14  O   UNL d   1       1.296   6.667  -0.069  0.00  0.00    -0.308 OA
BRANCH  14  15
ATOM     15  C   UNL d   1       2.497   7.193  -0.488  0.00  0.00     0.109 A 
ATOM     16  C   UNL d   1       2.533   8.389  -1.224  0.00  0.00     0.137 A 
ATOM     17  C   UNL d   1       3.768   8.903  -1.675  0.00  0.00     0.055 A 
ATOM     18  C   UNL d   1       4.973   8.239  -1.387  0.00  0.00     0.050 A 
ATOM     19  C   UNL d   1       4.931   7.084  -0.597  0.00  0.00     0.019 A 
ATOM     20  C   UNL d   1       3.713   6.584  -0.133  0.00  0.00     0.040 A 
BRANCH  16  21
ATOM     21  N   UNL d   1       1.313   9.152  -1.549  0.00  0.00    -0.113 N 
ATOM     22  O   UNL d   1       1.451  10.180  -2.228  0.00  0.00    -0.532 OA
ATOM     23  O   UNL d   1       0.219   8.753  -1.126  0.00  0.00    -0.532 OA
ENDBRANCH  16  21
BRANCH  18  24
ATOM     24  C   UNL d   1       6.298   8.742  -1.911  0.00  0.00     0.417 C 
ATOM     25  F   UNL d   1       6.193   9.881  -2.648  0.00  0.00    -0.166 F 
ATOM     26  F   UNL d   1       7.180   9.017  -0.914  0.00  0.00    -0.166 F 
ATOM     27  F   UNL d   1       6.909   7.830  -2.715  0.00  0.00    -0.166 F 
ENDBRANCH  18  24
ENDBRANCH  14  15
ENDBRANCH  11  14
ENDBRANCH   4   8
BRANCH   3  28
ATOM     28  C   UNL d   1      -0.244  -1.888   2.278  0.00  0.00     0.069 A 
ATOM     29  C   UNL d   1       0.070  -2.014   3.630  0.00  0.00     0.162 A 
ATOM     30  N   UNL d   1      -0.170  -3.151   4.343  0.00  0.00    -0.346 N 
ATOM     31  C   UNL d   1      -0.824  -4.159   3.737  0.00  0.00     0.090 A 
ATOM     32  HN  UNL d   1       0.138  -3.236   5.312  1.00  0.00     0.167 HD
ATOM     33  C   UNL d   1      -1.230  -4.111   2.422  0.00  0.00     0.018 A 
ATOM     34  C   UNL d   1      -0.919  -2.971   1.685  0.00  0.00     0.022 A 
BRANCH  29  35
ATOM     35  O   UNL d   1       0.668  -0.953   4.304  0.00  0.00    -0.293 OA
BRANCH  35  36
ATOM     36  C   UNL d   1       0.410  -0.857   5.660  0.00  0.00     0.077 A 
ATOM     37  C   UNL d   1       1.470  -0.522   6.505  0.00  0.00     0.037 A 
ATOM     38  C   UNL d   1       1.264  -0.457   7.887  0.00  0.00     0.003 A 
ATOM     39  C   UNL d   1       0.001  -0.718   8.423  0.00  0.00     0.000 A 
ATOM     40  C   UNL d   1      -1.066  -1.011   7.577  0.00  0.00     0.003 A 
ATOM     41  C   UNL d   1      -0.867  -1.054   6.198  0.00  0.00     0.037 A 
ENDBRANCH  35  36
ENDBRANCH  29  35
ENDBRANCH   3  28
TORSDOF 8
