REMARK  2 active torsions:
REMARK  status: ('A' for Active; 'I' for Inactive)
REMARK    1  A    between atoms: S_9  and  C_1 
REMARK    2  A    between atoms: C_10  and  S_9 
ROOT
ATOM      1  N   UNL d   1      -2.673  -2.697   3.354  0.00  0.00    -0.197 NA
ATOM      2  C   UNL d   1      -3.006  -2.881   2.255  0.00  0.00     0.069 C 
ATOM      3  C   UNL d   1      -3.444  -3.113   0.871  0.00  0.00     0.205 C 
ENDROOT
BRANCH   3   4
ATOM      4  S   UNL d   1      -3.716  -1.577  -0.066  0.00  0.00    -0.091 SA
BRANCH   4   5
ATOM      5  C   UNL d   1      -2.100  -0.901  -0.037  0.00  0.00     0.114 A 
ATOM      6  N   UNL d   1      -1.038  -1.670  -0.017  0.00  0.00    -0.344 N 
ATOM      7  C   UNL d   1       0.103  -0.880  -0.006  0.00  0.00     0.050 A 
ATOM      8  HN  UNL d   1      -1.048  -2.690  -0.011  1.00  0.00     0.167 HD
ATOM      9  C   UNL d   1       1.434  -1.347   0.012  0.00  0.00     0.031 A 
ATOM     10  C   UNL d   1      -0.121   0.499  -0.017  0.00  0.00     0.034 A 
ATOM     11  C   UNL d   1       2.495  -0.434   0.013  0.00  0.00     0.002 A 
ATOM     12  C   UNL d   1       2.247   0.935   0.004  0.00  0.00     0.002 A 
ATOM     13  C   UNL d   1       0.937   1.425  -0.009  0.00  0.00     0.021 A 
ATOM     14  S   UNL d   1      -1.819   0.785  -0.047  0.00  0.00    -0.063 SA
ENDBRANCH   4   5
ENDBRANCH   3   4
TORSDOF 2
