REMARK  3 active torsions:
REMARK  status: ('A' for Active; 'I' for Inactive)
REMARK    1  A    between atoms: C_2  and  C_1 
REMARK       I    between atoms: N_5  and  C_1 
REMARK    2  A    between atoms: C_4  and  C_2 
REMARK    3  A    between atoms: C_6  and  C_2 
ROOT
ATOM      1  C   UNL d   1       0.215   1.472  -0.207  0.00  0.00     0.114 C 
ENDROOT
BRANCH   1   2
ATOM      2  C   UNL d   1       0.930   0.110  -0.198  0.00  0.00     0.224 C 
ATOM      3  O   UNL d   1       1.993  -0.110  -0.772  0.00  0.00    -0.273 OA
ATOM      4  N   UNL d   1       0.271  -0.929   0.398  0.00  0.00    -0.370 N 
ATOM      5  H   UNL d   1      -0.466  -0.771   1.071  0.00  0.00     0.159 HD
ATOM      6  H   UNL d   1       0.774  -1.806   0.450  0.00  0.00     0.159 HD
ENDBRANCH   1   2
BRANCH   1   7
ATOM      7  C   UNL d   1      -0.621   1.734   1.046  0.00  0.00    -0.045 A 
ATOM      8  C   UNL d   1      -0.056   1.774   2.327  0.00  0.00     0.008 A 
ATOM      9  C   UNL d   1      -0.843   2.039   3.449  0.00  0.00     0.001 A 
ATOM     10  C   UNL d   1      -2.213   2.241   3.312  0.00  0.00     0.000 A 
ATOM     11  C   UNL d   1      -2.801   2.163   2.052  0.00  0.00     0.001 A 
ATOM     12  C   UNL d   1      -2.013   1.910   0.927  0.00  0.00     0.008 A 
ENDBRANCH   1   7
BRANCH   1  13
ATOM     13  C   UNL d   1       1.177   2.615  -0.632  0.00  0.00     0.003 C 
ATOM     14  C   UNL d   1       2.440   2.829   0.209  0.00  0.00     0.006 C 
ATOM     15  C   UNL d   1       2.944   4.218  -0.180  0.00  0.00     0.000 C 
ATOM     16  C   UNL d   1       1.762   4.942  -0.822  0.00  0.00     0.000 C 
ATOM     17  C   UNL d   1       0.561   4.016  -0.657  0.00  0.00     0.006 C 
ENDBRANCH   1  13
TORSDOF 3
