REMARK  0 active torsions:
REMARK  status: ('A' for Active; 'I' for Inactive)
ROOT
ATOM      1  C   UNL d   1      -2.155   2.529   4.272  0.00  0.00     0.065 C 
ATOM      2  C   UNL d   1      -1.302   3.009   1.823  0.00  0.00     0.065 C 
ATOM      3  C   UNL d   1      -0.369   2.012   2.590  0.00  0.00     0.085 C 
ATOM      4  C   UNL d   1      -0.635   2.134   4.103  0.00  0.00     0.085 C 
ATOM      5  C   UNL d   1      -3.007   1.850   3.170  0.00  0.00    -0.042 A 
ATOM      6  C   UNL d   1      -2.584   2.177   1.839  0.00  0.00    -0.042 A 
ATOM      7  C   UNL d   1      -1.661   4.280   2.627  0.00  0.00    -0.042 A 
ATOM      8  C   UNL d   1      -2.199   4.009   3.916  0.00  0.00    -0.042 A 
ATOM      9  C   UNL d   1       0.338   3.136   4.753  0.00  0.00     0.155 C 
ATOM     10  C   UNL d   1       1.075   2.078   2.201  0.00  0.00     0.155 C 
ATOM     11  C   UNL d   1       1.529   3.628   3.985  0.00  0.00     0.054 C 
ATOM     12  C   UNL d   1       1.899   3.118   2.803  0.00  0.00     0.054 C 
ATOM     13  O   UNL d   1       0.197   3.539   5.901  0.00  0.00    -0.293 OA
ATOM     14  O   UNL d   1       1.580   1.292   1.400  0.00  0.00    -0.293 OA
ATOM     15  C   UNL d   1      -3.246   1.718   0.712  0.00  0.00     0.008 A 
ATOM     16  C   UNL d   1      -1.683   5.585   2.154  0.00  0.00     0.008 A 
ATOM     17  C   UNL d   1      -4.124   1.051   3.342  0.00  0.00     0.008 A 
ATOM     18  C   UNL d   1      -2.759   5.001   4.713  0.00  0.00     0.008 A 
ATOM     19  C   UNL d   1      -4.796   0.577   2.202  0.00  0.00     0.001 A 
ATOM     20  C   UNL d   1      -2.781   6.301   4.223  0.00  0.00     0.001 A 
ATOM     21  C   UNL d   1      -4.361   0.905   0.907  0.00  0.00     0.001 A 
ATOM     22  C   UNL d   1      -2.241   6.591   2.960  0.00  0.00     0.001 A 
ENDROOT
TORSDOF 0
