REMARK  5 active torsions:
REMARK  status: ('A' for Active; 'I' for Inactive)
REMARK    1  A    between atoms: C_5  and  C_1 
REMARK    2  A    between atoms: N_12  and  C_4 
REMARK    3  A    between atoms: C_6  and  C_14 
REMARK    4  A    between atoms: N_7  and  N_12 
REMARK    5  A    between atoms: O_24  and  C_11 
ROOT
ATOM      1  N   UNL d   1      -1.651  -3.030   2.929  0.00  0.00    -0.132 N 
ATOM      2  H   UNL d   1      -1.954  -2.158   3.338  0.00  0.00     0.205 HD
ENDROOT
BRANCH   1   3
ATOM      3  N   UNL d   1      -2.044  -4.261   3.319  0.00  0.00    -0.297 N 
ATOM      4  C   UNL d   1      -2.808  -4.327   4.359  0.00  0.00     0.122 C 
ATOM      5  HN  UNL d   1      -1.752  -5.099   2.817  1.00  0.00     0.186 HD
BRANCH   4   6
ATOM      6  C   UNL d   1      -3.272  -5.642   4.838  0.00  0.00     0.015 A 
ATOM      7  C   UNL d   1      -4.478  -5.825   5.526  0.00  0.00     0.080 A 
ATOM      8  C   UNL d   1      -4.797  -7.103   6.004  0.00  0.00     0.039 A 
ATOM      9  C   UNL d   1      -3.934  -8.187   5.796  0.00  0.00     0.022 A 
ATOM     10  C   UNL d   1      -2.739  -7.991   5.111  0.00  0.00     0.011 A 
ATOM     11  C   UNL d   1      -2.411  -6.733   4.623  0.00  0.00     0.034 A 
ATOM     12 BR   UNL d   1      -1.539  -9.432   4.877  0.00  0.00    -0.051 Br
BRANCH   7  13
ATOM     13  O   UNL d   1      -5.375  -4.851   5.870  0.00  0.00    -0.355 OA
ATOM     14  C   UNL d   1      -5.811  -4.002   4.811  0.00  0.00     0.210 C 
ENDBRANCH   7  13
ENDBRANCH   4   6
ENDBRANCH   1   3
BRANCH   1  15
ATOM     15  C   UNL d   1      -0.798  -2.876   1.833  0.00  0.00     0.697 A 
ATOM     16  N   UNL d   1      -0.474  -1.618   1.499  0.00  0.00    -0.185 N 
ATOM     17  C   UNL d   1       0.366  -1.437   0.442  0.00  0.00     0.133 A 
ATOM     18  HN  UNL d   1      -0.844  -0.823   2.020  1.00  0.00     0.184 HD
ATOM     19  C   UNL d   1       0.876  -2.500  -0.281  0.00  0.00     0.052 A 
ATOM     20  C   UNL d   1       0.488  -3.746   0.132  0.00  0.00     0.108 A 
ATOM     21  N   UNL d   1      -0.336  -3.953   1.171  0.00  0.00    -0.200 N 
ATOM     22  HN  UNL d   1      -0.604  -4.897   1.450  1.00  0.00     0.183 HD
BRANCH  17  23
ATOM     23  C   UNL d   1       0.768  -0.030   0.038  0.00  0.00     0.433 C 
ATOM     24  F   UNL d   1       0.204   0.956   0.791  0.00  0.00    -0.165 F 
ATOM     25  F   UNL d   1       0.437   0.255  -1.255  0.00  0.00    -0.165 F 
ATOM     26  F   UNL d   1       2.117   0.167   0.118  0.00  0.00    -0.165 F 
ENDBRANCH  17  23
ENDBRANCH   1  15
TORSDOF 5
