REMARK  3 active torsions:
REMARK  status: ('A' for Active; 'I' for Inactive)
REMARK    1  A    between atoms: N_6  and  C_1 
REMARK       I    between atoms: C_8  and  N_6 
REMARK    2  A    between atoms: C_10  and  C_8 
REMARK    3  A    between atoms: N_9  and  C_10 
ROOT
ATOM      1  N   UNL d   1       2.305  -1.938   0.669  0.00  0.00    -0.309 N 
ATOM      2  C   UNL d   1       1.957  -2.747  -0.463  0.00  0.00     0.251 C 
ATOM      3  O   UNL d   1       2.623  -2.696  -1.485  0.00  0.00    -0.271 OA
ATOM      4  H   UNL d   1       1.841  -2.109   1.554  0.00  0.00     0.170 HD
ENDROOT
BRANCH   1   5
ATOM      5  C   UNL d   1       3.386  -1.064   0.675  0.00  0.00     0.143 A 
ATOM      6  C   UNL d   1       4.129  -0.790   1.800  0.00  0.00     0.073 A 
ATOM      7  C   UNL d   1       5.149   0.077   1.397  0.00  0.00     0.130 A 
ATOM      8 BR   UNL d   1       3.937  -1.487   3.524  0.00  0.00    -0.045 Br
ATOM      9  N   UNL d   1       5.048   0.388   0.103  0.00  0.00    -0.307 N 
ATOM     10  N   UNL d   1       3.951  -0.290  -0.317  0.00  0.00    -0.280 N 
ATOM     11  HN  UNL d   1       5.656   0.996  -0.445  1.00  0.00     0.186 HD
ATOM     12  C   UNL d   1       3.441   0.032  -1.629  0.00  0.00     0.179 C 
ENDBRANCH   1   5
BRANCH   2  13
ATOM     13  C   UNL d   1       0.740  -3.654  -0.283  0.00  0.00     0.375 C 
BRANCH  13  14
ATOM     14  N   UNL d   1      -0.530  -2.949  -0.566  0.00  0.00     0.101 N 
ATOM     15  C   UNL d   1      -1.684  -3.876  -0.398  0.00  0.00     0.299 C 
ATOM     16  C   UNL d   1      -1.820  -4.933  -1.514  0.00  0.00     0.198 C 
ATOM     17  O   UNL d   1      -1.869  -4.324  -2.808  0.00  0.00    -0.388 OA
ATOM     18  C   UNL d   1      -0.728  -3.494  -3.041  0.00  0.00     0.198 C 
ATOM     19  C   UNL d   1      -0.609  -2.414  -1.952  0.00  0.00     0.299 C 
ENDBRANCH  13  14
ENDBRANCH   2  13
TORSDOF 3
