REMARK  6 active torsions:
REMARK  status: ('A' for Active; 'I' for Inactive)
REMARK    1  A    between atoms: C_3  and  C_1 
REMARK    2  A    between atoms: N_4  and  C_2 
REMARK    3  A    between atoms: O_11  and  C_3 
REMARK       I    between atoms: C_5  and  N_4 
REMARK    4  A    between atoms: C_10  and  C_5 
REMARK    5  A    between atoms: O_9  and  C_10 
REMARK    6  A    between atoms: C_14  and  O_9 
ROOT
ATOM      1  N   UNL d   1      -1.903  -2.554  -0.111  0.00  0.00    -0.324 N 
ATOM      2  C   UNL d   1      -1.355  -3.782  -0.444  0.00  0.00     0.246 C 
ATOM      3  O   UNL d   1      -0.288  -3.924  -1.037  0.00  0.00    -0.271 OA
ATOM      4  H   UNL d   1      -2.922  -2.514  -0.023  0.00  0.00     0.169 HD
ENDROOT
BRANCH   1   5
ATOM      5  C   UNL d   1      -1.258  -1.318  -0.360  0.00  0.00     0.054 A 
ATOM      6  C   UNL d   1      -1.987  -0.213  -0.832  0.00  0.00     0.102 A 
ATOM      7  C   UNL d   1      -1.331   0.998  -1.051  0.00  0.00     0.135 A 
ATOM      8  F   UNL d   1      -1.999   2.049  -1.549  0.00  0.00    -0.205 F 
ATOM      9  C   UNL d   1       0.031   1.138  -0.804  0.00  0.00     0.043 A 
ATOM     10  C   UNL d   1       0.758   0.046  -0.341  0.00  0.00     0.005 A 
ATOM     11  C   UNL d   1       0.118  -1.177  -0.124  0.00  0.00     0.031 A 
BRANCH   6  12
ATOM     12  C   UNL d   1      -3.424  -0.363  -1.168  0.00  0.00     0.181 C 
ATOM     13  O   UNL d   1      -4.128  -1.196  -0.621  0.00  0.00    -0.646 OA
BRANCH  12  14
ATOM     14  O   UNL d   1      -3.863   0.404  -2.186  0.00  0.00    -0.773 OA
ATOM     15  H   UNL d   1      -3.219   1.047  -2.542  0.00  0.00     0.167 HD
ENDBRANCH  12  14
ENDBRANCH   6  12
ENDBRANCH   1   5
BRANCH   2  16
ATOM     16  C   UNL d   1      -2.202  -4.979  -0.025  0.00  0.00     0.278 C 
BRANCH  16  17
ATOM     17  O   UNL d   1      -1.575  -5.540   1.122  0.00  0.00    -0.342 OA
BRANCH  17  18
ATOM     18  C   UNL d   1      -2.095  -6.699   1.620  0.00  0.00     0.069 A 
ATOM     19  C   UNL d   1      -3.238  -7.355   1.163  0.00  0.00     0.037 A 
ATOM     20  C   UNL d   1      -3.666  -8.532   1.788  0.00  0.00     0.003 A 
ATOM     21  C   UNL d   1      -2.954  -9.056   2.867  0.00  0.00     0.000 A 
ATOM     22  C   UNL d   1      -1.809  -8.407   3.321  0.00  0.00     0.003 A 
ATOM     23  C   UNL d   1      -1.383  -7.234   2.698  0.00  0.00     0.037 A 
ENDBRANCH  17  18
ENDBRANCH  16  17
ENDBRANCH   2  16
TORSDOF 6
