REMARK  6 active torsions:
REMARK  status: ('A' for Active; 'I' for Inactive)
REMARK    1  A    between atoms: C_2  and  S_1 
REMARK    2  A    between atoms: N_4  and  S_1 
REMARK    3  A    between atoms: C_3  and  C_5 
REMARK    4  A    between atoms: C_5  and  N_4 
REMARK    5  A    between atoms: O_17  and  C_9 
REMARK    6  A    between atoms: O_18  and  C_13 
ROOT
ATOM      1  S   UNL d   1       0.855   0.059   0.148  0.00  0.00     0.244 S 
ATOM      2  O   UNL d   1       2.297   0.006   0.029  0.00  0.00    -0.206 OA
ATOM      3  O   UNL d   1      -0.008   0.236  -0.997  0.00  0.00    -0.206 OA
ENDROOT
BRANCH   1   4
ATOM      4  C   UNL d   1       0.465   1.319   1.329  0.00  0.00     0.110 A 
ATOM      5  C   UNL d   1      -0.188   0.928   2.517  0.00  0.00     0.064 A 
ATOM      6  C   UNL d   1      -0.482   1.858   3.515  0.00  0.00     0.069 A 
ATOM      7  C   UNL d   1      -0.165   3.196   3.310  0.00  0.00     0.039 A 
ATOM      8  C   UNL d   1       0.496   3.587   2.146  0.00  0.00     0.041 A 
ATOM      9  C   UNL d   1       0.834   2.660   1.146  0.00  0.00     0.091 A 
BRANCH   6  10
ATOM     10  O   UNL d   1      -1.063   1.582   4.720  0.00  0.00    -0.356 OA
ATOM     11  C   UNL d   1      -1.155   0.211   5.091  0.00  0.00     0.210 C 
ENDBRANCH   6  10
BRANCH   9  12
ATOM     12  O   UNL d   1       1.610   3.235   0.181  0.00  0.00    -0.354 OA
ATOM     13  C   UNL d   1       1.410   2.899  -1.182  0.00  0.00     0.210 C 
ENDBRANCH   9  12
ENDBRANCH   1   4
BRANCH   1  14
ATOM     14  N   UNL d   1       0.450  -1.427   0.868  0.00  0.00    -0.211 NA
ATOM     15  H   UNL d   1       1.264  -2.043   0.788  0.00  0.00     0.140 HD
BRANCH  14  16
ATOM     16  C   UNL d   1      -0.833  -2.024   0.458  0.00  0.00     0.147 C 
BRANCH  16  17
ATOM     17  C   UNL d   1      -1.037  -3.487   0.794  0.00  0.00     0.016 A 
ATOM     18  C   UNL d   1      -2.354  -3.908   1.039  0.00  0.00     0.125 A 
ATOM     19  F   UNL d   1      -3.340  -2.997   1.081  0.00  0.00    -0.205 F 
ATOM     20  C   UNL d   1      -2.699  -5.248   1.206  0.00  0.00     0.043 A 
ATOM     21  C   UNL d   1      -1.714  -6.223   1.131  0.00  0.00     0.005 A 
ATOM     22  C   UNL d   1      -0.395  -5.843   0.892  0.00  0.00     0.024 A 
ATOM     23  C   UNL d   1      -0.060  -4.491   0.712  0.00  0.00     0.044 A 
ATOM     24 CL   UNL d   1       1.596  -4.156   0.345  0.00  0.00    -0.084 Cl
ENDBRANCH  16  17
ENDBRANCH  14  16
ENDBRANCH   1  14
TORSDOF 6
