REMARK  1 active torsions:
REMARK  status: ('A' for Active; 'I' for Inactive)
REMARK    1  A    between atoms: C_2  and  C_4 
ROOT
ATOM      1  C   UNL d   1      -1.047  -2.952  -0.328  0.00  0.00     0.045 A 
ATOM      2  C   UNL d   1       0.435  -2.875  -0.084  0.00  0.00     0.257 A 
ATOM      3  C   UNL d   1      -1.849  -1.948   0.054  0.00  0.00     0.030 C 
ATOM      4  N   UNL d   1       0.913  -4.135  -0.404  0.00  0.00    -0.322 N 
ATOM      5  C   UNL d   1      -1.333  -4.282  -0.869  0.00  0.00     0.006 A 
ATOM      6  C   UNL d   1      -0.113  -4.966  -0.850  0.00  0.00     0.046 A 
ATOM      7  O   UNL d   1       1.076  -1.925   0.331  0.00  0.00    -0.267 OA
ATOM      8  C   UNL d   1      -2.478  -4.915  -1.317  0.00  0.00     0.015 A 
ATOM      9  C   UNL d   1       0.001  -6.292  -1.219  0.00  0.00     0.030 A 
ATOM     10  C   UNL d   1      -2.389  -6.263  -1.684  0.00  0.00     0.001 A 
ATOM     11  C   UNL d   1      -1.162  -6.948  -1.627  0.00  0.00     0.002 A 
ATOM     12  H   UNL d   1       1.882  -4.392  -0.306  0.00  0.00     0.169 HD
ENDROOT
BRANCH   3  13
ATOM     13  C   UNL d   1      -3.322  -1.955   0.001  0.00  0.00    -0.022 A 
ATOM     14  C   UNL d   1      -4.057  -2.448   1.110  0.00  0.00    -0.045 A 
ATOM     15  C   UNL d   1      -5.468  -2.316   1.123  0.00  0.00    -0.049 A 
ATOM     16  C   UNL d   1      -3.363  -3.122   2.275  0.00  0.00     0.049 C 
ATOM     17  C   UNL d   1      -6.291  -2.793   2.303  0.00  0.00     0.049 C 
ATOM     18  C   UNL d   1      -6.136  -1.707   0.026  0.00  0.00    -0.049 A 
ATOM     19  C   UNL d   1      -5.402  -1.292  -1.115  0.00  0.00    -0.049 A 
ATOM     20  C   UNL d   1      -7.635  -1.499   0.110  0.00  0.00     0.049 C 
ATOM     21  C   UNL d   1      -3.989  -1.431  -1.135  0.00  0.00    -0.045 A 
ATOM     22  C   UNL d   1      -6.136  -0.677  -2.288  0.00  0.00     0.049 C 
ATOM     23  C   UNL d   1      -3.220  -0.995  -2.364  0.00  0.00     0.049 C 
ENDBRANCH   3  13
TORSDOF 1
