REMARK  3 active torsions:
REMARK  status: ('A' for Active; 'I' for Inactive)
REMARK    1  A    between atoms: C_9  and  N_3 
REMARK    2  A    between atoms: C_8  and  C_4 
REMARK       I    between atoms: N_11  and  C_8 
REMARK    3  A    between atoms: N_12  and  N_11 
ROOT
ATOM      1  N   UNL d   1      -0.348  -1.003  -0.073  0.00  0.00    -0.272 N 
ATOM      2  HN  UNL d   1      -0.592  -1.990  -0.155  1.00  0.00     0.189 HD
ATOM      3  N   UNL d   1       0.889  -0.432  -0.029  0.00  0.00    -0.196 N 
ATOM      4  C   UNL d   1      -1.169   0.067   0.018  0.00  0.00     0.142 A 
ATOM      5  N   UNL d   1       0.914   0.919   0.078  0.00  0.00    -0.281 N 
ATOM      6  HN  UNL d   1       1.723   1.537   0.138  1.00  0.00     0.189 HD
ATOM      7  C   UNL d   1      -0.384   1.242   0.086  0.00  0.00     0.057 A 
ATOM      8  C   UNL d   1      -0.783   2.668   0.152  0.00  0.00     0.072 C 
ENDROOT
BRANCH   4   9
ATOM      9  C   UNL d   1      -2.626  -0.060   0.036  0.00  0.00     0.285 C 
ATOM     10  O   UNL d   1      -3.394   0.895   0.143  0.00  0.00    -0.265 OA
ATOM     11  N   UNL d   1      -3.077  -1.372  -0.074  0.00  0.00    -0.288 N 
ATOM     12  H   UNL d   1      -2.382  -2.101  -0.238  0.00  0.00     0.183 HD
BRANCH  11  13
ATOM     13  N   UNL d   1      -4.460  -1.659  -0.147  0.00  0.00    -0.247 NA
ATOM     14  H   UNL d   1      -4.944  -0.774  -0.354  0.00  0.00     0.143 HD
ATOM     15  H   UNL d   1      -4.780  -1.899   0.796  0.00  0.00     0.143 HD
ENDBRANCH  11  13
ENDBRANCH   4   9
BRANCH   3  16
ATOM     16  C   UNL d   1       2.085  -1.194  -0.103  0.00  0.00     0.074 A 
ATOM     17  C   UNL d   1       2.036  -2.580  -0.310  0.00  0.00     0.033 A 
ATOM     18  C   UNL d   1       3.224  -3.311  -0.402  0.00  0.00     0.002 A 
ATOM     19  C   UNL d   1       4.456  -2.669  -0.277  0.00  0.00     0.000 A 
ATOM     20  C   UNL d   1       4.509  -1.293  -0.061  0.00  0.00     0.002 A 
ATOM     21  C   UNL d   1       3.328  -0.553   0.024  0.00  0.00     0.033 A 
ENDBRANCH   3  16
TORSDOF 3
