REMARK  5 active torsions:
REMARK  status: ('A' for Active; 'I' for Inactive)
REMARK    1  A    between atoms: N_7  and  C_1 
REMARK    2  A    between atoms: C_9  and  C_2 
REMARK    3  A    between atoms: C_10  and  C_3 
REMARK    4  A    between atoms: S_8  and  N_7 
REMARK    5  A    between atoms: O_23  and  C_20 
ROOT
ATOM      1  C   UNL d   1       0.090  -1.135   0.072  0.00  0.00     0.144 A 
ATOM      2  C   UNL d   1       1.334   0.710  -0.092  0.00  0.00     0.147 A 
ATOM      3  C   UNL d   1       1.417  -0.732  -0.013  0.00  0.00     0.053 A 
ATOM      4  N   UNL d   1       0.046   1.116  -0.030  0.00  0.00    -0.292 N 
ATOM      5  HN  UNL d   1      -0.300   2.075  -0.022  1.00  0.00     0.187 HD
ATOM      6  N   UNL d   1      -0.676  -0.005   0.016  0.00  0.00    -0.279 N 
ATOM      7  C   UNL d   1      -2.118   0.085  -0.036  0.00  0.00     0.179 C 
ENDROOT
BRANCH   3   8
ATOM      8  C   UNL d   1       2.569  -1.642   0.020  0.00  0.00    -0.020 A 
ATOM      9  C   UNL d   1       3.769  -1.266   0.638  0.00  0.00     0.015 A 
ATOM     10  C   UNL d   1       4.880  -2.123   0.665  0.00  0.00     0.037 A 
ATOM     11  C   UNL d   1       4.791  -3.404   0.131  0.00  0.00     0.068 A 
ATOM     12  C   UNL d   1       3.590  -3.817  -0.434  0.00  0.00     0.037 A 
ATOM     13  C   UNL d   1       2.507  -2.936  -0.526  0.00  0.00     0.015 A 
BRANCH  11  14
ATOM     14  O   UNL d   1       5.782  -4.342   0.153  0.00  0.00    -0.356 OA
ATOM     15  C   UNL d   1       7.111  -3.836   0.066  0.00  0.00     0.210 C 
ENDBRANCH  11  14
ENDBRANCH   3   8
BRANCH   2  16
ATOM     16  C   UNL d   1       2.426   1.748  -0.226  0.00  0.00     0.434 C 
ATOM     17  F   UNL d   1       3.636   1.222  -0.543  0.00  0.00    -0.165 F 
ATOM     18  F   UNL d   1       2.148   2.657  -1.197  0.00  0.00    -0.165 F 
ATOM     19  F   UNL d   1       2.598   2.440   0.932  0.00  0.00    -0.165 F 
ENDBRANCH   2  16
BRANCH   1  20
ATOM     20  N   UNL d   1      -0.386  -2.429   0.101  0.00  0.00    -0.268 N 
ATOM     21  H   UNL d   1      -0.570  -2.913  -0.765  0.00  0.00     0.180 HD
BRANCH  20  22
ATOM     22  S   UNL d   1      -0.658  -3.299   1.451  0.00  0.00     0.228 S 
ATOM     23  O   UNL d   1      -2.040  -3.088   1.843  0.00  0.00    -0.206 OA
ATOM     24  O   UNL d   1      -0.194  -4.646   1.200  0.00  0.00    -0.206 OA
ATOM     25  C   UNL d   1       0.340  -2.642   2.764  0.00  0.00     0.186 C 
ENDBRANCH  20  22
ENDBRANCH   1  20
TORSDOF 5
