REMARK  7 active torsions:
REMARK  status: ('A' for Active; 'I' for Inactive)
REMARK    1  A    between atoms: C_8  and  N_1 
REMARK    2  A    between atoms: C_7  and  C_3 
REMARK    3  A    between atoms: C_10  and  C_4 
REMARK    4  A    between atoms: O_20  and  C_7 
REMARK    5  A    between atoms: C_17  and  N_9 
REMARK    6  A    between atoms: C_26  and  C_17 
REMARK    7  A    between atoms: O_27  and  C_21 
ROOT
ATOM      1  N   UNL d   1      -2.049  -0.241   0.041  0.00  0.00    -0.333 N 
ATOM      2  C   UNL d   1      -1.068   0.759   0.113  0.00  0.00     0.255 C 
ATOM      3  C   UNL d   1      -0.364  -2.064   0.219  0.00  0.00     0.145 C 
ATOM      4  C   UNL d   1      -1.635  -1.556  -0.499  0.00  0.00     0.140 C 
ATOM      5  C   UNL d   1       0.736  -1.026   0.211  0.00  0.00    -0.026 A 
ATOM      6  C   UNL d   1       0.368   0.330   0.159  0.00  0.00     0.039 A 
ATOM      7  O   UNL d   1      -1.292   1.964   0.139  0.00  0.00    -0.267 OA
ATOM      8  C   UNL d   1       2.098  -1.357   0.288  0.00  0.00     0.009 A 
ATOM      9  C   UNL d   1       1.357   1.323   0.087  0.00  0.00     0.017 A 
ATOM     10  C   UNL d   1       3.074  -0.362   0.200  0.00  0.00     0.001 A 
ATOM     11  C   UNL d   1       2.706   0.975   0.085  0.00  0.00     0.001 A 
ENDROOT
BRANCH   1  12
ATOM     12  C   UNL d   1      -3.521   0.036   0.126  0.00  0.00     0.091 C 
ATOM     13  C   UNL d   1      -3.981   1.458   0.483  0.00  0.00     0.055 C 
ATOM     14  C   UNL d   1      -3.666   1.835   1.932  0.00  0.00     0.275 C 
ATOM     15  N   UNL d   1      -4.115   0.860   2.944  0.00  0.00     0.092 N 
ATOM     16  C   UNL d   1      -3.820  -0.532   2.573  0.00  0.00     0.275 C 
ATOM     17  C   UNL d   1      -4.228  -0.881   1.142  0.00  0.00     0.055 C 
BRANCH  15  18
ATOM     18  C   UNL d   1      -3.450   1.208   4.224  0.00  0.00     0.311 C 
BRANCH  18  19
ATOM     19  C   UNL d   1      -3.885   0.381   5.411  0.00  0.00    -0.030 A 
ATOM     20  C   UNL d   1      -2.984  -0.487   6.046  0.00  0.00     0.009 A 
ATOM     21  C   UNL d   1      -3.379  -1.239   7.150  0.00  0.00     0.001 A 
ATOM     22  C   UNL d   1      -4.684  -1.131   7.635  0.00  0.00     0.000 A 
ATOM     23  C   UNL d   1      -5.588  -0.271   7.011  0.00  0.00     0.001 A 
ATOM     24  C   UNL d   1      -5.193   0.480   5.904  0.00  0.00     0.009 A 
ENDBRANCH  18  19
ENDBRANCH  15  18
ENDBRANCH   1  12
BRANCH   4  25
ATOM     25  C   UNL d   1      -1.571  -1.530  -2.036  0.00  0.00    -0.034 A 
ATOM     26  C   UNL d   1      -2.454  -2.338  -2.772  0.00  0.00     0.012 A 
ATOM     27  C   UNL d   1      -2.442  -2.340  -4.175  0.00  0.00     0.037 A 
ATOM     28  C   UNL d   1      -1.543  -1.536  -4.873  0.00  0.00     0.068 A 
ATOM     29  C   UNL d   1      -0.658  -0.739  -4.157  0.00  0.00     0.037 A 
ATOM     30  C   UNL d   1      -0.677  -0.729  -2.762  0.00  0.00     0.012 A 
BRANCH  28  31
ATOM     31  O   UNL d   1      -1.421  -1.434  -6.229  0.00  0.00    -0.356 OA
ATOM     32  C   UNL d   1      -2.388  -2.118  -7.012  0.00  0.00     0.210 C 
ENDBRANCH  28  31
ENDBRANCH   4  25
BRANCH   3  33
ATOM     33  C   UNL d   1      -0.036  -3.454  -0.286  0.00  0.00     0.150 C 
ATOM     34  O   UNL d   1      -0.510  -4.463   0.223  0.00  0.00    -0.649 OA
BRANCH  33  35
ATOM     35  O   UNL d   1       0.769  -3.532  -1.367  0.00  0.00    -0.776 OA
ATOM     36  H   UNL d   1       1.018  -2.675  -1.767  0.00  0.00     0.167 HD
ENDBRANCH  33  35
ENDBRANCH   3  33
TORSDOF 7
