REMARK  2 active torsions:
REMARK  status: ('A' for Active; 'I' for Inactive)
REMARK    1  A    between atoms: C_2  and  N_1 
REMARK    2  A    between atoms: O_16  and  C_6 
ROOT
ATOM      1  C   UNL d   1       1.156   2.232  -1.116  0.00  0.00     0.080 A 
ATOM      2  C   UNL d   1       1.990   2.161  -2.243  0.00  0.00     0.057 A 
ATOM      3  C   UNL d   1       0.844   3.486  -0.566  0.00  0.00     0.095 A 
ATOM      4  C   UNL d   1       1.322   4.653  -1.171  0.00  0.00     0.041 A 
ATOM      5  C   UNL d   1       2.463   3.330  -2.834  0.00  0.00     0.036 A 
ATOM      6  C   UNL d   1       2.131   4.576  -2.306  0.00  0.00     0.026 A 
ATOM      7 CL   UNL d   1       3.432   3.233  -4.254  0.00  0.00    -0.084 Cl
ENDROOT
BRANCH   1   8
ATOM      8  N   UNL d   1       0.582   1.028  -0.616  0.00  0.00    -0.246 N 
ATOM      9  C   UNL d   1       1.443   0.046  -0.117  0.00  0.00     0.255 C 
ATOM     10  O   UNL d   1       2.667   0.163  -0.039  0.00  0.00    -0.270 OA
ATOM     11  C   UNL d   1       0.767  -1.252   0.308  0.00  0.00     0.271 C 
ATOM     12  O   UNL d   1      -0.596  -1.105   0.663  0.00  0.00    -0.373 OA
ATOM     13  C   UNL d   1      -1.320  -0.530  -0.408  0.00  0.00     0.271 C 
ATOM     14  C   UNL d   1      -0.781   0.824  -0.865  0.00  0.00     0.255 C 
ATOM     15  O   UNL d   1      -1.502   1.582  -1.515  0.00  0.00    -0.270 OA
ENDBRANCH   1   8
BRANCH   3  16
ATOM     16  O   UNL d   1       0.054   3.667   0.539  0.00  0.00    -0.354 OA
ATOM     17  C   UNL d   1       0.577   3.043   1.712  0.00  0.00     0.210 C 
ENDBRANCH   3  16
TORSDOF 2
