REMARK  3 active torsions:
REMARK  status: ('A' for Active; 'I' for Inactive)
REMARK    1  A    between atoms: C_3  and  C_1 
REMARK    2  A    between atoms: C_2  and  N_6 
REMARK       I    between atoms: N_6  and  C_3 
REMARK    3  A    between atoms: C_14  and  C_9 
ROOT
ATOM      1  C   UNL d   1       0.987   0.142  -0.013  0.00  0.00     0.113 C 
ATOM      2  C   UNL d   1       0.251   0.507   1.056  0.00  0.00     0.039 C 
ATOM      3  C   UNL d   1       0.398  -0.264  -1.243  0.00  0.00     0.105 C 
ATOM      4  N   UNL d   1      -0.048  -0.569  -2.268  0.00  0.00    -0.191 NA
ENDROOT
BRANCH   1   5
ATOM      5  C   UNL d   1       2.480   0.099   0.183  0.00  0.00     0.267 C 
ATOM      6  N   UNL d   1       3.225  -0.065  -0.971  0.00  0.00    -0.307 N 
ATOM      7  H   UNL d   1       2.792  -0.024  -1.883  0.00  0.00     0.170 HD
ATOM      8  O   UNL d   1       2.932   0.229   1.317  0.00  0.00    -0.266 OA
BRANCH   6   9
ATOM      9  C   UNL d   1       4.590  -0.294  -0.983  0.00  0.00     0.124 A 
ATOM     10  N   UNL d   1       5.333  -0.571   0.088  0.00  0.00    -0.284 N 
ATOM     11  N   UNL d   1       6.571  -0.762  -0.388  0.00  0.00    -0.306 N 
ATOM     12  HN  UNL d   1       5.027  -0.625   1.059  1.00  0.00     0.188 HD
ATOM     13  C   UNL d   1       7.633  -1.160   0.503  0.00  0.00     0.177 C 
ATOM     14  C   UNL d   1       6.659  -0.600  -1.738  0.00  0.00     0.113 A 
ATOM     15  C   UNL d   1       5.381  -0.310  -2.159  0.00  0.00     0.068 A 
ENDBRANCH   6   9
ENDBRANCH   1   5
BRANCH   2  16
ATOM     16  C   UNL d   1      -1.212   0.463   1.132  0.00  0.00    -0.035 A 
ATOM     17  C   UNL d   1      -1.805  -0.539   1.911  0.00  0.00     0.013 A 
ATOM     18  C   UNL d   1      -3.195  -0.639   1.991  0.00  0.00     0.024 A 
ATOM     19  C   UNL d   1      -3.993   0.267   1.298  0.00  0.00     0.034 A 
ATOM     20  C   UNL d   1      -3.412   1.276   0.529  0.00  0.00     0.024 A 
ATOM     21 CL   UNL d   1      -5.706   0.140   1.391  0.00  0.00    -0.084 Cl
ATOM     22  C   UNL d   1      -2.020   1.377   0.447  0.00  0.00     0.013 A 
ENDBRANCH   2  16
TORSDOF 3
