REMARK  4 active torsions:
REMARK  status: ('A' for Active; 'I' for Inactive)
REMARK    1  A    between atoms: N_5  and  C_3 
REMARK    2  A    between atoms: N_12  and  C_4 
REMARK    3  A    between atoms: C_6  and  C_13 
REMARK    4  A    between atoms: C_11  and  N_12 
ROOT
ATOM      1  N   UNL d   1      -0.647  -1.127   0.464  0.00  0.00    -0.021 N 
ATOM      2  HN  UNL d   1      -1.102  -1.988   0.769  1.00  0.00     0.203 HD
ATOM      3  C   UNL d   1      -1.337  -0.004   0.273  0.00  0.00     0.703 A 
ATOM      4  C   UNL d   1       0.661  -1.074   0.240  0.00  0.00     0.698 A 
ATOM      5  N   UNL d   1      -0.797   1.150  -0.124  0.00  0.00    -0.186 N 
ATOM      6  HN  UNL d   1      -1.346   1.992  -0.294  1.00  0.00     0.185 HD
ATOM      7  N   UNL d   1       1.304   0.037  -0.099  0.00  0.00    -0.187 N 
ATOM      8  HN  UNL d   1       2.317   0.073  -0.213  1.00  0.00     0.185 HD
ATOM      9  C   UNL d   1       0.523   1.102  -0.279  0.00  0.00     0.215 A 
ENDROOT
BRANCH   4  10
ATOM     10  N   UNL d   1       1.397  -2.250   0.346  0.00  0.00    -0.189 N 
ATOM     11  H   UNL d   1       2.394  -2.089   0.314  0.00  0.00     0.184 HD
BRANCH  10  12
ATOM     12  C   UNL d   1       0.978  -3.562   0.045  0.00  0.00     0.071 A 
ATOM     13  C   UNL d   1      -0.128  -3.792  -0.794  0.00  0.00     0.048 A 
ATOM     14  C   UNL d   1      -0.602  -5.083  -1.070  0.00  0.00     0.050 A 
ATOM     15  C   UNL d   1       0.041  -6.176  -0.476  0.00  0.00     0.018 A 
ATOM     16  C   UNL d   1       1.138  -5.974   0.364  0.00  0.00     0.027 A 
ATOM     17  C   UNL d   1       1.607  -4.680   0.617  0.00  0.00     0.061 A 
ATOM     18 CL   UNL d   1       2.966  -4.494   1.670  0.00  0.00    -0.082 Cl
BRANCH  14  19
ATOM     19  C   UNL d   1      -1.777  -5.287  -1.997  0.00  0.00     0.417 C 
ATOM     20  F   UNL d   1      -2.290  -4.131  -2.497  0.00  0.00    -0.166 F 
ATOM     21  F   UNL d   1      -1.454  -6.048  -3.079  0.00  0.00    -0.166 F 
ATOM     22  F   UNL d   1      -2.816  -5.922  -1.389  0.00  0.00    -0.166 F 
ENDBRANCH  14  19
ENDBRANCH  10  12
ENDBRANCH   4  10
BRANCH   3  23
ATOM     23  N   UNL d   1      -2.746  -0.078   0.484  0.00  0.00    -0.168 N 
ATOM     24  C   UNL d   1      -3.432  -1.180   0.963  0.00  0.00     0.114 A 
ATOM     25  C   UNL d   1      -4.776  -0.885   1.010  0.00  0.00     0.020 A 
ATOM     26  C   UNL d   1      -4.927   0.441   0.543  0.00  0.00     0.020 A 
ATOM     27  C   UNL d   1      -3.670   0.918   0.238  0.00  0.00     0.114 A 
ENDBRANCH   3  23
TORSDOF 4
