REMARK  1 active torsions:
REMARK  status: ('A' for Active; 'I' for Inactive)
REMARK    1  A    between atoms: C_7  and  C_2 
ROOT
ATOM      1  C   UNL d   1      -0.964  -0.546  -0.003  0.00  0.00     0.068 A 
ATOM      2  C   UNL d   1      -3.040  -1.156  -0.067  0.00  0.00     0.118 A 
ATOM      3  N   UNL d   1      -1.808  -1.632  -0.011  0.00  0.00    -0.339 N 
ATOM      4  HN  UNL d   1      -1.536  -2.614   0.020  1.00  0.00     0.167 HD
ATOM      5  C   UNL d   1      -1.700   0.615  -0.003  0.00  0.00     0.047 A 
ATOM      6  N   UNL d   1      -3.005   0.217  -0.041  0.00  0.00    -0.343 N 
ATOM      7  C   UNL d   1       0.492  -0.511   0.013  0.00  0.00     0.005 A 
ATOM      8  C   UNL d   1      -1.232   2.029   0.048  0.00  0.00     0.001 A 
ATOM      9  C   UNL d   1       1.105   0.772   0.020  0.00  0.00    -0.043 A 
ATOM     10  C   UNL d   1       1.318  -1.657   0.005  0.00  0.00    -0.048 A 
ATOM     11  C   UNL d   1       0.325   2.080  -0.014  0.00  0.00     0.054 A 
ATOM     12  C   UNL d   1       2.507   0.890   0.021  0.00  0.00     0.014 A 
ATOM     13  C   UNL d   1       2.724  -1.495   0.008  0.00  0.00     0.014 A 
ATOM     14  C   UNL d   1       3.325  -0.235   0.015  0.00  0.00    -0.061 A 
ATOM     15  C   UNL d   1      -1.715   2.677   1.361  0.00  0.00     0.022 C 
ATOM     16  C   UNL d   1      -1.809   2.818  -1.144  0.00  0.00     0.022 C 
ATOM     17  C   UNL d   1       0.841  -3.086  -0.015  0.00  0.00     0.049 C 
ATOM     18  C   UNL d   1       4.815  -0.077   0.007  0.00  0.00     0.048 C 
ATOM     19  H   UNL d   1      -3.816   0.818  -0.066  0.00  0.00     0.167 HD
ENDROOT
BRANCH   2  20
ATOM     20  C   UNL d   1      -4.288  -1.932  -0.085  0.00  0.00     0.030 A 
ATOM     21  C   UNL d   1      -5.468  -1.516  -0.735  0.00  0.00     0.049 A 
ATOM     22  C   UNL d   1      -6.629  -2.298  -0.684  0.00  0.00     0.048 A 
ATOM     23 CL   UNL d   1      -5.579  -0.045  -1.646  0.00  0.00    -0.083 Cl
ATOM     24  C   UNL d   1      -6.625  -3.500   0.015  0.00  0.00     0.035 A 
ATOM     25  C   UNL d   1      -5.471  -3.936   0.658  0.00  0.00     0.025 A 
ATOM     26 CL   UNL d   1      -8.056  -4.452   0.082  0.00  0.00    -0.084 Cl
ATOM     27  C   UNL d   1      -4.309  -3.158   0.603  0.00  0.00     0.018 A 
ENDBRANCH   2  20
TORSDOF 1
