REMARK  6 active torsions:
REMARK  status: ('A' for Active; 'I' for Inactive)
REMARK    1  A    between atoms: N_16  and  C_3 
REMARK    2  A    between atoms: C_10  and  C_4 
REMARK    3  A    between atoms: C_14  and  C_8 
REMARK    4  A    between atoms: C_12  and  C_9 
REMARK    5  A    between atoms: O_21  and  C_10 
REMARK    6  A    between atoms: C_18  and  C_12 
ROOT
ATOM      1  N   UNL d   1       0.844   0.966   0.091  0.00  0.00    -0.260 N 
ATOM      2  C   UNL d   1      -0.025  -0.110   0.110  0.00  0.00     0.103 A 
ATOM      3  C   UNL d   1       0.354   2.275   0.136  0.00  0.00     0.101 C 
ATOM      4  C   UNL d   1      -0.982   2.499   0.074  0.00  0.00     0.069 C 
ATOM      5  C   UNL d   1      -1.361   0.011   0.110  0.00  0.00     0.070 C 
ATOM      6  C   UNL d   1       2.202   0.645   0.043  0.00  0.00     0.271 A 
ATOM      7  S   UNL d   1       0.826  -1.632   0.111  0.00  0.00    -0.065 SA
ATOM      8  C   UNL d   1      -2.000   1.383  -0.005  0.00  0.00     0.107 C 
ATOM      9  C   UNL d   1       2.351  -0.835   0.053  0.00  0.00     0.076 A 
ATOM     10  C   UNL d   1      -2.229  -1.126   0.177  0.00  0.00     0.099 C 
ATOM     11  N   UNL d   1      -2.955  -2.028   0.242  0.00  0.00    -0.192 NA
ATOM     12  O   UNL d   1       3.150   1.418  -0.035  0.00  0.00    -0.266 OA
ENDROOT
BRANCH   8  13
ATOM     13  C   UNL d   1      -2.833   1.454  -1.288  0.00  0.00    -0.044 A 
ATOM     14  C   UNL d   1      -2.218   1.392  -2.552  0.00  0.00     0.010 A 
ATOM     15  C   UNL d   1      -2.990   1.362  -3.713  0.00  0.00     0.024 A 
ATOM     16  C   UNL d   1      -4.379   1.399  -3.622  0.00  0.00     0.034 A 
ATOM     17  C   UNL d   1      -5.004   1.483  -2.380  0.00  0.00     0.024 A 
ATOM     18 CL   UNL d   1      -5.328   1.327  -5.054  0.00  0.00    -0.084 Cl
ATOM     19  C   UNL d   1      -4.234   1.510  -1.215  0.00  0.00     0.010 A 
ENDBRANCH   8  13
BRANCH   4  20
ATOM     20  C   UNL d   1      -1.482   3.904   0.046  0.00  0.00     0.293 C 
ATOM     21  O   UNL d   1      -0.817   4.856  -0.343  0.00  0.00    -0.259 OA
BRANCH  20  22
ATOM     22  O   UNL d   1      -2.763   3.985   0.488  0.00  0.00    -0.323 OA
ATOM     23  C   UNL d   1      -3.294   5.314   0.439  0.00  0.00     0.213 C 
ENDBRANCH  20  22
ENDBRANCH   4  20
BRANCH   3  24
ATOM     24  N   UNL d   1       1.256   3.315   0.260  0.00  0.00    -0.287 NA
ATOM     25  H   UNL d   1       2.204   3.082  -0.051  0.00  0.00     0.125 HD
ATOM     26  H   UNL d   1       0.927   4.220  -0.092  0.00  0.00     0.125 HD
ENDBRANCH   3  24
BRANCH   9  27
ATOM     27  C   UNL d   1       3.567  -1.395   0.014  0.00  0.00     0.036 C 
BRANCH  27  28
ATOM     28  C   UNL d   1       3.854  -2.829  -0.005  0.00  0.00    -0.035 A 
ATOM     29  C   UNL d   1       3.991  -3.498  -1.227  0.00  0.00     0.013 A 
ATOM     30  C   UNL d   1       4.326  -4.854  -1.250  0.00  0.00     0.024 A 
ATOM     31  C   UNL d   1       4.521  -5.539  -0.052  0.00  0.00     0.034 A 
ATOM     32  C   UNL d   1       4.368  -4.884   1.169  0.00  0.00     0.024 A 
ATOM     33 CL   UNL d   1       4.970  -7.199  -0.082  0.00  0.00    -0.084 Cl
ATOM     34  C   UNL d   1       4.032  -3.529   1.193  0.00  0.00     0.013 A 
ENDBRANCH  27  28
ENDBRANCH   9  27
TORSDOF 6
