REMARK  3 active torsions:
REMARK  status: ('A' for Active; 'I' for Inactive)
REMARK    1  A    between atoms: C_4  and  N_1 
REMARK    2  A    between atoms: C_6  and  C_5 
REMARK    3  A    between atoms: S_17  and  C_14 
ROOT
ATOM      1  N   UNL d   1      -0.003  -0.969  -0.131  0.00  0.00    -0.252 N 
ATOM      2  C   UNL d   1      -1.245  -0.336   0.008  0.00  0.00     0.231 C 
ATOM      3  C   UNL d   1       1.242  -0.328  -0.121  0.00  0.00     0.231 C 
ATOM      4  C   UNL d   1      -0.056   1.860  -0.202  0.00  0.00     0.039 C 
ATOM      5  C   UNL d   1      -1.224   1.111   0.414  0.00  0.00     0.113 C 
ATOM      6  C   UNL d   1       1.268   1.169   0.075  0.00  0.00     0.113 C 
ATOM      7  O   UNL d   1      -2.337  -0.887  -0.148  0.00  0.00    -0.273 OA
ATOM      8  O   UNL d   1       2.328  -0.915  -0.174  0.00  0.00    -0.273 OA
ENDROOT
BRANCH   1   9
ATOM      9  C   UNL d   1      -0.020  -2.394  -0.327  0.00  0.00     0.046 A 
ATOM     10  C   UNL d   1      -0.774  -3.214   0.532  0.00  0.00     0.048 A 
ATOM     11  C   UNL d   1      -0.812  -4.601   0.351  0.00  0.00     0.002 A 
ATOM     12  C   UNL d   1      -0.090  -5.162  -0.708  0.00  0.00     0.018 A 
ATOM     13  C   UNL d   1       0.663  -4.360  -1.566  0.00  0.00     0.004 A 
ATOM     14  C   UNL d   1       0.710  -2.980  -1.365  0.00  0.00     0.030 A 
BRANCH  11  15
ATOM     15  S   UNL d   1      -1.682  -5.721   1.441  0.00  0.00    -0.134 SA
ATOM     16  C   UNL d   1      -3.061  -4.699   2.025  0.00  0.00     0.095 C 
ENDBRANCH  11  15
ENDBRANCH   1   9
BRANCH   4  17
ATOM     17  C   UNL d   1      -0.055   3.342   0.192  0.00  0.00    -0.010 A 
ATOM     18  C   UNL d   1      -0.227   4.347  -0.789  0.00  0.00     0.042 A 
ATOM     19 CL   UNL d   1      -0.403   3.993  -2.477  0.00  0.00    -0.084 Cl
ATOM     20  C   UNL d   1      -0.271   5.707  -0.449  0.00  0.00     0.024 A 
ATOM     21  C   UNL d   1      -0.140   6.110   0.873  0.00  0.00     0.003 A 
ATOM     22  C   UNL d   1       0.042   5.149   1.861  0.00  0.00     0.024 A 
ATOM     23  C   UNL d   1       0.084   3.786   1.530  0.00  0.00     0.042 A 
ATOM     24 CL   UNL d   1       0.309   2.730   2.886  0.00  0.00    -0.084 Cl
ENDBRANCH   4  17
TORSDOF 3
