REMARK  8 active torsions:
REMARK  status: ('A' for Active; 'I' for Inactive)
REMARK    1  A    between atoms: N_2  and  C_1 
REMARK    2  A    between atoms: N_4  and  C_1 
REMARK    3  A    between atoms: C_10  and  N_2 
REMARK       I    between atoms: C_3  and  N_7 
REMARK    4  A    between atoms: C_14  and  C_3 
REMARK    5  A    between atoms: N_7  and  N_4 
REMARK    6  A    between atoms: O_18  and  C_5 
REMARK    7  A    between atoms: O_20  and  C_8 
REMARK    8  A    between atoms: C_12  and  C_14 
ROOT
ATOM      1  C   UNL d   1      -1.900   2.188   1.096  0.00  0.00     0.240 C 
ATOM      2  N   UNL d   1      -1.300   2.702  -0.042  0.00  0.00    -0.268 N 
ATOM      3  O   UNL d   1      -1.261   1.677   2.014  0.00  0.00    -0.272 OA
ATOM      4  H   UNL d   1      -1.841   2.899  -0.877  0.00  0.00     0.190 HD
ENDROOT
BRANCH   2   5
ATOM      5  N   UNL d   1       0.043   2.388  -0.240  0.00  0.00    -0.274 N 
ATOM      6  H   UNL d   1       0.422   1.719   0.435  0.00  0.00     0.189 HD
BRANCH   5   7
ATOM      7  C   UNL d   1       0.953   3.284  -0.761  0.00  0.00     0.191 C 
ATOM      8  S   UNL d   1       0.654   4.886  -1.120  0.00  0.00    -0.039 SA
BRANCH   7   9
ATOM      9  N   UNL d   1       2.211   2.755  -0.967  0.00  0.00    -0.332 N 
ATOM     10  H   UNL d   1       2.972   3.424  -1.002  0.00  0.00     0.168 HD
BRANCH   9  11
ATOM     11  C   UNL d   1       2.510   1.406  -1.269  0.00  0.00     0.037 A 
ATOM     12  C   UNL d   1       1.561   0.555  -1.848  0.00  0.00     0.071 A 
ATOM     13  C   UNL d   1       1.883  -0.769  -2.109  0.00  0.00     0.118 A 
ATOM     14  F   UNL d   1       0.961  -1.573  -2.660  0.00  0.00    -0.206 F 
ATOM     15  C   UNL d   1       3.142  -1.268  -1.815  0.00  0.00     0.042 A 
ATOM     16  C   UNL d   1       4.107  -0.414  -1.277  0.00  0.00     0.005 A 
ATOM     17  C   UNL d   1       3.796   0.929  -1.023  0.00  0.00     0.029 A 
ENDBRANCH   9  11
ENDBRANCH   7   9
ENDBRANCH   5   7
ENDBRANCH   2   5
BRANCH   1  18
ATOM     18  C   UNL d   1      -3.411   2.292   1.096  0.00  0.00     0.143 C 
BRANCH  18  19
ATOM     19  C   UNL d   1      -3.872   3.644   1.569  0.00  0.00    -0.047 A 
ATOM     20  C   UNL d   1      -4.073   4.688   0.653  0.00  0.00     0.047 A 
ATOM     21  C   UNL d   1      -4.411   5.984   1.086  0.00  0.00     0.102 A 
ATOM     22  C   UNL d   1      -4.601   6.213   2.456  0.00  0.00     0.101 A 
ATOM     23  C   UNL d   1      -4.396   5.168   3.367  0.00  0.00     0.040 A 
ATOM     24  C   UNL d   1      -4.032   3.895   2.931  0.00  0.00     0.010 A 
BRANCH  21  25
ATOM     25  O   UNL d   1      -4.569   7.016   0.203  0.00  0.00    -0.353 OA
ATOM     26  C   UNL d   1      -3.748   6.976  -0.963  0.00  0.00     0.210 C 
ENDBRANCH  21  25
BRANCH  22  27
ATOM     27  O   UNL d   1      -4.908   7.400   3.070  0.00  0.00    -0.353 OA
ATOM     28  C   UNL d   1      -5.679   8.333   2.326  0.00  0.00     0.210 C 
ENDBRANCH  22  27
ENDBRANCH  18  19
ENDBRANCH   1  18
TORSDOF 8
