REMARK  1 active torsions:
REMARK  status: ('A' for Active; 'I' for Inactive)
REMARK    1  A    between atoms: C_5  and  C_3 
ROOT
ATOM      1  C   UNL d   1      -2.060   0.350   0.003  0.00  0.00    -0.006 C 
ATOM      2  C   UNL d   1      -1.091  -0.790  -0.033  0.00  0.00     0.189 C 
ATOM      3  C   UNL d   1      -3.259   0.170  -0.581  0.00  0.00     0.024 C 
ATOM      4  C   UNL d   1       0.355  -0.426   0.008  0.00  0.00     0.021 A 
ATOM      5  C   UNL d   1       0.762   0.921   0.016  0.00  0.00    -0.044 A 
ATOM      6  C   UNL d   1      -1.554   1.598   0.664  0.00  0.00     0.047 C 
ATOM      7  O   UNL d   1      -1.457  -1.957  -0.099  0.00  0.00    -0.287 OA
ATOM      8  C   UNL d   1      -0.249   2.038   0.015  0.00  0.00     0.044 C 
ATOM      9  C   UNL d   1       1.314  -1.447   0.001  0.00  0.00     0.016 A 
ATOM     10  C   UNL d   1       2.130   1.224  -0.027  0.00  0.00     0.008 A 
ATOM     11  C   UNL d   1       2.673  -1.132  -0.020  0.00  0.00     0.001 A 
ATOM     12  C   UNL d   1       3.079   0.202  -0.042  0.00  0.00     0.001 A 
ENDROOT
BRANCH   3  13
ATOM     13  C   UNL d   1      -4.263   1.236  -0.686  0.00  0.00    -0.014 A 
ATOM     14  C   UNL d   1      -4.300   2.133  -1.768  0.00  0.00     0.044 A 
ATOM     15 CL   UNL d   1      -3.220   1.987  -3.112  0.00  0.00    -0.083 Cl
ATOM     16  C   UNL d   1      -5.214   3.191  -1.777  0.00  0.00     0.024 A 
ATOM     17  C   UNL d   1      -6.101   3.358  -0.714  0.00  0.00     0.002 A 
ATOM     18  C   UNL d   1      -6.085   2.461   0.352  0.00  0.00     0.001 A 
ATOM     19  C   UNL d   1      -5.172   1.405   0.367  0.00  0.00     0.013 A 
ENDBRANCH   3  13
TORSDOF 1
