REMARK  3 active torsions:
REMARK  status: ('A' for Active; 'I' for Inactive)
REMARK    1  A    between atoms: C_4  and  C_1 
REMARK    2  A    between atoms: C_15  and  N_5 
REMARK    3  A    between atoms: C_14  and  C_6 
ROOT
ATOM      1  C   UNL d   1      -0.446   1.236   0.051  0.00  0.00     0.063 A 
ATOM      2  N   UNL d   1       0.902  -0.583   0.059  0.00  0.00    -0.292 N 
ATOM      3  HN  UNL d   1       1.721  -1.190   0.103  1.00  0.00     0.187 HD
ATOM      4  N   UNL d   1      -0.397  -0.969  -0.014  0.00  0.00    -0.266 N 
ATOM      5  C   UNL d   1       0.889   0.761   0.060  0.00  0.00     0.074 A 
ATOM      6  C   UNL d   1      -1.239   0.118  -0.050  0.00  0.00     0.135 A 
ENDROOT
BRANCH   1   7
ATOM      7  C   UNL d   1      -0.968   2.624   0.119  0.00  0.00     0.180 A 
ATOM      8  O   UNL d   1      -2.258   2.974  -0.210  0.00  0.00    -0.259 OA
ATOM      9  C   UNL d   1      -2.225   4.327  -0.073  0.00  0.00     0.238 A 
ATOM     10  N   UNL d   1      -3.334   4.991  -0.405  0.00  0.00    -0.364 N 
ATOM     11  N   UNL d   1      -1.075   4.776   0.361  0.00  0.00    -0.263 N 
ATOM     12  H   UNL d   1      -4.199   4.481  -0.515  0.00  0.00     0.159 HD
ATOM     13  H   UNL d   1      -3.424   5.945  -0.075  0.00  0.00     0.159 HD
ATOM     14  N   UNL d   1      -0.258   3.675   0.484  0.00  0.00    -0.276 N 
ATOM     15  HN  UNL d   1      -0.834   5.745   0.568  1.00  0.00     0.190 HD
ATOM     16  HN  UNL d   1       0.713   3.672   0.796  1.00  0.00     0.189 HD
ENDBRANCH   1   7
BRANCH   5  17
ATOM     17  C   UNL d   1       2.151   1.510   0.024  0.00  0.00    -0.007 A 
ATOM     18  C   UNL d   1       2.282   2.669  -0.758  0.00  0.00     0.015 A 
ATOM     19  C   UNL d   1       3.479   3.391  -0.776  0.00  0.00     0.024 A 
ATOM     20  C   UNL d   1       4.568   2.940  -0.037  0.00  0.00     0.034 A 
ATOM     21  C   UNL d   1       4.471   1.771   0.714  0.00  0.00     0.024 A 
ATOM     22 CL   UNL d   1       6.041   3.827  -0.061  0.00  0.00    -0.084 Cl
ATOM     23  C   UNL d   1       3.267   1.058   0.744  0.00  0.00     0.015 A 
ENDBRANCH   5  17
BRANCH   4  24
ATOM     24  C   UNL d   1      -0.751  -2.349  -0.045  0.00  0.00     0.056 A 
ATOM     25  C   UNL d   1      -2.091  -2.756  -0.136  0.00  0.00     0.031 A 
ATOM     26  C   UNL d   1      -2.410  -4.117  -0.176  0.00  0.00     0.002 A 
ATOM     27  C   UNL d   1      -1.401  -5.077  -0.123  0.00  0.00     0.000 A 
ATOM     28  C   UNL d   1      -0.069  -4.681  -0.026  0.00  0.00     0.002 A 
ATOM     29  C   UNL d   1       0.258  -3.323   0.013  0.00  0.00     0.031 A 
ENDBRANCH   4  24
TORSDOF 3
