REMARK  3 active torsions:
REMARK  status: ('A' for Active; 'I' for Inactive)
REMARK    1  A    between atoms: S_2  and  N_1 
REMARK    2  A    between atoms: C_9  and  S_2 
REMARK    3  A    between atoms: N_7  and  C_5 
ROOT
ATOM      1  N   UNL d   1       1.411  -1.195  -0.116  0.00  0.00    -0.174 N 
ATOM      2  N   UNL d   1       2.272  -0.141  -0.026  0.00  0.00    -0.267 N 
ATOM      3  HN  UNL d   1       3.291  -0.170   0.020  1.00  0.00     0.190 HD
ATOM      4  C   UNL d   1       1.483   0.938  -0.011  0.00  0.00     0.143 A 
ATOM      5  C   UNL d   1       0.108   0.596  -0.120  0.00  0.00     0.078 A 
ATOM      6  C   UNL d   1       0.080  -0.807  -0.136  0.00  0.00     0.086 A 
ATOM      7  C   UNL d   1      -1.119   1.277  -0.251  0.00  0.00     0.132 A 
ATOM      8  C   UNL d   1      -1.130  -1.527  -0.184  0.00  0.00     0.033 A 
ATOM      9  F   UNL d   1      -1.162   2.609  -0.378  0.00  0.00    -0.205 F 
ATOM     10  C   UNL d   1      -2.330  -0.810  -0.231  0.00  0.00     0.005 A 
ATOM     11  C   UNL d   1      -2.326   0.578  -0.279  0.00  0.00     0.043 A 
ENDROOT
BRANCH   1  12
ATOM     12  S   UNL d   1       1.919  -2.857  -0.283  0.00  0.00     0.283 S 
ATOM     13  O   UNL d   1       3.368  -2.866  -0.172  0.00  0.00    -0.198 OA
ATOM     14  O   UNL d   1       1.083  -3.594   0.650  0.00  0.00    -0.198 OA
BRANCH  12  15
ATOM     15  C   UNL d   1       1.503  -3.365  -1.942  0.00  0.00     0.092 C 
ATOM     16  C   UNL d   1       1.694  -2.528  -3.071  0.00  0.00    -0.002 C 
ATOM     17  C   UNL d   1       1.117  -2.922  -4.306  0.00  0.00    -0.018 C 
ATOM     18  C   UNL d   1       2.454  -1.337  -3.059  0.00  0.00     0.014 C 
ATOM     19  C   UNL d   1       1.142  -2.005  -5.385  0.00  0.00     0.013 C 
ATOM     20  C   UNL d   1       0.551  -4.219  -4.434  0.00  0.00    -0.051 C 
ATOM     21  C   UNL d   1       1.785  -0.773  -5.290  0.00  0.00     0.001 C 
ATOM     22  C   UNL d   1       2.484  -0.459  -4.141  0.00  0.00     0.001 C 
ATOM     23  C   UNL d   1       0.471  -5.062  -3.317  0.00  0.00     0.009 C 
ATOM     24  C   UNL d   1       0.090  -4.753  -5.767  0.00  0.00     0.049 C 
ATOM     25  C   UNL d   1       0.912  -4.629  -2.073  0.00  0.00     0.027 C 
ENDBRANCH  12  15
ENDBRANCH   1  12
BRANCH   4  26
ATOM     26  N   UNL d   1       2.109   2.236   0.121  0.00  0.00    -0.304 N 
ATOM     27  C   UNL d   1       1.625   3.339   0.835  0.00  0.00     0.014 C 
ATOM     28  C   UNL d   1       2.473   4.411   0.629  0.00  0.00     0.027 C 
ATOM     29  C   UNL d   1       0.465   3.335   1.771  0.00  0.00     0.068 C 
ATOM     30  C   UNL d   1       3.560   3.958  -0.124  0.00  0.00     0.027 C 
ATOM     31  C   UNL d   1       3.356   2.619  -0.399  0.00  0.00     0.014 C 
ATOM     32  C   UNL d   1       4.289   1.758  -1.179  0.00  0.00     0.068 C 
ENDBRANCH   4  26
TORSDOF 3
