REMARK  3 active torsions:
REMARK  status: ('A' for Active; 'I' for Inactive)
REMARK    1  A    between atoms: S_2  and  C_1 
REMARK    2  A    between atoms: C_5  and  C_3 
REMARK    3  A    between atoms: N_4  and  C_7 
ROOT
ATOM      1  C   UNL d   1       0.982   0.592  -0.632  0.00  0.00     0.139 C 
ATOM      2  C   UNL d   1       0.268   1.081   0.404  0.00  0.00     0.048 C 
ATOM      3  C   UNL d   1       2.401   0.521  -0.526  0.00  0.00     0.111 C 
ATOM      4  N   UNL d   1       3.542   0.456  -0.345  0.00  0.00    -0.191 NA
ENDROOT
BRANCH   1   5
ATOM      5  S   UNL d   1       0.286   0.127  -2.151  0.00  0.00     0.181 S 
ATOM      6  O   UNL d   1      -0.659   1.140  -2.580  0.00  0.00    -0.222 OA
ATOM      7  O   UNL d   1       1.347  -0.258  -3.065  0.00  0.00    -0.222 OA
ATOM      8  C   UNL d   1      -0.631  -1.358  -1.835  0.00  0.00     0.168 C 
ENDBRANCH   1   5
BRANCH   2   9
ATOM      9  C   UNL d   1      -1.192   1.103   0.583  0.00  0.00    -0.007 A 
ATOM     10  C   UNL d   1      -1.885   0.102   1.315  0.00  0.00     0.040 A 
ATOM     11  C   UNL d   1      -3.292   0.174   1.300  0.00  0.00     0.030 A 
ATOM     12  C   UNL d   1      -3.989   1.179   0.623  0.00  0.00     0.002 A 
ATOM     13  C   UNL d   1      -3.288   2.172  -0.044  0.00  0.00     0.001 A 
ATOM     14  C   UNL d   1      -1.898   2.141  -0.055  0.00  0.00     0.014 A 
BRANCH  10  15
ATOM     15  N   UNL d   1      -1.285  -0.911   2.061  0.00  0.00    -0.377 N 
ATOM     16  C   UNL d   1       0.050  -0.790   2.668  0.00  0.00     0.153 C 
ATOM     17  C   UNL d   1       0.135  -1.593   3.983  0.00  0.00     0.291 C 
ATOM     18  N   UNL d   1      -0.281  -3.003   3.850  0.00  0.00     0.087 N 
ATOM     19  C   UNL d   1      -1.631  -3.066   3.242  0.00  0.00     0.291 C 
ATOM     20  C   UNL d   1      -0.285  -3.640   5.167  0.00  0.00     0.310 C 
ATOM     21  C   UNL d   1      -1.724  -2.310   1.895  0.00  0.00     0.153 C 
ENDBRANCH  10  15
ENDBRANCH   2   9
TORSDOF 3
