REMARK  3 active torsions:
REMARK  status: ('A' for Active; 'I' for Inactive)
REMARK    1  A    between atoms: C_2  and  C_1 
REMARK       I    between atoms: N_3  and  C_2 
REMARK    2  A    between atoms: C_7  and  N_3 
REMARK    3  A    between atoms: C_12  and  N_3 
ROOT
ATOM      1  C   UNL d   1      -2.975   0.318   0.173  0.00  0.00     0.237 C 
ATOM      2  N   UNL d   1      -3.911  -0.672   0.557  0.00  0.00    -0.282 N 
ATOM      3  O   UNL d   1      -3.323   1.477  -0.082  0.00  0.00    -0.272 OA
ENDROOT
BRANCH   2   4
ATOM      4  C   UNL d   1      -3.569  -1.794   1.360  0.00  0.00     0.043 A 
ATOM      5  C   UNL d   1      -3.137  -1.613   2.679  0.00  0.00     0.033 A 
ATOM      6  C   UNL d   1      -2.759  -2.714   3.448  0.00  0.00     0.044 A 
ATOM      7  C   UNL d   1      -2.856  -3.993   2.912  0.00  0.00     0.116 A 
ATOM      8  C   UNL d   1      -3.350  -4.197   1.627  0.00  0.00     0.044 A 
ATOM      9  F   UNL d   1      -2.475  -5.045   3.646  0.00  0.00    -0.206 F 
ATOM     10  C   UNL d   1      -3.722  -3.098   0.853  0.00  0.00     0.033 A 
ENDBRANCH   2   4
BRANCH   2  11
ATOM     11  C   UNL d   1      -5.341  -0.523   0.309  0.00  0.00     0.042 A 
ATOM     12  C   UNL d   1      -5.838   0.347  -0.674  0.00  0.00     0.030 A 
ATOM     13  C   UNL d   1      -7.215   0.494  -0.899  0.00  0.00     0.002 A 
ATOM     14  C   UNL d   1      -8.133  -0.241  -0.157  0.00  0.00     0.000 A 
ATOM     15  C   UNL d   1      -7.675  -1.127   0.808  0.00  0.00     0.002 A 
ATOM     16  C   UNL d   1      -6.303  -1.261   1.037  0.00  0.00     0.030 A 
ENDBRANCH   2  11
BRANCH   1  17
ATOM     17  C   UNL d   1      -1.432  -0.008   0.074  0.00  0.00     0.043 C 
ATOM     18  C   UNL d   1      -1.122  -1.405  -0.513  0.00  0.00     0.024 C 
ATOM     19  C   UNL d   1       0.387  -1.655  -0.630  0.00  0.00    -0.013 C 
ATOM     20  C   UNL d   1       0.991  -0.633  -1.594  0.00  0.00     0.009 C 
ATOM     21  C   UNL d   1       1.017  -1.507   0.766  0.00  0.00     0.009 C 
ATOM     22  C   UNL d   1       0.747   0.784  -1.060  0.00  0.00    -0.013 C 
ATOM     23  C   UNL d   1      -0.771   1.024  -0.911  0.00  0.00     0.024 C 
ATOM     24  C   UNL d   1       1.424   0.923   0.311  0.00  0.00     0.009 C 
ATOM     25  C   UNL d   1       0.807  -0.079   1.294  0.00  0.00    -0.013 C 
ATOM     26  C   UNL d   1      -0.701   0.197   1.423  0.00  0.00     0.024 C 
ENDBRANCH   1  17
TORSDOF 3
