REMARK  3 active torsions:
REMARK  status: ('A' for Active; 'I' for Inactive)
REMARK    1  A    between atoms: C_9  and  C_1 
REMARK    2  A    between atoms: C_2  and  N_8 
REMARK    3  A    between atoms: N_8  and  N_3 
ROOT
ATOM      1  N   UNL d   1      -1.102   2.831   0.627  0.00  0.00    -0.309 N 
ATOM      2  HN  UNL d   1      -1.856   2.340   1.107  1.00  0.00     0.186 HD
ATOM      3  C   UNL d   1      -0.150   2.197   0.025  0.00  0.00     0.122 C 
ENDROOT
BRANCH   1   4
ATOM      4  N   UNL d   1      -1.044   4.193   0.585  0.00  0.00    -0.277 N 
ATOM      5  H   UNL d   1      -0.286   4.673   0.111  0.00  0.00     0.189 HD
BRANCH   4   6
ATOM      6  C   UNL d   1      -2.051   4.939   1.140  0.00  0.00     0.184 C 
ATOM      7  S   UNL d   1      -2.070   6.595   1.094  0.00  0.00    -0.040 SA
ATOM      8  N   UNL d   1      -3.035   4.221   1.735  0.00  0.00    -0.375 N 
ATOM      9  H   UNL d   1      -2.994   3.215   1.610  0.00  0.00     0.158 HD
ATOM     10  H   UNL d   1      -3.865   4.659   2.106  0.00  0.00     0.158 HD
ENDBRANCH   4   6
ENDBRANCH   1   4
BRANCH   3  11
ATOM     11  C   UNL d   1      -0.106   0.718  -0.001  0.00  0.00     0.024 A 
ATOM     12  C   UNL d   1      -1.274  -0.067   0.001  0.00  0.00     0.047 A 
ATOM     13 CL   UNL d   1      -2.880   0.577  -0.066  0.00  0.00    -0.083 Cl
ATOM     14  C   UNL d   1      -1.182  -1.465   0.004  0.00  0.00     0.025 A 
ATOM     15  C   UNL d   1       0.060  -2.094  -0.003  0.00  0.00     0.003 A 
ATOM     16  C   UNL d   1       1.220  -1.324  -0.019  0.00  0.00     0.025 A 
ATOM     17  C   UNL d   1       1.142   0.074  -0.020  0.00  0.00     0.047 A 
ATOM     18 CL   UNL d   1       2.644   0.934  -0.009  0.00  0.00    -0.083 Cl
ENDBRANCH   3  11
TORSDOF 3
