REMARK  1 active torsions:
REMARK  status: ('A' for Active; 'I' for Inactive)
REMARK    1  A    between atoms: C_12  and  C_3 
ROOT
ATOM      1  C   UNL d   1       0.271   0.533  -0.008  0.00  0.00     0.073 A 
ATOM      2  C   UNL d   1      -0.453  -0.649  -0.043  0.00  0.00     0.091 A 
ATOM      3  C   UNL d   1      -0.580   1.704   0.033  0.00  0.00    -0.030 A 
ATOM      4  C   UNL d   1       1.722   0.397  -0.006  0.00  0.00     0.259 A 
ATOM      5  N   UNL d   1       0.038  -1.918  -0.051  0.00  0.00    -0.346 N 
ATOM      6  HN  UNL d   1      -0.561  -2.743  -0.076  1.00  0.00     0.167 HD
ATOM      7  S   UNL d   1      -2.131  -0.372  -0.076  0.00  0.00    -0.083 SA
ATOM      8  C   UNL d   1      -1.911   1.317  -0.021  0.00  0.00     0.060 A 
ATOM      9  N   UNL d   1       2.167  -0.907   0.000  0.00  0.00    -0.319 N 
ATOM     10  C   UNL d   1       1.326  -1.989  -0.026  0.00  0.00     0.184 A 
ATOM     11  O   UNL d   1       2.519   1.327  -0.018  0.00  0.00    -0.267 OA
ATOM     12  H   UNL d   1       3.169  -1.030   0.003  0.00  0.00     0.169 HD
ENDROOT
BRANCH   3  13
ATOM     13  C   UNL d   1      -0.182   3.166   0.131  0.00  0.00     0.012 C 
ATOM     14  C   UNL d   1       0.576   3.496   1.417  0.00  0.00     0.015 C 
ATOM     15  C   UNL d   1       0.537   3.688  -1.111  0.00  0.00     0.015 C 
ENDBRANCH   3  13
TORSDOF 1
