REMARK  8 active torsions:
REMARK  status: ('A' for Active; 'I' for Inactive)
REMARK    1  A    between atoms: N_2  and  C_1 
REMARK    2  A    between atoms: N_3  and  C_6 
REMARK    3  A    between atoms: C_9  and  C_5 
REMARK    4  A    between atoms: O_22  and  C_9 
REMARK    5  A    between atoms: C_16  and  N_20 
REMARK    6  A    between atoms: N_20  and  C_23 
REMARK    7  A    between atoms: C_24  and  O_22 
REMARK    8  A    between atoms: C_23  and  C_24 
ROOT
ATOM      1  C   UNL d   1       0.589  -5.882  -0.050  0.00  0.00     0.120 C 
ENDROOT
BRANCH   1   2
ATOM      2  N   UNL d   1       0.101  -7.240   0.153  0.00  0.00    -0.277 NA
ATOM      3  H   UNL d   1      -0.640  -7.538  -0.480  0.00  0.00     0.129 HD
BRANCH   2   4
ATOM      4  C   UNL d   1       1.028  -8.272   0.177  0.00  0.00     0.080 A 
ATOM      5  N   UNL d   1       0.616  -9.430  -0.378  0.00  0.00    -0.354 N 
ATOM      6  C   UNL d   1       1.454 -10.501  -0.333  0.00  0.00     0.125 A 
ATOM      7  HN  UNL d   1      -0.300  -9.501  -0.821  1.00  0.00     0.166 HD
ATOM      8  C   UNL d   1       2.711 -10.453   0.243  0.00  0.00     0.118 A 
ATOM      9  C   UNL d   1       3.138  -9.258   0.812  0.00  0.00     0.041 A 
ATOM     10  C   UNL d   1       2.275  -8.161   0.788  0.00  0.00     0.044 A 
BRANCH   8  11
ATOM     11  N   UNL d   1       3.558 -11.636   0.259  0.00  0.00    -0.114 N 
ATOM     12  O   UNL d   1       3.101 -12.680  -0.227  0.00  0.00    -0.532 OA
ATOM     13  O   UNL d   1       4.689 -11.526   0.754  0.00  0.00    -0.532 OA
ENDBRANCH   8  11
ENDBRANCH   2   4
ENDBRANCH   1   2
BRANCH   1  14
ATOM     14  C   UNL d   1      -0.564  -4.873  -0.081  0.00  0.00     0.194 C 
BRANCH  14  15
ATOM     15  O   UNL d   1      -0.059  -3.528  -0.182  0.00  0.00    -0.315 OA
BRANCH  15  16
ATOM     16  C   UNL d   1       0.318  -3.138  -1.433  0.00  0.00     0.317 C 
ATOM     17  O   UNL d   1       0.236  -3.842  -2.431  0.00  0.00    -0.257 OA
BRANCH  16  18
ATOM     18  C   UNL d   1       0.850  -1.794  -1.411  0.00  0.00     0.153 A 
ATOM     19  O   UNL d   1       0.934  -1.095  -0.231  0.00  0.00    -0.282 OA
ATOM     20  C   UNL d   1       1.477   0.113  -0.536  0.00  0.00     0.215 A 
ATOM     21  C   UNL d   1       1.753   0.223  -1.878  0.00  0.00     0.066 A 
ATOM     22  C   UNL d   1       1.348  -1.012  -2.443  0.00  0.00     0.048 A 
BRANCH  20  23
ATOM     23  N   UNL d   1       1.667   1.025   0.548  0.00  0.00    -0.090 N 
ATOM     24  O   UNL d   1       2.154   2.126   0.259  0.00  0.00    -0.530 OA
ATOM     25  O   UNL d   1       1.340   0.652   1.682  0.00  0.00    -0.530 OA
ENDBRANCH  20  23
ENDBRANCH  16  18
ENDBRANCH  15  16
ENDBRANCH  14  15
ENDBRANCH   1  14
TORSDOF 8
