REMARK  7 active torsions:
REMARK  status: ('A' for Active; 'I' for Inactive)
REMARK    1  A    between atoms: N_7  and  C_1 
REMARK    2  A    between atoms: C_5  and  C_2 
REMARK       I    between atoms: C_11  and  N_9 
REMARK    3  A    between atoms: C_24  and  C_11 
REMARK    4  A    between atoms: C_12  and  C_26 
REMARK    5  A    between atoms: O_23  and  C_12 
REMARK    6  A    between atoms: O_22  and  C_24 
REMARK    7  A    between atoms: C_26  and  O_22 
ROOT
ATOM      1  C   UNL d   1      -1.012  -1.477  -0.109  0.00  0.00     0.045 A 
ATOM      2  C   UNL d   1      -1.321   0.741   0.807  0.00  0.00     0.119 A 
ATOM      3  N   UNL d   1      -1.208   1.313  -0.420  0.00  0.00    -0.352 N 
ATOM      4  HN  UNL d   1      -1.288   2.324  -0.529  1.00  0.00     0.166 HD
ATOM      5  C   UNL d   1      -1.249  -0.637   0.985  0.00  0.00     0.064 A 
ATOM      6  C   UNL d   1      -0.877  -0.878  -1.392  0.00  0.00     0.017 A 
ATOM      7  C   UNL d   1      -0.990   0.527  -1.484  0.00  0.00     0.045 A 
ATOM      8  C   UNL d   1      -0.589  -1.605  -2.574  0.00  0.00     0.016 A 
ATOM      9  C   UNL d   1      -0.841   1.139  -2.721  0.00  0.00     0.030 A 
ATOM     10  C   UNL d   1      -0.451  -0.971  -3.808  0.00  0.00     0.001 A 
ATOM     11  C   UNL d   1      -0.578   0.407  -3.882  0.00  0.00     0.002 A 
ENDROOT
BRANCH   1  12
ATOM     12  N   UNL d   1      -0.834  -2.861   0.058  0.00  0.00    -0.377 N 
ATOM     13  C   UNL d   1      -0.242  -3.330   1.325  0.00  0.00     0.143 C 
ATOM     14  C   UNL d   1       0.295  -4.759   1.137  0.00  0.00     0.145 C 
ATOM     15  N   UNL d   1      -0.739  -5.666   0.616  0.00  0.00    -0.347 N 
ATOM     16  C   UNL d   1      -1.457  -5.165  -0.570  0.00  0.00     0.145 C 
ATOM     17  C   UNL d   1      -0.873  -7.002   0.971  0.00  0.00     0.243 C 
ATOM     18  C   UNL d   1      -1.962  -3.716  -0.387  0.00  0.00     0.143 C 
ATOM     19  O   UNL d   1      -1.710  -7.737   0.436  0.00  0.00    -0.271 OA
BRANCH  17  20
ATOM     20  C   UNL d   1       0.069  -7.535   2.071  0.00  0.00     0.271 C 
BRANCH  20  21
ATOM     21  O   UNL d   1       0.018  -8.922   2.407  0.00  0.00    -0.372 OA
BRANCH  21  22
ATOM     22  C   UNL d   1       0.441  -9.773   1.337  0.00  0.00     0.277 C 
BRANCH  22  23
ATOM     23  C   UNL d   1       1.955  -9.767   1.189  0.00  0.00     0.164 C 
ATOM     24  O   UNL d   1       2.558  -9.878   0.133  0.00  0.00    -0.648 OA
BRANCH  23  25
ATOM     25  O   UNL d   1       2.580  -9.629   2.388  0.00  0.00    -0.775 OA
ATOM     26  H   UNL d   1       1.909  -9.546   3.099  0.00  0.00     0.167 HD
ENDBRANCH  23  25
ENDBRANCH  22  23
ENDBRANCH  21  22
ENDBRANCH  20  21
ENDBRANCH  17  20
ENDBRANCH   1  12
BRANCH   2  27
ATOM     27  C   UNL d   1      -1.503   1.623   2.034  0.00  0.00     0.432 C 
ATOM     28  F   UNL d   1      -1.382   2.959   1.798  0.00  0.00    -0.165 F 
ATOM     29  F   UNL d   1      -2.723   1.454   2.623  0.00  0.00    -0.165 F 
ATOM     30  F   UNL d   1      -0.590   1.338   3.013  0.00  0.00    -0.165 F 
ENDBRANCH   2  27
TORSDOF 7
