REMARK  5 active torsions:
REMARK  status: ('A' for Active; 'I' for Inactive)
REMARK    1  A    between atoms: C_2  and  C_1 
REMARK       I    between atoms: N_6  and  C_1 
REMARK    2  A    between atoms: C_3  and  C_2 
REMARK    3  A    between atoms: N_13  and  C_3 
REMARK    4  A    between atoms: C_9  and  N_6 
REMARK    5  A    between atoms: O_17  and  N_7 
ROOT
ATOM      1  C   UNL d   1       1.979  -4.827   0.914  0.00  0.00     0.228 C 
ATOM      2  N   UNL d   1       1.554  -6.055   1.371  0.00  0.00    -0.327 N 
ATOM      3  O   UNL d   1       1.238  -3.940   0.485  0.00  0.00    -0.273 OA
ATOM      4  H   UNL d   1       2.260  -6.617   1.846  0.00  0.00     0.169 HD
ENDROOT
BRANCH   1   5
ATOM      5  C   UNL d   1       3.476  -4.612   0.864  0.00  0.00     0.174 C 
BRANCH   5   6
ATOM      6  C   UNL d   1       4.379  -5.346   1.829  0.00  0.00     0.083 C 
ATOM      7  N   UNL d   1       4.085  -6.565   2.186  0.00  0.00    -0.262 N 
ATOM      8  HN  UNL d   1       3.247  -7.071   1.897  1.00  0.00     0.195 HD
BRANCH   7   9
ATOM      9  O   UNL d   1       5.086  -7.085   3.025  0.00  0.00    -0.289 OA
ATOM     10  H   UNL d   1       4.752  -7.976   3.236  0.00  0.00     0.244 HD
ENDBRANCH   7   9
BRANCH   6  11
ATOM     11  N   UNL d   1       5.528  -4.710   2.232  0.00  0.00    -0.290 NA
ATOM     12  H   UNL d   1       5.947  -4.048   1.590  0.00  0.00     0.125 HD
ATOM     13  H   UNL d   1       6.193  -5.361   2.643  0.00  0.00     0.125 HD
ENDBRANCH   6  11
ENDBRANCH   5   6
ENDBRANCH   1   5
BRANCH   2  14
ATOM     14  C   UNL d   1       0.243  -6.573   1.336  0.00  0.00     0.036 A 
ATOM     15  C   UNL d   1      -0.792  -6.007   0.584  0.00  0.00     0.056 A 
ATOM     16  C   UNL d   1      -2.061  -6.592   0.578  0.00  0.00     0.074 A 
ATOM     17 CL   UNL d   1      -3.313  -5.893  -0.377  0.00  0.00    -0.081 Cl
ATOM     18  C   UNL d   1      -2.302  -7.738   1.328  0.00  0.00     0.138 A 
ATOM     19  C   UNL d   1      -1.283  -8.316   2.078  0.00  0.00     0.046 A 
ATOM     20  F   UNL d   1      -3.514  -8.312   1.339  0.00  0.00    -0.204 F 
ATOM     21  C   UNL d   1      -0.009  -7.739   2.074  0.00  0.00     0.032 A 
ENDBRANCH   2  14
TORSDOF 5
