REMARK  2 active torsions:
REMARK  status: ('A' for Active; 'I' for Inactive)
REMARK       I    between atoms: C_6  and  N_1 
REMARK    1  A    between atoms: C_12  and  C_7 
REMARK    2  A    between atoms: O_18  and  C_13 
ROOT
ATOM      1  N   UNL d   1       0.335  -1.639  -0.053  0.00  0.00    -0.274 N 
ATOM      2  C   UNL d   1       1.235  -0.657   0.360  0.00  0.00     0.277 C 
ATOM      3  C   UNL d   1       0.762   0.778   0.170  0.00  0.00     0.104 C 
ATOM      4  N   UNL d   1      -0.579   1.023   0.040  0.00  0.00    -0.321 N 
ATOM      5  C   UNL d   1      -1.546   0.066  -0.024  0.00  0.00     0.240 C 
ATOM      6  C   UNL d   1       0.825  -2.919  -0.288  0.00  0.00     0.223 C 
ATOM      7  C   UNL d   1       1.612   1.823   0.080  0.00  0.00     0.046 C 
ATOM      8  C   UNL d   1      -1.090  -1.372   0.116  0.00  0.00     0.238 C 
ATOM      9  O   UNL d   1       2.304  -0.886   0.915  0.00  0.00    -0.265 OA
ATOM     10  O   UNL d   1      -2.730   0.374  -0.117  0.00  0.00    -0.271 OA
ATOM     11  O   UNL d   1       2.022  -3.218  -0.281  0.00  0.00    -0.273 OA
ATOM     12  C   UNL d   1      -0.135  -4.037  -0.634  0.00  0.00     0.117 C 
ATOM     13  H   UNL d   1      -0.913   1.976  -0.061  0.00  0.00     0.169 HD
ENDROOT
BRANCH   7  14
ATOM     14  C   UNL d   1       3.070   1.725  -0.018  0.00  0.00    -0.034 A 
ATOM     15  C   UNL d   1       3.654   1.658  -1.288  0.00  0.00     0.014 A 
ATOM     16  C   UNL d   1       5.030   1.458  -1.425  0.00  0.00     0.037 A 
ATOM     17  C   UNL d   1       5.833   1.323  -0.293  0.00  0.00     0.068 A 
ATOM     18  C   UNL d   1       5.252   1.428   0.974  0.00  0.00     0.037 A 
ATOM     19  C   UNL d   1       3.877   1.637   1.116  0.00  0.00     0.014 A 
BRANCH  17  20
ATOM     20  O   UNL d   1       7.179   1.078  -0.291  0.00  0.00    -0.356 OA
ATOM     21  C   UNL d   1       7.793   0.884  -1.559  0.00  0.00     0.210 C 
ENDBRANCH  17  20
ENDBRANCH   7  14
TORSDOF 2
