REMARK  5 active torsions:
REMARK  status: ('A' for Active; 'I' for Inactive)
REMARK    1  A    between atoms: C_4  and  N_1 
REMARK    2  A    between atoms: C_2  and  C_6 
REMARK    3  A    between atoms: C_3  and  C_5 
REMARK    4  A    between atoms: C_10  and  O_17 
REMARK    5  A    between atoms: O_17  and  C_12 
ROOT
ATOM      1  C   UNL d   1      -0.735  -3.918   5.984  0.00  0.00     0.051 A 
ATOM      2  C   UNL d   1      -0.308  -6.108   4.988  0.00  0.00     0.051 A 
ATOM      3  C   UNL d   1      -0.250  -5.230   6.085  0.00  0.00     0.032 A 
ATOM      4  C   UNL d   1      -1.413  -4.374   3.688  0.00  0.00     0.079 A 
ATOM      5  C   UNL d   1      -0.897  -5.667   3.790  0.00  0.00     0.053 A 
ATOM      6  C   UNL d   1      -1.304  -3.498   4.773  0.00  0.00     0.053 A 
ENDROOT
BRANCH   4   7
ATOM      7  O   UNL d   1      -1.933  -4.006   2.465  0.00  0.00    -0.294 OA
BRANCH   7   8
ATOM      8  C   UNL d   1      -2.984  -3.101   2.468  0.00  0.00     0.148 A 
ATOM      9  C   UNL d   1      -3.003  -2.140   1.465  0.00  0.00     0.059 A 
ATOM     10  C   UNL d   1      -4.014  -1.178   1.489  0.00  0.00     0.041 A 
ATOM     11  C   UNL d   1      -4.969  -1.231   2.510  0.00  0.00     0.118 A 
ATOM     12  C   UNL d   1      -4.896  -2.248   3.448  0.00  0.00     0.126 A 
ATOM     13  N   UNL d   1      -3.925  -3.191   3.439  0.00  0.00    -0.344 N 
ATOM     14  HN  UNL d   1      -3.902  -3.938   4.133  1.00  0.00     0.167 HD
BRANCH  11  15
ATOM     15  N   UNL d   1      -6.020  -0.229   2.616  0.00  0.00    -0.114 N 
ATOM     16  O   UNL d   1      -6.810  -0.320   3.564  0.00  0.00    -0.532 OA
ATOM     17  O   UNL d   1      -6.053   0.660   1.752  0.00  0.00    -0.532 OA
ENDBRANCH  11  15
ENDBRANCH   7   8
ENDBRANCH   4   7
BRANCH   2  18
ATOM     18  C   UNL d   1       0.273  -7.500   5.077  0.00  0.00     0.417 C 
ATOM     19  F   UNL d   1       0.872  -7.760   6.273  0.00  0.00    -0.166 F 
ATOM     20  F   UNL d   1      -0.662  -8.473   4.906  0.00  0.00    -0.166 F 
ATOM     21  F   UNL d   1       1.226  -7.721   4.130  0.00  0.00    -0.166 F 
ENDBRANCH   2  18
BRANCH   1  22
ATOM     22  C   UNL d   1      -0.642  -2.946   7.135  0.00  0.00     0.417 C 
ATOM     23  F   UNL d   1       0.030  -3.441   8.210  0.00  0.00    -0.166 F 
ATOM     24  F   UNL d   1       0.003  -1.798   6.787  0.00  0.00    -0.166 F 
ATOM     25  F   UNL d   1      -1.864  -2.563   7.598  0.00  0.00    -0.166 F 
ENDBRANCH   1  22
TORSDOF 5
