REMARK  6 active torsions:
REMARK  status: ('A' for Active; 'I' for Inactive)
REMARK    1  A    between atoms: C_4  and  C_1 
REMARK    2  A    between atoms: O_17  and  C_3 
REMARK    3  A    between atoms: C_15  and  N_5 
REMARK    4  A    between atoms: O_18  and  C_8 
REMARK    5  A    between atoms: C_14  and  C_21 
REMARK    6  A    between atoms: C_21  and  C_15 
ROOT
ATOM      1  C   UNL d   1       3.765  -1.441  -0.101  0.00  0.00     0.011 C 
ATOM      2  N   UNL d   1       3.817  -2.736  -0.095  0.00  0.00    -0.392 N 
ATOM      3  HN  UNL d   1       4.711  -3.228  -0.117  1.00  0.00     0.159 HD
ATOM      4  C   UNL d   1       2.459  -0.665  -0.041  0.00  0.00     0.068 C 
ENDROOT
BRANCH   2   5
ATOM      5  C   UNL d   1       2.547  -3.470  -0.054  0.00  0.00     0.124 C 
BRANCH   5   6
ATOM      6  C   UNL d   1       2.811  -4.977  -0.074  0.00  0.00     0.058 C 
BRANCH   6   7
ATOM      7  C   UNL d   1       1.511  -5.750  -0.053  0.00  0.00    -0.054 A 
ATOM      8  C   UNL d   1       0.862  -6.073  -1.256  0.00  0.00     0.046 A 
ATOM      9  C   UNL d   1      -0.374  -6.737  -1.267  0.00  0.00     0.102 A 
ATOM     10  C   UNL d   1      -0.956  -7.107  -0.041  0.00  0.00     0.101 A 
ATOM     11  C   UNL d   1      -0.322  -6.759   1.159  0.00  0.00     0.040 A 
ATOM     12  C   UNL d   1       0.900  -6.088   1.157  0.00  0.00     0.010 A 
BRANCH   9  13
ATOM     13  O   UNL d   1      -1.075  -7.008  -2.413  0.00  0.00    -0.353 OA
ATOM     14  C   UNL d   1      -0.519  -6.586  -3.650  0.00  0.00     0.210 C 
ENDBRANCH   9  13
BRANCH  10  15
ATOM     15  O   UNL d   1      -2.158  -7.745   0.138  0.00  0.00    -0.353 OA
ATOM     16  C   UNL d   1      -2.490  -8.737  -0.828  0.00  0.00     0.210 C 
ENDBRANCH  10  15
ENDBRANCH   6   7
ENDBRANCH   5   6
ENDBRANCH   2   5
BRANCH   1  17
ATOM     17  C   UNL d   1       5.044  -0.660  -0.140  0.00  0.00    -0.013 A 
ATOM     18  C   UNL d   1       6.198  -1.218   0.424  0.00  0.00     0.025 A 
ATOM     19  C   UNL d   1       7.409  -0.501   0.449  0.00  0.00    -0.025 A 
ATOM     20  C   UNL d   1       8.570  -1.041   1.031  0.00  0.00     0.012 A 
ATOM     21  C   UNL d   1       7.463   0.793  -0.115  0.00  0.00    -0.026 A 
ATOM     22  C   UNL d   1       9.761  -0.312   1.059  0.00  0.00     0.001 A 
ATOM     23  C   UNL d   1       9.810   0.964   0.505  0.00  0.00     0.001 A 
ATOM     24  C   UNL d   1       8.668   1.513  -0.080  0.00  0.00     0.012 A 
ATOM     25  C   UNL d   1       6.308   1.332  -0.702  0.00  0.00     0.013 A 
ATOM     26  C   UNL d   1       5.110   0.611  -0.719  0.00  0.00     0.014 A 
ENDBRANCH   1  17
TORSDOF 6
