REMARK  4 active torsions:
REMARK  status: ('A' for Active; 'I' for Inactive)
REMARK    1  A    between atoms: C_2  and  N_1 
REMARK    2  A    between atoms: S_3  and  C_6 
REMARK    3  A    between atoms: C_9  and  S_3 
REMARK    4  A    between atoms: C_11  and  C_9 
ROOT
ATOM      1  C   UNL d   1      -0.688  -2.429   0.010  0.00  0.00     0.055 A 
ATOM      2  C   UNL d   1      -1.543  -2.877  -1.024  0.00  0.00     0.028 A 
ATOM      3  C   UNL d   1      -0.227  -3.368   0.961  0.00  0.00     0.031 A 
ATOM      4  C   UNL d   1      -1.897  -4.243  -1.064  0.00  0.00     0.021 A 
ATOM      5  C   UNL d   1      -0.593  -4.713   0.899  0.00  0.00     0.002 A 
ATOM      6  C   UNL d   1      -1.426  -5.153  -0.118  0.00  0.00     0.002 A 
ENDROOT
BRANCH   2   7
ATOM      7  S   UNL d   1      -2.224  -1.917  -2.380  0.00  0.00    -0.123 SA
BRANCH   7   8
ATOM      8  C   UNL d   1      -0.919  -2.173  -3.624  0.00  0.00     0.118 C 
BRANCH   8   9
ATOM      9  C   UNL d   1      -1.319  -1.600  -4.965  0.00  0.00    -0.049 A 
ATOM     10  C   UNL d   1      -0.975  -0.284  -5.313  0.00  0.00     0.009 A 
ATOM     11  C   UNL d   1      -1.341   0.242  -6.555  0.00  0.00     0.024 A 
ATOM     12  C   UNL d   1      -2.060  -0.540  -7.453  0.00  0.00     0.034 A 
ATOM     13  C   UNL d   1      -2.427  -1.842  -7.119  0.00  0.00     0.024 A 
ATOM     14 CL   UNL d   1      -2.502   0.105  -8.989  0.00  0.00    -0.084 Cl
ATOM     15  C   UNL d   1      -2.060  -2.368  -5.878  0.00  0.00     0.009 A 
ENDBRANCH   8   9
ENDBRANCH   7   8
ENDBRANCH   2   7
BRANCH   1  16
ATOM     16  N   UNL d   1      -0.240  -1.076   0.162  0.00  0.00    -0.332 N 
ATOM     17  C   UNL d   1      -0.869   0.088  -0.235  0.00  0.00     0.096 A 
ATOM     18  C   UNL d   1      -0.072   1.173   0.061  0.00  0.00     0.019 A 
ATOM     19  C   UNL d   1       1.072   0.681   0.713  0.00  0.00     0.019 A 
ATOM     20  C   UNL d   1       0.937  -0.687   0.787  0.00  0.00     0.096 A 
ENDBRANCH   1  16
TORSDOF 4
