REMARK  2 active torsions:
REMARK  status: ('A' for Active; 'I' for Inactive)
REMARK    1  A    between atoms: N_7  and  N_1 
REMARK       I    between atoms: C_4  and  N_7 
REMARK       I    between atoms: N_11  and  C_4 
REMARK    2  A    between atoms: O_15  and  C_12 
ROOT
ATOM      1  N   UNL d   1       1.589  -2.218   0.022  0.00  0.00    -0.300 N 
ATOM      2  HN  UNL d   1       0.802  -2.866  -0.009  1.00  0.00     0.186 HD
ATOM      3  C   UNL d   1      -0.052  -0.478   0.005  0.00  0.00    -0.006 A 
ATOM      4  C   UNL d   1      -0.371   0.883   0.082  0.00  0.00    -0.043 A 
ATOM      5  C   UNL d   1       1.372  -0.935   0.024  0.00  0.00     0.036 C 
ATOM      6  C   UNL d   1      -1.076  -1.430  -0.093  0.00  0.00     0.017 A 
ATOM      7  C   UNL d   1      -1.723   1.265   0.064  0.00  0.00     0.044 A 
ATOM      8  C   UNL d   1      -2.744   0.314  -0.048  0.00  0.00     0.068 A 
ATOM      9  C   UNL d   1      -2.415  -1.037  -0.120  0.00  0.00     0.037 A 
ATOM     10  C   UNL d   1       0.703   1.925   0.227  0.00  0.00     0.040 C 
ATOM     11  C   UNL d   1       2.456   0.130   0.082  0.00  0.00     0.060 C 
ATOM     12  C   UNL d   1       1.985   1.474  -0.458  0.00  0.00     0.011 C 
ENDROOT
BRANCH   1  13
ATOM     13  N   UNL d   1       2.860  -2.700   0.061  0.00  0.00    -0.252 N 
ATOM     14  C   UNL d   1       3.102  -4.052   0.026  0.00  0.00     0.332 C 
ATOM     15  O   UNL d   1       4.222  -4.540   0.098  0.00  0.00    -0.246 OA
ATOM     16  N   UNL d   1       1.980  -4.808  -0.098  0.00  0.00    -0.351 N 
ATOM     17  H   UNL d   1       1.121  -4.323   0.116  0.00  0.00     0.160 HD
ATOM     18  H   UNL d   1       2.055  -5.803   0.040  0.00  0.00     0.160 HD
ATOM     19  H   UNL d   1       3.666  -2.095   0.152  0.00  0.00     0.191 HD
ENDBRANCH   1  13
BRANCH   8  20
ATOM     20  O   UNL d   1      -4.011   0.828  -0.079  0.00  0.00    -0.356 OA
ATOM     21  C   UNL d   1      -5.075  -0.107  -0.216  0.00  0.00     0.210 C 
ENDBRANCH   8  20
TORSDOF 2
