REMARK  3 active torsions:
REMARK  status: ('A' for Active; 'I' for Inactive)
REMARK    1  A    between atoms: C_8  and  N_5 
REMARK    2  A    between atoms: O_15  and  C_9 
REMARK    3  A    between atoms: O_18  and  C_13 
ROOT
ATOM      1  C   UNL d   1      -2.533  -1.435  -1.350  0.00  0.00     0.146 C 
ATOM      2  S   UNL d   1      -3.613  -2.243  -2.496  0.00  0.00    -0.057 SA
ATOM      3  N   UNL d   1      -3.002  -0.179  -1.084  0.00  0.00    -0.357 N 
ATOM      4  C   UNL d   1      -4.507  -0.765  -2.774  0.00  0.00     0.004 C 
ATOM      5  N   UNL d   1      -1.447  -1.893  -0.818  0.00  0.00    -0.335 N 
ATOM      6  HN  UNL d   1      -0.933  -1.293  -0.173  1.00  0.00     0.168 HD
ATOM      7  C   UNL d   1      -4.287   0.226  -1.638  0.00  0.00     0.058 C 
ATOM      8  C   UNL d   1      -5.149  -0.571  -3.934  0.00  0.00     0.029 C 
ATOM      9  C   UNL d   1      -4.195   1.687  -2.086  0.00  0.00     0.044 C 
ATOM     10  C   UNL d   1      -5.372   0.067  -0.566  0.00  0.00     0.044 C 
ATOM     11  H   UNL d   1      -2.582   0.323  -0.317  0.00  0.00     0.162 HD
ENDROOT
BRANCH   5  12
ATOM     12  C   UNL d   1      -0.938  -3.179  -1.085  0.00  0.00     0.068 A 
ATOM     13  C   UNL d   1      -0.580  -4.079  -0.059  0.00  0.00     0.097 A 
ATOM     14  C   UNL d   1      -0.100  -5.365  -0.380  0.00  0.00     0.075 A 
ATOM     15  C   UNL d   1       0.055  -5.767  -1.705  0.00  0.00     0.070 A 
ATOM     16  C   UNL d   1      -0.247  -4.867  -2.720  0.00  0.00     0.039 A 
ATOM     17  C   UNL d   1      -0.697  -3.582  -2.411  0.00  0.00     0.035 A 
BRANCH  13  18
ATOM     18  O   UNL d   1      -0.649  -3.883   1.300  0.00  0.00    -0.354 OA
ATOM     19  C   UNL d   1      -0.765  -2.551   1.778  0.00  0.00     0.210 C 
ENDBRANCH  13  18
BRANCH  15  20
ATOM     20  O   UNL d   1       0.485  -6.991  -2.136  0.00  0.00    -0.356 OA
ATOM     21  C   UNL d   1       1.054  -7.849  -1.155  0.00  0.00     0.210 C 
ENDBRANCH  15  20
ENDBRANCH   5  12
TORSDOF 3
