REMARK  6 active torsions:
REMARK  status: ('A' for Active; 'I' for Inactive)
REMARK    1  A    between atoms: N_3  and  S_1 
REMARK    2  A    between atoms: C_10  and  S_1 
REMARK    3  A    between atoms: C_2  and  N_3 
REMARK    4  A    between atoms: C_9  and  C_6 
REMARK    5  A    between atoms: C_11  and  C_9 
REMARK    6  A    between atoms: O_17  and  C_11 
ROOT
ATOM      1  C   UNL d   1       0.879   1.744  -2.043  0.00  0.00     0.137 A 
ATOM      2  N   UNL d   1       1.983   2.434  -1.911  0.00  0.00    -0.343 N 
ATOM      3  HN  UNL d   1       2.820   2.117  -1.423  1.00  0.00     0.167 HD
ATOM      4  C   UNL d   1       1.839   3.671  -2.541  0.00  0.00     0.033 A 
ATOM      5  S   UNL d   1      -0.444   2.553  -2.740  0.00  0.00    -0.062 SA
ATOM      6  C   UNL d   1       0.569   3.906  -3.055  0.00  0.00     0.005 A 
ATOM      7  C   UNL d   1       0.036   5.080  -3.802  0.00  0.00     0.058 C 
ENDROOT
BRANCH   1   8
ATOM      8  N   UNL d   1       0.826   0.433  -1.505  0.00  0.00    -0.160 NA
ATOM      9  H   UNL d   1       1.656   0.350  -0.916  0.00  0.00     0.148 HD
BRANCH   8  10
ATOM     10  S   UNL d   1       1.033  -0.728  -2.726  0.00  0.00     0.247 S 
ATOM     11  O   UNL d   1       2.385  -1.231  -2.575  0.00  0.00    -0.205 OA
ATOM     12  O   UNL d   1       0.548  -0.252  -4.002  0.00  0.00    -0.205 OA
BRANCH  10  13
ATOM     13  C   UNL d   1      -0.073  -2.019  -2.194  0.00  0.00     0.075 A 
ATOM     14  C   UNL d   1      -1.393  -2.029  -2.662  0.00  0.00     0.031 A 
ATOM     15  C   UNL d   1      -2.240  -3.098  -2.340  0.00  0.00    -0.061 A 
ATOM     16  C   UNL d   1      -3.651  -3.150  -2.849  0.00  0.00     0.048 C 
ATOM     17  C   UNL d   1      -1.748  -4.145  -1.548  0.00  0.00     0.007 A 
ATOM     18  C   UNL d   1      -0.429  -4.132  -1.089  0.00  0.00     0.002 A 
ATOM     19  C   UNL d   1       0.415  -3.072  -1.416  0.00  0.00     0.025 A 
ENDBRANCH  10  13
ENDBRANCH   8  10
ENDBRANCH   1   8
BRANCH   4  20
ATOM     20  C   UNL d   1       3.062   4.528  -2.679  0.00  0.00     0.169 C 
BRANCH  20  21
ATOM     21  C   UNL d   1       2.979   5.870  -1.990  0.00  0.00     0.264 C 
ATOM     22  O   UNL d   1       2.006   6.345  -1.423  0.00  0.00    -0.265 OA
BRANCH  21  23
ATOM     23  O   UNL d   1       4.180   6.513  -2.132  0.00  0.00    -0.326 OA
ATOM     24  C   UNL d   1       4.229   7.816  -1.547  0.00  0.00     0.213 C 
ENDBRANCH  21  23
ENDBRANCH  20  21
ENDBRANCH   4  20
TORSDOF 6
