REMARK  3 active torsions:
REMARK  status: ('A' for Active; 'I' for Inactive)
REMARK    1  A    between atoms: C_4  and  N_1 
REMARK    2  A    between atoms: C_5  and  C_7 
REMARK    3  A    between atoms: C_6  and  C_8 
ROOT
ATOM      1  C   UNL d   1       1.392   2.184  -1.083  0.00  0.00     0.046 A 
ATOM      2  C   UNL d   1       3.072   2.745  -2.792  0.00  0.00     0.050 A 
ATOM      3  C   UNL d   1       1.483   4.436  -2.054  0.00  0.00     0.050 A 
ATOM      4  C   UNL d   1       2.499   1.845  -1.884  0.00  0.00     0.046 A 
ATOM      5  C   UNL d   1       0.902   3.495  -1.180  0.00  0.00     0.046 A 
ATOM      6  C   UNL d   1       2.562   4.045  -2.861  0.00  0.00     0.032 A 
ENDROOT
BRANCH   1   7
ATOM      7  N   UNL d   1       0.708   1.132  -0.384  0.00  0.00    -0.252 N 
ATOM      8  C   UNL d   1       1.417  -0.004  -0.004  0.00  0.00     0.232 C 
ATOM      9  C   UNL d   1       0.658  -1.300  -0.173  0.00  0.00     0.113 C 
ATOM     10  O   UNL d   1       2.590  -0.015   0.365  0.00  0.00    -0.273 OA
ATOM     11  C   UNL d   1      -0.772  -1.237   0.360  0.00  0.00    -0.031 C 
ATOM     12  C   UNL d   1      -1.443   0.047  -0.130  0.00  0.00     0.113 C 
ATOM     13  C   UNL d   1      -1.548  -2.448  -0.184  0.00  0.00     0.016 C 
ATOM     14  C   UNL d   1      -0.773  -1.288   1.897  0.00  0.00     0.016 C 
ATOM     15  C   UNL d   1      -0.589   1.280   0.084  0.00  0.00     0.232 C 
ATOM     16  O   UNL d   1      -1.083   2.294   0.574  0.00  0.00    -0.273 OA
ENDBRANCH   1   7
BRANCH   2  17
ATOM     17  C   UNL d   1       4.164   2.286  -3.729  0.00  0.00     0.417 C 
ATOM     18  F   UNL d   1       4.493   0.972  -3.580  0.00  0.00    -0.166 F 
ATOM     19  F   UNL d   1       3.804   2.426  -5.035  0.00  0.00    -0.166 F 
ATOM     20  F   UNL d   1       5.319   2.986  -3.577  0.00  0.00    -0.166 F 
ENDBRANCH   2  17
BRANCH   3  21
ATOM     21  C   UNL d   1       0.927   5.838  -2.171  0.00  0.00     0.417 C 
ATOM     22  F   UNL d   1      -0.138   6.080  -1.359  0.00  0.00    -0.166 F 
ATOM     23  F   UNL d   1       1.853   6.789  -1.874  0.00  0.00    -0.166 F 
ATOM     24  F   UNL d   1       0.501   6.112  -3.435  0.00  0.00    -0.166 F 
ENDBRANCH   3  21
TORSDOF 3
