REMARK  4 active torsions:
REMARK  status: ('A' for Active; 'I' for Inactive)
REMARK    1  A    between atoms: N_2  and  C_1 
REMARK    2  A    between atoms: N_4  and  N_2 
REMARK    3  A    between atoms: C_6  and  N_4 
REMARK    4  A    between atoms: O_12  and  C_7 
ROOT
ATOM      1  N   UNL d   1       0.881  -0.719   2.361  0.00  0.00    -0.204 NA
ATOM      2  H   UNL d   1       0.170  -0.488   1.662  0.00  0.00     0.153 HD
ENDROOT
BRANCH   1   3
ATOM      3  N   UNL d   1       1.601   0.431   2.727  0.00  0.00    -0.293 N 
ATOM      4  H   UNL d   1       2.009   0.490   3.652  0.00  0.00     0.183 HD
BRANCH   3   5
ATOM      5  C   UNL d   1       1.651   1.522   1.913  0.00  0.00     0.180 C 
ATOM      6  S   UNL d   1       2.300   2.963   2.420  0.00  0.00    -0.040 SA
ATOM      7  N   UNL d   1       1.130   1.385   0.670  0.00  0.00    -0.375 N 
ATOM      8  H   UNL d   1       1.276   0.483   0.234  0.00  0.00     0.158 HD
ATOM      9  H   UNL d   1       1.280   2.176   0.052  0.00  0.00     0.158 HD
ENDBRANCH   3   5
ENDBRANCH   1   3
BRANCH   1  10
ATOM     10  C   UNL d   1       0.253  -1.418   3.430  0.00  0.00     0.027 A 
ATOM     11  C   UNL d   1      -0.824  -2.268   3.123  0.00  0.00     0.028 A 
ATOM     12  C   UNL d   1      -1.464  -3.029   4.112  0.00  0.00     0.038 A 
ATOM     13  C   UNL d   1      -1.020  -2.970   5.429  0.00  0.00     0.068 A 
ATOM     14  C   UNL d   1       0.092  -2.190   5.735  0.00  0.00     0.038 A 
ATOM     15  C   UNL d   1       0.732  -1.434   4.745  0.00  0.00     0.028 A 
BRANCH  13  16
ATOM     16  O   UNL d   1      -1.549  -3.669   6.477  0.00  0.00    -0.356 OA
ATOM     17  C   UNL d   1      -2.939  -3.957   6.384  0.00  0.00     0.210 C 
ENDBRANCH  13  16
ENDBRANCH   1  10
TORSDOF 4
