REMARK  2 active torsions:
REMARK  status: ('A' for Active; 'I' for Inactive)
REMARK    1  A    between atoms: C_12  and  C_2 
REMARK    2  A    between atoms: O_15  and  C_10 
ROOT
ATOM      1  C   UNL d   1       0.047   0.684   0.054  0.00  0.00    -0.028 A 
ATOM      2  C   UNL d   1      -1.254   1.518   0.070  0.00  0.00     0.088 C 
ATOM      3  C   UNL d   1       0.021  -0.726   0.009  0.00  0.00    -0.047 A 
ATOM      4  N   UNL d   1      -1.043   3.596  -1.560  0.00  0.00    -0.196 NA
ATOM      5  C   UNL d   1      -1.143   2.678  -0.857  0.00  0.00     0.075 C 
ATOM      6  C   UNL d   1       1.302   1.324   0.112  0.00  0.00     0.012 A 
ATOM      7  C   UNL d   1       1.230  -1.451  -0.027  0.00  0.00     0.044 A 
ATOM      8  C   UNL d   1       2.462  -0.801   0.007  0.00  0.00     0.068 A 
ATOM      9  C   UNL d   1       2.489   0.589   0.084  0.00  0.00     0.037 A 
ATOM     10  C   UNL d   1      -1.264  -1.514  -0.077  0.00  0.00     0.039 C 
ATOM     11  C   UNL d   1      -2.449   0.650  -0.415  0.00  0.00     0.031 C 
ATOM     12  C   UNL d   1      -2.496  -0.700   0.288  0.00  0.00     0.007 C 
ENDROOT
BRANCH   2  13
ATOM     13  C   UNL d   1      -1.459   2.048   1.516  0.00  0.00     0.153 C 
ATOM     14  C   UNL d   1      -2.701   2.821   1.680  0.00  0.00     0.061 C 
ATOM     15  N   UNL d   1      -3.689   3.413   1.808  0.00  0.00    -0.197 NA
ENDBRANCH   2  13
BRANCH   8  16
ATOM     16  O   UNL d   1       3.691  -1.397  -0.032  0.00  0.00    -0.356 OA
ATOM     17  C   UNL d   1       3.716  -2.816  -0.134  0.00  0.00     0.210 C 
ENDBRANCH   8  16
TORSDOF 2
