REMARK  4 active torsions:
REMARK  status: ('A' for Active; 'I' for Inactive)
REMARK    1  A    between atoms: O_3  and  S_1 
REMARK    2  A    between atoms: C_4  and  S_1 
REMARK    3  A    between atoms: C_2  and  C_9 
REMARK    4  A    between atoms: C_14  and  O_3 
ROOT
ATOM      1  C   UNL d   1       1.589   1.560   4.936  0.00  0.00    -0.030 A 
ATOM      2  C   UNL d   1       0.257   1.750   4.518  0.00  0.00     0.012 A 
ATOM      3  C   UNL d   1       2.525   1.226   3.937  0.00  0.00     0.012 A 
ATOM      4  C   UNL d   1       0.846   1.396   2.201  0.00  0.00     0.089 A 
ATOM      5  C   UNL d   1      -0.112   1.663   3.173  0.00  0.00     0.039 A 
ATOM      6  C   UNL d   1       2.159   1.145   2.589  0.00  0.00     0.039 A 
ENDROOT
BRANCH   4   7
ATOM      7  O   UNL d   1       0.592   1.348   0.855  0.00  0.00    -0.229 OA
BRANCH   7   8
ATOM      8  S   UNL d   1      -0.675   2.147   0.208  0.00  0.00     0.303 S 
ATOM      9  O   UNL d   1      -0.750   3.480   0.774  0.00  0.00    -0.193 OA
ATOM     10  O   UNL d   1      -1.833   1.272   0.208  0.00  0.00    -0.193 OA
BRANCH   8  11
ATOM     11  C   UNL d   1      -0.190   2.344  -1.493  0.00  0.00     0.086 A 
ATOM     12  C   UNL d   1      -0.094   1.214  -2.311  0.00  0.00     0.027 A 
ATOM     13  C   UNL d   1       0.284   1.369  -3.646  0.00  0.00     0.025 A 
ATOM     14  C   UNL d   1       0.556   2.643  -4.148  0.00  0.00     0.034 A 
ATOM     15  C   UNL d   1       0.450   3.769  -3.332  0.00  0.00     0.025 A 
ATOM     16 CL   UNL d   1       1.025   2.830  -5.793  0.00  0.00    -0.084 Cl
ATOM     17  C   UNL d   1       0.074   3.623  -1.996  0.00  0.00     0.027 A 
ENDBRANCH   8  11
ENDBRANCH   7   8
ENDBRANCH   4   7
BRANCH   1  18
ATOM     18  C   UNL d   1       1.990   1.625   6.417  0.00  0.00     0.079 C 
ATOM     19  S   UNL d   1       0.975   2.838   7.389  0.00  0.00    -0.143 SA
ATOM     20  C   UNL d   1       0.349   1.682   8.637  0.00  0.00     0.086 C 
ATOM     21  C   UNL d   1       0.198   0.319   7.997  0.00  0.00     0.086 C 
ATOM     22  S   UNL d   1       1.761  -0.046   7.169  0.00  0.00    -0.143 SA
ATOM     23  C   UNL d   1       3.450   2.050   6.649  0.00  0.00     0.044 C 
ENDBRANCH   1  18
TORSDOF 4
