REMARK  2 active torsions:
REMARK  status: ('A' for Active; 'I' for Inactive)
REMARK    1  A    between atoms: C_9  and  C_4 
REMARK    2  A    between atoms: S_10  and  C_5 
ROOT
ATOM      1  C   UNL d   1      -0.410  -0.054  -0.027  0.00  0.00     0.108 A 
ATOM      2  N   UNL d   1       1.798  -0.611   0.025  0.00  0.00    -0.297 N 
ATOM      3  HN  UNL d   1       2.678  -1.126   0.031  1.00  0.00     0.187 HD
ATOM      4  C   UNL d   1       0.549  -1.113  -0.005  0.00  0.00     0.082 A 
ATOM      5  C   UNL d   1       0.316   1.111   0.013  0.00  0.00     0.107 A 
ATOM      6  N   UNL d   1       1.624   0.722   0.043  0.00  0.00    -0.292 N 
ATOM      7  C   UNL d   1      -1.824  -0.186  -0.104  0.00  0.00     0.104 C 
ATOM      8  N   UNL d   1      -2.980  -0.295  -0.145  0.00  0.00    -0.191 NA
ATOM      9  H   UNL d   1       2.442   1.321   0.068  0.00  0.00     0.187 HD
ENDROOT
BRANCH   4  10
ATOM     10  C   UNL d   1       0.313  -2.561  -0.057  0.00  0.00    -0.006 A 
ATOM     11  C   UNL d   1      -0.827  -3.136   0.525  0.00  0.00     0.015 A 
ATOM     12  C   UNL d   1      -1.097  -4.500   0.377  0.00  0.00     0.024 A 
ATOM     13  C   UNL d   1      -0.210  -5.308  -0.328  0.00  0.00     0.034 A 
ATOM     14  C   UNL d   1       0.953  -4.767  -0.870  0.00  0.00     0.024 A 
ATOM     15 CL   UNL d   1      -0.558  -6.980  -0.531  0.00  0.00    -0.084 Cl
ATOM     16  C   UNL d   1       1.214  -3.399  -0.734  0.00  0.00     0.015 A 
ENDBRANCH   4  10
BRANCH   5  17
ATOM     17  S   UNL d   1      -0.007   2.813   0.016  0.00  0.00    -0.114 SA
ATOM     18  C   UNL d   1      -1.810   2.929  -0.015  0.00  0.00     0.097 C 
ENDBRANCH   5  17
TORSDOF 2
