REMARK  6 active torsions:
REMARK  status: ('A' for Active; 'I' for Inactive)
REMARK    1  A    between atoms: N_2  and  C_1 
REMARK    2  A    between atoms: C_3  and  C_1 
REMARK    3  A    between atoms: C_5  and  C_1 
REMARK    4  A    between atoms: O_8  and  C_1 
REMARK       I    between atoms: C_4  and  N_2 
REMARK    5  A    between atoms: C_6  and  C_4 
REMARK    6  A    between atoms: O_15  and  C_5 
ROOT
ATOM      1  C   UNL d   1       1.054   0.107   0.081  0.00  0.00     0.325 C 
ENDROOT
BRANCH   1   2
ATOM      2  N   UNL d   1       0.627  -0.058  -1.317  0.00  0.00    -0.309 N 
ATOM      3  C   UNL d   1       1.031   0.824  -2.290  0.00  0.00     0.254 C 
ATOM      4  O   UNL d   1       1.642   1.847  -2.008  0.00  0.00    -0.268 OA
ATOM      5  H   UNL d   1       0.289  -0.981  -1.569  0.00  0.00     0.166 HD
BRANCH   3   6
ATOM      6  C   UNL d   1       0.717   0.462  -3.698  0.00  0.00     0.033 A 
ATOM      7  C   UNL d   1      -0.387  -0.337  -4.026  0.00  0.00     0.041 A 
ATOM      8  C   UNL d   1      -0.624  -0.666  -5.360  0.00  0.00     0.035 A 
ATOM      9 CL   UNL d   1      -1.972  -1.658  -5.763  0.00  0.00    -0.084 Cl
ATOM     10  C   UNL d   1       0.218  -0.203  -6.371  0.00  0.00     0.024 A 
ATOM     11  C   UNL d   1       1.303   0.612  -6.048  0.00  0.00     0.003 A 
ATOM     12  C   UNL d   1       1.550   0.948  -4.716  0.00  0.00     0.017 A 
ENDBRANCH   3   6
ENDBRANCH   1   2
BRANCH   1  13
ATOM     13  C   UNL d   1       2.595   0.038   0.338  0.00  0.00     0.448 C 
ATOM     14  F   UNL d   1       3.302  -0.114  -0.810  0.00  0.00    -0.166 F 
ATOM     15  F   UNL d   1       3.050   1.170   0.933  0.00  0.00    -0.166 F 
ATOM     16  F   UNL d   1       2.962  -0.993   1.139  0.00  0.00    -0.166 F 
ENDBRANCH   1  13
BRANCH   1  17
ATOM     17  C   UNL d   1       0.481  -1.101   0.842  0.00  0.00     0.324 C 
ATOM     18  O   UNL d   1       0.230  -2.178   0.301  0.00  0.00    -0.259 OA
BRANCH  17  19
ATOM     19  O   UNL d   1       0.309  -0.840   2.168  0.00  0.00    -0.322 OA
ATOM     20  C   UNL d   1      -0.182  -1.938   2.939  0.00  0.00     0.213 C 
ENDBRANCH  17  19
ENDBRANCH   1  17
BRANCH   1  21
ATOM     21  O   UNL d   1       0.452   1.331   0.507  0.00  0.00    -0.356 OA
ATOM     22  H   UNL d   1       0.876   2.017  -0.049  0.00  0.00     0.213 HD
ENDBRANCH   1  21
TORSDOF 6
