REMARK  2 active torsions:
REMARK  status: ('A' for Active; 'I' for Inactive)
REMARK    1  A    between atoms: C_9  and  C_3 
REMARK    2  A    between atoms: C_8  and  C_7 
ROOT
ATOM      1  N   UNL d   1       1.558  -0.082  -0.034  0.00  0.00    -0.331 N 
ATOM      2  HN  UNL d   1       2.505  -0.458  -0.071  1.00  0.00     0.168 HD
ATOM      3  C   UNL d   1       1.181   1.157  -0.015  0.00  0.00     0.162 A 
ATOM      4  C   UNL d   1       0.368  -0.761   0.008  0.00  0.00     0.111 A 
ATOM      5  O   UNL d   1      -0.147   1.409   0.048  0.00  0.00    -0.256 OA
ATOM      6  C   UNL d   1      -0.772   0.199   0.063  0.00  0.00     0.316 A 
ATOM      7  C   UNL d   1       0.280  -2.096  -0.013  0.00  0.00     0.047 C 
ATOM      8  O   UNL d   1      -1.967   0.001   0.106  0.00  0.00    -0.257 OA
ENDROOT
BRANCH   7   9
ATOM      9  C   UNL d   1      -0.961  -2.869   0.022  0.00  0.00    -0.031 A 
ATOM     10  C   UNL d   1      -1.575  -3.269  -1.170  0.00  0.00     0.035 A 
ATOM     11  C   UNL d   1      -2.738  -4.039  -1.126  0.00  0.00     0.036 A 
ATOM     12 CL   UNL d   1      -3.480  -4.544  -2.595  0.00  0.00    -0.084 Cl
ATOM     13  C   UNL d   1      -3.297  -4.415   0.092  0.00  0.00     0.047 A 
ATOM     14  C   UNL d   1      -2.690  -4.002   1.275  0.00  0.00     0.036 A 
ATOM     15  C   UNL d   1      -1.529  -3.229   1.248  0.00  0.00     0.035 A 
ATOM     16 CL   UNL d   1      -3.369  -4.464   2.788  0.00  0.00    -0.084 Cl
ENDBRANCH   7   9
BRANCH   3  17
ATOM     17  C   UNL d   1       2.041   2.348  -0.080  0.00  0.00     0.015 A 
ATOM     18  C   UNL d   1       3.428   2.183  -0.176  0.00  0.00     0.016 A 
ATOM     19  C   UNL d   1       4.255   3.300  -0.311  0.00  0.00     0.001 A 
ATOM     20  C   UNL d   1       3.701   4.579  -0.346  0.00  0.00     0.000 A 
ATOM     21  C   UNL d   1       2.322   4.748  -0.229  0.00  0.00     0.001 A 
ATOM     22  C   UNL d   1       1.491   3.636  -0.092  0.00  0.00     0.016 A 
ENDBRANCH   3  17
TORSDOF 2
