REMARK  7 active torsions:
REMARK  status: ('A' for Active; 'I' for Inactive)
REMARK    1  A    between atoms: C_6  and  N_1 
REMARK    2  A    between atoms: C_7  and  C_2 
REMARK    3  A    between atoms: C_10  and  C_5 
REMARK    4  A    between atoms: O_23  and  C_7 
REMARK    5  A    between atoms: C_8  and  C_10 
REMARK       I    between atoms: N_12  and  C_8 
REMARK    6  A    between atoms: C_9  and  N_12 
REMARK    7  A    between atoms: C_30  and  O_23 
ROOT
ATOM      1  N   UNL d   1      -0.462   1.093   0.484  0.00  0.00    -0.285 N 
ATOM      2  C   UNL d   1      -1.007  -1.063   0.459  0.00  0.00     0.053 C 
ATOM      3  C   UNL d   1       0.728   0.416   0.740  0.00  0.00     0.238 C 
ATOM      4  C   UNL d   1      -1.504   0.197   0.391  0.00  0.00     0.029 C 
ATOM      5  C   UNL d   1       0.514  -1.067   0.457  0.00  0.00     0.128 C 
ATOM      6  O   UNL d   1       1.761   0.919   1.163  0.00  0.00    -0.272 OA
ATOM      7  C   UNL d   1      -2.902   0.661   0.141  0.00  0.00     0.069 C 
ENDROOT
BRANCH   5   8
ATOM      8  C   UNL d   1       1.317  -1.929   1.435  0.00  0.00     0.122 C 
BRANCH   8   9
ATOM      9  C   UNL d   1       2.814  -1.951   1.072  0.00  0.00     0.223 C 
ATOM     10  N   UNL d   1       3.499  -0.831   1.501  0.00  0.00    -0.327 N 
ATOM     11  H   UNL d   1       2.914  -0.072   1.855  0.00  0.00     0.169 HD
ATOM     12  O   UNL d   1       3.293  -2.885   0.435  0.00  0.00    -0.273 OA
BRANCH  10  13
ATOM     13  C   UNL d   1       4.845  -0.463   1.306  0.00  0.00     0.037 A 
ATOM     14  C   UNL d   1       5.819  -1.292   0.755  0.00  0.00     0.053 A 
ATOM     15  C   UNL d   1       7.133  -0.828   0.631  0.00  0.00     0.037 A 
ATOM     16 CL   UNL d   1       8.344  -1.862  -0.028  0.00  0.00    -0.084 Cl
ATOM     17  C   UNL d   1       7.488   0.457   1.037  0.00  0.00     0.048 A 
ATOM     18  C   UNL d   1       6.510   1.288   1.567  0.00  0.00     0.037 A 
ATOM     19  C   UNL d   1       5.198   0.838   1.700  0.00  0.00     0.053 A 
ATOM     20 CL   UNL d   1       6.921   2.884   2.064  0.00  0.00    -0.084 Cl
ENDBRANCH  10  13
ENDBRANCH   8   9
ENDBRANCH   5   8
BRANCH   2  21
ATOM     21  C   UNL d   1      -1.857  -2.260   0.451  0.00  0.00     0.292 C 
ATOM     22  O   UNL d   1      -3.055  -2.248   0.696  0.00  0.00    -0.260 OA
BRANCH  21  23
ATOM     23  O   UNL d   1      -1.124  -3.367   0.199  0.00  0.00    -0.318 OA
BRANCH  23  24
ATOM     24  C   UNL d   1      -1.836  -4.609   0.355  0.00  0.00     0.174 C 
ATOM     25  C   UNL d   1      -1.828  -5.022   1.817  0.00  0.00     0.034 C 
ENDBRANCH  23  24
ENDBRANCH  21  23
ENDBRANCH   2  21
BRANCH   1  26
ATOM     26  C   UNL d   1      -0.460   2.506   0.451  0.00  0.00     0.044 A 
ATOM     27  C   UNL d   1       0.508   3.145  -0.340  0.00  0.00     0.054 A 
ATOM     28  C   UNL d   1       0.573   4.533  -0.392  0.00  0.00     0.036 A 
ATOM     29 CL   UNL d   1       1.737   5.291  -1.405  0.00  0.00    -0.084 Cl
ATOM     30  C   UNL d   1      -0.302   5.300   0.368  0.00  0.00     0.024 A 
ATOM     31  C   UNL d   1      -1.256   4.673   1.173  0.00  0.00     0.004 A 
ATOM     32  C   UNL d   1      -1.347   3.279   1.204  0.00  0.00     0.030 A 
ENDBRANCH   1  26
TORSDOF 7
