REMARK  5 active torsions:
REMARK  status: ('A' for Active; 'I' for Inactive)
REMARK    1  A    between atoms: N_4  and  C_3 
REMARK       I    between atoms: C_5  and  N_4 
REMARK    2  A    between atoms: C_10  and  C_5 
REMARK    3  A    between atoms: O_12  and  C_10 
REMARK    4  A    between atoms: C_13  and  O_12 
REMARK    5  A    between atoms: C_20  and  C_14 
ROOT
ATOM      1  N   UNL d   1      -3.690  -0.990   0.222  0.00  0.00    -0.349 N 
ATOM      2  C   UNL d   1      -4.089  -0.310   1.375  0.00  0.00     0.244 C 
ATOM      3  O   UNL d   1      -3.563   0.755   1.707  0.00  0.00    -0.271 OA
ATOM      4  C   UNL d   1      -4.279  -2.268  -0.159  0.00  0.00     0.153 C 
ENDROOT
BRANCH   2   5
ATOM      5  C   UNL d   1      -5.264  -0.863   2.201  0.00  0.00     0.278 C 
BRANCH   5   6
ATOM      6  O   UNL d   1      -5.044  -2.173   2.705  0.00  0.00    -0.342 OA
BRANCH   6   7
ATOM      7  C   UNL d   1      -6.001  -2.674   3.551  0.00  0.00     0.069 A 
ATOM      8  C   UNL d   1      -7.204  -2.055   3.895  0.00  0.00     0.037 A 
ATOM      9  C   UNL d   1      -8.096  -2.677   4.777  0.00  0.00     0.010 A 
ATOM     10  C   UNL d   1      -7.808  -3.932   5.323  0.00  0.00    -0.058 A 
ATOM     11  C   UNL d   1      -6.600  -4.549   4.976  0.00  0.00     0.010 A 
ATOM     12  C   UNL d   1      -5.709  -3.927   4.098  0.00  0.00     0.037 A 
BRANCH  10  13
ATOM     13  C   UNL d   1      -8.763  -4.598   6.280  0.00  0.00     0.034 C 
ATOM     14  C   UNL d   1      -8.491  -4.213   7.728  0.00  0.00     0.010 C 
ENDBRANCH  10  13
ENDBRANCH   6   7
ENDBRANCH   5   6
ENDBRANCH   2   5
BRANCH   1  15
ATOM     15  C   UNL d   1      -2.562  -0.492  -0.589  0.00  0.00     0.101 C 
ATOM     16  C   UNL d   1      -1.237  -0.339   0.159  0.00  0.00     0.165 C 
ATOM     17  S   UNL d   1      -0.216   0.570  -0.984  0.00  0.00     0.146 S 
ATOM     18  O   UNL d   1       0.473  -0.384  -1.831  0.00  0.00    -0.228 OA
ATOM     19  O   UNL d   1       0.489   1.616  -0.275  0.00  0.00    -0.228 OA
ATOM     20  C   UNL d   1      -1.541   1.295  -1.939  0.00  0.00     0.142 C 
ATOM     21  C   UNL d   1      -2.837   0.868  -1.258  0.00  0.00     0.041 C 
ENDBRANCH   1  15
TORSDOF 5
