REMARK  5 active torsions:
REMARK  status: ('A' for Active; 'I' for Inactive)
REMARK    1  A    between atoms: N_2  and  S_1 
REMARK    2  A    between atoms: C_8  and  S_1 
REMARK       I    between atoms: N_5  and  C_4 
REMARK       I    between atoms: N_9  and  C_4 
REMARK    3  A    between atoms: N_10  and  N_5 
REMARK    4  A    between atoms: N_11  and  N_9 
REMARK    5  A    between atoms: C_12  and  N_10 
ROOT
ATOM      1  N   UNL d   1       0.154  -0.614  -1.577  0.00  0.00    -0.110 N 
ATOM      2  HN  UNL d   1       0.260   0.002  -0.771  1.00  0.00     0.197 HD
ATOM      3  C   UNL d   1       0.639  -0.249  -2.724  0.00  0.00     0.716 C 
ATOM      4  N   UNL d   1       1.298   0.967  -2.858  0.00  0.00    -0.130 N 
ATOM      5  N   UNL d   1       0.578  -0.944  -3.929  0.00  0.00    -0.154 N 
ATOM      6  H   UNL d   1       2.199   0.851  -3.323  0.00  0.00     0.205 HD
ATOM      7  H   UNL d   1      -0.126  -1.694  -3.959  0.00  0.00     0.199 HD
ENDROOT
BRANCH   1   8
ATOM      8  S   UNL d   1      -0.617  -2.028  -1.403  0.00  0.00     0.276 S 
ATOM      9  O   UNL d   1      -1.397  -2.284  -2.600  0.00  0.00    -0.200 OA
ATOM     10  O   UNL d   1      -1.253  -2.062  -0.098  0.00  0.00    -0.200 OA
BRANCH   8  11
ATOM     11  C   UNL d   1       0.659  -3.279  -1.357  0.00  0.00     0.080 A 
ATOM     12  C   UNL d   1       1.626  -3.246  -0.349  0.00  0.00     0.025 A 
ATOM     13  C   UNL d   1       2.587  -4.258  -0.286  0.00  0.00     0.002 A 
ATOM     14  C   UNL d   1       2.579  -5.293  -1.225  0.00  0.00     0.000 A 
ATOM     15  C   UNL d   1       1.613  -5.322  -2.230  0.00  0.00     0.002 A 
ATOM     16  C   UNL d   1       0.647  -4.316  -2.298  0.00  0.00     0.025 A 
ENDBRANCH   8  11
ENDBRANCH   1   8
BRANCH   4  17
ATOM     17  N   UNL d   1       1.285   1.932  -1.878  0.00  0.00    -0.287 N 
ATOM     18  H   UNL d   1       0.580   1.771  -1.151  0.00  0.00     0.187 HD
BRANCH  17  19
ATOM     19  C   UNL d   1       1.417   3.309  -2.184  0.00  0.00     0.048 A 
ATOM     20  C   UNL d   1       1.764   3.764  -3.464  0.00  0.00     0.031 A 
ATOM     21  C   UNL d   1       1.986   5.122  -3.714  0.00  0.00     0.002 A 
ATOM     22  C   UNL d   1       1.886   6.047  -2.679  0.00  0.00     0.000 A 
ATOM     23  C   UNL d   1       1.560   5.612  -1.396  0.00  0.00     0.002 A 
ATOM     24  C   UNL d   1       1.332   4.254  -1.151  0.00  0.00     0.031 A 
ENDBRANCH  17  19
ENDBRANCH   4  17
BRANCH   5  25
ATOM     25  N   UNL d   1       0.799  -0.250  -5.154  0.00  0.00    -0.235 NA
ATOM     26  H   UNL d   1       0.970   0.743  -4.964  0.00  0.00     0.143 HD
ATOM     27  H   UNL d   1      -0.068  -0.239  -5.702  0.00  0.00     0.143 HD
ENDBRANCH   5  25
TORSDOF 5
