REMARK  3 active torsions:
REMARK  status: ('A' for Active; 'I' for Inactive)
REMARK    1  A    between atoms: N_3  and  C_1 
REMARK    2  A    between atoms: N_10  and  C_2 
REMARK    3  A    between atoms: C_11  and  C_9 
ROOT
ATOM      1  C   UNL d   1       1.012  -0.092  -0.056  0.00  0.00     0.145 C 
ATOM      2  C   UNL d   1       1.674  -0.682   0.971  0.00  0.00     0.125 C 
ATOM      3  C   UNL d   1       1.113   1.337  -0.195  0.00  0.00     0.120 C 
ATOM      4  C   UNL d   1       1.612  -2.115   1.115  0.00  0.00     0.114 C 
ATOM      5  N   UNL d   1       1.181   2.490  -0.313  0.00  0.00    -0.190 NA
ATOM      6  N   UNL d   1       1.612  -3.264   1.279  0.00  0.00    -0.190 NA
ENDROOT
BRANCH   1   7
ATOM      7  N   UNL d   1       0.332  -0.849  -0.999  0.00  0.00    -0.355 N 
ATOM      8  C   UNL d   1      -0.738  -0.350  -1.534  0.00  0.00     0.100 C 
ATOM      9  HN  UNL d   1       0.665  -1.776  -1.264  1.00  0.00     0.166 HD
BRANCH   8  10
ATOM     10  C   UNL d   1      -1.509  -1.090  -2.556  0.00  0.00    -0.019 A 
ATOM     11  C   UNL d   1      -2.652  -0.495  -3.095  0.00  0.00     0.036 A 
ATOM     12  C   UNL d   1      -3.394  -1.188  -4.052  0.00  0.00     0.034 A 
ATOM     13 CL   UNL d   1      -4.809  -0.467  -4.717  0.00  0.00    -0.084 Cl
ATOM     14  C   UNL d   1      -3.004  -2.458  -4.473  0.00  0.00     0.024 A 
ATOM     15  C   UNL d   1      -1.858  -3.046  -3.936  0.00  0.00     0.003 A 
ATOM     16  C   UNL d   1      -1.109  -2.363  -2.976  0.00  0.00     0.013 A 
ENDBRANCH   8  10
ENDBRANCH   1   7
BRANCH   2  17
ATOM     17  N   UNL d   1       2.449  -0.069   1.955  0.00  0.00    -0.291 NA
ATOM     18  H   UNL d   1       2.810   0.853   1.716  0.00  0.00     0.125 HD
ATOM     19  H   UNL d   1       3.168  -0.676   2.353  0.00  0.00     0.125 HD
ENDBRANCH   2  17
TORSDOF 3
