REMARK  3 active torsions:
REMARK  status: ('A' for Active; 'I' for Inactive)
REMARK    1  A    between atoms: N_5  and  C_1 
REMARK    2  A    between atoms: C_2  and  C_7 
REMARK       I    between atoms: C_7  and  N_5 
REMARK    3  A    between atoms: O_19  and  C_17 
ROOT
ATOM      1  N   UNL d   1      -5.130  -1.108   0.883  0.00  0.00    -0.302 N 
ATOM      2  C   UNL d   1      -4.489  -0.495  -0.161  0.00  0.00     0.274 C 
ATOM      3  O   UNL d   1      -3.912  -1.055  -1.088  0.00  0.00    -0.266 OA
ATOM      4  H   UNL d   1      -5.433  -0.556   1.671  0.00  0.00     0.171 HD
ENDROOT
BRANCH   2   5
ATOM      5  C   UNL d   1      -4.470   0.956  -0.067  0.00  0.00     0.102 C 
ATOM      6  N   UNL d   1      -3.654   1.718  -0.879  0.00  0.00    -0.351 N 
ATOM      7  C   UNL d   1      -3.680   3.038  -0.503  0.00  0.00     0.043 A 
ATOM      8  H   UNL d   1      -3.062   1.324  -1.599  0.00  0.00     0.166 HD
ATOM      9  C   UNL d   1      -2.932   4.127  -0.961  0.00  0.00     0.033 A 
ATOM     10  C   UNL d   1      -4.639   3.155   0.498  0.00  0.00    -0.004 A 
ATOM     11  C   UNL d   1      -3.159   5.373  -0.356  0.00  0.00     0.039 A 
ATOM     12  C   UNL d   1      -4.123   5.528   0.640  0.00  0.00     0.069 A 
ATOM     13  C   UNL d   1      -4.881   4.424   1.058  0.00  0.00     0.050 A 
ATOM     14  C   UNL d   1      -5.156   1.852   0.739  0.00  0.00     0.049 C 
BRANCH  12  15
ATOM     15  O   UNL d   1      -4.424   6.694   1.292  0.00  0.00    -0.356 OA
ATOM     16  C   UNL d   1      -3.636   7.834   0.975  0.00  0.00     0.210 C 
ENDBRANCH  12  15
ENDBRANCH   2   5
BRANCH   1  17
ATOM     17  C   UNL d   1      -5.327  -2.452   1.067  0.00  0.00     0.152 A 
ATOM     18  N   UNL d   1      -5.804  -2.912   2.199  0.00  0.00    -0.335 N 
ATOM     19  C   UNL d   1      -5.994  -4.281   2.103  0.00  0.00     0.051 A 
ATOM     20  HN  UNL d   1      -6.005  -2.347   3.024  1.00  0.00     0.168 HD
ATOM     21  C   UNL d   1      -6.491  -5.126   3.117  0.00  0.00     0.031 A 
ATOM     22  C   UNL d   1      -5.672  -4.840   0.864  0.00  0.00     0.035 A 
ATOM     23  C   UNL d   1      -6.694  -6.485   2.852  0.00  0.00     0.002 A 
ATOM     24  C   UNL d   1      -6.398  -7.011   1.599  0.00  0.00     0.002 A 
ATOM     25  C   UNL d   1      -5.869  -6.202   0.588  0.00  0.00     0.021 A 
ATOM     26  S   UNL d   1      -5.050  -3.602  -0.155  0.00  0.00    -0.052 SA
ENDBRANCH   1  17
TORSDOF 3
