REMARK  1 active torsions:
REMARK  status: ('A' for Active; 'I' for Inactive)
REMARK    1  A    between atoms: C_5  and  C_4 
ROOT
ATOM      1  C   UNL d   1      -1.248   0.127  -0.130  0.00  0.00     0.117 C 
ATOM      2  C   UNL d   1      -0.638  -1.175   0.177  0.00  0.00     0.302 C 
ATOM      3  C   UNL d   1      -0.513   1.351   0.218  0.00  0.00     0.302 C 
ATOM      4  C   UNL d   1      -2.448   0.099  -0.741  0.00  0.00     0.054 C 
ATOM      5  O   UNL d   1       0.703  -1.157   0.319  0.00  0.00    -0.280 OA
ATOM      6  O   UNL d   1       0.830   1.220   0.233  0.00  0.00    -0.280 OA
ATOM      7  C   UNL d   1       1.415  -0.019  -0.166  0.00  0.00     0.175 C 
ATOM      8  O   UNL d   1      -1.046   2.406   0.532  0.00  0.00    -0.259 OA
ATOM      9  O   UNL d   1      -1.284  -2.208   0.303  0.00  0.00    -0.259 OA
ATOM     10  C   UNL d   1       1.561  -0.083  -1.690  0.00  0.00     0.080 C 
ATOM     11  C   UNL d   1       2.803  -0.062   0.474  0.00  0.00     0.080 C 
ENDROOT
BRANCH   4  12
ATOM     12  C   UNL d   1      -3.128   1.254  -1.192  0.00  0.00     0.039 A 
ATOM     13  N   UNL d   1      -4.063   1.820  -0.360  0.00  0.00    -0.359 N 
ATOM     14  C   UNL d   1      -4.651   2.895  -0.978  0.00  0.00     0.006 A 
ATOM     15  H   UNL d   1      -4.278   1.503   0.576  0.00  0.00     0.166 HD
ATOM     16  C   UNL d   1      -5.711   3.700  -0.324  0.00  0.00     0.068 C 
ATOM     17  C   UNL d   1      -4.063   3.026  -2.219  0.00  0.00     0.033 A 
ATOM     18  C   UNL d   1      -3.102   1.985  -2.368  0.00  0.00    -0.033 A 
ATOM     19  C   UNL d   1      -2.259   1.758  -3.570  0.00  0.00     0.050 C 
ENDBRANCH   4  12
TORSDOF 1
