REMARK  1 active torsions:
REMARK  status: ('A' for Active; 'I' for Inactive)
REMARK    1  A    between atoms: O_18  and  C_2 
ROOT
ATOM      1  N   UNL d   1       0.183   0.387   0.334  0.00  0.00    -0.259 N 
ATOM      2  C   UNL d   1      -0.600  -0.821   0.360  0.00  0.00     0.268 C 
ATOM      3  C   UNL d   1      -0.581   1.536   0.192  0.00  0.00     0.234 C 
ATOM      4  O   UNL d   1      -0.157  -1.629   1.436  0.00  0.00    -0.259 OA
ATOM      5  C   UNL d   1       1.572   0.216   0.287  0.00  0.00     0.059 C 
ATOM      6  C   UNL d   1      -2.047  -0.392   0.542  0.00  0.00     0.094 C 
ATOM      7  C   UNL d   1       2.051  -1.053   0.634  0.00  0.00     0.067 C 
ATOM      8  C   UNL d   1      -2.021   1.168   0.487  0.00  0.00     0.098 C 
ATOM      9  C   UNL d   1       1.162  -1.963   1.400  0.00  0.00     0.299 C 
ATOM     10  C   UNL d   1      -3.091  -0.736  -0.555  0.00  0.00     0.020 C 
ATOM     11  C   UNL d   1      -3.093   1.505  -0.565  0.00  0.00     0.022 C 
ATOM     12  C   UNL d   1      -2.634   1.056  -1.928  0.00  0.00    -0.025 C 
ATOM     13  C   UNL d   1      -2.640  -0.284  -1.927  0.00  0.00    -0.025 C 
ATOM     14  C   UNL d   1      -4.114   0.380  -0.299  0.00  0.00     0.018 C 
ATOM     15  C   UNL d   1       2.476   1.179  -0.152  0.00  0.00     0.031 C 
ATOM     16  O   UNL d   1      -0.197   2.679  -0.025  0.00  0.00    -0.272 OA
ATOM     17  C   UNL d   1       3.353  -1.442   0.327  0.00  0.00     0.026 C 
ATOM     18  O   UNL d   1       1.600  -2.917   2.023  0.00  0.00    -0.259 OA
ATOM     19  C   UNL d   1       3.803   0.809  -0.415  0.00  0.00     0.009 C 
ATOM     20  C   UNL d   1       4.231  -0.515  -0.238  0.00  0.00    -0.061 C 
ATOM     21  C   UNL d   1       5.574  -0.972  -0.729  0.00  0.00     0.048 C 
ENDROOT
BRANCH   2  22
ATOM     22  O   UNL d   1      -0.395  -1.539  -0.844  0.00  0.00    -0.347 OA
ATOM     23  H   UNL d   1      -0.981  -2.311  -0.794  0.00  0.00     0.215 HD
ENDBRANCH   2  22
TORSDOF 1
