REMARK  4 active torsions:
REMARK  status: ('A' for Active; 'I' for Inactive)
REMARK    1  A    between atoms: C_8  and  C_1 
REMARK       I    between atoms: C_2  and  N_5 
REMARK    2  A    between atoms: C_3  and  C_2 
REMARK    3  A    between atoms: C_4  and  C_9 
REMARK       I    between atoms: N_6  and  C_4 
REMARK    4  A    between atoms: N_5  and  N_6 
ROOT
ATOM      1  C   UNL d   1      -0.564  -0.658   5.572  0.00  0.00     0.270 C 
ATOM      2  N   UNL d   1      -0.911   0.460   6.306  0.00  0.00    -0.263 N 
ATOM      3  O   UNL d   1      -0.637  -1.790   6.055  0.00  0.00    -0.266 OA
ATOM      4  H   UNL d   1      -0.840   1.425   6.003  0.00  0.00     0.190 HD
ENDROOT
BRANCH   1   5
ATOM      5  C   UNL d   1      -0.125  -0.479   4.154  0.00  0.00     0.033 A 
ATOM      6  C   UNL d   1      -0.168   0.744   3.472  0.00  0.00     0.018 A 
ATOM      7  C   UNL d   1       0.199   0.810   2.119  0.00  0.00     0.017 A 
ATOM      8  C   UNL d   1       0.618  -0.336   1.424  0.00  0.00     0.048 A 
ATOM      9  C   UNL d   1       0.671  -1.554   2.112  0.00  0.00     0.017 A 
ATOM     10  C   UNL d   1       0.304  -1.622   3.460  0.00  0.00     0.018 A 
BRANCH   8  11
ATOM     11  C   UNL d   1       0.981  -0.252  -0.041  0.00  0.00     0.417 C 
ATOM     12  F   UNL d   1       1.452  -1.422  -0.555  0.00  0.00    -0.166 F 
ATOM     13  F   UNL d   1       1.944   0.679  -0.287  0.00  0.00    -0.166 F 
ATOM     14  F   UNL d   1      -0.082   0.096  -0.818  0.00  0.00    -0.166 F 
ENDBRANCH   8  11
ENDBRANCH   1   5
BRANCH   2  15
ATOM     15  N   UNL d   1      -1.447   0.243   7.584  0.00  0.00    -0.263 N 
ATOM     16  C   UNL d   1      -1.502   1.266   8.513  0.00  0.00     0.277 C 
ATOM     17  O   UNL d   1      -1.083   2.393   8.238  0.00  0.00    -0.265 OA
ATOM     18  H   UNL d   1      -1.675  -0.720   7.829  0.00  0.00     0.190 HD
BRANCH  16  19
ATOM     19  C   UNL d   1      -2.089   0.920   9.804  0.00  0.00     0.074 A 
ATOM     20  S   UNL d   1      -2.866  -0.587  10.077  0.00  0.00    -0.097 SA
ATOM     21  C   UNL d   1      -3.281  -0.169  11.682  0.00  0.00     0.050 A 
ATOM     22  C   UNL d   1      -2.829   1.086  12.019  0.00  0.00     0.009 A 
ATOM     23  C   UNL d   1      -2.144   1.714  10.937  0.00  0.00     0.025 A 
ENDBRANCH  16  19
ENDBRANCH   2  15
TORSDOF 4
