REMARK  1 active torsions:
REMARK  status: ('A' for Active; 'I' for Inactive)
REMARK    1  A    between atoms: C_15  and  C_11 
ROOT
ATOM      1  N   UNL d   1      -1.199  -0.620  -0.032  0.00  0.00    -0.288 N 
ATOM      2  C   UNL d   1      -1.042   0.750  -0.015  0.00  0.00     0.150 A 
ATOM      3  C   UNL d   1      -0.103  -1.471   0.053  0.00  0.00     0.269 A 
ATOM      4  C   UNL d   1       1.139  -0.752   0.034  0.00  0.00     0.099 A 
ATOM      5  N   UNL d   1       0.063   1.425   0.011  0.00  0.00    -0.335 N 
ATOM      6  HN  UNL d   1       0.099   2.444   0.027  1.00  0.00     0.168 HD
ATOM      7  C   UNL d   1       1.203   0.614   0.013  0.00  0.00     0.057 A 
ATOM      8  S   UNL d   1      -2.578   1.565  -0.021  0.00  0.00    -0.091 SA
ATOM      9  S   UNL d   1       2.676  -1.465   0.028  0.00  0.00    -0.094 SA
ATOM     10  C   UNL d   1       2.524   1.112   0.001  0.00  0.00     0.038 A 
ATOM     11  C   UNL d   1      -2.566  -1.125  -0.053  0.00  0.00     0.104 C 
ATOM     12  O   UNL d   1      -0.212  -2.691   0.150  0.00  0.00    -0.266 OA
ATOM     13  C   UNL d   1       3.440   0.078   0.002  0.00  0.00     0.053 A 
ATOM     14  C   UNL d   1      -3.544   0.044   0.100  0.00  0.00     0.108 C 
ENDROOT
BRANCH  11  15
ATOM     15  C   UNL d   1      -2.888  -1.997  -1.285  0.00  0.00     0.022 C 
ATOM     16  C   UNL d   1      -2.710  -1.304  -2.628  0.00  0.00     0.007 C 
ENDBRANCH  11  15
TORSDOF 1
