REMARK  2 active torsions:
REMARK  status: ('A' for Active; 'I' for Inactive)
REMARK    1  A    between atoms: C_2  and  C_1 
REMARK    2  A    between atoms: C_7  and  C_5 
ROOT
ATOM      1  C   UNL d   1      -3.735  -0.025  -0.038  0.00  0.00     0.089 C 
ATOM      2  C   UNL d   1      -4.412   1.144  -0.098  0.00  0.00     0.041 C 
ATOM      3  C   UNL d   1      -2.303  -0.052  -0.003  0.00  0.00     0.103 C 
ATOM      4  N   UNL d   1      -1.147  -0.126   0.027  0.00  0.00    -0.191 NA
ENDROOT
BRANCH   1   5
ATOM      5  C   UNL d   1      -4.502  -1.234  -0.011  0.00  0.00     0.127 A 
ATOM      6  N   UNL d   1      -5.812  -1.410  -0.063  0.00  0.00    -0.339 N 
ATOM      7  C   UNL d   1      -6.026  -2.767  -0.034  0.00  0.00     0.060 A 
ATOM      8  HN  UNL d   1      -6.524  -0.681  -0.114  1.00  0.00     0.167 HD
ATOM      9  C   UNL d   1      -7.225  -3.492  -0.088  0.00  0.00     0.032 A 
ATOM     10  C   UNL d   1      -4.822  -3.451   0.055  0.00  0.00     0.060 A 
ATOM     11  C   UNL d   1      -7.168  -4.892  -0.058  0.00  0.00     0.002 A 
ATOM     12  C   UNL d   1      -5.941  -5.554   0.032  0.00  0.00     0.002 A 
ATOM     13  C   UNL d   1      -4.735  -4.846   0.094  0.00  0.00     0.032 A 
ATOM     14  N   UNL d   1      -3.870  -2.461   0.083  0.00  0.00    -0.339 N 
ATOM     15  H   UNL d   1      -2.874  -2.621   0.146  0.00  0.00     0.167 HD
ENDBRANCH   1   5
BRANCH   2  16
ATOM     16  C   UNL d   1      -3.779   2.481  -0.101  0.00  0.00     0.009 A 
ATOM     17  C   UNL d   1      -3.368   3.094  -1.299  0.00  0.00     0.046 A 
ATOM     18 CL   UNL d   1      -3.750   2.417  -2.845  0.00  0.00    -0.083 Cl
ATOM     19  C   UNL d   1      -2.641   4.291  -1.280  0.00  0.00     0.025 A 
ATOM     20  C   UNL d   1      -2.350   4.916  -0.070  0.00  0.00     0.003 A 
ATOM     21  C   UNL d   1      -2.812   4.361   1.121  0.00  0.00     0.025 A 
ATOM     22  C   UNL d   1      -3.519   3.154   1.108  0.00  0.00     0.046 A 
ATOM     23 CL   UNL d   1      -4.055   2.528   2.631  0.00  0.00    -0.083 Cl
ENDBRANCH   2  16
TORSDOF 2
