REMARK  1 active torsions:
REMARK  status: ('A' for Active; 'I' for Inactive)
REMARK    1  A    between atoms: C_9  and  C_7 
ROOT
ATOM      1  C   UNL d   1      -0.121  -1.494  -0.174  0.00  0.00    -0.013 C 
ATOM      2  C   UNL d   1      -0.023   1.349  -0.343  0.00  0.00     0.194 C 
ATOM      3  C   UNL d   1       1.195  -0.808   0.009  0.00  0.00    -0.011 A 
ATOM      4  C   UNL d   1      -1.371  -0.719   0.077  0.00  0.00    -0.011 A 
ATOM      5  C   UNL d   1       1.231   0.590  -0.112  0.00  0.00     0.026 A 
ATOM      6  C   UNL d   1      -1.320   0.676  -0.083  0.00  0.00     0.026 A 
ATOM      7  C   UNL d   1      -0.105  -2.725  -0.737  0.00  0.00     0.024 C 
ATOM      8  O   UNL d   1       0.015   2.529  -0.675  0.00  0.00    -0.287 OA
ATOM      9  C   UNL d   1       2.393  -1.477   0.311  0.00  0.00     0.013 A 
ATOM     10  C   UNL d   1      -2.581  -1.283   0.504  0.00  0.00     0.013 A 
ATOM     11  C   UNL d   1       2.436   1.296   0.019  0.00  0.00     0.016 A 
ATOM     12  C   UNL d   1      -2.470   1.466   0.068  0.00  0.00     0.016 A 
ATOM     13  C   UNL d   1       3.595  -0.772   0.446  0.00  0.00     0.001 A 
ATOM     14  C   UNL d   1      -3.727  -0.497   0.664  0.00  0.00     0.001 A 
ATOM     15  C   UNL d   1      -3.677   0.873   0.428  0.00  0.00     0.001 A 
ATOM     16  C   UNL d   1       3.618   0.612   0.294  0.00  0.00     0.001 A 
ENDROOT
BRANCH   7  17
ATOM     17  C   UNL d   1      -1.227  -3.564  -1.179  0.00  0.00    -0.035 A 
ATOM     18  C   UNL d   1      -1.814  -3.362  -2.431  0.00  0.00     0.013 A 
ATOM     19  C   UNL d   1      -2.838  -4.206  -2.871  0.00  0.00     0.024 A 
ATOM     20  C   UNL d   1      -3.278  -5.246  -2.053  0.00  0.00     0.034 A 
ATOM     21  C   UNL d   1      -2.709  -5.446  -0.797  0.00  0.00     0.024 A 
ATOM     22 CL   UNL d   1      -4.521  -6.301  -2.604  0.00  0.00    -0.084 Cl
ATOM     23  C   UNL d   1      -1.676  -4.611  -0.363  0.00  0.00     0.013 A 
ENDBRANCH   7  17
TORSDOF 1
