REMARK  3 active torsions:
REMARK  status: ('A' for Active; 'I' for Inactive)
REMARK    1  A    between atoms: C_8  and  N_1 
REMARK    2  A    between atoms: C_7  and  O_12 
REMARK    3  A    between atoms: O_12  and  C_18 
ROOT
ATOM      1  N   UNL d   1       2.431  -0.582  -0.095  0.00  0.00    -0.254 N 
ATOM      2  C   UNL d   1       2.376   0.820  -0.051  0.00  0.00     0.186 C 
ATOM      3  C   UNL d   1       1.276  -1.396  -0.172  0.00  0.00     0.267 C 
ATOM      4  C   UNL d   1      -0.044  -0.730  -0.002  0.00  0.00     0.065 A 
ATOM      5  N   UNL d   1       1.129   1.382  -0.048  0.00  0.00    -0.332 N 
ATOM      6  C   UNL d   1      -0.061   0.662  -0.025  0.00  0.00     0.050 A 
ATOM      7  S   UNL d   1       3.646   1.921  -0.078  0.00  0.00    -0.040 SA
ATOM      8  O   UNL d   1       1.305  -2.608  -0.384  0.00  0.00    -0.267 OA
ATOM      9  C   UNL d   1      -1.262  -1.434   0.142  0.00  0.00    -0.044 A 
ATOM     10  C   UNL d   1      -1.268   1.372  -0.015  0.00  0.00     0.030 A 
ATOM     11  C   UNL d   1      -2.472   0.682   0.041  0.00  0.00     0.003 A 
ATOM     12  C   UNL d   1      -2.470  -0.708   0.128  0.00  0.00     0.008 A 
ATOM     13  C   UNL d   1      -1.363  -2.927   0.296  0.00  0.00     0.049 C 
ATOM     14  H   UNL d   1       1.101   2.397  -0.046  0.00  0.00     0.168 HD
ENDROOT
BRANCH   1  15
ATOM     15  C   UNL d   1       3.697  -1.262  -0.176  0.00  0.00     0.045 A 
ATOM     16  C   UNL d   1       3.994  -2.091  -1.266  0.00  0.00     0.033 A 
ATOM     17  C   UNL d   1       5.237  -2.731  -1.368  0.00  0.00     0.039 A 
ATOM     18  C   UNL d   1       6.201  -2.541  -0.381  0.00  0.00     0.078 A 
ATOM     19  C   UNL d   1       5.883  -1.767   0.739  0.00  0.00     0.039 A 
ATOM     20  C   UNL d   1       4.646  -1.126   0.842  0.00  0.00     0.033 A 
BRANCH  18  21
ATOM     21  O   UNL d   1       7.463  -3.052  -0.369  0.00  0.00    -0.255 OA
BRANCH  21  22
ATOM     22  C   UNL d   1       8.059  -3.430  -1.599  0.00  0.00     0.530 C 
ATOM     23  F   UNL d   1       7.616  -2.709  -2.651  0.00  0.00    -0.144 F 
ATOM     24  F   UNL d   1       9.394  -3.234  -1.502  0.00  0.00    -0.144 F 
ATOM     25  F   UNL d   1       7.843  -4.742  -1.835  0.00  0.00    -0.144 F 
ENDBRANCH  21  22
ENDBRANCH  18  21
ENDBRANCH   1  15
TORSDOF 3
