REMARK  5 active torsions:
REMARK  status: ('A' for Active; 'I' for Inactive)
REMARK    1  A    between atoms: S_8  and  C_2 
REMARK    2  A    between atoms: N_9  and  C_3 
REMARK    3  A    between atoms: C_10  and  S_8 
REMARK    4  A    between atoms: C_11  and  C_10 
REMARK    5  A    between atoms: C_12  and  C_11 
ROOT
ATOM      1  S   UNL d   1       0.281  -1.016   0.623  0.00  0.00    -0.027 SA
ATOM      2  C   UNL d   1       1.610  -0.191  -0.073  0.00  0.00     0.130 A 
ATOM      3  C   UNL d   1      -0.692   0.328   0.181  0.00  0.00     0.159 A 
ATOM      4  N   UNL d   1      -0.032   1.278  -0.445  0.00  0.00    -0.279 N 
ATOM      5  HN  UNL d   1      -0.463   2.137  -0.786  1.00  0.00     0.189 HD
ATOM      6  N   UNL d   1       1.313   0.980  -0.590  0.00  0.00    -0.286 N 
ATOM      7  HN  UNL d   1       1.990   1.595  -1.043  1.00  0.00     0.188 HD
ENDROOT
BRANCH   2   8
ATOM      8  S   UNL d   1       3.217  -0.878  -0.119  0.00  0.00    -0.103 SA
BRANCH   8   9
ATOM      9  C   UNL d   1       4.244   0.625  -0.101  0.00  0.00     0.082 C 
BRANCH   9  10
ATOM     10  C   UNL d   1       5.721   0.217  -0.078  0.00  0.00     0.014 C 
BRANCH  10  11
ATOM     11  C   UNL d   1       6.702   1.407  -0.086  0.00  0.00    -0.022 C 
ATOM     12  C   UNL d   1       6.544   2.309   1.138  0.00  0.00     0.009 C 
ATOM     13  C   UNL d   1       8.142   0.887  -0.151  0.00  0.00     0.009 C 
ENDBRANCH  10  11
ENDBRANCH   9  10
ENDBRANCH   8   9
ENDBRANCH   2   8
BRANCH   3  14
ATOM     14  N   UNL d   1      -2.010   0.361   0.458  0.00  0.00    -0.379 N 
ATOM     15  H   UNL d   1      -2.484  -0.510   0.660  0.00  0.00     0.158 HD
ATOM     16  H   UNL d   1      -2.564   1.033  -0.061  0.00  0.00     0.158 HD
ENDBRANCH   3  14
TORSDOF 5
