REMARK  3 active torsions:
REMARK  status: ('A' for Active; 'I' for Inactive)
REMARK    1  A    between atoms: C_7  and  N_1 
REMARK    2  A    between atoms: C_10  and  C_4 
REMARK    3  A    between atoms: N_6  and  C_5 
ROOT
ATOM      1  N   UNL d   1      -0.251   0.947  -0.078  0.00  0.00    -0.250 N 
ATOM      2  C   UNL d   1      -1.390   0.205   0.076  0.00  0.00     0.242 C 
ATOM      3  C   UNL d   1       0.875   0.167   0.039  0.00  0.00     0.266 C 
ATOM      4  C   UNL d   1      -1.038  -1.268  -0.006  0.00  0.00     0.154 C 
ATOM      5  C   UNL d   1       0.516  -1.321  -0.073  0.00  0.00     0.332 C 
ATOM      6  O   UNL d   1      -2.527   0.601   0.302  0.00  0.00    -0.272 OA
ATOM      7  O   UNL d   1       1.993   0.562   0.353  0.00  0.00    -0.270 OA
ENDROOT
BRANCH   1   8
ATOM      8  C   UNL d   1      -0.178   2.372  -0.073  0.00  0.00     0.045 A 
ATOM      9  C   UNL d   1      -1.161   3.176   0.517  0.00  0.00     0.031 A 
ATOM     10  C   UNL d   1      -1.026   4.570   0.542  0.00  0.00     0.009 A 
ATOM     11  C   UNL d   1       0.075   5.196  -0.052  0.00  0.00    -0.062 A 
ATOM     12  C   UNL d   1       1.043   4.402  -0.670  0.00  0.00     0.009 A 
ATOM     13  C   UNL d   1       0.229   6.685   0.015  0.00  0.00     0.048 C 
ATOM     14  C   UNL d   1       0.916   3.013  -0.675  0.00  0.00     0.031 A 
ENDBRANCH   1   8
BRANCH   4  15
ATOM     15  C   UNL d   1      -1.941  -2.012  -0.965  0.00  0.00    -0.042 A 
ATOM     16  C   UNL d   1      -1.775  -1.987  -2.356  0.00  0.00     0.008 A 
ATOM     17  C   UNL d   1      -2.570  -2.796  -3.175  0.00  0.00     0.001 A 
ATOM     18  C   UNL d   1      -3.584  -3.580  -2.624  0.00  0.00     0.000 A 
ATOM     19  C   UNL d   1      -3.829  -3.532  -1.259  0.00  0.00     0.001 A 
ATOM     20  C   UNL d   1      -3.018  -2.751  -0.436  0.00  0.00     0.008 A 
ENDBRANCH   4  15
BRANCH   5  21
ATOM     21  N   UNL d   1       1.326  -1.972  -1.156  0.00  0.00     0.107 N 
ATOM     22  C   UNL d   1       2.791  -1.992  -0.813  0.00  0.00     0.299 C 
ATOM     23  C   UNL d   1       3.137  -2.917   0.372  0.00  0.00     0.198 C 
ATOM     24  O   UNL d   1       2.722  -4.265   0.121  0.00  0.00    -0.388 OA
ATOM     25  C   UNL d   1       1.341  -4.341  -0.244  0.00  0.00     0.198 C 
ATOM     26  C   UNL d   1       1.010  -3.401  -1.408  0.00  0.00     0.299 C 
ENDBRANCH   5  21
TORSDOF 3
