REMARK  4 active torsions:
REMARK  status: ('A' for Active; 'I' for Inactive)
REMARK    1  A    between atoms: C_9  and  N_1 
REMARK    2  A    between atoms: N_5  and  C_2 
REMARK    3  A    between atoms: N_8  and  C_3 
REMARK       I    between atoms: C_6  and  N_7 
REMARK    4  A    between atoms: C_12  and  C_6 
ROOT
ATOM      1  C   UNL d   1      -3.206  -6.957   5.523  0.00  0.00     0.253 C 
ATOM      2  N   UNL d   1      -2.717  -6.018   4.606  0.00  0.00    -0.345 N 
ATOM      3  N   UNL d   1      -1.580  -3.954   2.950  0.00  0.00    -0.376 N 
ATOM      4  C   UNL d   1      -1.859  -6.338   3.452  0.00  0.00     0.146 C 
ATOM      5  C   UNL d   1      -2.655  -4.624   5.074  0.00  0.00     0.146 C 
ATOM      6  C   UNL d   1      -1.846  -5.268   2.349  0.00  0.00     0.143 C 
ATOM      7  C   UNL d   1      -2.633  -3.588   3.930  0.00  0.00     0.143 C 
ATOM      8  O   UNL d   1      -3.688  -6.633   6.606  0.00  0.00    -0.267 OA
ENDROOT
BRANCH   3   9
ATOM      9  C   UNL d   1      -0.971  -2.938   2.219  0.00  0.00     0.058 A 
ATOM     10  C   UNL d   1      -1.042  -2.936   0.807  0.00  0.00     0.034 A 
ATOM     11  C   UNL d   1      -0.464  -1.923   0.031  0.00  0.00     0.038 A 
ATOM     12  C   UNL d   1       0.185  -0.863   0.658  0.00  0.00     0.105 A 
ATOM     13  C   UNL d   1       0.273  -0.812   2.051  0.00  0.00     0.068 A 
ATOM     14  C   UNL d   1      -0.266  -1.861   2.824  0.00  0.00     0.067 A 
BRANCH  12  15
ATOM     15  N   UNL d   1       0.817   0.185  -0.154  0.00  0.00    -0.116 N 
ATOM     16  O   UNL d   1       1.347   1.134   0.442  0.00  0.00    -0.532 OA
ATOM     17  O   UNL d   1       0.786   0.057  -1.385  0.00  0.00    -0.532 OA
ENDBRANCH  12  15
BRANCH  14  18
ATOM     18  N   UNL d   1       0.004  -1.832   4.223  0.00  0.00    -0.331 N 
ATOM     19  C   UNL d   1       0.021  -0.708   5.028  0.00  0.00     0.097 C 
ATOM     20  C   UNL d   1       0.177  -1.103   6.340  0.00  0.00     0.019 C 
ATOM     21  C   UNL d   1       0.363  -2.501   6.339  0.00  0.00     0.019 C 
ATOM     22  C   UNL d   1       0.309  -2.913   5.027  0.00  0.00     0.097 C 
ENDBRANCH  14  18
ENDBRANCH   3   9
BRANCH   1  23
ATOM     23  C   UNL d   1      -3.263  -8.398   5.165  0.00  0.00     0.032 A 
ATOM     24  C   UNL d   1      -2.166  -9.119   4.689  0.00  0.00     0.017 A 
ATOM     25  C   UNL d   1      -2.329 -10.441   4.267  0.00  0.00     0.007 A 
ATOM     26  C   UNL d   1      -3.572 -11.076   4.386  0.00  0.00    -0.062 A 
ATOM     27  C   UNL d   1      -4.645 -10.377   4.950  0.00  0.00     0.007 A 
ATOM     28  C   UNL d   1      -3.751 -12.477   3.882  0.00  0.00     0.048 C 
ATOM     29  C   UNL d   1      -4.491  -9.046   5.338  0.00  0.00     0.017 A 
ENDBRANCH   1  23
TORSDOF 4
