REMARK  2 active torsions:
REMARK  status: ('A' for Active; 'I' for Inactive)
REMARK    1  A    between atoms: C_2  and  N_1 
REMARK    2  A    between atoms: C_8  and  C_10 
ROOT
ATOM      1  C   UNL d   1       2.095  -1.448  -0.118  0.00  0.00     0.100 A 
ATOM      2  C   UNL d   1       2.958  -1.427   0.997  0.00  0.00     0.065 A 
ATOM      3  C   UNL d   1       2.464  -2.232  -1.225  0.00  0.00     0.065 A 
ATOM      4  C   UNL d   1       4.436  -3.065  -0.049  0.00  0.00     0.051 A 
ATOM      5  C   UNL d   1       4.117  -2.224   1.020  0.00  0.00     0.042 A 
ATOM      6  C   UNL d   1       3.601  -3.056  -1.171  0.00  0.00     0.042 A 
ATOM      7 CL   UNL d   1       1.712  -2.128  -2.783  0.00  0.00    -0.082 Cl
ATOM      8 CL   UNL d   1       2.659  -0.558   2.469  0.00  0.00    -0.082 Cl
ENDROOT
BRANCH   1   9
ATOM      9  N   UNL d   1       0.894  -0.685  -0.113  0.00  0.00    -0.258 N 
ATOM     10  N   UNL d   1       0.911   0.585   0.370  0.00  0.00    -0.298 N 
ATOM     11  C   UNL d   1      -0.344   1.020   0.302  0.00  0.00     0.024 A 
ATOM     12  HN  UNL d   1       1.721   1.100   0.715  1.00  0.00     0.187 HD
ATOM     13  C   UNL d   1      -0.719   2.355   0.831  0.00  0.00     0.070 C 
ATOM     14  C   UNL d   1      -1.191   0.061  -0.277  0.00  0.00     0.052 A 
ATOM     15  C   UNL d   1      -0.397  -1.047  -0.495  0.00  0.00     0.032 A 
ATOM     16  C   UNL d   1      -0.851  -2.393  -0.935  0.00  0.00     0.070 C 
ENDBRANCH   1   9
BRANCH   4  17
ATOM     17  C   UNL d   1       5.648  -3.964  -0.008  0.00  0.00     0.417 C 
ATOM     18  F   UNL d   1       6.445  -3.755   1.074  0.00  0.00    -0.166 F 
ATOM     19  F   UNL d   1       5.306  -5.281   0.025  0.00  0.00    -0.166 F 
ATOM     20  F   UNL d   1       6.446  -3.810  -1.099  0.00  0.00    -0.166 F 
ENDBRANCH   4  17
TORSDOF 2
