REMARK  3 active torsions:
REMARK  status: ('A' for Active; 'I' for Inactive)
REMARK    1  A    between atoms: C_7  and  O_10 
REMARK    2  A    between atoms: C_14  and  N_8 
REMARK    3  A    between atoms: O_10  and  C_15 
ROOT
ATOM      1  C   UNL d   1       3.562  -2.031  -0.094  0.00  0.00     0.034 A 
ATOM      2  C   UNL d   1       4.516  -4.678  -0.444  0.00  0.00     0.078 A 
ATOM      3  C   UNL d   1       3.013  -2.879  -1.060  0.00  0.00     0.032 A 
ATOM      4  C   UNL d   1       4.570  -2.552   0.729  0.00  0.00     0.032 A 
ATOM      5  C   UNL d   1       3.490  -4.186  -1.245  0.00  0.00     0.039 A 
ATOM      6  C   UNL d   1       5.038  -3.860   0.558  0.00  0.00     0.039 A 
ENDROOT
BRANCH   1   7
ATOM      7  N   UNL d   1       3.107  -0.725   0.142  0.00  0.00    -0.335 N 
ATOM      8  C   UNL d   1       1.952  -0.141  -0.289  0.00  0.00     0.166 A 
ATOM      9  S   UNL d   1       1.899   1.609  -0.112  0.00  0.00    -0.022 SA
ATOM     10  N   UNL d   1       0.880  -0.676  -0.788  0.00  0.00    -0.278 N 
ATOM     11  C   UNL d   1       0.295   1.585  -0.786  0.00  0.00     0.160 A 
ATOM     12  N   UNL d   1      -0.041   0.290  -1.060  0.00  0.00    -0.282 N 
ATOM     13  S   UNL d   1      -0.690   2.885  -1.063  0.00  0.00    -0.051 SA
ATOM     14  H   UNL d   1      -0.943   0.021  -1.440  0.00  0.00     0.188 HD
ATOM     15  HN  UNL d   1       0.747  -1.674  -0.952  1.00  0.00     0.189 HD
ATOM     16  H   UNL d   1       3.776  -0.106   0.577  0.00  0.00     0.168 HD
ENDBRANCH   1   7
BRANCH   2  17
ATOM     17  O   UNL d   1       5.081  -5.918  -0.522  0.00  0.00    -0.255 OA
BRANCH  17  18
ATOM     18  C   UNL d   1       4.812  -6.684  -1.684  0.00  0.00     0.530 C 
ATOM     19  F   UNL d   1       5.107  -5.996  -2.808  0.00  0.00    -0.144 F 
ATOM     20  F   UNL d   1       5.584  -7.793  -1.659  0.00  0.00    -0.144 F 
ATOM     21  F   UNL d   1       3.520  -7.074  -1.719  0.00  0.00    -0.144 F 
ENDBRANCH  17  18
ENDBRANCH   2  17
TORSDOF 3
