REMARK  6 active torsions:
REMARK  status: ('A' for Active; 'I' for Inactive)
REMARK    1  A    between atoms: N_13  and  C_1 
REMARK       I    between atoms: C_2  and  N_7 
REMARK    2  A    between atoms: C_3  and  C_2 
REMARK    3  A    between atoms: C_14  and  C_6 
REMARK    4  A    between atoms: N_7  and  C_8 
REMARK    5  A    between atoms: O_21  and  C_14 
REMARK    6  A    between atoms: O_22  and  C_15 
ROOT
ATOM      1  C   UNL d   1       2.742   2.274   0.701  0.00  0.00     0.227 C 
ATOM      2  N   UNL d   1       1.459   2.308   0.203  0.00  0.00    -0.324 N 
ATOM      3  O   UNL d   1       3.366   1.260   0.990  0.00  0.00    -0.273 OA
ATOM      4  H   UNL d   1       1.224   3.097  -0.400  0.00  0.00     0.169 HD
ENDROOT
BRANCH   2   5
ATOM      5  C   UNL d   1       0.640   1.196  -0.082  0.00  0.00     0.073 A 
ATOM      6  C   UNL d   1      -0.104   1.268  -1.287  0.00  0.00     0.112 A 
ATOM      7  N   UNL d   1      -1.110   0.420  -1.565  0.00  0.00    -0.326 N 
ATOM      8  C   UNL d   1      -1.336  -0.556  -0.653  0.00  0.00     0.142 A 
ATOM      9  HN  UNL d   1      -1.670   0.507  -2.413  1.00  0.00     0.169 HD
ATOM     10  C   UNL d   1      -0.571  -0.761   0.493  0.00  0.00     0.058 A 
ATOM     11  C   UNL d   1       0.447   0.139   0.790  0.00  0.00     0.037 A 
BRANCH   6  12
ATOM     12  N   UNL d   1       0.312   2.265  -2.199  0.00  0.00    -0.263 NA
ATOM     13  C   UNL d   1      -0.669   2.726  -3.188  0.00  0.00     0.123 C 
ATOM     14  C   UNL d   1      -0.057   3.974  -3.868  0.00  0.00     0.182 C 
ATOM     15  O   UNL d   1       1.207   3.677  -4.496  0.00  0.00    -0.389 OA
ATOM     16  C   UNL d   1       2.143   3.140  -3.546  0.00  0.00     0.182 C 
ATOM     17  C   UNL d   1       1.577   1.879  -2.878  0.00  0.00     0.123 C 
ENDBRANCH   6  12
BRANCH   8  18
ATOM     18  O   UNL d   1      -2.396  -1.429  -0.822  0.00  0.00    -0.341 OA
ATOM     19  C   UNL d   1      -3.283  -1.040  -1.864  0.00  0.00     0.211 C 
ENDBRANCH   8  18
ENDBRANCH   2   5
BRANCH   1  20
ATOM     20  C   UNL d   1       3.331   3.682   0.833  0.00  0.00     0.096 C 
ATOM     21  C   UNL d   1       4.747   3.743   0.235  0.00  0.00     0.101 C 
ATOM     22  C   UNL d   1       5.912   4.014   1.185  0.00  0.00     0.050 C 
ATOM     23  C   UNL d   1       5.608   4.356   2.616  0.00  0.00    -0.081 C 
ATOM     24  C   UNL d   1       4.357   4.404   3.110  0.00  0.00    -0.081 C 
ATOM     25  C   UNL d   1       6.843   4.657   3.433  0.00  0.00     0.043 C 
ATOM     26  C   UNL d   1       3.135   4.140   2.279  0.00  0.00     0.049 C 
ATOM     27  C   UNL d   1       4.056   4.739   4.550  0.00  0.00     0.043 C 
BRANCH  21  28
ATOM     28  C   UNL d   1       4.789   4.777  -0.886  0.00  0.00     0.144 C 
ATOM     29  O   UNL d   1       4.084   5.768  -0.953  0.00  0.00    -0.650 OA
BRANCH  28  30
ATOM     30  O   UNL d   1       5.702   4.484  -1.843  0.00  0.00    -0.776 OA
ATOM     31  H   UNL d   1       6.234   3.682  -1.677  0.00  0.00     0.167 HD
ENDBRANCH  28  30
ENDBRANCH  21  28
ENDBRANCH   1  20
TORSDOF 6
