REMARK  6 active torsions:
REMARK  status: ('A' for Active; 'I' for Inactive)
REMARK    1  A    between atoms: C_5  and  C_1 
REMARK       I    between atoms: C_2  and  N_4 
REMARK    2  A    between atoms: C_6  and  C_2 
REMARK    3  A    between atoms: N_4  and  C_3 
REMARK    4  A    between atoms: C_8  and  C_6 
REMARK    5  A    between atoms: N_18  and  C_8 
REMARK    6  A    between atoms: O_20  and  N_10 
ROOT
ATOM      1  C   UNL d   1      -0.809  -3.271   3.489  0.00  0.00     0.229 C 
ATOM      2  N   UNL d   1      -0.081  -2.654   2.491  0.00  0.00    -0.325 N 
ATOM      3  O   UNL d   1      -0.855  -4.480   3.717  0.00  0.00    -0.273 OA
ATOM      4  H   UNL d   1      -0.180  -1.641   2.427  0.00  0.00     0.169 HD
ENDROOT
BRANCH   2   5
ATOM      5  C   UNL d   1       0.589  -3.251   1.399  0.00  0.00     0.057 A 
ATOM      6  C   UNL d   1       0.693  -4.635   1.232  0.00  0.00     0.047 A 
ATOM      7  C   UNL d   1       1.292  -5.186   0.085  0.00  0.00     0.050 A 
ATOM      8  C   UNL d   1       1.775  -4.327  -0.914  0.00  0.00     0.018 A 
ATOM      9  C   UNL d   1       1.710  -2.945  -0.746  0.00  0.00     0.027 A 
ATOM     10  C   UNL d   1       1.136  -2.412   0.410  0.00  0.00     0.060 A 
ATOM     11 CL   UNL d   1       1.119  -0.689   0.587  0.00  0.00    -0.082 Cl
BRANCH   7  12
ATOM     12  C   UNL d   1       1.433  -6.681  -0.075  0.00  0.00     0.417 C 
ATOM     13  F   UNL d   1       0.952  -7.400   0.974  0.00  0.00    -0.166 F 
ATOM     14  F   UNL d   1       2.735  -7.057  -0.220  0.00  0.00    -0.166 F 
ATOM     15  F   UNL d   1       0.787  -7.149  -1.180  0.00  0.00    -0.166 F 
ENDBRANCH   7  12
ENDBRANCH   2   5
BRANCH   1  16
ATOM     16  C   UNL d   1      -1.575  -2.294   4.354  0.00  0.00     0.180 C 
BRANCH  16  17
ATOM     17  C   UNL d   1      -2.657  -1.564   3.585  0.00  0.00     0.103 C 
ATOM     18  N   UNL d   1      -2.282  -0.775   2.621  0.00  0.00    -0.257 N 
ATOM     19  HN  UNL d   1      -1.312  -0.606   2.353  1.00  0.00     0.195 HD
BRANCH  18  20
ATOM     20  O   UNL d   1      -3.397  -0.189   1.999  0.00  0.00    -0.288 OA
ATOM     21  H   UNL d   1      -3.009   0.186   1.186  0.00  0.00     0.244 HD
ENDBRANCH  18  20
BRANCH  17  22
ATOM     22  N   UNL d   1      -3.967  -1.758   3.939  0.00  0.00    -0.387 N 
ATOM     23  H   UNL d   1      -4.175  -1.980   4.905  0.00  0.00     0.157 HD
ATOM     24  H   UNL d   1      -4.581  -1.064   3.522  0.00  0.00     0.157 HD
ENDBRANCH  17  22
ENDBRANCH  16  17
ENDBRANCH   1  16
TORSDOF 6
