REMARK  6 active torsions:
REMARK  status: ('A' for Active; 'I' for Inactive)
REMARK    1  A    between atoms: C_9  and  C_3 
REMARK    2  A    between atoms: O_17  and  C_4 
REMARK    3  A    between atoms: C_7  and  C_5 
REMARK    4  A    between atoms: C_8  and  C_7 
REMARK    5  A    between atoms: O_18  and  C_8 
REMARK    6  A    between atoms: C_10  and  C_11 
ROOT
ATOM      1  N   UNL d   1       0.213  -0.668  -1.142  0.00  0.00    -0.330 N 
ATOM      2  HN  UNL d   1       0.423  -1.013  -2.079  1.00  0.00     0.168 HD
ATOM      3  C   UNL d   1       0.681  -1.185  -0.018  0.00  0.00     0.086 A 
ATOM      4  C   UNL d   1      -0.592   0.395  -0.859  0.00  0.00     0.154 A 
ATOM      5  C   UNL d   1      -0.755   0.719   0.467  0.00  0.00     0.045 A 
ATOM      6  S   UNL d   1       0.157  -0.377   1.416  0.00  0.00    -0.071 SA
ENDROOT
BRANCH   3   7
ATOM      7  C   UNL d   1       1.508  -2.401   0.051  0.00  0.00    -0.002 A 
ATOM      8  C   UNL d   1       2.425  -2.654   1.077  0.00  0.00     0.015 A 
ATOM      9  C   UNL d   1       3.158  -3.850   1.108  0.00  0.00     0.009 A 
ATOM     10  C   UNL d   1       3.008  -4.834   0.112  0.00  0.00    -0.051 A 
ATOM     11  C   UNL d   1       2.101  -4.559  -0.922  0.00  0.00     0.009 A 
ATOM     12  C   UNL d   1       1.371  -3.365  -0.955  0.00  0.00     0.015 A 
BRANCH  10  13
ATOM     13  C   UNL d   1       3.823  -6.138   0.171  0.00  0.00    -0.024 C 
ATOM     14  C   UNL d   1       3.528  -7.101  -1.002  0.00  0.00     0.019 C 
ATOM     15  C   UNL d   1       5.330  -5.810   0.127  0.00  0.00     0.019 C 
ATOM     16  C   UNL d   1       3.510  -6.903   1.475  0.00  0.00     0.019 C 
ENDBRANCH  10  13
ENDBRANCH   3   7
BRANCH   4  17
ATOM     17  O   UNL d   1      -1.221   1.071  -1.828  0.00  0.00    -0.345 OA
ATOM     18  H   UNL d   1      -0.879   0.700  -2.665  0.00  0.00     0.219 HD
ENDBRANCH   4  17
BRANCH   5  19
ATOM     19  C   UNL d   1      -1.558   1.811   1.082  0.00  0.00     0.160 C 
BRANCH  19  20
ATOM     20  C   UNL d   1      -2.984   1.366   1.304  0.00  0.00     0.144 C 
ATOM     21  O   UNL d   1      -3.505   1.282   2.406  0.00  0.00    -0.650 OA
BRANCH  20  22
ATOM     22  O   UNL d   1      -3.670   1.106   0.166  0.00  0.00    -0.776 OA
ATOM     23  H   UNL d   1      -3.130   1.202  -0.647  0.00  0.00     0.167 HD
ENDBRANCH  20  22
ENDBRANCH  19  20
ENDBRANCH   5  19
TORSDOF 6
