REMARK  4 active torsions:
REMARK  status: ('A' for Active; 'I' for Inactive)
REMARK    1  A    between atoms: O_2  and  C_1 
REMARK    2  A    between atoms: C_4  and  O_2 
REMARK    3  A    between atoms: O_10  and  C_3 
REMARK    4  A    between atoms: O_11  and  C_5 
ROOT
ATOM      1  O   UNL d   1       2.682  -0.476   0.308  0.00  0.00    -0.308 OA
ENDROOT
BRANCH   1   2
ATOM      2  C   UNL d   1       1.339  -0.526  -0.032  0.00  0.00     0.109 A 
ATOM      3  C   UNL d   1       0.419   0.282   0.650  0.00  0.00     0.102 A 
ATOM      4  C   UNL d   1      -0.946   0.148   0.370  0.00  0.00     0.039 A 
ATOM      5  C   UNL d   1      -1.401  -0.742  -0.605  0.00  0.00     0.003 A 
ATOM      6  C   UNL d   1      -0.485  -1.498  -1.327  0.00  0.00     0.003 A 
ATOM      7  C   UNL d   1       0.878  -1.378  -1.056  0.00  0.00     0.040 A 
BRANCH   3   8
ATOM      8  O   UNL d   1       0.694   1.182   1.646  0.00  0.00    -0.353 OA
ATOM      9  C   UNL d   1       1.906   1.915   1.513  0.00  0.00     0.210 C 
ENDBRANCH   3   8
ENDBRANCH   1   2
BRANCH   1  10
ATOM     10  C   UNL d   1       3.394  -1.650   0.203  0.00  0.00     0.076 A 
ATOM     11  C   UNL d   1       4.564  -1.630  -0.551  0.00  0.00     0.040 A 
ATOM     12  C   UNL d   1       5.261  -2.821  -0.787  0.00  0.00     0.039 A 
ATOM     13  C   UNL d   1       4.788  -4.025  -0.260  0.00  0.00     0.068 A 
ATOM     14  C   UNL d   1       3.658  -4.018   0.563  0.00  0.00     0.039 A 
ATOM     15  C   UNL d   1       2.968  -2.832   0.811  0.00  0.00     0.040 A 
BRANCH  13  16
ATOM     16  O   UNL d   1       5.330  -5.262  -0.473  0.00  0.00    -0.356 OA
ATOM     17  C   UNL d   1       6.336  -5.358  -1.473  0.00  0.00     0.210 C 
ENDBRANCH  13  16
ENDBRANCH   1  10
TORSDOF 4
