REMARK  4 active torsions:
REMARK  status: ('A' for Active; 'I' for Inactive)
REMARK    1  A    between atoms: C_2  and  C_1 
REMARK    2  A    between atoms: C_15  and  C_8 
REMARK    3  A    between atoms: C_14  and  O_16 
REMARK    4  A    between atoms: O_16  and  C_22 
ROOT
ATOM      1  C   UNL d   1      -0.273  -1.072  -0.003  0.00  0.00     0.179 A 
ATOM      2  O   UNL d   1      -1.085   0.016  -0.225  0.00  0.00    -0.272 OA
ATOM      3  N   UNL d   1       0.960  -0.712   0.298  0.00  0.00    -0.277 N 
ATOM      4  HN  UNL d   1       1.744  -1.336   0.489  1.00  0.00     0.189 HD
ATOM      5  N   UNL d   1       0.987   0.665   0.308  0.00  0.00    -0.277 N 
ATOM      6  HN  UNL d   1       1.793   1.259   0.501  1.00  0.00     0.189 HD
ATOM      7  C   UNL d   1      -0.232   1.062   0.017  0.00  0.00     0.174 A 
ENDROOT
BRANCH   7   8
ATOM      8  C   UNL d   1      -0.804   2.402   0.022  0.00  0.00     0.017 A 
ATOM      9  C   UNL d   1      -2.145   2.644  -0.307  0.00  0.00     0.018 A 
ATOM     10  C   UNL d   1      -2.697   3.927  -0.192  0.00  0.00     0.038 A 
ATOM     11  C   UNL d   1      -1.923   4.981   0.287  0.00  0.00     0.078 A 
ATOM     12  C   UNL d   1      -0.569   4.765   0.547  0.00  0.00     0.038 A 
ATOM     13  C   UNL d   1      -0.013   3.488   0.420  0.00  0.00     0.018 A 
BRANCH  11  14
ATOM     14  O   UNL d   1      -2.349   6.256   0.498  0.00  0.00    -0.255 OA
BRANCH  14  15
ATOM     15  C   UNL d   1      -3.691   6.479   0.913  0.00  0.00     0.530 C 
ATOM     16  F   UNL d   1      -4.352   5.360   1.274  0.00  0.00    -0.144 F 
ATOM     17  F   UNL d   1      -3.676   7.311   1.980  0.00  0.00    -0.144 F 
ATOM     18  F   UNL d   1      -4.371   7.085  -0.084  0.00  0.00    -0.144 F 
ENDBRANCH  14  15
ENDBRANCH  11  14
ENDBRANCH   7   8
BRANCH   1  19
ATOM     19  C   UNL d   1      -0.735  -2.476  -0.051  0.00  0.00     0.072 A 
ATOM     20  C   UNL d   1      -1.982  -2.919  -0.415  0.00  0.00     0.089 A 
ATOM     21  O   UNL d   1      -2.011  -4.276  -0.308  0.00  0.00    -0.242 OA
ATOM     22  C   UNL d   1      -3.226  -2.275  -0.876  0.00  0.00     0.080 C 
ATOM     23  N   UNL d   1      -0.781  -4.734   0.128  0.00  0.00    -0.265 N 
ATOM     24  C   UNL d   1      -0.016  -3.646   0.280  0.00  0.00     0.045 A 
ATOM     25  HN  UNL d   1      -0.513  -5.703   0.299  1.00  0.00     0.194 HD
ATOM     26  C   UNL d   1       1.379  -3.772   0.764  0.00  0.00     0.071 C 
ENDBRANCH   1  19
TORSDOF 4
