REMARK  5 active torsions:
REMARK  status: ('A' for Active; 'I' for Inactive)
REMARK    1  A    between atoms: C_14  and  C_3 
REMARK    2  A    between atoms: C_9  and  C_4 
REMARK    3  A    between atoms: C_5  and  C_7 
REMARK    4  A    between atoms: C_15  and  O_20 
REMARK    5  A    between atoms: O_20  and  C_27 
ROOT
ATOM      1  C   UNL d   1      -0.026  -2.578  -0.106  0.00  0.00    -0.002 A 
ATOM      2  C   UNL d   1       0.528  -3.338   0.933  0.00  0.00     0.017 A 
ATOM      3  C   UNL d   1      -0.785  -3.241  -1.085  0.00  0.00     0.017 A 
ATOM      4  C   UNL d   1      -0.407  -5.372   0.002  0.00  0.00     0.077 A 
ATOM      5  C   UNL d   1       0.316  -4.717   1.003  0.00  0.00     0.038 A 
ATOM      6  C   UNL d   1      -0.978  -4.627  -1.028  0.00  0.00     0.038 A 
ENDROOT
BRANCH   1   7
ATOM      7  C   UNL d   1       0.210  -1.128  -0.126  0.00  0.00     0.084 A 
ATOM      8  N   UNL d   1       1.303  -0.544   0.334  0.00  0.00    -0.349 N 
ATOM      9  C   UNL d   1       1.196   0.833   0.239  0.00  0.00     0.050 A 
ATOM     10  HN  UNL d   1       2.113  -1.039   0.708  1.00  0.00     0.166 HD
ATOM     11  C   UNL d   1       0.011   1.284  -0.305  0.00  0.00     0.082 A 
ATOM     12  S   UNL d   1      -1.001  -0.040  -0.693  0.00  0.00    -0.081 SA
BRANCH   9  13
ATOM     13  C   UNL d   1       2.280   1.707   0.670  0.00  0.00    -0.007 A 
ATOM     14  C   UNL d   1       3.607   1.268   0.572  0.00  0.00     0.039 A 
ATOM     15  C   UNL d   1       4.665   2.097   0.963  0.00  0.00     0.056 A 
ATOM     16 CL   UNL d   1       6.274   1.491   0.787  0.00  0.00    -0.083 Cl
ATOM     17  C   UNL d   1       4.400   3.374   1.472  0.00  0.00     0.055 A 
ATOM     18  C   UNL d   1       3.079   3.813   1.587  0.00  0.00     0.026 A 
ATOM     19 CL   UNL d   1       5.651   4.454   1.974  0.00  0.00    -0.083 Cl
ATOM     20  C   UNL d   1       2.025   2.985   1.190  0.00  0.00     0.015 A 
ENDBRANCH   9  13
ENDBRANCH   1   7
BRANCH   4  21
ATOM     21  O   UNL d   1      -0.651  -6.729  -0.014  0.00  0.00    -0.294 OA
BRANCH  21  22
ATOM     22  C   UNL d   1       0.331  -7.565   0.498  0.00  0.00     0.147 A 
ATOM     23  N   UNL d   1       1.631  -7.204   0.390  0.00  0.00    -0.346 N 
ATOM     24  C   UNL d   1       2.540  -7.972   1.021  0.00  0.00     0.106 A 
ATOM     25  HN  UNL d   1       1.912  -6.384  -0.148  1.00  0.00     0.167 HD
ATOM     26  C   UNL d   1       2.219  -9.117   1.734  0.00  0.00     0.063 A 
ATOM     27  C   UNL d   1       0.875  -9.514   1.751  0.00  0.00     0.022 A 
ATOM     28  C   UNL d   1      -0.087  -8.728   1.121  0.00  0.00     0.057 A 
BRANCH  26  29
ATOM     29  C   UNL d   1       3.281  -9.866   2.475  0.00  0.00     0.418 C 
ATOM     30  F   UNL d   1       4.515  -9.297   2.380  0.00  0.00    -0.166 F 
ATOM     31  F   UNL d   1       3.016  -9.951   3.808  0.00  0.00    -0.166 F 
ATOM     32  F   UNL d   1       3.423 -11.146   2.038  0.00  0.00    -0.166 F 
ENDBRANCH  26  29
ENDBRANCH  21  22
ENDBRANCH   4  21
TORSDOF 5
