REMARK  4 active torsions:
REMARK  status: ('A' for Active; 'I' for Inactive)
REMARK    1  A    between atoms: C_8  and  C_1 
REMARK    2  A    between atoms: O_11  and  C_4 
REMARK    3  A    between atoms: C_10  and  C_5 
REMARK    4  A    between atoms: C_12  and  C_8 
ROOT
ATOM      1  C   UNL d   1      -0.705   1.231  -0.049  0.00  0.00     0.054 C 
ATOM      2  N   UNL d   1      -0.502  -1.178  -0.154  0.00  0.00    -0.330 N 
ATOM      3  HN  UNL d   1      -1.022  -2.055  -0.153  1.00  0.00     0.168 HD
ATOM      4  C   UNL d   1      -1.188  -0.008  -0.179  0.00  0.00     0.152 C 
ATOM      5  C   UNL d   1       0.791  -1.215  -0.132  0.00  0.00     0.089 C 
ATOM      6  S   UNL d   1       1.855   0.157  -0.158  0.00  0.00    -0.029 SA
ATOM      7  C   UNL d   1       0.745   1.466   0.049  0.00  0.00     0.226 C 
ATOM      8  O   UNL d   1       1.197   2.596   0.214  0.00  0.00    -0.280 OA
ENDROOT
BRANCH   1   9
ATOM      9  C   UNL d   1      -1.575   2.467   0.001  0.00  0.00     0.086 C 
BRANCH   9  10
ATOM     10  C   UNL d   1      -1.938   2.843   1.423  0.00  0.00    -0.054 A 
ATOM     11  C   UNL d   1      -1.082   3.640   2.196  0.00  0.00     0.007 A 
ATOM     12  C   UNL d   1      -1.358   3.876   3.543  0.00  0.00     0.001 A 
ATOM     13  C   UNL d   1      -2.500   3.333   4.127  0.00  0.00     0.000 A 
ATOM     14  C   UNL d   1      -3.376   2.567   3.360  0.00  0.00     0.001 A 
ATOM     15  C   UNL d   1      -3.098   2.323   2.015  0.00  0.00     0.007 A 
ENDBRANCH   9  10
ENDBRANCH   1   9
BRANCH   4  16
ATOM     16  O   UNL d   1      -2.544  -0.194  -0.306  0.00  0.00    -0.346 OA
ATOM     17  H   UNL d   1      -2.616  -1.164  -0.339  0.00  0.00     0.219 HD
ENDBRANCH   4  16
BRANCH   5  18
ATOM     18  C   UNL d   1       1.470  -2.553  -0.062  0.00  0.00    -0.002 A 
ATOM     19  C   UNL d   1       0.812  -3.612   0.580  0.00  0.00     0.014 A 
ATOM     20  C   UNL d   1       1.420  -4.868   0.679  0.00  0.00     0.001 A 
ATOM     21  C   UNL d   1       2.685  -5.077   0.132  0.00  0.00     0.000 A 
ATOM     22  C   UNL d   1       3.343  -4.037  -0.519  0.00  0.00     0.001 A 
ATOM     23  C   UNL d   1       2.738  -2.781  -0.621  0.00  0.00     0.014 A 
ENDBRANCH   5  18
TORSDOF 4
