REMARK  5 active torsions:
REMARK  status: ('A' for Active; 'I' for Inactive)
REMARK    1  A    between atoms: C_4  and  C_1 
REMARK    2  A    between atoms: C_17  and  C_5 
REMARK    3  A    between atoms: C_9  and  C_13 
REMARK    4  A    between atoms: O_18  and  C_17 
REMARK    5  A    between atoms: C_19  and  O_18 
ROOT
ATOM      1  C   UNL d   1       0.563   0.895  -0.584  0.00  0.00     0.050 A 
ATOM      2  N   UNL d   1       0.492  -0.443  -0.947  0.00  0.00    -0.351 N 
ATOM      3  HN  UNL d   1       0.573  -0.791  -1.902  1.00  0.00     0.166 HD
ATOM      4  C   UNL d   1       0.307  -1.198   0.114  0.00  0.00     0.075 A 
ATOM      5  C   UNL d   1       0.480   1.123   0.779  0.00  0.00     0.082 A 
ATOM      6  S   UNL d   1       0.296  -0.361   1.619  0.00  0.00    -0.084 SA
ENDROOT
BRANCH   4   7
ATOM      7  C   UNL d   1       0.036  -2.671   0.073  0.00  0.00     0.240 C 
BRANCH   7   8
ATOM      8  O   UNL d   1       1.292  -3.346   0.169  0.00  0.00    -0.345 OA
BRANCH   8   9
ATOM      9  C   UNL d   1       1.224  -4.705   0.016  0.00  0.00     0.069 A 
ATOM     10  C   UNL d   1       2.350  -5.306  -0.543  0.00  0.00     0.037 A 
ATOM     11  C   UNL d   1       2.387  -6.689  -0.750  0.00  0.00     0.012 A 
ATOM     12  C   UNL d   1       1.298  -7.498  -0.388  0.00  0.00    -0.035 A 
ATOM     13  C   UNL d   1       0.189  -6.883   0.215  0.00  0.00     0.012 A 
ATOM     14  C   UNL d   1       0.150  -5.499   0.413  0.00  0.00     0.037 A 
BRANCH  12  15
ATOM     15  C   UNL d   1       1.329  -8.986  -0.676  0.00  0.00     0.141 C 
ATOM     16  S   UNL d   1      -0.030  -9.489  -1.784  0.00  0.00    -0.148 SA
ATOM     17  C   UNL d   1      -0.267 -11.128  -1.071  0.00  0.00     0.085 C 
ATOM     18  C   UNL d   1      -0.143 -11.007   0.433  0.00  0.00     0.085 C 
ATOM     19  S   UNL d   1       1.312 -10.004   0.837  0.00  0.00    -0.148 SA
ENDBRANCH  12  15
ENDBRANCH   8   9
ENDBRANCH   7   8
ENDBRANCH   4   7
BRANCH   1  20
ATOM     20  C   UNL d   1       0.701   1.962  -1.579  0.00  0.00    -0.003 A 
ATOM     21  C   UNL d   1       0.084   1.905  -2.847  0.00  0.00    -0.049 A 
ATOM     22  C   UNL d   1       0.287   2.965  -3.758  0.00  0.00     0.014 A 
ATOM     23  C   UNL d   1      -0.782   0.772  -3.335  0.00  0.00     0.049 C 
ATOM     24  C   UNL d   1       1.059   4.085  -3.431  0.00  0.00    -0.061 A 
ATOM     25  C   UNL d   1       1.648   4.144  -2.170  0.00  0.00     0.007 A 
ATOM     26  C   UNL d   1       1.240   5.186  -4.428  0.00  0.00     0.048 C 
ATOM     27  C   UNL d   1       1.479   3.093  -1.261  0.00  0.00     0.015 A 
ENDBRANCH   1  20
TORSDOF 5
