REMARK  5 active torsions:
REMARK  status: ('A' for Active; 'I' for Inactive)
REMARK    1  A    between atoms: C_11  and  N_1 
REMARK    2  A    between atoms: C_9  and  C_2 
REMARK    3  A    between atoms: S_10  and  C_5 
REMARK    4  A    between atoms: C_8  and  C_12 
REMARK    5  A    between atoms: C_12  and  S_10 
ROOT
ATOM      1  N   UNL d   1      -0.359  -1.313  -0.016  0.00  0.00    -0.279 N 
ATOM      2  C   UNL d   1       0.900  -0.723   0.106  0.00  0.00     0.109 A 
ATOM      3  N   UNL d   1       0.778   0.587   0.174  0.00  0.00    -0.286 N 
ATOM      4  HN  UNL d   1       1.536   1.250   0.335  1.00  0.00     0.188 HD
ATOM      5  C   UNL d   1      -1.216  -0.218  -0.121  0.00  0.00     0.167 A 
ATOM      6  N   UNL d   1      -0.539   0.902  -0.010  0.00  0.00    -0.278 N 
ATOM      7  HN  UNL d   1      -0.928   1.844  -0.053  1.00  0.00     0.189 HD
ENDROOT
BRANCH   5   8
ATOM      8  S   UNL d   1      -2.958  -0.269  -0.148  0.00  0.00    -0.087 SA
BRANCH   8   9
ATOM      9  C   UNL d   1      -3.344   1.310  -0.966  0.00  0.00     0.126 C 
BRANCH   9  10
ATOM     10  C   UNL d   1      -4.820   1.466  -1.245  0.00  0.00     0.012 A 
ATOM     11  C   UNL d   1      -5.617   2.164  -0.327  0.00  0.00     0.125 A 
ATOM     12  F   UNL d   1      -5.065   2.667   0.786  0.00  0.00    -0.205 F 
ATOM     13  C   UNL d   1      -6.983   2.370  -0.535  0.00  0.00     0.043 A 
ATOM     14  C   UNL d   1      -7.588   1.871  -1.681  0.00  0.00     0.005 A 
ATOM     15  C   UNL d   1      -6.825   1.159  -2.606  0.00  0.00     0.024 A 
ATOM     16  C   UNL d   1      -5.453   0.953  -2.385  0.00  0.00     0.044 A 
ATOM     17 CL   UNL d   1      -4.587   0.054  -3.583  0.00  0.00    -0.084 Cl
ENDBRANCH   9  10
ENDBRANCH   8   9
ENDBRANCH   5   8
BRANCH   1  18
ATOM     18  C   UNL d   1      -0.660  -2.711   0.037  0.00  0.00     0.043 A 
ATOM     19  C   UNL d   1       0.146  -3.576   0.798  0.00  0.00     0.032 A 
ATOM     20  C   UNL d   1      -0.150  -4.941   0.884  0.00  0.00     0.026 A 
ATOM     21  C   UNL d   1      -1.269  -5.449   0.235  0.00  0.00     0.034 A 
ATOM     22  C   UNL d   1      -2.079  -4.608  -0.520  0.00  0.00     0.026 A 
ATOM     23 CL   UNL d   1      -1.657  -7.118   0.375  0.00  0.00    -0.084 Cl
ATOM     24  C   UNL d   1      -1.768  -3.247  -0.633  0.00  0.00     0.032 A 
ENDBRANCH   1  18
BRANCH   2  25
ATOM     25  C   UNL d   1       2.272  -1.408   0.074  0.00  0.00     0.055 A 
ATOM     26  C   UNL d   1       3.219  -1.146   1.227  0.00  0.00     0.013 A 
ATOM     27  C   UNL d   1       3.520  -0.571  -0.117  0.00  0.00     0.013 A 
ENDBRANCH   2  25
TORSDOF 5
