REMARK  2 active torsions:
REMARK  status: ('A' for Active; 'I' for Inactive)
REMARK    1  A    between atoms: C_7  and  C_1 
REMARK    2  A    between atoms: C_8  and  C_5 
ROOT
ATOM      1  C   UNL d   1      -0.216   0.991  -0.062  0.00  0.00     0.159 A 
ATOM      2  N   UNL d   1      -1.319   0.275  -0.173  0.00  0.00    -0.343 N 
ATOM      3  HN  UNL d   1      -2.280   0.609  -0.239  1.00  0.00     0.167 HD
ATOM      4  O   UNL d   1       0.935   0.242  -0.011  0.00  0.00    -0.291 OA
ATOM      5  C   UNL d   1       0.499  -1.058  -0.071  0.00  0.00     0.103 A 
ATOM      6  C   UNL d   1      -0.873  -1.018  -0.180  0.00  0.00     0.128 A 
ENDROOT
BRANCH   1   7
ATOM      7  C   UNL d   1      -0.066   2.444   0.022  0.00  0.00     0.021 A 
ATOM      8  C   UNL d   1      -0.999   3.255   0.707  0.00  0.00    -0.048 A 
ATOM      9  C   UNL d   1      -2.179   2.703   1.464  0.00  0.00     0.049 C 
ATOM     10  C   UNL d   1      -0.856   4.655   0.667  0.00  0.00     0.007 A 
ATOM     11  C   UNL d   1       0.208   5.249  -0.007  0.00  0.00     0.001 A 
ATOM     12  C   UNL d   1       1.150   4.454  -0.649  0.00  0.00     0.001 A 
ATOM     13  C   UNL d   1       1.014   3.064  -0.635  0.00  0.00     0.016 A 
ENDBRANCH   1   7
BRANCH   5  14
ATOM     14  C   UNL d   1       1.493  -2.124   0.008  0.00  0.00    -0.001 A 
ATOM     15  C   UNL d   1       2.869  -1.853   0.037  0.00  0.00     0.015 A 
ATOM     16  C   UNL d   1       3.805  -2.894   0.122  0.00  0.00     0.020 A 
ATOM     17  C   UNL d   1       3.370  -4.215   0.179  0.00  0.00     0.011 A 
ATOM     18  C   UNL d   1       2.010  -4.507   0.150  0.00  0.00     0.020 A 
ATOM     19 BR   UNL d   1       4.628  -5.619   0.300  0.00  0.00    -0.051 Br
ATOM     20  C   UNL d   1       1.080  -3.467   0.064  0.00  0.00     0.015 A 
ENDBRANCH   5  14
TORSDOF 2
