REMARK  6 active torsions:
REMARK  status: ('A' for Active; 'I' for Inactive)
REMARK    1  A    between atoms: N_3  and  C_1 
REMARK    2  A    between atoms: N_4  and  C_1 
REMARK    3  A    between atoms: N_6  and  N_3 
REMARK    4  A    between atoms: C_13  and  N_4 
REMARK    5  A    between atoms: C_7  and  C_14 
REMARK    6  A    between atoms: C_14  and  C_13 
ROOT
ATOM      1  N   UNL d   1       2.305  -0.015  -0.110  0.00  0.00    -0.366 N 
ATOM      2  H   UNL d   1       2.770  -0.677   0.496  0.00  0.00     0.161 HD
ENDROOT
BRANCH   1   3
ATOM      3  C   UNL d   1       0.918  -0.066  -0.090  0.00  0.00     0.181 C 
ATOM      4  S   UNL d   1      -0.104   1.185  -0.545  0.00  0.00    -0.040 SA
BRANCH   3   5
ATOM      5  N   UNL d   1       0.473  -1.302   0.374  0.00  0.00    -0.300 N 
ATOM      6  H   UNL d   1       1.116  -2.088   0.306  0.00  0.00     0.183 HD
BRANCH   5   7
ATOM      7  N   UNL d   1      -0.903  -1.614   0.454  0.00  0.00    -0.248 NA
ATOM      8  H   UNL d   1      -1.395  -0.995  -0.205  0.00  0.00     0.143 HD
ATOM      9  H   UNL d   1      -1.236  -1.302   1.371  0.00  0.00     0.143 HD
ENDBRANCH   5   7
ENDBRANCH   3   5
ENDBRANCH   1   3
BRANCH   1  10
ATOM     10  C   UNL d   1       3.058   1.179  -0.480  0.00  0.00     0.126 C 
BRANCH  10  11
ATOM     11  C   UNL d   1       4.577   0.985  -0.458  0.00  0.00     0.058 C 
BRANCH  11  12
ATOM     12  C   UNL d   1       5.391   2.206  -0.850  0.00  0.00    -0.057 A 
ATOM     13  C   UNL d   1       4.809   3.412  -1.275  0.00  0.00     0.009 A 
ATOM     14  C   UNL d   1       5.603   4.505  -1.634  0.00  0.00     0.024 A 
ATOM     15  C   UNL d   1       6.989   4.406  -1.571  0.00  0.00     0.034 A 
ATOM     16  C   UNL d   1       7.586   3.221  -1.154  0.00  0.00     0.024 A 
ATOM     17 CL   UNL d   1       7.962   5.752  -2.016  0.00  0.00    -0.084 Cl
ATOM     18  C   UNL d   1       6.792   2.127  -0.795  0.00  0.00     0.009 A 
ENDBRANCH  11  12
ENDBRANCH  10  11
ENDBRANCH   1  10
TORSDOF 6
