REMARK  7 active torsions:
REMARK  status: ('A' for Active; 'I' for Inactive)
REMARK    1  A    between atoms: C_8  and  C_1 
REMARK    2  A    between atoms: C_14  and  C_7 
REMARK    3  A    between atoms: O_20  and  C_9 
REMARK    4  A    between atoms: O_21  and  C_10 
REMARK    5  A    between atoms: O_22  and  C_11 
REMARK    6  A    between atoms: O_16  and  C_15 
REMARK    7  A    between atoms: C_17  and  O_16 
ROOT
ATOM      1  C   UNL d   1       1.218   1.219   0.258  0.00  0.00     0.162 A 
ATOM      2  N   UNL d   1       1.557  -0.012   0.473  0.00  0.00    -0.331 N 
ATOM      3  HN  UNL d   1       2.489  -0.399   0.618  1.00  0.00     0.168 HD
ATOM      4  C   UNL d   1       0.352  -0.667   0.456  0.00  0.00     0.111 A 
ATOM      5  O   UNL d   1      -0.100   1.501   0.160  0.00  0.00    -0.255 OA
ATOM      6  C   UNL d   1      -0.758   0.316   0.309  0.00  0.00     0.316 A 
ATOM      7  C   UNL d   1       0.254  -2.003   0.452  0.00  0.00     0.050 C 
ATOM      8  O   UNL d   1      -1.962   0.153   0.319  0.00  0.00    -0.257 OA
ENDROOT
BRANCH   1   9
ATOM      9  C   UNL d   1       2.141   2.349   0.074  0.00  0.00     0.021 A 
ATOM     10  C   UNL d   1       3.512   2.097   0.171  0.00  0.00     0.055 A 
ATOM     11  C   UNL d   1       4.455   3.111  -0.046  0.00  0.00     0.105 A 
ATOM     12  C   UNL d   1       4.013   4.418  -0.358  0.00  0.00     0.135 A 
ATOM     13  C   UNL d   1       2.622   4.656  -0.476  0.00  0.00     0.105 A 
ATOM     14  C   UNL d   1       1.697   3.628  -0.245  0.00  0.00     0.055 A 
BRANCH  11  15
ATOM     15  O   UNL d   1       5.803   2.870   0.024  0.00  0.00    -0.353 OA
ATOM     16  C   UNL d   1       6.250   1.554   0.328  0.00  0.00     0.210 C 
ENDBRANCH  11  15
BRANCH  12  17
ATOM     17  O   UNL d   1       4.809   5.519  -0.540  0.00  0.00    -0.351 OA
ATOM     18  C   UNL d   1       6.217   5.427  -0.402  0.00  0.00     0.210 C 
ENDBRANCH  12  17
BRANCH  13  19
ATOM     19  O   UNL d   1       2.007   5.854  -0.760  0.00  0.00    -0.353 OA
ATOM     20  C   UNL d   1       2.692   6.748  -1.631  0.00  0.00     0.210 C 
ENDBRANCH  13  19
ENDBRANCH   1   9
BRANCH   7  21
ATOM     21  C   UNL d   1      -0.969  -2.762   0.184  0.00  0.00     0.000 A 
ATOM     22  C   UNL d   1      -1.839  -3.220   1.185  0.00  0.00     0.089 A 
ATOM     23  C   UNL d   1      -2.949  -4.000   0.849  0.00  0.00     0.038 A 
ATOM     24  C   UNL d   1      -3.227  -4.282  -0.490  0.00  0.00     0.003 A 
ATOM     25  C   UNL d   1      -2.386  -3.809  -1.493  0.00  0.00     0.001 A 
ATOM     26  C   UNL d   1      -1.258  -3.061  -1.157  0.00  0.00     0.014 A 
BRANCH  22  27
ATOM     27  O   UNL d   1      -1.506  -2.944   2.532  0.00  0.00    -0.278 OA
BRANCH  27  28
ATOM     28  C   UNL d   1      -2.502  -2.747   3.491  0.00  0.00     0.260 C 
ATOM     29  O   UNL d   1      -3.710  -2.711   3.308  0.00  0.00    -0.265 OA
ATOM     30  C   UNL d   1      -1.859  -2.565   4.833  0.00  0.00     0.126 C 
ENDBRANCH  27  28
ENDBRANCH  22  27
ENDBRANCH   7  21
TORSDOF 7
