REMARK  4 active torsions:
REMARK  status: ('A' for Active; 'I' for Inactive)
REMARK    1  A    between atoms: C_2  and  C_1 
REMARK       I    between atoms: N_7  and  C_2 
REMARK    2  A    between atoms: C_11  and  C_5 
REMARK    3  A    between atoms: C_10  and  N_7 
REMARK    4  A    between atoms: O_25  and  C_22 
ROOT
ATOM      1  C   UNL d   1      -1.171  -1.421   0.213  0.00  0.00     0.047 A 
ATOM      2  N   UNL d   1      -1.110   1.351   0.081  0.00  0.00    -0.355 N 
ATOM      3  HN  UNL d   1      -1.088   2.370   0.023  1.00  0.00     0.166 HD
ATOM      4  C   UNL d   1      -2.289   0.706   0.208  0.00  0.00     0.043 A 
ATOM      5  C   UNL d   1      -2.344  -0.673   0.331  0.00  0.00     0.048 A 
ATOM      6  C   UNL d   1       0.082  -0.758   0.073  0.00  0.00     0.006 A 
ATOM      7  C   UNL d   1       0.033   0.650   0.033  0.00  0.00     0.043 A 
ATOM      8  C   UNL d   1       1.354  -1.383  -0.032  0.00  0.00     0.015 A 
ATOM      9  C   UNL d   1       1.219   1.371  -0.070  0.00  0.00     0.030 A 
ATOM     10  C   UNL d   1       2.532  -0.638  -0.121  0.00  0.00     0.001 A 
ATOM     11  C   UNL d   1       2.464   0.744  -0.136  0.00  0.00     0.002 A 
ENDROOT
BRANCH   1  12
ATOM     12  C   UNL d   1      -1.292  -2.911   0.272  0.00  0.00     0.257 C 
ATOM     13  N   UNL d   1      -2.420  -3.454  -0.339  0.00  0.00    -0.323 N 
ATOM     14  H   UNL d   1      -3.003  -2.832  -0.883  0.00  0.00     0.169 HD
ATOM     15  O   UNL d   1      -0.404  -3.556   0.818  0.00  0.00    -0.267 OA
BRANCH  13  16
ATOM     16  C   UNL d   1      -2.728  -4.834  -0.447  0.00  0.00     0.038 A 
ATOM     17  C   UNL d   1      -2.056  -5.833   0.263  0.00  0.00     0.053 A 
ATOM     18  C   UNL d   1      -2.337  -7.181   0.026  0.00  0.00     0.037 A 
ATOM     19 CL   UNL d   1      -1.469  -8.395   0.885  0.00  0.00    -0.084 Cl
ATOM     20  C   UNL d   1      -3.298  -7.555  -0.905  0.00  0.00     0.048 A 
ATOM     21  C   UNL d   1      -4.007  -6.563  -1.573  0.00  0.00     0.037 A 
ATOM     22  C   UNL d   1      -3.741  -5.210  -1.339  0.00  0.00     0.053 A 
ATOM     23 CL   UNL d   1      -5.207  -7.009  -2.725  0.00  0.00    -0.084 Cl
ENDBRANCH  13  16
ENDBRANCH   1  12
BRANCH   4  24
ATOM     24  C   UNL d   1      -3.508   1.537   0.115  0.00  0.00    -0.009 A 
ATOM     25  C   UNL d   1      -3.532   2.878   0.539  0.00  0.00     0.016 A 
ATOM     26  C   UNL d   1      -4.679   3.675   0.386  0.00  0.00     0.037 A 
ATOM     27  C   UNL d   1      -5.824   3.145  -0.203  0.00  0.00     0.068 A 
ATOM     28  C   UNL d   1      -5.817   1.823  -0.635  0.00  0.00     0.037 A 
ATOM     29  C   UNL d   1      -4.681   1.030  -0.473  0.00  0.00     0.016 A 
BRANCH  27  30
ATOM     30  O   UNL d   1      -6.982   3.820  -0.465  0.00  0.00    -0.356 OA
ATOM     31  C   UNL d   1      -7.276   4.912   0.395  0.00  0.00     0.210 C 
ENDBRANCH  27  30
ENDBRANCH   4  24
TORSDOF 4
