REMARK  5 active torsions:
REMARK  status: ('A' for Active; 'I' for Inactive)
REMARK    1  A    between atoms: C_7  and  C_1 
REMARK    2  A    between atoms: C_2  and  C_4 
REMARK    3  A    between atoms: C_3  and  C_5 
REMARK    4  A    between atoms: C_20  and  C_12 
REMARK    5  A    between atoms: O_21  and  C_20 
ROOT
ATOM      1  C   UNL d   1      -0.411   4.703  -1.061  0.00  0.00     0.049 A 
ATOM      2  C   UNL d   1      -1.492   4.395   1.103  0.00  0.00     0.049 A 
ATOM      3  C   UNL d   1      -0.477   2.475  -0.035  0.00  0.00    -0.001 A 
ATOM      4  C   UNL d   1      -1.107   5.224   0.038  0.00  0.00     0.032 A 
ATOM      5  C   UNL d   1      -1.179   3.023   1.048  0.00  0.00     0.030 A 
ATOM      6  C   UNL d   1      -0.113   3.331  -1.088  0.00  0.00     0.030 A 
ENDROOT
BRANCH   3   7
ATOM      7  C   UNL d   1      -0.066   1.071  -0.064  0.00  0.00     0.086 A 
ATOM      8  O   UNL d   1      -0.325   0.329   1.056  0.00  0.00    -0.312 OA
ATOM      9  C   UNL d   1       0.210  -0.912   0.858  0.00  0.00     0.077 A 
ATOM     10  C   UNL d   1       0.782  -0.985  -0.391  0.00  0.00     0.038 A 
ATOM     11  C   UNL d   1       0.600   0.285  -0.986  0.00  0.00     0.040 A 
BRANCH   9  12
ATOM     12  C   UNL d   1       0.078  -1.885   1.966  0.00  0.00     0.229 C 
BRANCH  12  13
ATOM     13  O   UNL d   1      -1.115  -2.622   1.751  0.00  0.00    -0.394 OA
ATOM     14  H   UNL d   1      -1.827  -1.964   1.649  0.00  0.00     0.209 HD
ENDBRANCH  12  13
ENDBRANCH   9  12
ENDBRANCH   3   7
BRANCH   2  15
ATOM     15  C   UNL d   1      -2.205   4.958   2.309  0.00  0.00     0.417 C 
ATOM     16  F   UNL d   1      -2.343   6.313   2.270  0.00  0.00    -0.166 F 
ATOM     17  F   UNL d   1      -3.462   4.459   2.456  0.00  0.00    -0.166 F 
ATOM     18  F   UNL d   1      -1.552   4.686   3.472  0.00  0.00    -0.166 F 
ENDBRANCH   2  15
BRANCH   1  19
ATOM     19  C   UNL d   1       0.057   5.586  -2.194  0.00  0.00     0.417 C 
ATOM     20  F   UNL d   1      -0.247   6.901  -2.020  0.00  0.00    -0.166 F 
ATOM     21  F   UNL d   1       1.406   5.532  -2.363  0.00  0.00    -0.166 F 
ATOM     22  F   UNL d   1      -0.485   5.229  -3.390  0.00  0.00    -0.166 F 
ENDBRANCH   1  19
TORSDOF 5
