REMARK  10 active torsions:
REMARK  status: ('A' for Active; 'I' for Inactive)
REMARK       I    between atoms: N_2  and  C_1 
REMARK    1  A    between atoms: O_6  and  C_1 
REMARK    2  A    between atoms: C_4  and  N_2 
REMARK       I    between atoms: N_13  and  C_3 
REMARK    3  A    between atoms: C_4  and  C_3 
REMARK    4  A    between atoms: C_12  and  C_4 
REMARK    5  A    between atoms: C_5  and  C_14 
REMARK    6  A    between atoms: O_11  and  C_5 
REMARK    7  A    between atoms: C_10  and  O_6 
REMARK    8  A    between atoms: C_15  and  O_11 
REMARK    9  A    between atoms: C_14  and  C_12 
REMARK   10  A    between atoms: C_16  and  C_15 
ROOT
ATOM      1  C   UNL d   1       0.643  -2.589   1.277  0.00  0.00     0.179 C 
ENDROOT
BRANCH   1   2
ATOM      2  C   UNL d   1      -0.201  -3.649   1.984  0.00  0.00     0.044 C 
BRANCH   2   3
ATOM      3  C   UNL d   1       0.674  -4.598   2.791  0.00  0.00     0.113 C 
BRANCH   3   4
ATOM      4  C   UNL d   1      -0.159  -5.552   3.602  0.00  0.00     0.259 C 
ATOM      5  O   UNL d   1      -0.584  -5.298   4.721  0.00  0.00    -0.265 OA
BRANCH   4   6
ATOM      6  O   UNL d   1      -0.339  -6.714   2.926  0.00  0.00    -0.317 OA
BRANCH   6   7
ATOM      7  C   UNL d   1      -0.869  -7.792   3.702  0.00  0.00     0.217 C 
BRANCH   7   8
ATOM      8  C   UNL d   1      -2.294  -8.098   3.326  0.00  0.00    -0.034 A 
ATOM      9  C   UNL d   1      -2.580  -8.995   2.287  0.00  0.00     0.009 A 
ATOM     10  C   UNL d   1      -3.900  -9.348   2.001  0.00  0.00     0.001 A 
ATOM     11  C   UNL d   1      -4.946  -8.797   2.740  0.00  0.00     0.000 A 
ATOM     12  C   UNL d   1      -4.675  -7.875   3.750  0.00  0.00     0.001 A 
ATOM     13  C   UNL d   1      -3.355  -7.521   4.037  0.00  0.00     0.009 A 
ENDBRANCH   7   8
ENDBRANCH   6   7
ENDBRANCH   4   6
ENDBRANCH   3   4
ENDBRANCH   2   3
ENDBRANCH   1   2
BRANCH   1  14
ATOM     14  N   UNL d   1       1.298  -1.738   2.254  0.00  0.00    -0.324 N 
ATOM     15  C   UNL d   1       2.645  -1.691   2.413  0.00  0.00     0.362 C 
ATOM     16  O   UNL d   1       3.435  -2.394   1.802  0.00  0.00    -0.238 OA
ATOM     17  H   UNL d   1       0.772  -0.974   2.664  0.00  0.00     0.165 HD
BRANCH  15  18
ATOM     18  O   UNL d   1       2.936  -0.744   3.322  0.00  0.00    -0.294 OA
BRANCH  18  19
ATOM     19  C   UNL d   1       4.183  -0.006   3.333  0.00  0.00     0.061 C 
ATOM     20  C   UNL d   1       3.848   1.326   2.654  0.00  0.00     0.046 C 
ATOM     21  C   UNL d   1       4.531   0.236   4.807  0.00  0.00     0.046 C 
ATOM     22  C   UNL d   1       5.384  -0.661   2.643  0.00  0.00     0.046 C 
ENDBRANCH  18  19
ENDBRANCH  15  18
ENDBRANCH   1  14
BRANCH   1  23
ATOM     23  C   UNL d   1      -0.233  -1.718   0.365  0.00  0.00     0.238 C 
ATOM     24  O   UNL d   1      -0.613  -0.585   0.659  0.00  0.00    -0.271 OA
ATOM     25  N   UNL d   1      -0.635  -2.299  -0.807  0.00  0.00    -0.368 N 
ATOM     26  H   UNL d   1      -1.165  -1.721  -1.443  0.00  0.00     0.159 HD
ATOM     27  H   UNL d   1      -0.187  -3.124  -1.181  0.00  0.00     0.159 HD
ENDBRANCH   1  23
TORSDOF 10
