REMARK  1 active torsions:
REMARK  status: ('A' for Active; 'I' for Inactive)
REMARK       I    between atoms: C_2  and  N_1 
REMARK    1  A    between atoms: C_4  and  C_2 
ROOT
ATOM      1  N   UNL d   1       0.616   1.193  -0.372  0.00  0.00    -0.335 N 
ATOM      2  C   UNL d   1       1.209   2.352  -0.894  0.00  0.00     0.254 C 
ATOM      3  C   UNL d   1       1.433   0.049   0.176  0.00  0.00     0.050 C 
ATOM      4  O   UNL d   1       2.407   2.492  -1.116  0.00  0.00    -0.267 OA
ATOM      5  O   UNL d   1      -0.641  -1.315   0.274  0.00  0.00    -0.387 OA
ATOM      6  C   UNL d   1      -0.831   1.094  -0.096  0.00  0.00     0.153 C 
ATOM      7  C   UNL d   1       0.718  -1.289  -0.180  0.00  0.00     0.198 C 
ATOM      8  C   UNL d   1       2.864  -0.069  -0.389  0.00  0.00     0.040 C 
ATOM      9  C   UNL d   1       1.544   0.178   1.710  0.00  0.00     0.040 C 
ATOM     10  C   UNL d   1      -1.394  -0.298  -0.389  0.00  0.00     0.187 C 
ENDROOT
BRANCH   2  11
ATOM     11  C   UNL d   1       0.360   3.502  -1.283  0.00  0.00     0.032 A 
ATOM     12  C   UNL d   1      -0.384   4.208  -0.333  0.00  0.00     0.018 A 
ATOM     13  C   UNL d   1      -1.148   5.309  -0.731  0.00  0.00     0.025 A 
ATOM     14  C   UNL d   1      -1.141   5.715  -2.067  0.00  0.00     0.034 A 
ATOM     15  C   UNL d   1      -0.371   5.034  -3.011  0.00  0.00     0.025 A 
ATOM     16 CL   UNL d   1      -2.076   7.074  -2.549  0.00  0.00    -0.084 Cl
ATOM     17  C   UNL d   1       0.386   3.928  -2.618  0.00  0.00     0.018 A 
ENDBRANCH   2  11
TORSDOF 1
