REMARK  1 active torsions:
REMARK  status: ('A' for Active; 'I' for Inactive)
REMARK    1  A    between atoms: N_7  and  C_1 
REMARK       I    between atoms: C_8  and  N_7 
ROOT
ATOM      1  C   UNL d   1       3.216   1.622  -0.009  0.00  0.00     0.112 A 
ATOM      2  C   UNL d   1       3.780   0.233   0.005  0.00  0.00     0.315 A 
ATOM      3  O   UNL d   1       2.889  -0.833  -0.007  0.00  0.00    -0.273 OA
ATOM      4  C   UNL d   1       1.890   1.802  -0.026  0.00  0.00     0.050 A 
ATOM      5  C   UNL d   1       0.980   0.671  -0.028  0.00  0.00     0.002 A 
ATOM      6  C   UNL d   1       1.500  -0.619  -0.020  0.00  0.00     0.089 A 
ATOM      7  O   UNL d   1       4.998   0.064   0.025  0.00  0.00    -0.257 OA
ATOM      8  C   UNL d   1      -0.406   0.848  -0.034  0.00  0.00     0.033 A 
ATOM      9  C   UNL d   1       0.670  -1.738  -0.020  0.00  0.00     0.039 A 
ATOM     10  C   UNL d   1      -1.245  -0.267  -0.032  0.00  0.00     0.011 A 
ATOM     11  C   UNL d   1      -0.715  -1.558  -0.026  0.00  0.00     0.022 A 
ATOM     12 BR   UNL d   1      -3.120  -0.022  -0.033  0.00  0.00    -0.051 Br
ENDROOT
BRANCH   1  13
ATOM     13  N   UNL d   1       4.158   2.642  -0.000  0.00  0.00    -0.322 N 
ATOM     14  C   UNL d   1       3.942   4.003  -0.012  0.00  0.00     0.218 C 
ATOM     15  O   UNL d   1       2.846   4.557  -0.041  0.00  0.00    -0.274 OA
ATOM     16  C   UNL d   1       5.206   4.822   0.015  0.00  0.00     0.117 C 
ATOM     17  H   UNL d   1       5.121   2.307   0.017  0.00  0.00     0.169 HD
ENDBRANCH   1  13
TORSDOF 1
