REMARK  6 active torsions:
REMARK  status: ('A' for Active; 'I' for Inactive)
REMARK    1  A    between atoms: C_10  and  C_3 
REMARK    2  A    between atoms: O_18  and  C_4 
REMARK    3  A    between atoms: S_13  and  C_5 
REMARK    4  A    between atoms: C_8  and  C_10 
REMARK    5  A    between atoms: C_9  and  C_12 
REMARK    6  A    between atoms: C_12  and  S_13 
ROOT
ATOM      1  N   UNL d   1      -0.499   1.337   0.013  0.00  0.00    -0.317 N 
ATOM      2  HN  UNL d   1      -0.945   2.254   0.027  1.00  0.00     0.170 HD
ATOM      3  C   UNL d   1      -0.671  -1.080   0.026  0.00  0.00     0.019 A 
ATOM      4  C   UNL d   1      -1.206   0.200   0.050  0.00  0.00     0.150 A 
ATOM      5  C   UNL d   1       0.827   1.192  -0.044  0.00  0.00     0.146 A 
ATOM      6  N   UNL d   1       1.462   0.010  -0.068  0.00  0.00    -0.340 N 
ATOM      7  HN  UNL d   1       2.480  -0.038  -0.112  1.00  0.00     0.167 HD
ATOM      8  C   UNL d   1       0.715  -1.115  -0.030  0.00  0.00     0.018 A 
ATOM      9  C   UNL d   1       1.490  -2.400  -0.052  0.00  0.00     0.069 C 
ENDROOT
BRANCH   5  10
ATOM     10  S   UNL d   1       1.865   2.626  -0.161  0.00  0.00    -0.089 SA
BRANCH  10  11
ATOM     11  C   UNL d   1       0.887   3.822   0.802  0.00  0.00     0.126 C 
BRANCH  11  12
ATOM     12  C   UNL d   1       1.631   5.131   0.940  0.00  0.00     0.012 A 
ATOM     13  C   UNL d   1       1.438   6.130  -0.026  0.00  0.00     0.125 A 
ATOM     14  F   UNL d   1       0.568   5.926  -1.027  0.00  0.00    -0.205 F 
ATOM     15  C   UNL d   1       2.123   7.342   0.012  0.00  0.00     0.043 A 
ATOM     16  C   UNL d   1       3.032   7.588   1.032  0.00  0.00     0.005 A 
ATOM     17  C   UNL d   1       3.247   6.615   2.008  0.00  0.00     0.024 A 
ATOM     18  C   UNL d   1       2.555   5.395   1.962  0.00  0.00     0.044 A 
ATOM     19 CL   UNL d   1       2.892   4.247   3.208  0.00  0.00    -0.084 Cl
ENDBRANCH  11  12
ENDBRANCH  10  11
ENDBRANCH   5  10
BRANCH   4  20
ATOM     20  O   UNL d   1      -2.553   0.397   0.152  0.00  0.00    -0.346 OA
ATOM     21  H   UNL d   1      -2.864  -0.178   0.866  0.00  0.00     0.219 HD
ENDBRANCH   4  20
BRANCH   3  22
ATOM     22  C   UNL d   1      -1.528  -2.316   0.034  0.00  0.00     0.087 C 
BRANCH  22  23
ATOM     23  C   UNL d   1      -1.714  -3.133   1.309  0.00  0.00    -0.010 A 
ATOM     24  C   UNL d   1      -1.444  -2.703   2.625  0.00  0.00     0.042 A 
ATOM     25 CL   UNL d   1      -0.925  -1.112   3.054  0.00  0.00    -0.084 Cl
ATOM     26  C   UNL d   1      -1.625  -3.559   3.724  0.00  0.00     0.024 A 
ATOM     27  C   UNL d   1      -2.115  -4.848   3.556  0.00  0.00     0.003 A 
ATOM     28  C   UNL d   1      -2.446  -5.282   2.282  0.00  0.00     0.024 A 
ATOM     29  C   UNL d   1      -2.254  -4.440   1.178  0.00  0.00     0.042 A 
ATOM     30 CL   UNL d   1      -2.747  -5.085  -0.356  0.00  0.00    -0.084 Cl
ENDBRANCH  22  23
ENDBRANCH   3  22
TORSDOF 6
