REMARK  5 active torsions:
REMARK  status: ('A' for Active; 'I' for Inactive)
REMARK    1  A    between atoms: N_3  and  C_1 
REMARK    2  A    between atoms: C_8  and  C_2 
REMARK    3  A    between atoms: O_14  and  C_8 
REMARK    4  A    between atoms: O_15  and  C_11 
REMARK    5  A    between atoms: O_16  and  C_12 
ROOT
ATOM      1  C   UNL d   1       1.297  -0.271   0.119  0.00  0.00     0.059 A 
ATOM      2  C   UNL d   1       0.435  -1.366  -0.017  0.00  0.00     0.067 A 
ATOM      3  C   UNL d   1       0.717   1.006   0.220  0.00  0.00     0.070 A 
ATOM      4  C   UNL d   1      -0.964  -1.160  -0.094  0.00  0.00     0.060 A 
ATOM      5  C   UNL d   1      -0.669   1.211   0.143  0.00  0.00     0.103 A 
ATOM      6  C   UNL d   1      -1.527   0.119  -0.019  0.00  0.00     0.102 A 
ENDROOT
BRANCH   1   7
ATOM      7  N   UNL d   1       2.732  -0.343   0.167  0.00  0.00    -0.319 N 
ATOM      8  C   UNL d   1       3.613   0.574  -0.433  0.00  0.00     0.013 A 
ATOM      9  C   UNL d   1       4.902   0.274  -0.037  0.00  0.00     0.027 A 
ATOM     10  C   UNL d   1       3.258   1.659  -1.400  0.00  0.00     0.068 C 
ATOM     11  C   UNL d   1       4.844  -0.854   0.785  0.00  0.00     0.027 A 
ATOM     12  C   UNL d   1       3.517  -1.220   0.926  0.00  0.00     0.013 A 
ATOM     13  C   UNL d   1       3.044  -2.312   1.821  0.00  0.00     0.068 C 
ENDBRANCH   1   7
BRANCH   2  14
ATOM     14  C   UNL d   1       0.876  -2.760  -0.276  0.00  0.00     0.178 C 
ATOM     15  O   UNL d   1       1.732  -3.063  -1.078  0.00  0.00    -0.646 OA
BRANCH  14  16
ATOM     16  O   UNL d   1       0.202  -3.662   0.478  0.00  0.00    -0.773 OA
ATOM     17  H   UNL d   1      -0.395  -3.291   1.158  0.00  0.00     0.167 HD
ENDBRANCH  14  16
ENDBRANCH   2  14
BRANCH   5  18
ATOM     18  O   UNL d   1      -1.006   2.539   0.164  0.00  0.00    -0.353 OA
ATOM     19  C   UNL d   1      -2.249   2.878   0.763  0.00  0.00     0.210 C 
ENDBRANCH   5  18
BRANCH   6  20
ATOM     20  O   UNL d   1      -2.867   0.362  -0.149  0.00  0.00    -0.353 OA
ATOM     21  C   UNL d   1      -3.752  -0.748  -0.242  0.00  0.00     0.210 C 
ENDBRANCH   6  20
TORSDOF 5
