REMARK  2 active torsions:
REMARK  status: ('A' for Active; 'I' for Inactive)
REMARK    1  A    between atoms: C_7  and  C_1 
REMARK    2  A    between atoms: C_13  and  C_3 
ROOT
ATOM      1  C   UNL d   1       0.733   1.237   0.153  0.00  0.00     0.092 A 
ATOM      2  S   UNL d   1      -0.409   0.922   1.396  0.00  0.00    -0.066 SA
ATOM      3  C   UNL d   1      -0.784  -0.593   0.701  0.00  0.00     0.074 A 
ATOM      4  N   UNL d   1       0.869   0.264  -0.721  0.00  0.00    -0.352 N 
ATOM      5  HN  UNL d   1       1.507   0.283  -1.517  1.00  0.00     0.166 HD
ATOM      6  C   UNL d   1       0.022  -0.795  -0.410  0.00  0.00     0.027 A 
ATOM      7  C   UNL d   1       0.050  -1.994  -1.293  0.00  0.00     0.070 C 
ENDROOT
BRANCH   1   8
ATOM      8  C   UNL d   1       1.484   2.468   0.057  0.00  0.00     0.039 A 
ATOM      9  S   UNL d   1       1.386   3.715   1.226  0.00  0.00    -0.086 SA
ATOM     10  C   UNL d   1       2.482   4.731   0.391  0.00  0.00     0.022 A 
ATOM     11  C   UNL d   1       2.815   6.042   0.905  0.00  0.00     0.021 A 
ATOM     12  C   UNL d   1       2.927   4.118  -0.765  0.00  0.00     0.021 A 
ATOM     13  S   UNL d   1       3.306   7.320  -0.130  0.00  0.00    -0.101 SA
ATOM     14  C   UNL d   1       2.770   6.468   2.223  0.00  0.00     0.021 A 
ATOM     15  C   UNL d   1       3.429   8.426   1.168  0.00  0.00     0.050 A 
ATOM     16  C   UNL d   1       3.123   7.840   2.374  0.00  0.00     0.008 A 
ATOM     17  C   UNL d   1       2.361   2.820  -0.955  0.00  0.00     0.023 A 
ENDBRANCH   1   8
BRANCH   3  18
ATOM     18  C   UNL d   1      -1.783  -1.485   1.267  0.00  0.00     0.164 C 
ATOM     19  O   UNL d   1      -1.857  -2.674   0.945  0.00  0.00    -0.292 OA
ATOM     20  C   UNL d   1      -2.773  -0.958   2.285  0.00  0.00     0.097 C 
ENDBRANCH   3  18
TORSDOF 2
