REMARK  4 active torsions:
REMARK  status: ('A' for Active; 'I' for Inactive)
REMARK    1  A    between atoms: N_4  and  C_1 
REMARK       I    between atoms: C_9  and  N_4 
REMARK    2  A    between atoms: O_12  and  C_7 
REMARK    3  A    between atoms: C_14  and  C_10 
REMARK    4  A    between atoms: O_13  and  C_14 
ROOT
ATOM      1  C   UNL d   1       1.206  -1.084   0.071  0.00  0.00     0.687 A 
ATOM      2  N   UNL d   1      -0.129  -1.187   0.007  0.00  0.00    -0.170 N 
ATOM      3  HN  UNL d   1      -0.610  -2.086  -0.026  1.00  0.00     0.186 HD
ATOM      4  N   UNL d   1       1.874   0.072   0.065  0.00  0.00    -0.193 N 
ATOM      5  HN  UNL d   1       2.894   0.087   0.080  1.00  0.00     0.184 HD
ATOM      6  C   UNL d   1      -0.783  -0.019  -0.012  0.00  0.00     0.157 A 
ATOM      7  C   UNL d   1      -0.210   1.223   0.005  0.00  0.00     0.084 A 
ATOM      8  C   UNL d   1       1.165   1.222   0.036  0.00  0.00     0.054 A 
ENDROOT
BRANCH   1   9
ATOM      9  N   UNL d   1       1.881  -2.295   0.122  0.00  0.00    -0.160 N 
ATOM     10  C   UNL d   1       3.226  -2.444   0.347  0.00  0.00     0.231 C 
ATOM     11  O   UNL d   1       4.040  -1.560   0.594  0.00  0.00    -0.273 OA
ATOM     12  C   UNL d   1       3.678  -3.881   0.292  0.00  0.00     0.118 C 
ATOM     13  H   UNL d   1       1.274  -3.095   0.054  0.00  0.00     0.187 HD
ENDBRANCH   1   9
BRANCH   6  14
ATOM     14  O   UNL d   1      -2.136  -0.138  -0.059  0.00  0.00    -0.346 OA
ATOM     15  H   UNL d   1      -2.239  -1.104  -0.046  0.00  0.00     0.219 HD
ENDBRANCH   6  14
BRANCH   8  16
ATOM     16  C   UNL d   1       1.950   2.507   0.003  0.00  0.00     0.224 C 
BRANCH  16  17
ATOM     17  O   UNL d   1       1.605   3.329   1.119  0.00  0.00    -0.390 OA
ATOM     18  C   UNL d   1       2.449   4.471   1.190  0.00  0.00     0.201 C 
ENDBRANCH  16  17
ENDBRANCH   8  16
TORSDOF 4
