REMARK  2 active torsions:
REMARK  status: ('A' for Active; 'I' for Inactive)
REMARK    1  A    between atoms: C_9  and  C_6 
REMARK    2  A    between atoms: O_16  and  C_12 
ROOT
ATOM      1  C   UNL d   1      -5.163  -1.325   1.247  0.00  0.00     0.045 A 
ATOM      2  C   UNL d   1      -3.852   0.359   0.050  0.00  0.00    -0.033 A 
ATOM      3  C   UNL d   1      -4.037  -0.487   1.147  0.00  0.00     0.033 A 
ATOM      4  C   UNL d   1      -6.131  -1.310   0.233  0.00  0.00     0.085 A 
ATOM      5  C   UNL d   1      -5.937  -0.435  -0.854  0.00  0.00     0.039 A 
ATOM      6 BR   UNL d   1      -5.174  -2.403   2.814  0.00  0.00    -0.048 Br
ATOM      7  C   UNL d   1      -4.813   0.389  -0.953  0.00  0.00     0.014 A 
ENDROOT
BRANCH   2   8
ATOM      8  C   UNL d   1      -2.627   1.154  -0.046  0.00  0.00     0.036 C 
ATOM      9  C   UNL d   1      -1.501   0.727  -0.631  0.00  0.00     0.076 A 
ATOM     10  C   UNL d   1      -0.250   1.529  -0.624  0.00  0.00     0.264 A 
ATOM     11  S   UNL d   1      -1.229  -0.776  -1.440  0.00  0.00    -0.055 SA
ATOM     12  N   UNL d   1       0.744   0.833  -1.253  0.00  0.00    -0.307 N 
ATOM     13  O   UNL d   1      -0.117   2.632  -0.118  0.00  0.00    -0.267 OA
ATOM     14  C   UNL d   1       0.449  -0.397  -1.755  0.00  0.00     0.146 A 
ATOM     15  H   UNL d   1       1.671   1.226  -1.324  0.00  0.00     0.170 HD
ATOM     16  S   UNL d   1       1.545  -1.359  -2.537  0.00  0.00    -0.052 SA
ENDBRANCH   2   8
BRANCH   4  17
ATOM     17  O   UNL d   1      -7.290  -2.015   0.080  0.00  0.00    -0.355 OA
ATOM     18  C   UNL d   1      -7.691  -2.985   1.028  0.00  0.00     0.210 C 
ENDBRANCH   4  17
TORSDOF 2
