REMARK  3 active torsions:
REMARK  status: ('A' for Active; 'I' for Inactive)
REMARK    1  A    between atoms: C_9  and  C_6 
REMARK    2  A    between atoms: C_13  and  C_7 
REMARK    3  A    between atoms: C_20  and  C_12 
ROOT
ATOM      1  C   UNL d   1       0.353  -0.742   0.071  0.00  0.00     0.111 A 
ATOM      2  N   UNL d   1       1.548  -0.068   0.067  0.00  0.00    -0.332 N 
ATOM      3  HN  UNL d   1       2.493  -0.450   0.064  1.00  0.00     0.168 HD
ATOM      4  C   UNL d   1      -0.780   0.231   0.082  0.00  0.00     0.316 A 
ATOM      5  O   UNL d   1      -0.142   1.435   0.079  0.00  0.00    -0.256 OA
ATOM      6  C   UNL d   1       1.182   1.170   0.067  0.00  0.00     0.152 A 
ATOM      7  C   UNL d   1       0.265  -2.078   0.054  0.00  0.00     0.047 C 
ATOM      8  O   UNL d   1      -1.979   0.049   0.086  0.00  0.00    -0.257 OA
ENDROOT
BRANCH   7   9
ATOM      9  C   UNL d   1      -0.983  -2.839   0.040  0.00  0.00    -0.031 A 
ATOM     10  C   UNL d   1      -1.601  -3.192   1.247  0.00  0.00     0.051 A 
ATOM     11  C   UNL d   1      -2.794  -3.881   1.179  0.00  0.00     0.105 A 
ATOM     12  O   UNL d   1      -3.536  -4.289   2.243  0.00  0.00    -0.323 OA
ATOM     13  C   UNL d   1      -3.367  -4.226  -0.023  0.00  0.00     0.105 A 
ATOM     14  C   UNL d   1      -4.674  -4.868   1.571  0.00  0.00     0.352 A 
ATOM     15  O   UNL d   1      -4.542  -4.891   0.135  0.00  0.00    -0.323 OA
ATOM     16  C   UNL d   1      -2.777  -3.908  -1.227  0.00  0.00     0.040 A 
ATOM     17  C   UNL d   1      -1.570  -3.202  -1.191  0.00  0.00     0.014 A 
ENDBRANCH   7   9
BRANCH   6  18
ATOM     18  C   UNL d   1       2.075   2.331   0.035  0.00  0.00     0.057 C 
ATOM     19  C   UNL d   1       1.641   3.601   0.013  0.00  0.00     0.015 C 
BRANCH  19  20
ATOM     20  C   UNL d   1       2.534   4.770  -0.069  0.00  0.00    -0.036 A 
ATOM     21  C   UNL d   1       3.761   4.730  -0.746  0.00  0.00     0.011 A 
ATOM     22  C   UNL d   1       4.562   5.871  -0.843  0.00  0.00     0.001 A 
ATOM     23  C   UNL d   1       4.139   7.070  -0.275  0.00  0.00     0.000 A 
ATOM     24  C   UNL d   1       2.915   7.130   0.387  0.00  0.00     0.001 A 
ATOM     25  C   UNL d   1       2.115   5.987   0.485  0.00  0.00     0.011 A 
ENDBRANCH  19  20
ENDBRANCH   6  18
TORSDOF 3
