REMARK  5 active torsions:
REMARK  status: ('A' for Active; 'I' for Inactive)
REMARK    1  A    between atoms: N_2  and  C_1 
REMARK    2  A    between atoms: N_3  and  C_1 
REMARK    3  A    between atoms: C_6  and  N_3 
REMARK    4  A    between atoms: N_4  and  C_14 
REMARK    5  A    between atoms: C_14  and  C_18 
ROOT
ATOM      1  N   UNL d   1       0.134   0.774  -0.714  0.00  0.00    -0.358 N 
ATOM      2  C   UNL d   1       0.687   1.374  -1.924  0.00  0.00     0.125 C 
ATOM      3  C   UNL d   1      -0.919   1.548  -0.072  0.00  0.00     0.125 C 
ATOM      4  C   UNL d   1      -2.081   1.675  -1.056  0.00  0.00     0.026 C 
ATOM      5  C   UNL d   1      -0.406   1.584  -2.965  0.00  0.00     0.026 C 
ATOM      6  C   UNL d   1      -1.657   2.292  -2.407  0.00  0.00     0.007 C 
ENDROOT
BRANCH   1   7
ATOM      7  C   UNL d   1       0.922  -0.148  -0.020  0.00  0.00     0.174 C 
ATOM      8  S   UNL d   1       1.626   0.166   1.464  0.00  0.00    -0.041 SA
BRANCH   7   9
ATOM      9  N   UNL d   1       0.926  -1.355  -0.703  0.00  0.00    -0.333 N 
ATOM     10  H   UNL d   1       0.041  -1.544  -1.153  0.00  0.00     0.168 HD
BRANCH   9  11
ATOM     11  C   UNL d   1       1.849  -2.415  -0.663  0.00  0.00     0.035 A 
ATOM     12  C   UNL d   1       3.216  -2.202  -0.496  0.00  0.00     0.053 A 
ATOM     13  C   UNL d   1       4.103  -3.273  -0.625  0.00  0.00     0.036 A 
ATOM     14 CL   UNL d   1       5.798  -2.995  -0.512  0.00  0.00    -0.084 Cl
ATOM     15  C   UNL d   1       3.633  -4.559  -0.890  0.00  0.00     0.024 A 
ATOM     16  C   UNL d   1       2.265  -4.779  -1.032  0.00  0.00     0.004 A 
ATOM     17  C   UNL d   1       1.376  -3.704  -0.938  0.00  0.00     0.029 A 
ENDBRANCH   9  11
ENDBRANCH   7   9
ENDBRANCH   1   7
BRANCH   6  18
ATOM     18  C   UNL d   1      -1.460   3.819  -2.330  0.00  0.00     0.132 C 
BRANCH  18  19
ATOM     19  N   UNL d   1      -2.666   4.531  -1.929  0.00  0.00    -0.366 N 
ATOM     20  C   UNL d   1      -2.807   5.273  -0.785  0.00  0.00     0.090 A 
ATOM     21  C   UNL d   1      -4.109   5.712  -0.721  0.00  0.00     0.019 A 
ATOM     22  C   UNL d   1      -4.774   5.238  -1.877  0.00  0.00     0.019 A 
ATOM     23  C   UNL d   1      -3.852   4.532  -2.618  0.00  0.00     0.090 A 
ENDBRANCH  18  19
ENDBRANCH   6  18
TORSDOF 5
