REMARK  3 active torsions:
REMARK  status: ('A' for Active; 'I' for Inactive)
REMARK    1  A    between atoms: N_7  and  C_1 
REMARK    2  A    between atoms: C_2  and  C_3 
REMARK       I    between atoms: C_8  and  N_7 
REMARK    3  A    between atoms: C_10  and  C_8 
ROOT
ATOM      1  C   UNL d   1      -0.744   1.118   0.113  0.00  0.00     0.090 A 
ATOM      2  C   UNL d   1       0.641   1.259   0.024  0.00  0.00     0.038 A 
ATOM      3  S   UNL d   1      -1.216  -0.512   0.178  0.00  0.00    -0.083 SA
ATOM      4  C   UNL d   1       1.309  -0.035   0.039  0.00  0.00    -0.040 A 
ATOM      5  C   UNL d   1       0.385  -1.062   0.099  0.00  0.00     0.059 A 
ATOM      6  C   UNL d   1       2.777  -0.325  -0.007  0.00  0.00     0.049 C 
ENDROOT
BRANCH   2   7
ATOM      7  C   UNL d   1       1.362   2.602  -0.100  0.00  0.00     0.089 A 
ATOM      8  N   UNL d   1       2.656   2.678  -0.325  0.00  0.00    -0.349 N 
ATOM      9  C   UNL d   1       3.056   3.995  -0.488  0.00  0.00     0.050 A 
ATOM     10  HN  UNL d   1       3.283   1.875  -0.374  1.00  0.00     0.166 HD
ATOM     11  C   UNL d   1       4.360   4.440  -0.785  0.00  0.00     0.031 A 
ATOM     12  C   UNL d   1       2.044   4.942  -0.353  0.00  0.00     0.033 A 
ATOM     13  C   UNL d   1       4.607   5.806  -0.958  0.00  0.00     0.002 A 
ATOM     14  C   UNL d   1       3.575   6.732  -0.827  0.00  0.00     0.002 A 
ATOM     15  C   UNL d   1       2.278   6.318  -0.513  0.00  0.00     0.021 A 
ATOM     16  S   UNL d   1       0.580   4.134   0.010  0.00  0.00    -0.069 SA
ENDBRANCH   2   7
BRANCH   1  17
ATOM     17  N   UNL d   1      -1.709   2.116   0.126  0.00  0.00    -0.313 N 
ATOM     18  C   UNL d   1      -3.099   1.986   0.211  0.00  0.00     0.330 C 
ATOM     19  O   UNL d   1      -3.733   0.938   0.302  0.00  0.00    -0.263 OA
ATOM     20  H   UNL d   1      -1.359   3.069   0.069  0.00  0.00     0.169 HD
BRANCH  18  21
ATOM     21  C   UNL d   1      -3.797   3.361   0.168  0.00  0.00     0.472 C 
ATOM     22  F   UNL d   1      -2.890   4.384   0.126  0.00  0.00    -0.162 F 
ATOM     23  F   UNL d   1      -4.587   3.517  -0.929  0.00  0.00    -0.162 F 
ATOM     24  F   UNL d   1      -4.577   3.595   1.257  0.00  0.00    -0.162 F 
ENDBRANCH  18  21
ENDBRANCH   1  17
TORSDOF 3
