REMARK  3 active torsions:
REMARK  status: ('A' for Active; 'I' for Inactive)
REMARK    1  A    between atoms: C_7  and  C_1 
REMARK    2  A    between atoms: C_2  and  C_3 
REMARK    3  A    between atoms: O_12  and  C_7 
ROOT
ATOM      1  C   UNL d   1       0.745   0.029  -0.816  0.00  0.00     0.121 C 
ATOM      2  C   UNL d   1       0.315  -1.101  -0.213  0.00  0.00     0.059 C 
ATOM      3  C   UNL d   1       1.877   0.063  -1.679  0.00  0.00     0.105 C 
ATOM      4  N   UNL d   1       2.812   0.104  -2.368  0.00  0.00    -0.191 NA
ENDROOT
BRANCH   1   5
ATOM      5  C   UNL d   1      -0.011   1.284  -0.563  0.00  0.00     0.303 C 
ATOM      6  O   UNL d   1      -0.986   1.368   0.170  0.00  0.00    -0.258 OA
BRANCH   5   7
ATOM      7  O   UNL d   1       0.535   2.313  -1.257  0.00  0.00    -0.322 OA
ATOM      8  C   UNL d   1      -0.107   3.581  -1.090  0.00  0.00     0.213 C 
ENDBRANCH   5   7
ENDBRANCH   1   5
BRANCH   2   9
ATOM      9  C   UNL d   1       0.914  -2.363  -0.451  0.00  0.00     0.040 A 
ATOM     10  N   UNL d   1       1.975  -2.763   0.331  0.00  0.00    -0.359 N 
ATOM     11  C   UNL d   1       2.448  -3.975  -0.112  0.00  0.00     0.006 A 
ATOM     12  H   UNL d   1       2.375  -2.233   1.094  0.00  0.00     0.166 HD
ATOM     13  C   UNL d   1       3.642  -4.635   0.475  0.00  0.00     0.068 C 
ATOM     14  C   UNL d   1       1.629  -4.384  -1.143  0.00  0.00     0.033 A 
ATOM     15  C   UNL d   1       0.651  -3.374  -1.360  0.00  0.00    -0.033 A 
ATOM     16  C   UNL d   1      -0.413  -3.418  -2.397  0.00  0.00     0.050 C 
ENDBRANCH   2   9
TORSDOF 3
