REMARK  1 active torsions:
REMARK  status: ('A' for Active; 'I' for Inactive)
REMARK    1  A    between atoms: C_8  and  C_7 
ROOT
ATOM      1  C   UNL d   1       1.313   0.037  -0.434  0.00  0.00     0.102 C 
ATOM      2  N   UNL d   1      -0.531  -1.464  -0.857  0.00  0.00    -0.275 N 
ATOM      3  N   UNL d   1      -0.648   0.696  -1.672  0.00  0.00    -0.275 N 
ATOM      4  C   UNL d   1       0.702  -1.312  -0.292  0.00  0.00     0.265 C 
ATOM      5  C   UNL d   1       0.534   1.105  -1.115  0.00  0.00     0.265 C 
ATOM      6  C   UNL d   1      -1.240  -0.517  -1.525  0.00  0.00     0.329 C 
ATOM      7  C   UNL d   1       2.558   0.171   0.063  0.00  0.00     0.052 C 
ATOM      8  O   UNL d   1       0.848   2.288  -1.162  0.00  0.00    -0.267 OA
ATOM      9  O   UNL d   1       1.244  -2.248   0.289  0.00  0.00    -0.267 OA
ATOM     10  O   UNL d   1      -2.366  -0.742  -1.957  0.00  0.00    -0.246 OA
ATOM     11  H   UNL d   1      -0.968  -2.370  -0.757  0.00  0.00     0.173 HD
ATOM     12  H   UNL d   1      -1.198   1.415  -2.122  0.00  0.00     0.173 HD
ENDROOT
BRANCH   7  13
ATOM     13  C   UNL d   1       3.353   1.332  -0.069  0.00  0.00     0.039 A 
ATOM     14  N   UNL d   1       3.242   2.325   0.876  0.00  0.00    -0.359 N 
ATOM     15  C   UNL d   1       4.118   3.343   0.588  0.00  0.00     0.006 A 
ATOM     16  H   UNL d   1       2.600   2.319   1.656  0.00  0.00     0.166 HD
ATOM     17  C   UNL d   1       4.209   4.569   1.417  0.00  0.00     0.068 C 
ATOM     18  C   UNL d   1       4.802   2.984  -0.554  0.00  0.00     0.033 A 
ATOM     19  C   UNL d   1       4.327   1.710  -0.976  0.00  0.00    -0.033 A 
ATOM     20  C   UNL d   1       4.796   0.961  -2.170  0.00  0.00     0.050 C 
ENDBRANCH   7  13
TORSDOF 1
