REMARK  5 active torsions:
REMARK  status: ('A' for Active; 'I' for Inactive)
REMARK    1  A    between atoms: S_2  and  C_1 
REMARK    2  A    between atoms: C_9  and  S_2 
REMARK    3  A    between atoms: N_7  and  C_3 
REMARK    4  A    between atoms: C_8  and  C_4 
REMARK    5  A    between atoms: O_17  and  C_8 
ROOT
ATOM      1  C   UNL d   1       1.521  -0.699  -0.036  0.00  0.00     0.095 C 
ATOM      2  C   UNL d   1       1.525   0.757   0.012  0.00  0.00     0.084 C 
ATOM      3  C   UNL d   1       0.227   1.272   0.093  0.00  0.00     0.108 C 
ATOM      4  S   UNL d   1      -0.950   0.017   0.040  0.00  0.00    -0.092 SA
ATOM      5  C   UNL d   1       0.231  -1.181  -0.149  0.00  0.00     0.076 C 
ENDROOT
BRANCH   1   6
ATOM      6  S   UNL d   1       2.851  -1.840  -0.022  0.00  0.00     0.185 S 
ATOM      7  O   UNL d   1       2.617  -2.623  -1.219  0.00  0.00    -0.222 OA
ATOM      8  O   UNL d   1       4.061  -1.068   0.147  0.00  0.00    -0.222 OA
BRANCH   6   9
ATOM      9  C   UNL d   1       2.710  -2.909   1.442  0.00  0.00     0.058 C 
ATOM     10  C   UNL d   1       1.431  -3.752   1.449  0.00  0.00     0.031 C 
ATOM     11  C   UNL d   1       3.916  -3.873   1.407  0.00  0.00     0.031 C 
ATOM     12  C   UNL d   1       2.787  -2.066   2.722  0.00  0.00     0.031 C 
ENDBRANCH   6   9
ENDBRANCH   1   6
BRANCH   2  13
ATOM     13  N   UNL d   1       2.687   1.605  -0.029  0.00  0.00    -0.330 N 
ATOM     14  C   UNL d   1       2.873   2.776   0.682  0.00  0.00     0.097 A 
ATOM     15  C   UNL d   1       4.134   3.269   0.427  0.00  0.00     0.019 A 
ATOM     16  C   UNL d   1       4.734   2.407  -0.509  0.00  0.00     0.019 A 
ATOM     17  C   UNL d   1       3.802   1.442  -0.823  0.00  0.00     0.097 A 
ENDBRANCH   2  13
BRANCH   3  18
ATOM     18  C   UNL d   1      -0.254   2.651   0.060  0.00  0.00     0.302 C 
ATOM     19  O   UNL d   1       0.285   3.581  -0.520  0.00  0.00    -0.259 OA
BRANCH  18  20
ATOM     20  O   UNL d   1      -1.406   2.775   0.785  0.00  0.00    -0.322 OA
ATOM     21  C   UNL d   1      -1.981   4.083   0.775  0.00  0.00     0.213 C 
ENDBRANCH  18  20
ENDBRANCH   3  18
TORSDOF 5
