REMARK  3 active torsions:
REMARK  status: ('A' for Active; 'I' for Inactive)
REMARK       I    between atoms: C_3  and  N_1 
REMARK       I    between atoms: N_7  and  C_3 
REMARK    1  A    between atoms: N_12  and  C_4 
REMARK    2  A    between atoms: C_6  and  C_13 
REMARK    3  A    between atoms: C_13  and  N_7 
ROOT
ATOM      1  N   UNL d   1       1.147  -0.111  -0.189  0.00  0.00    -0.305 N 
ATOM      2  HN  UNL d   1       2.165  -0.063  -0.230  1.00  0.00     0.171 HD
ATOM      3  C   UNL d   1       0.381  -0.374  -1.290  0.00  0.00     0.321 C 
ATOM      4  C   UNL d   1       0.488   0.072   0.908  0.00  0.00     0.181 C 
ATOM      5  N   UNL d   1       1.145  -0.511  -2.416  0.00  0.00    -0.338 N 
ATOM      6  O   UNL d   1      -0.840  -0.477  -1.315  0.00  0.00    -0.247 OA
ATOM      7  H   UNL d   1       2.122  -0.272  -2.329  0.00  0.00     0.164 HD
ENDROOT
BRANCH   5   8
ATOM      8  C   UNL d   1       0.506  -0.664  -3.693  0.00  0.00     0.170 C 
BRANCH   8   9
ATOM      9  C   UNL d   1       1.513  -0.828  -4.785  0.00  0.00     0.000 A 
ATOM     10  S   UNL d   1       2.114   0.544  -5.619  0.00  0.00    -0.105 SA
ATOM     11  C   UNL d   1       3.000  -0.428  -6.712  0.00  0.00     0.050 A 
ATOM     12  C   UNL d   1       2.874  -1.769  -6.430  0.00  0.00     0.008 A 
ATOM     13  C   UNL d   1       2.027  -2.000  -5.307  0.00  0.00     0.017 A 
ENDBRANCH   8   9
ENDBRANCH   5   8
BRANCH   4  14
ATOM     14  N   UNL d   1       1.009   0.340   2.155  0.00  0.00    -0.386 N 
ATOM     15  C   UNL d   1       0.156   0.484   3.324  0.00  0.00     0.149 C 
ATOM     16  C   UNL d   1       2.439   0.372   2.405  0.00  0.00     0.149 C 
ENDBRANCH   4  14
TORSDOF 3
