REMARK  5 active torsions:
REMARK  status: ('A' for Active; 'I' for Inactive)
REMARK       I    between atoms: N_4  and  C_1 
REMARK       I    between atoms: N_12  and  C_1 
REMARK    1  A    between atoms: N_2  and  N_4 
REMARK    2  A    between atoms: O_15  and  C_5 
REMARK    3  A    between atoms: O_16  and  C_6 
REMARK    4  A    between atoms: C_9  and  C_13 
REMARK    5  A    between atoms: C_13  and  C_10 
ROOT
ATOM      1  N   UNL d   1      -2.733   3.926  -3.506  0.00  0.00    -0.305 N 
ATOM      2  HN  UNL d   1      -2.540   4.444  -2.649  1.00  0.00     0.186 HD
ATOM      3  C   UNL d   1      -2.089   2.827  -3.771  0.00  0.00     0.004 C 
ATOM      4  C   UNL d   1      -2.269   1.937  -4.982  0.00  0.00     0.065 C 
ENDROOT
BRANCH   3   5
ATOM      5  C   UNL d   1      -1.020   2.383  -2.783  0.00  0.00     0.092 C 
BRANCH   5   6
ATOM      6  C   UNL d   1      -1.516   1.458  -1.700  0.00  0.00    -0.050 A 
ATOM      7  C   UNL d   1      -2.058   1.990  -0.517  0.00  0.00     0.047 A 
ATOM      8  C   UNL d   1      -2.381   1.171   0.576  0.00  0.00     0.102 A 
ATOM      9  C   UNL d   1      -2.214  -0.219   0.454  0.00  0.00     0.101 A 
ATOM     10  C   UNL d   1      -1.709  -0.753  -0.740  0.00  0.00     0.040 A 
ATOM     11  C   UNL d   1      -1.370   0.073  -1.812  0.00  0.00     0.010 A 
BRANCH   8  12
ATOM     12  O   UNL d   1      -2.795   1.664   1.785  0.00  0.00    -0.353 OA
ATOM     13  C   UNL d   1      -2.932   3.071   1.927  0.00  0.00     0.210 C 
ENDBRANCH   8  12
BRANCH   9  14
ATOM     14  O   UNL d   1      -2.426  -1.171   1.419  0.00  0.00    -0.353 OA
ATOM     15  C   UNL d   1      -3.466  -0.918   2.355  0.00  0.00     0.210 C 
ENDBRANCH   9  14
ENDBRANCH   5   6
ENDBRANCH   3   5
BRANCH   1  16
ATOM     16  N   UNL d   1      -3.674   4.379  -4.392  0.00  0.00    -0.252 N 
ATOM     17  C   UNL d   1      -4.390   5.530  -4.191  0.00  0.00     0.332 C 
ATOM     18  O   UNL d   1      -5.212   5.946  -4.998  0.00  0.00    -0.246 OA
ATOM     19  N   UNL d   1      -4.124   6.171  -3.030  0.00  0.00    -0.351 N 
ATOM     20  H   UNL d   1      -3.389   5.793  -2.450  0.00  0.00     0.160 HD
ATOM     21  H   UNL d   1      -4.581   7.042  -2.819  0.00  0.00     0.160 HD
ATOM     22  H   UNL d   1      -3.871   3.901  -5.260  0.00  0.00     0.191 HD
ENDBRANCH   1  16
TORSDOF 5
