REMARK  8 active torsions:
REMARK  status: ('A' for Active; 'I' for Inactive)
REMARK    1  A    between atoms: C_3  and  S_1 
REMARK    2  A    between atoms: C_5  and  S_1 
REMARK    3  A    between atoms: C_2  and  N_6 
REMARK    4  A    between atoms: N_4  and  C_2 
REMARK    5  A    between atoms: C_13  and  C_3 
REMARK    6  A    between atoms: C_12  and  N_4 
REMARK    7  A    between atoms: N_6  and  C_13 
REMARK    8  A    between atoms: C_25  and  N_6 
ROOT
ATOM      1  N   UNL d   1       0.286   3.907  -0.272  0.00  0.00    -0.357 N 
ENDROOT
BRANCH   1   2
ATOM      2  C   UNL d   1      -0.224   4.294  -1.484  0.00  0.00     0.174 C 
ATOM      3  S   UNL d   1       0.589   4.125  -2.947  0.00  0.00    -0.041 SA
BRANCH   2   4
ATOM      4  N   UNL d   1      -1.446   4.877  -1.595  0.00  0.00    -0.333 N 
ATOM      5  H   UNL d   1      -1.604   5.127  -2.567  0.00  0.00     0.168 HD
BRANCH   4   6
ATOM      6  C   UNL d   1      -2.604   4.944  -0.795  0.00  0.00     0.035 A 
ATOM      7  C   UNL d   1      -2.693   4.627   0.556  0.00  0.00     0.055 A 
ATOM      8  C   UNL d   1      -3.933   4.652   1.218  0.00  0.00     0.058 A 
ATOM      9 CL   UNL d   1      -3.944   4.290   2.909  0.00  0.00    -0.082 Cl
ATOM     10  C   UNL d   1      -5.103   4.953   0.516  0.00  0.00     0.055 A 
ATOM     11  C   UNL d   1      -5.023   5.294  -0.831  0.00  0.00     0.028 A 
ATOM     12 CL   UNL d   1      -6.670   4.885   1.239  0.00  0.00    -0.083 Cl
ATOM     13  C   UNL d   1      -3.780   5.311  -1.471  0.00  0.00     0.031 A 
ENDBRANCH   4   6
ENDBRANCH   2   4
ENDBRANCH   1   2
BRANCH   1  14
ATOM     14  C   UNL d   1       0.707   2.511   0.014  0.00  0.00     0.140 C 
BRANCH  14  15
ATOM     15  C   UNL d   1       1.864   1.934  -0.799  0.00  0.00     0.165 C 
BRANCH  15  16
ATOM     16  S   UNL d   1       2.278   0.311  -0.207  0.00  0.00     0.177 S 
ATOM     17  O   UNL d   1       1.133  -0.557  -0.386  0.00  0.00    -0.223 OA
ATOM     18  O   UNL d   1       2.894   0.455   1.105  0.00  0.00    -0.223 OA
BRANCH  16  19
ATOM     19  C   UNL d   1       3.548  -0.250  -1.323  0.00  0.00     0.059 A 
ATOM     20  C   UNL d   1       4.893  -0.018  -1.014  0.00  0.00     0.025 A 
ATOM     21  C   UNL d   1       5.889  -0.484  -1.878  0.00  0.00     0.025 A 
ATOM     22  C   UNL d   1       5.538  -1.183  -3.033  0.00  0.00     0.034 A 
ATOM     23  C   UNL d   1       4.194  -1.430  -3.331  0.00  0.00     0.025 A 
ATOM     24 CL   UNL d   1       6.766  -1.752  -4.093  0.00  0.00    -0.084 Cl
ATOM     25  C   UNL d   1       3.195  -0.968  -2.470  0.00  0.00     0.025 A 
ENDBRANCH  16  19
ENDBRANCH  15  16
ENDBRANCH  14  15
ENDBRANCH   1  14
BRANCH   1  26
ATOM     26  C   UNL d   1       0.595   4.932   0.737  0.00  0.00     0.120 C 
ATOM     27  C   UNL d   1       2.058   5.338   0.768  0.00  0.00     0.026 C 
ENDBRANCH   1  26
TORSDOF 8
