REMARK  5 active torsions:
REMARK  status: ('A' for Active; 'I' for Inactive)
REMARK    1  A    between atoms: C_8  and  C_6 
REMARK    2  A    between atoms: C_11  and  C_7 
REMARK    3  A    between atoms: O_18  and  C_9 
REMARK    4  A    between atoms: C_17  and  C_10 
REMARK    5  A    between atoms: O_19  and  C_14 
ROOT
ATOM      1  C   UNL d   1       0.380  -0.734   0.087  0.00  0.00     0.111 A 
ATOM      2  N   UNL d   1       1.573  -0.060   0.099  0.00  0.00    -0.332 N 
ATOM      3  HN  UNL d   1       2.519  -0.441   0.113  1.00  0.00     0.168 HD
ATOM      4  C   UNL d   1      -0.754   0.234   0.086  0.00  0.00     0.316 A 
ATOM      5  O   UNL d   1      -0.120   1.439   0.081  0.00  0.00    -0.256 OA
ATOM      6  C   UNL d   1       1.204   1.176   0.086  0.00  0.00     0.152 A 
ATOM      7  C   UNL d   1       0.293  -2.068   0.062  0.00  0.00     0.047 C 
ATOM      8  O   UNL d   1      -1.954   0.049   0.095  0.00  0.00    -0.257 OA
ENDROOT
BRANCH   7   9
ATOM      9  C   UNL d   1      -0.950  -2.835   0.025  0.00  0.00    -0.031 A 
ATOM     10  C   UNL d   1      -1.580  -3.201   1.220  0.00  0.00     0.051 A 
ATOM     11  C   UNL d   1      -2.736  -3.998   1.215  0.00  0.00     0.102 A 
ATOM     12  C   UNL d   1      -3.284  -4.388  -0.020  0.00  0.00     0.101 A 
ATOM     13  C   UNL d   1      -2.651  -4.006  -1.212  0.00  0.00     0.040 A 
ATOM     14  C   UNL d   1      -1.491  -3.235  -1.194  0.00  0.00     0.014 A 
BRANCH  11  15
ATOM     15  O   UNL d   1      -3.329  -4.458   2.362  0.00  0.00    -0.353 OA
ATOM     16  C   UNL d   1      -2.744  -4.095   3.607  0.00  0.00     0.210 C 
ENDBRANCH  11  15
BRANCH  12  17
ATOM     17  O   UNL d   1      -4.378  -5.189  -0.233  0.00  0.00    -0.353 OA
ATOM     18  C   UNL d   1      -5.427  -5.119   0.723  0.00  0.00     0.210 C 
ENDBRANCH  12  17
ENDBRANCH   7   9
BRANCH   6  19
ATOM     19  C   UNL d   1       2.091   2.339   0.056  0.00  0.00     0.057 C 
ATOM     20  C   UNL d   1       1.646   3.605   0.030  0.00  0.00     0.015 C 
BRANCH  20  21
ATOM     21  C   UNL d   1       2.534   4.774  -0.061  0.00  0.00    -0.036 A 
ATOM     22  C   UNL d   1       3.763   4.726  -0.735  0.00  0.00     0.011 A 
ATOM     23  C   UNL d   1       4.565   5.864  -0.839  0.00  0.00     0.001 A 
ATOM     24  C   UNL d   1       4.140   7.068  -0.285  0.00  0.00     0.000 A 
ATOM     25  C   UNL d   1       2.913   7.136   0.371  0.00  0.00     0.001 A 
ATOM     26  C   UNL d   1       2.112   5.995   0.480  0.00  0.00     0.011 A 
ENDBRANCH  20  21
ENDBRANCH   6  19
TORSDOF 5
