REMARK  7 active torsions:
REMARK  status: ('A' for Active; 'I' for Inactive)
REMARK    1  A    between atoms: C_3  and  C_1 
REMARK    2  A    between atoms: N_5  and  C_2 
REMARK       I    between atoms: C_4  and  N_6 
REMARK    3  A    between atoms: C_7  and  C_4 
REMARK    4  A    between atoms: C_14  and  C_16 
REMARK    5  A    between atoms: O_24  and  C_28 
REMARK    6  A    between atoms: C_25  and  O_24 
REMARK    7  A    between atoms: C_28  and  C_26 
ROOT
ATOM      1  C   UNL d   1      -3.756   5.844   0.856  0.00  0.00     0.253 C 
ATOM      2  N   UNL d   1      -4.060   2.841  -2.088  0.00  0.00    -0.363 N 
ATOM      3  N   UNL d   1      -3.998   4.945  -0.181  0.00  0.00    -0.345 N 
ATOM      4  C   UNL d   1      -4.857   2.679  -0.867  0.00  0.00     0.144 C 
ATOM      5  C   UNL d   1      -2.767   3.494  -1.798  0.00  0.00     0.144 C 
ATOM      6  C   UNL d   1      -3.058   4.928  -1.313  0.00  0.00     0.146 C 
ATOM      7  C   UNL d   1      -5.194   4.087  -0.344  0.00  0.00     0.146 C 
ATOM      8  O   UNL d   1      -2.715   6.483   0.961  0.00  0.00    -0.267 OA
ENDROOT
BRANCH   1   9
ATOM      9  C   UNL d   1      -4.777   6.012   1.918  0.00  0.00     0.032 A 
ATOM     10  C   UNL d   1      -4.349   6.007   3.257  0.00  0.00     0.026 A 
ATOM     11  C   UNL d   1      -5.292   6.073   4.290  0.00  0.00    -0.033 A 
ATOM     12  C   UNL d   1      -6.656   6.145   3.970  0.00  0.00     0.009 A 
ATOM     13  C   UNL d   1      -7.076   6.205   2.643  0.00  0.00     0.002 A 
ATOM     14  C   UNL d   1      -6.129   6.180   1.622  0.00  0.00     0.017 A 
BRANCH  11  15
ATOM     15  C   UNL d   1      -4.854   6.121   5.730  0.00  0.00     0.214 C 
BRANCH  15  16
ATOM     16  O   UNL d   1      -4.702   7.495   6.082  0.00  0.00    -0.347 OA
BRANCH  16  17
ATOM     17  C   UNL d   1      -4.276   7.747   7.355  0.00  0.00     0.069 A 
ATOM     18  C   UNL d   1      -3.572   8.941   7.521  0.00  0.00     0.037 A 
ATOM     19  C   UNL d   1      -3.105   9.316   8.782  0.00  0.00     0.018 A 
ATOM     20  C   UNL d   1      -3.364   8.511   9.896  0.00  0.00     0.009 A 
ATOM     21  C   UNL d   1      -4.075   7.318   9.733  0.00  0.00     0.018 A 
ATOM     22  C   UNL d   1      -4.531   6.941   8.464  0.00  0.00     0.037 A 
BRANCH  20  23
ATOM     23  C   UNL d   1      -2.854   8.962  11.220  0.00  0.00     0.155 C 
ATOM     24  O   UNL d   1      -1.854   9.678  11.267  0.00  0.00    -0.293 OA
ATOM     25  C   UNL d   1      -3.586   8.577  12.480  0.00  0.00     0.096 C 
ENDBRANCH  20  23
ENDBRANCH  16  17
ENDBRANCH  15  16
ENDBRANCH  11  15
ENDBRANCH   1   9
BRANCH   2  26
ATOM     26  C   UNL d   1      -4.033   1.769  -2.963  0.00  0.00     0.118 A 
ATOM     27  C   UNL d   1      -3.848   1.968  -4.332  0.00  0.00     0.091 A 
ATOM     28  C   UNL d   1      -3.858   0.844  -5.178  0.00  0.00     0.021 A 
ATOM     29  C   UNL d   1      -4.079  -0.422  -4.658  0.00  0.00     0.018 A 
ATOM     30  C   UNL d   1      -4.286  -0.523  -3.300  0.00  0.00     0.089 A 
ATOM     31  N   UNL d   1      -4.269   0.534  -2.459  0.00  0.00    -0.352 N 
ATOM     32  HN  UNL d   1      -4.430   0.405  -1.460  1.00  0.00     0.166 HD
BRANCH  27  33
ATOM     33  C   UNL d   1      -3.693   3.315  -4.979  0.00  0.00     0.421 C 
ATOM     34  F   UNL d   1      -3.811   4.413  -4.185  0.00  0.00    -0.166 F 
ATOM     35  F   UNL d   1      -2.473   3.443  -5.581  0.00  0.00    -0.166 F 
ATOM     36  F   UNL d   1      -4.605   3.510  -5.978  0.00  0.00    -0.166 F 
ENDBRANCH  27  33
ENDBRANCH   2  26
TORSDOF 7
