REMARK  3 active torsions:
REMARK  status: ('A' for Active; 'I' for Inactive)
REMARK    1  A    between atoms: C_8  and  C_3 
REMARK    2  A    between atoms: C_11  and  C_7 
REMARK    3  A    between atoms: O_19  and  C_13 
ROOT
ATOM      1  N   UNL d   1       1.573  -0.061   0.055  0.00  0.00    -0.331 N 
ATOM      2  HN  UNL d   1       2.521  -0.438   0.055  1.00  0.00     0.168 HD
ATOM      3  C   UNL d   1       1.195   1.176   0.039  0.00  0.00     0.162 A 
ATOM      4  C   UNL d   1       0.380  -0.742   0.071  0.00  0.00     0.111 A 
ATOM      5  O   UNL d   1      -0.132   1.430   0.049  0.00  0.00    -0.256 OA
ATOM      6  C   UNL d   1      -0.760   0.221   0.074  0.00  0.00     0.316 A 
ATOM      7  C   UNL d   1       0.296  -2.079   0.066  0.00  0.00     0.047 C 
ATOM      8  O   UNL d   1      -1.958   0.034   0.098  0.00  0.00    -0.257 OA
ENDROOT
BRANCH   7   9
ATOM      9  C   UNL d   1      -0.939  -2.858   0.017  0.00  0.00    -0.034 A 
ATOM     10  C   UNL d   1      -1.475  -3.223  -1.222  0.00  0.00     0.014 A 
ATOM     11  C   UNL d   1      -2.650  -3.976  -1.294  0.00  0.00     0.037 A 
ATOM     12  C   UNL d   1      -3.305  -4.369  -0.127  0.00  0.00     0.068 A 
ATOM     13  C   UNL d   1      -2.765  -4.010   1.112  0.00  0.00     0.037 A 
ATOM     14  C   UNL d   1      -1.588  -3.258   1.188  0.00  0.00     0.014 A 
BRANCH  12  15
ATOM     15  O   UNL d   1      -4.464  -5.093  -0.063  0.00  0.00    -0.356 OA
ATOM     16  C   UNL d   1      -5.062  -5.451  -1.303  0.00  0.00     0.210 C 
ENDBRANCH  12  15
ENDBRANCH   7   9
BRANCH   3  17
ATOM     17  C   UNL d   1       2.060   2.366   0.014  0.00  0.00     0.017 A 
ATOM     18  C   UNL d   1       1.518   3.655   0.067  0.00  0.00     0.039 A 
ATOM     19  C   UNL d   1       2.369   4.759   0.070  0.00  0.00     0.035 A 
ATOM     20 CL   UNL d   1       1.704   6.344   0.153  0.00  0.00    -0.084 Cl
ATOM     21  C   UNL d   1       3.752   4.593   0.013  0.00  0.00     0.024 A 
ATOM     22  C   UNL d   1       4.293   3.308  -0.052  0.00  0.00     0.003 A 
ATOM     23  C   UNL d   1       3.450   2.196  -0.051  0.00  0.00     0.016 A 
ENDBRANCH   3  17
TORSDOF 3
