REMARK  6 active torsions:
REMARK  status: ('A' for Active; 'I' for Inactive)
REMARK    1  A    between atoms: C_8  and  C_1 
REMARK    2  A    between atoms: C_2  and  C_9 
REMARK    3  A    between atoms: N_3  and  C_7 
REMARK    4  A    between atoms: O_26  and  C_6 
REMARK    5  A    between atoms: O_15  and  C_11 
REMARK    6  A    between atoms: C_24  and  O_15 
ROOT
ATOM      1  N   UNL d   1      -1.014  10.700  -0.745  0.00  0.00    -0.191 NA
ATOM      2  C   UNL d   1      -0.894   9.706  -0.163  0.00  0.00     0.099 C 
ATOM      3  C   UNL d   1      -0.737   8.469   0.543  0.00  0.00     0.044 A 
ATOM      4  C   UNL d   1      -0.352   6.025   1.868  0.00  0.00     0.076 A 
ATOM      5  C   UNL d   1      -1.085   7.262  -0.082  0.00  0.00     0.025 A 
ATOM      6  C   UNL d   1      -0.239   8.450   1.847  0.00  0.00     0.025 A 
ATOM      7  C   UNL d   1      -0.919   6.048   0.590  0.00  0.00     0.039 A 
ATOM      8  C   UNL d   1      -0.048   7.230   2.507  0.00  0.00     0.039 A 
ENDROOT
BRANCH   4   9
ATOM      9  O   UNL d   1      -0.083   4.877   2.582  0.00  0.00    -0.309 OA
BRANCH   9  10
ATOM     10  C   UNL d   1       0.221   3.704   1.914  0.00  0.00     0.102 A 
ATOM     11  C   UNL d   1      -0.379   2.554   2.444  0.00  0.00     0.040 A 
ATOM     12  C   UNL d   1      -0.134   1.303   1.876  0.00  0.00     0.019 A 
ATOM     13  C   UNL d   1       0.718   1.185   0.771  0.00  0.00     0.050 A 
ATOM     14  C   UNL d   1       1.351   2.336   0.276  0.00  0.00     0.048 A 
ATOM     15  C   UNL d   1       1.133   3.601   0.842  0.00  0.00     0.067 A 
BRANCH  13  16
ATOM     16  C   UNL d   1       0.986  -0.162   0.145  0.00  0.00     0.417 C 
ATOM     17  F   UNL d   1       1.774  -0.096  -0.965  0.00  0.00    -0.166 F 
ATOM     18  F   UNL d   1      -0.155  -0.792  -0.248  0.00  0.00    -0.166 F 
ATOM     19  F   UNL d   1       1.615  -1.017   0.998  0.00  0.00    -0.166 F 
ENDBRANCH  13  16
BRANCH  15  20
ATOM     20  N   UNL d   1       1.849   4.734   0.418  0.00  0.00    -0.363 N 
ATOM     21  C   UNL d   1       2.127   4.921  -0.831  0.00  0.00     0.102 C 
ATOM     22  HN  UNL d   1       2.155   5.421   1.108  1.00  0.00     0.165 HD
BRANCH  21  23
ATOM     23  C   UNL d   1       2.781   6.169  -1.268  0.00  0.00     0.016 A 
ATOM     24  C   UNL d   1       3.216   6.319  -2.586  0.00  0.00     0.099 A 
ATOM     25  C   UNL d   1       3.782   7.534  -2.990  0.00  0.00     0.069 A 
ATOM     26 CL   UNL d   1       4.331   7.738  -4.613  0.00  0.00    -0.081 Cl
ATOM     27  C   UNL d   1       3.901   8.595  -2.092  0.00  0.00     0.050 A 
ATOM     28  C   UNL d   1       3.462   8.434  -0.780  0.00  0.00     0.036 A 
ATOM     29  C   UNL d   1       2.913   7.226  -0.361  0.00  0.00     0.039 A 
ATOM     30 CL   UNL d   1       3.581   9.743   0.330  0.00  0.00    -0.084 Cl
BRANCH  24  31
ATOM     31  O   UNL d   1       3.085   5.277  -3.467  0.00  0.00    -0.358 OA
ATOM     32  H   UNL d   1       3.458   5.563  -4.324  0.00  0.00     0.217 HD
ENDBRANCH  24  31
ENDBRANCH  21  23
ENDBRANCH  15  20
ENDBRANCH   9  10
ENDBRANCH   4   9
TORSDOF 6
