REMARK  8 active torsions:
REMARK  status: ('A' for Active; 'I' for Inactive)
REMARK    1  A    between atoms: C_2  and  S_1 
REMARK    2  A    between atoms: N_7  and  S_1 
REMARK    3  A    between atoms: C_9  and  C_3 
REMARK    4  A    between atoms: C_10  and  N_7 
REMARK    5  A    between atoms: C_8  and  C_13 
REMARK    6  A    between atoms: O_19  and  C_9 
REMARK    7  A    between atoms: C_13  and  S_14 
REMARK    8  A    between atoms: S_14  and  C_15 
ROOT
ATOM      1  C   UNL d   1       0.835  -0.624  -2.493  0.00  0.00     0.039 A 
ATOM      2  C   UNL d   1       2.214  -0.470  -2.743  0.00  0.00     0.022 A 
ATOM      3  C   UNL d   1      -0.082  -0.547  -3.555  0.00  0.00     0.026 A 
ATOM      4  C   UNL d   1       2.617  -0.197  -4.065  0.00  0.00     0.020 A 
ATOM      5  C   UNL d   1       0.341  -0.278  -4.854  0.00  0.00     0.002 A 
ATOM      6  C   UNL d   1       1.692  -0.094  -5.108  0.00  0.00     0.001 A 
ENDROOT
BRANCH   1   7
ATOM      7  N   UNL d   1       0.276  -0.764  -1.179  0.00  0.00    -0.180 NA
ATOM      8  H   UNL d   1      -0.591  -1.316  -1.135  0.00  0.00     0.146 HD
BRANCH   7   9
ATOM      9  S   UNL d   1       0.008   0.661  -0.293  0.00  0.00     0.249 S 
ATOM     10  O   UNL d   1      -0.659   0.271   0.933  0.00  0.00    -0.205 OA
ATOM     11  O   UNL d   1       1.209   1.457  -0.267  0.00  0.00    -0.205 OA
BRANCH   9  12
ATOM     12  C   UNL d   1      -1.182   1.672  -1.045  0.00  0.00     0.122 A 
ATOM     13  C   UNL d   1      -2.530   1.294  -1.391  0.00  0.00     0.094 A 
ATOM     14  C   UNL d   1      -3.158   2.479  -1.753  0.00  0.00     0.067 A 
ATOM     15  C   UNL d   1      -4.532   2.901  -2.120  0.00  0.00     0.078 C 
ATOM     16  O   UNL d   1      -2.267   3.507  -1.731  0.00  0.00    -0.318 OA
ATOM     17  C   UNL d   1      -1.070   3.025  -1.301  0.00  0.00     0.073 A 
ATOM     18  C   UNL d   1      -0.016   4.054  -1.167  0.00  0.00     0.078 C 
BRANCH  13  19
ATOM     19  C   UNL d   1      -3.103  -0.042  -1.359  0.00  0.00     0.297 C 
ATOM     20  O   UNL d   1      -2.428  -1.045  -1.149  0.00  0.00    -0.259 OA
BRANCH  19  21
ATOM     21  O   UNL d   1      -4.422  -0.078  -1.695  0.00  0.00    -0.322 OA
ATOM     22  C   UNL d   1      -4.975  -1.389  -1.832  0.00  0.00     0.213 C 
ENDBRANCH  19  21
ENDBRANCH  13  19
ENDBRANCH   9  12
ENDBRANCH   7   9
ENDBRANCH   1   7
BRANCH   2  23
ATOM     23  S   UNL d   1       3.561  -0.523  -1.552  0.00  0.00    -0.123 SA
BRANCH  23  24
ATOM     24  C   UNL d   1       3.199  -2.006  -0.547  0.00  0.00     0.123 C 
BRANCH  24  25
ATOM     25  C   UNL d   1       4.281  -2.252   0.484  0.00  0.00     0.012 A 
ATOM     26  C   UNL d   1       4.233  -1.539   1.691  0.00  0.00     0.125 A 
ATOM     27  F   UNL d   1       3.239  -0.666   1.909  0.00  0.00    -0.205 F 
ATOM     28  C   UNL d   1       5.184  -1.712   2.698  0.00  0.00     0.043 A 
ATOM     29  C   UNL d   1       6.220  -2.620   2.520  0.00  0.00     0.005 A 
ATOM     30  C   UNL d   1       6.302  -3.336   1.327  0.00  0.00     0.024 A 
ATOM     31  C   UNL d   1       5.347  -3.148   0.313  0.00  0.00     0.044 A 
ATOM     32 CL   UNL d   1       5.544  -4.072  -1.133  0.00  0.00    -0.084 Cl
ENDBRANCH  24  25
ENDBRANCH  23  24
ENDBRANCH   2  23
TORSDOF 8
