REMARK  7 active torsions:
REMARK  status: ('A' for Active; 'I' for Inactive)
REMARK    1  A    between atoms: C_10  and  N_1 
REMARK    2  A    between atoms: C_2  and  C_6 
REMARK    3  A    between atoms: C_3  and  C_13 
REMARK       I    between atoms: N_4  and  C_3 
REMARK    4  A    between atoms: C_5  and  N_4 
REMARK    5  A    between atoms: O_8  and  C_7 
REMARK    6  A    between atoms: C_11  and  O_8 
REMARK    7  A    between atoms: O_26  and  C_18 
ROOT
ATOM      1  C   UNL d   1      -3.578  -3.892   0.705  0.00  0.00     0.070 A 
ATOM      2  C   UNL d   1      -5.565  -3.335  -0.614  0.00  0.00     0.050 A 
ATOM      3  C   UNL d   1      -2.776  -3.817  -0.448  0.00  0.00     0.103 A 
ATOM      4  C   UNL d   1      -4.965  -3.686   0.606  0.00  0.00     0.048 A 
ATOM      5  C   UNL d   1      -4.760  -3.237  -1.751  0.00  0.00     0.019 A 
ATOM      6  C   UNL d   1      -3.392  -3.518  -1.677  0.00  0.00     0.040 A 
ENDROOT
BRANCH   1   7
ATOM      7  N   UNL d   1      -3.095  -4.214   1.994  0.00  0.00    -0.320 N 
ATOM      8  C   UNL d   1      -2.183  -3.431   2.679  0.00  0.00     0.256 C 
ATOM      9  O   UNL d   1      -1.618  -2.444   2.225  0.00  0.00    -0.267 OA
ATOM     10  H   UNL d   1      -3.745  -4.745   2.559  0.00  0.00     0.169 HD
BRANCH   8  11
ATOM     11  C   UNL d   1      -1.925  -3.838   4.104  0.00  0.00     0.032 A 
ATOM     12  C   UNL d   1      -0.679  -3.518   4.662  0.00  0.00     0.019 A 
ATOM     13  C   UNL d   1      -0.302  -4.023   5.906  0.00  0.00     0.037 A 
ATOM     14  C   UNL d   1      -1.187  -4.842   6.622  0.00  0.00     0.102 A 
ATOM     15  C   UNL d   1      -2.474  -5.087   6.126  0.00  0.00     0.037 A 
ATOM     16  C   UNL d   1      -2.845  -4.574   4.878  0.00  0.00     0.019 A 
BRANCH  14  17
ATOM     17  N   UNL d   1      -0.750  -5.487   7.865  0.00  0.00    -0.116 N 
ATOM     18  O   UNL d   1      -1.557  -6.236   8.436  0.00  0.00    -0.532 OA
ATOM     19  O   UNL d   1       0.402  -5.266   8.258  0.00  0.00    -0.532 OA
ENDBRANCH  14  17
ENDBRANCH   8  11
ENDBRANCH   1   7
BRANCH   3  20
ATOM     20  O   UNL d   1      -1.431  -4.168  -0.394  0.00  0.00    -0.306 OA
BRANCH  20  21
ATOM     21  C   UNL d   1      -0.562  -3.494  -1.237  0.00  0.00     0.109 A 
ATOM     22  C   UNL d   1       0.471  -4.157  -1.917  0.00  0.00     0.102 A 
ATOM     23  C   UNL d   1       1.334  -3.418  -2.745  0.00  0.00     0.039 A 
ATOM     24  C   UNL d   1       1.166  -2.045  -2.921  0.00  0.00     0.003 A 
ATOM     25  C   UNL d   1       0.160  -1.382  -2.230  0.00  0.00     0.003 A 
ATOM     26  C   UNL d   1      -0.675  -2.097  -1.372  0.00  0.00     0.040 A 
BRANCH  22  27
ATOM     27  O   UNL d   1       0.827  -5.475  -1.829  0.00  0.00    -0.353 OA
ATOM     28  C   UNL d   1      -0.219  -6.433  -1.837  0.00  0.00     0.210 C 
ENDBRANCH  22  27
ENDBRANCH  20  21
ENDBRANCH   3  20
BRANCH   2  29
ATOM     29  C   UNL d   1      -7.047  -3.071  -0.713  0.00  0.00     0.417 C 
ATOM     30  F   UNL d   1      -7.718  -3.307   0.449  0.00  0.00    -0.166 F 
ATOM     31  F   UNL d   1      -7.329  -1.784  -1.055  0.00  0.00    -0.166 F 
ATOM     32  F   UNL d   1      -7.646  -3.851  -1.654  0.00  0.00    -0.166 F 
ENDBRANCH   2  29
TORSDOF 7
