REMARK  6 active torsions:
REMARK  status: ('A' for Active; 'I' for Inactive)
REMARK    1  A    between atoms: C_11  and  C_1 
REMARK    2  A    between atoms: N_8  and  C_2 
REMARK    3  A    between atoms: C_12  and  C_4 
REMARK       I    between atoms: C_6  and  N_7 
REMARK    4  A    between atoms: C_13  and  C_6 
REMARK       I    between atoms: C_9  and  N_8 
REMARK    5  A    between atoms: C_17  and  C_9 
REMARK    6  A    between atoms: N_10  and  C_17 
ROOT
ATOM      1  N   UNL d   1       1.179   5.782   0.486  0.00  0.00    -0.324 N 
ATOM      2  C   UNL d   1       2.066   4.952  -0.160  0.00  0.00     0.250 C 
ATOM      3  O   UNL d   1       2.975   5.301  -0.902  0.00  0.00    -0.271 OA
ATOM      4  H   UNL d   1       0.584   5.285   1.142  0.00  0.00     0.169 HD
ENDROOT
BRANCH   2   5
ATOM      5  C   UNL d   1       1.884   3.448   0.192  0.00  0.00     0.375 C 
BRANCH   5   6
ATOM      6  N   UNL d   1       0.653   2.852  -0.370  0.00  0.00     0.100 N 
ATOM      7  C   UNL d   1       0.494   3.030  -1.821  0.00  0.00     0.293 C 
ATOM      8  C   UNL d   1       0.422   1.774  -2.701  0.00  0.00     0.156 C 
ATOM      9  N   UNL d   1      -0.495   0.798  -2.129  0.00  0.00    -0.345 N 
ATOM     10  C   UNL d   1      -1.329  -0.032  -2.898  0.00  0.00     0.253 C 
ATOM     11  C   UNL d   1      -0.068   0.337  -0.821  0.00  0.00     0.156 C 
ATOM     12  O   UNL d   1      -1.647  -1.163  -2.534  0.00  0.00    -0.267 OA
ATOM     13  C   UNL d   1       0.400   1.477   0.135  0.00  0.00     0.293 C 
BRANCH  10  14
ATOM     14  C   UNL d   1      -1.888   0.491  -4.178  0.00  0.00     0.032 A 
ATOM     15  C   UNL d   1      -2.020  -0.362  -5.273  0.00  0.00     0.017 A 
ATOM     16  C   UNL d   1      -2.547   0.120  -6.482  0.00  0.00     0.007 A 
ATOM     17  C   UNL d   1      -2.958   1.454  -6.598  0.00  0.00    -0.062 A 
ATOM     18  C   UNL d   1      -2.858   2.293  -5.483  0.00  0.00     0.007 A 
ATOM     19  C   UNL d   1      -3.487   1.976  -7.903  0.00  0.00     0.048 C 
ATOM     20  C   UNL d   1      -2.346   1.811  -4.274  0.00  0.00     0.017 A 
ENDBRANCH  10  14
ENDBRANCH   5   6
ENDBRANCH   2   5
BRANCH   1  21
ATOM     21  C   UNL d   1       0.986   7.175   0.492  0.00  0.00     0.057 A 
ATOM     22  C   UNL d   1       1.434   8.262  -0.270  0.00  0.00     0.077 A 
ATOM     23  S   UNL d   1       0.718   9.743   0.340  0.00  0.00    -0.084 SA
ATOM     24  C   UNL d   1      -0.203   8.991   1.542  0.00  0.00     0.018 A 
ATOM     25  C   UNL d   1       0.083   7.644   1.541  0.00  0.00     0.051 A 
BRANCH  22  26
ATOM     26  C   UNL d   1       2.279   8.555  -1.444  0.00  0.00     0.164 C 
ATOM     27  O   UNL d   1       2.613   9.716  -1.740  0.00  0.00    -0.292 OA
ATOM     28  C   UNL d   1       2.768   7.507  -2.384  0.00  0.00     0.097 C 
ENDBRANCH  22  26
BRANCH  24  29
ATOM     29  C   UNL d   1      -1.173   9.756   2.359  0.00  0.00    -0.019 A 
ATOM     30  C   UNL d   1      -2.265   9.097   2.950  0.00  0.00     0.016 A 
ATOM     31  C   UNL d   1      -3.249   9.803   3.648  0.00  0.00     0.043 A 
ATOM     32  C   UNL d   1      -3.152  11.184   3.770  0.00  0.00     0.116 A 
ATOM     33  C   UNL d   1      -2.071  11.861   3.231  0.00  0.00     0.043 A 
ATOM     34  F   UNL d   1      -4.112  11.861   4.407  0.00  0.00    -0.206 F 
ATOM     35  C   UNL d   1      -1.085  11.154   2.532  0.00  0.00     0.016 A 
ENDBRANCH  24  29
ENDBRANCH   1  21
TORSDOF 6
