REMARK  8 active torsions:
REMARK  status: ('A' for Active; 'I' for Inactive)
REMARK       I    between atoms: N_5  and  C_1 
REMARK    1  A    between atoms: C_11  and  C_1 
REMARK    2  A    between atoms: C_2  and  C_12 
REMARK       I    between atoms: N_6  and  C_2 
REMARK    3  A    between atoms: C_12  and  N_3 
REMARK    4  A    between atoms: N_4  and  C_11 
REMARK    5  A    between atoms: C_22  and  N_5 
REMARK    6  A    between atoms: C_21  and  N_6 
REMARK    7  A    between atoms: C_7  and  C_10 
REMARK    8  A    between atoms: C_8  and  C_9 
ROOT
ATOM      1  N   UNL d   1      -2.243   3.030  -2.076  0.00  0.00     0.100 N 
ATOM      2  N   UNL d   1      -1.347   1.006   0.046  0.00  0.00     0.100 N 
ATOM      3  C   UNL d   1      -1.907   3.401  -0.680  0.00  0.00     0.303 C 
ATOM      4  C   UNL d   1      -2.001   2.291   0.405  0.00  0.00     0.303 C 
ATOM      5  C   UNL d   1      -1.748   1.662  -2.388  0.00  0.00     0.303 C 
ATOM      6  C   UNL d   1      -1.906   0.608  -1.264  0.00  0.00     0.303 C 
ENDROOT
BRANCH   1   7
ATOM      7  C   UNL d   1      -3.697   3.094  -2.360  0.00  0.00     0.375 C 
BRANCH   7   8
ATOM      8  C   UNL d   1      -4.309   4.489  -2.179  0.00  0.00     0.250 C 
ATOM      9  N   UNL d   1      -3.484   5.543  -2.535  0.00  0.00    -0.326 N 
ATOM     10  H   UNL d   1      -2.532   5.279  -2.778  0.00  0.00     0.169 HD
ATOM     11  O   UNL d   1      -5.460   4.579  -1.759  0.00  0.00    -0.271 OA
BRANCH   9  12
ATOM     12  C   UNL d   1      -3.772   6.920  -2.365  0.00  0.00     0.034 A 
ATOM     13  C   UNL d   1      -5.043   7.396  -2.035  0.00  0.00     0.030 A 
ATOM     14  C   UNL d   1      -5.254   8.746  -1.737  0.00  0.00     0.017 A 
ATOM     15  C   UNL d   1      -4.188   9.643  -1.764  0.00  0.00     0.009 A 
ATOM     16  C   UNL d   1      -2.929   9.201  -2.182  0.00  0.00     0.017 A 
ATOM     17  C   UNL d   1      -2.726   7.845  -2.490  0.00  0.00     0.030 A 
BRANCH  15  18
ATOM     18  C   UNL d   1      -4.439  11.034  -1.308  0.00  0.00     0.155 C 
ATOM     19  O   UNL d   1      -5.532  11.555  -1.515  0.00  0.00    -0.293 OA
ATOM     20  C   UNL d   1      -3.361  11.752  -0.538  0.00  0.00     0.096 C 
ENDBRANCH  15  18
ENDBRANCH   9  12
ENDBRANCH   7   8
ENDBRANCH   1   7
BRANCH   2  21
ATOM     21  C   UNL d   1       0.126   1.216   0.013  0.00  0.00     0.375 C 
BRANCH  21  22
ATOM     22  C   UNL d   1       0.937  -0.009  -0.409  0.00  0.00     0.250 C 
ATOM     23  N   UNL d   1       0.470  -1.211   0.095  0.00  0.00    -0.326 N 
ATOM     24  H   UNL d   1      -0.455  -1.166   0.515  0.00  0.00     0.169 HD
ATOM     25  O   UNL d   1       1.935   0.140  -1.112  0.00  0.00    -0.271 OA
BRANCH  23  26
ATOM     26  C   UNL d   1       1.074  -2.470  -0.068  0.00  0.00     0.034 A 
ATOM     27  C   UNL d   1       2.390  -2.635  -0.519  0.00  0.00     0.030 A 
ATOM     28  C   UNL d   1       2.953  -3.906  -0.667  0.00  0.00     0.017 A 
ATOM     29  C   UNL d   1       2.204  -5.041  -0.357  0.00  0.00     0.009 A 
ATOM     30  C   UNL d   1       0.885  -4.890   0.085  0.00  0.00     0.017 A 
ATOM     31  C   UNL d   1       0.329  -3.614   0.244  0.00  0.00     0.030 A 
BRANCH  29  32
ATOM     32  C   UNL d   1       2.770  -6.412  -0.491  0.00  0.00     0.155 C 
ATOM     33  O   UNL d   1       2.013  -7.364  -0.672  0.00  0.00    -0.293 OA
ATOM     34  C   UNL d   1       4.263  -6.608  -0.389  0.00  0.00     0.096 C 
ENDBRANCH  29  32
ENDBRANCH  23  26
ENDBRANCH  21  22
ENDBRANCH   2  21
TORSDOF 8
