REMARK  4 active torsions:
REMARK  status: ('A' for Active; 'I' for Inactive)
REMARK    1  A    between atoms: C_8  and  C_1 
REMARK    2  A    between atoms: N_6  and  C_2 
REMARK    3  A    between atoms: C_9  and  C_4 
REMARK       I    between atoms: C_7  and  N_6 
REMARK    4  A    between atoms: C_10  and  C_7 
ROOT
ATOM      1  C   UNL d   1      -0.022   1.105  -0.076  0.00  0.00     0.077 A 
ATOM      2  C   UNL d   1       1.280   0.662  -0.252  0.00  0.00     0.057 A 
ATOM      3  S   UNL d   1      -1.108  -0.221   0.132  0.00  0.00    -0.084 SA
ATOM      4  C   UNL d   1       0.109  -1.389  -0.129  0.00  0.00     0.018 A 
ATOM      5  C   UNL d   1       1.325  -0.771  -0.333  0.00  0.00     0.051 A 
ENDROOT
BRANCH   2   6
ATOM      6  N   UNL d   1       2.475   1.371  -0.355  0.00  0.00    -0.323 N 
ATOM      7  C   UNL d   1       2.742   2.645   0.122  0.00  0.00     0.255 C 
ATOM      8  O   UNL d   1       1.911   3.381   0.649  0.00  0.00    -0.270 OA
ATOM      9  H   UNL d   1       3.294   0.810  -0.578  0.00  0.00     0.169 HD
BRANCH   7  10
ATOM     10  C   UNL d   1       4.187   3.111  -0.085  0.00  0.00     0.270 C 
ATOM     11 CL   UNL d   1       5.325   1.751   0.113  0.00  0.00    -0.098 Cl
ATOM     12 CL   UNL d   1       4.329   3.793  -1.717  0.00  0.00    -0.098 Cl
ENDBRANCH   7  10
ENDBRANCH   2   6
BRANCH   1  13
ATOM     13  C   UNL d   1      -0.640   2.426  -0.079  0.00  0.00     0.164 C 
ATOM     14  O   UNL d   1      -1.529   2.758   0.711  0.00  0.00    -0.292 OA
ATOM     15  C   UNL d   1      -0.289   3.362  -1.214  0.00  0.00     0.097 C 
ENDBRANCH   1  13
BRANCH   4  16
ATOM     16  C   UNL d   1      -0.185  -2.829  -0.083  0.00  0.00    -0.019 A 
ATOM     17  C   UNL d   1      -1.349  -3.366  -0.655  0.00  0.00     0.014 A 
ATOM     18  C   UNL d   1      -1.592  -4.745  -0.626  0.00  0.00     0.024 A 
ATOM     19  C   UNL d   1      -0.670  -5.599  -0.028  0.00  0.00     0.034 A 
ATOM     20  C   UNL d   1       0.489  -5.090   0.546  0.00  0.00     0.024 A 
ATOM     21 CL   UNL d   1      -0.962  -7.294  -0.003  0.00  0.00    -0.084 Cl
ATOM     22  C   UNL d   1       0.729  -3.711   0.518  0.00  0.00     0.014 A 
ENDBRANCH   4  16
TORSDOF 4
