REMARK  2 active torsions:
REMARK  status: ('A' for Active; 'I' for Inactive)
REMARK    1  A    between atoms: C_15  and  N_9 
REMARK    2  A    between atoms: C_16  and  C_15 
ROOT
ATOM      1  C   UNL d   1       0.046  -0.730   0.072  0.00  0.00     0.101 A 
ATOM      2  C   UNL d   1       0.030   0.615   0.090  0.00  0.00     0.077 A 
ATOM      3  N   UNL d   1       1.254  -1.391  -0.042  0.00  0.00    -0.293 N 
ATOM      4  N   UNL d   1       2.450   0.646  -0.004  0.00  0.00    -0.270 N 
ATOM      5  C   UNL d   1       2.486  -0.735  -0.083  0.00  0.00     0.332 A 
ATOM      6  C   UNL d   1       1.288   1.381   0.068  0.00  0.00     0.262 A 
ATOM      7  N   UNL d   1      -1.170  -1.401   0.166  0.00  0.00    -0.252 NA
ATOM      8  C   UNL d   1      -1.241   1.419   0.095  0.00  0.00     0.321 C 
ATOM      9  N   UNL d   1      -2.434   0.660  -0.333  0.00  0.00     0.105 N 
ATOM     10  C   UNL d   1      -2.398  -0.637   0.333  0.00  0.00     0.368 C 
ATOM     11  O   UNL d   1       3.549  -1.358  -0.176  0.00  0.00    -0.246 OA
ATOM     12  O   UNL d   1       1.261   2.610   0.125  0.00  0.00    -0.267 OA
ATOM     13  C   UNL d   1       1.322  -2.845  -0.076  0.00  0.00     0.162 C 
ATOM     14  C   UNL d   1       3.694   1.391   0.006  0.00  0.00     0.164 C 
ATOM     15  H   UNL d   1      -1.257  -2.092  -0.573  0.00  0.00     0.130 HD
ENDROOT
BRANCH   9  16
ATOM     16  C   UNL d   1      -3.684   1.379  -0.056  0.00  0.00     0.274 C 
BRANCH  16  17
ATOM     17  C   UNL d   1      -3.791   2.692  -0.845  0.00  0.00     0.026 C 
ATOM     18  C   UNL d   1      -5.108   3.405  -0.581  0.00  0.00     0.007 C 
ENDBRANCH  16  17
ENDBRANCH   9  16
TORSDOF 2
