REMARK  4 active torsions:
REMARK  status: ('A' for Active; 'I' for Inactive)
REMARK    1  A    between atoms: C_4  and  C_1 
REMARK    2  A    between atoms: C_13  and  C_3 
REMARK       I    between atoms: N_10  and  C_4 
REMARK    3  A    between atoms: C_7  and  C_8 
REMARK    4  A    between atoms: C_15  and  N_10 
ROOT
ATOM      1  C   UNL d   1      -7.851  -2.017  -0.569  0.00  0.00     0.068 A 
ATOM      2  C   UNL d   1      -6.864  -2.881  -0.071  0.00  0.00     0.061 A 
ATOM      3  N   UNL d   1      -7.252  -5.430   0.319  0.00  0.00    -0.191 NA
ATOM      4  C   UNL d   1      -7.092  -4.295   0.136  0.00  0.00     0.100 C 
ATOM      5  C   UNL d   1      -7.553  -0.641  -0.659  0.00  0.00     0.020 A 
ATOM      6  C   UNL d   1      -5.260  -1.028   0.018  0.00  0.00     0.036 A 
ATOM      7  C   UNL d   1      -5.584  -2.374   0.223  0.00  0.00     0.053 A 
ATOM      8  C   UNL d   1      -6.276  -0.150  -0.360  0.00  0.00     0.030 A 
ENDROOT
BRANCH   1   9
ATOM      9  C   UNL d   1      -9.204  -2.482  -1.056  0.00  0.00     0.418 C 
ATOM     10  F   UNL d   1      -9.397  -3.824  -1.046  0.00  0.00    -0.166 F 
ATOM     11  F   UNL d   1     -10.224  -1.949  -0.330  0.00  0.00    -0.166 F 
ATOM     12  F   UNL d   1      -9.428  -2.093  -2.345  0.00  0.00    -0.166 F 
ENDBRANCH   1   9
BRANCH   6  13
ATOM     13  N   UNL d   1      -3.939  -0.516   0.131  0.00  0.00    -0.323 N 
ATOM     14  C   UNL d   1      -2.782  -1.274   0.097  0.00  0.00     0.258 C 
ATOM     15  O   UNL d   1      -2.774  -2.498  -0.037  0.00  0.00    -0.267 OA
ATOM     16  H   UNL d   1      -3.832   0.481   0.002  0.00  0.00     0.169 HD
BRANCH  14  17
ATOM     17  C   UNL d   1      -1.505  -0.563   0.156  0.00  0.00     0.064 A 
ATOM     18  C   UNL d   1      -0.238  -1.183  -0.130  0.00  0.00     0.053 A 
ATOM     19  C   UNL d   1       0.747  -0.239   0.051  0.00  0.00     0.062 A 
ATOM     20  O   UNL d   1       0.161   0.934   0.416  0.00  0.00    -0.318 OA
ATOM     21  C   UNL d   1      -1.185   0.740   0.508  0.00  0.00     0.065 A 
ATOM     22  C   UNL d   1      -1.896   1.942   0.981  0.00  0.00     0.077 C 
BRANCH  19  23
ATOM     23  C   UNL d   1       2.250  -0.225  -0.042  0.00  0.00    -0.002 C 
ATOM     24  C   UNL d   1       2.813  -1.624  -0.346  0.00  0.00     0.021 C 
ATOM     25  C   UNL d   1       2.687   0.737  -1.159  0.00  0.00     0.021 C 
ATOM     26  C   UNL d   1       2.839   0.255   1.299  0.00  0.00     0.021 C 
ENDBRANCH  19  23
ENDBRANCH  14  17
ENDBRANCH   6  13
TORSDOF 4
