REMARK  2 active torsions:
REMARK  status: ('A' for Active; 'I' for Inactive)
REMARK    1  A    between atoms: C_2  and  C_1 
REMARK    2  A    between atoms: C_12  and  N_3 
ROOT
ATOM      1  C   UNL d   1      -0.271  -1.333  -0.174  0.00  0.00     0.154 A 
ATOM      2  N   UNL d   1      -1.027  -0.497   0.649  0.00  0.00    -0.224 N 
ATOM      3  N   UNL d   1      -0.603   0.777   0.414  0.00  0.00     0.001 NA
ATOM      4  N   UNL d   1       0.302   0.706  -0.546  0.00  0.00    -0.007 NA
ATOM      5  N   UNL d   1       0.507  -0.584  -0.931  0.00  0.00    -0.269 N 
ATOM      6  HN  UNL d   1       1.140  -0.908  -1.663  1.00  0.00     0.185 HD
ENDROOT
BRANCH   1   7
ATOM      7  C   UNL d   1      -0.387  -2.736  -0.151  0.00  0.00     0.077 A 
ATOM      8  C   UNL d   1       0.127  -3.544   0.997  0.00  0.00     0.199 A 
ATOM      9  C   UNL d   1      -0.052  -5.022   0.922  0.00  0.00     0.042 A 
ATOM     10  O   UNL d   1       0.639  -3.015   1.977  0.00  0.00    -0.286 OA
ATOM     11  C   UNL d   1       0.456  -5.849   1.929  0.00  0.00     0.018 A 
ATOM     12  C   UNL d   1      -0.754  -5.564  -0.170  0.00  0.00     0.046 A 
ATOM     13  C   UNL d   1       0.258  -7.229   1.849  0.00  0.00     0.001 A 
ATOM     14  C   UNL d   1      -0.449  -7.773   0.776  0.00  0.00     0.002 A 
ATOM     15  C   UNL d   1      -0.957  -6.944  -0.227  0.00  0.00     0.030 A 
ATOM     16  N   UNL d   1      -1.247  -4.723  -1.176  0.00  0.00    -0.364 N 
ATOM     17  C   UNL d   1      -1.007  -3.377  -1.151  0.00  0.00     0.107 A 
ATOM     18  H   UNL d   1      -1.723  -5.128  -1.975  0.00  0.00     0.165 HD
ENDBRANCH   1   7
BRANCH   2  19
ATOM     19  C   UNL d   1      -2.120  -0.726   1.541  0.00  0.00     0.056 A 
ATOM     20  C   UNL d   1      -2.535   0.324   2.380  0.00  0.00     0.033 A 
ATOM     21  C   UNL d   1      -3.589   0.145   3.283  0.00  0.00     0.026 A 
ATOM     22  C   UNL d   1      -4.247  -1.079   3.348  0.00  0.00     0.034 A 
ATOM     23  C   UNL d   1      -3.870  -2.118   2.507  0.00  0.00     0.026 A 
ATOM     24 CL   UNL d   1      -5.537  -1.306   4.461  0.00  0.00    -0.084 Cl
ATOM     25  C   UNL d   1      -2.816  -1.943   1.601  0.00  0.00     0.033 A 
ENDBRANCH   2  19
TORSDOF 2
