REMARK  5 active torsions:
REMARK  status: ('A' for Active; 'I' for Inactive)
REMARK    1  A    between atoms: C_2  and  N_7 
REMARK    2  A    between atoms: N_11  and  C_2 
REMARK    3  A    between atoms: N_7  and  N_3 
REMARK    4  A    between atoms: C_17  and  N_11 
REMARK    5  A    between atoms: C_19  and  C_17 
ROOT
ATOM      1  C   UNL d   1      -0.048   0.695   0.571  0.00  0.00     0.008 A 
ATOM      2  N   UNL d   1      -1.318   2.726   0.637  0.00  0.00    -0.302 N 
ATOM      3  HN  UNL d   1      -0.420   3.207   0.588  1.00  0.00     0.186 HD
ATOM      4  C   UNL d   1      -1.349   1.430   0.690  0.00  0.00     0.038 C 
ATOM      5  C   UNL d   1       0.098  -0.632   1.008  0.00  0.00     0.013 A 
ATOM      6  S   UNL d   1      -1.208  -1.597   1.754  0.00  0.00    -0.129 SA
ATOM      7  C   UNL d   1       1.048   1.369   0.009  0.00  0.00     0.057 A 
ATOM      8  C   UNL d   1       1.343  -1.265   0.866  0.00  0.00     0.022 A 
ATOM      9  C   UNL d   1       2.269   0.721  -0.120  0.00  0.00     0.117 A 
ATOM     10  C   UNL d   1      -2.596   0.602   0.910  0.00  0.00     0.070 C 
ATOM     11  C   UNL d   1      -2.394  -0.277   2.129  0.00  0.00     0.085 C 
ATOM     12  C   UNL d   1       2.428  -0.593   0.304  0.00  0.00     0.043 A 
ATOM     13  F   UNL d   1       3.310   1.364  -0.662  0.00  0.00    -0.206 F 
ENDROOT
BRANCH   2  14
ATOM     14  N   UNL d   1      -2.475   3.455   0.648  0.00  0.00    -0.276 N 
ATOM     15  H   UNL d   1      -3.211   3.128   0.033  0.00  0.00     0.189 HD
BRANCH  14  16
ATOM     16  C   UNL d   1      -2.387   4.822   0.897  0.00  0.00     0.186 C 
ATOM     17  S   UNL d   1      -1.205   5.516   1.869  0.00  0.00    -0.040 SA
BRANCH  16  18
ATOM     18  N   UNL d   1      -3.352   5.538   0.206  0.00  0.00    -0.364 N 
ATOM     19  H   UNL d   1      -4.226   5.074  -0.009  0.00  0.00     0.162 HD
BRANCH  18  20
ATOM     20  C   UNL d   1      -3.386   6.999   0.106  0.00  0.00     0.154 C 
BRANCH  20  21
ATOM     21  C   UNL d   1      -4.210   7.471  -1.092  0.00  0.00     0.139 C 
ATOM     22  O   UNL d   1      -5.610   7.194  -0.882  0.00  0.00    -0.384 OA
ATOM     23  C   UNL d   1      -6.362   8.360  -1.254  0.00  0.00     0.168 C 
ATOM     24  C   UNL d   1      -5.414   9.285  -1.986  0.00  0.00     0.029 C 
ATOM     25  C   UNL d   1      -4.098   8.971  -1.323  0.00  0.00     0.035 C 
ENDBRANCH  20  21
ENDBRANCH  18  20
ENDBRANCH  16  18
ENDBRANCH  14  16
ENDBRANCH   2  14
TORSDOF 5
