REMARK  3 active torsions:
REMARK  status: ('A' for Active; 'I' for Inactive)
REMARK    1  A    between atoms: C_3  and  C_6 
REMARK    2  A    between atoms: C_6  and  C_13 
REMARK    3  A    between atoms: C_13  and  S_11 
ROOT
ATOM      1  C   UNL d   1       2.537  -2.089  -1.356  0.00  0.00     0.134 C 
ATOM      2  N   UNL d   1       2.744  -2.988  -2.058  0.00  0.00    -0.184 NA
ATOM      3  S   UNL d   1       2.243  -0.770  -0.342  0.00  0.00    -0.043 SA
ENDROOT
BRANCH   3   4
ATOM      4  C   UNL d   1       3.272  -1.267   1.065  0.00  0.00     0.174 C 
BRANCH   4   5
ATOM      5  C   UNL d   1       4.740  -1.377   0.705  0.00  0.00     0.169 C 
ATOM      6  O   UNL d   1       5.357  -2.428   0.865  0.00  0.00    -0.291 OA
BRANCH   5   7
ATOM      7  C   UNL d   1       5.464  -0.197   0.150  0.00  0.00     0.011 A 
ATOM      8  C   UNL d   1       5.089   1.119   0.451  0.00  0.00     0.023 A 
ATOM      9  C   UNL d   1       5.757   2.208  -0.138  0.00  0.00    -0.039 A 
ATOM     10  C   UNL d   1       5.309   3.609   0.178  0.00  0.00     0.050 C 
ATOM     11  C   UNL d   1       6.813   1.953  -1.028  0.00  0.00     0.040 A 
ATOM     12  C   UNL d   1       7.205   0.641  -1.307  0.00  0.00     0.025 A 
ATOM     13 CL   UNL d   1       7.660   3.234  -1.816  0.00  0.00    -0.084 Cl
ATOM     14  C   UNL d   1       6.537  -0.431  -0.716  0.00  0.00     0.017 A 
ENDBRANCH   5   7
ENDBRANCH   4   5
ENDBRANCH   3   4
TORSDOF 3
