REMARK  8 active torsions:
REMARK  status: ('A' for Active; 'I' for Inactive)
REMARK    1  A    between atoms: C_8  and  S_1 
REMARK    2  A    between atoms: C_15  and  S_1 
REMARK    3  A    between atoms: C_5  and  C_2 
REMARK    4  A    between atoms: C_6  and  C_8 
REMARK    5  A    between atoms: N_7  and  C_14 
REMARK    6  A    between atoms: O_19  and  C_13 
REMARK    7  A    between atoms: C_23  and  O_19 
REMARK    8  A    between atoms: O_29  and  C_24 
ROOT
ATOM      1  C   UNL d   1       3.290  -4.531   2.201  0.00  0.00     0.053 A 
ATOM      2  C   UNL d   1       3.967  -4.465   3.439  0.00  0.00     0.054 A 
ATOM      3  C   UNL d   1       3.730  -5.469   1.248  0.00  0.00     0.090 A 
ATOM      4  C   UNL d   1       5.034  -5.325   3.729  0.00  0.00     0.104 A 
ATOM      5  C   UNL d   1       4.743  -6.390   1.594  0.00  0.00     0.041 A 
ATOM      6  C   UNL d   1       5.413  -6.304   2.815  0.00  0.00     0.039 A 
ENDROOT
BRANCH   1   7
ATOM      7  C   UNL d   1       2.166  -3.612   2.043  0.00  0.00     0.184 A 
ATOM      8  N   UNL d   1       1.474  -3.025   3.001  0.00  0.00    -0.322 N 
ATOM      9  C   UNL d   1       0.677  -2.149   2.318  0.00  0.00     0.118 A 
ATOM     10  HN  UNL d   1       1.522  -3.186   4.007  1.00  0.00     0.169 HD
ATOM     11  N   UNL d   1       0.778  -2.241   0.981  0.00  0.00    -0.246 N 
ATOM     12  O   UNL d   1       1.792  -3.200   0.796  0.00  0.00    -0.217 OA
ATOM     13  HN  UNL d   1       0.248  -1.736   0.271  1.00  0.00     0.196 HD
BRANCH   9  14
ATOM     14  C   UNL d   1      -0.293  -1.258   3.001  0.00  0.00     0.219 C 
BRANCH  14  15
ATOM     15  S   UNL d   1       0.534  -0.130   4.121  0.00  0.00     0.158 S 
ATOM     16  O   UNL d   1       1.393   0.733   3.328  0.00  0.00    -0.227 OA
ATOM     17  O   UNL d   1       1.093  -0.898   5.221  0.00  0.00    -0.227 OA
BRANCH  15  18
ATOM     18  C   UNL d   1      -0.774   0.940   4.845  0.00  0.00     0.053 C 
ATOM     19  C   UNL d   1      -1.771   0.100   5.657  0.00  0.00     0.031 C 
ATOM     20  C   UNL d   1      -0.096   1.949   5.793  0.00  0.00     0.031 C 
ATOM     21  C   UNL d   1      -1.516   1.714   3.750  0.00  0.00     0.031 C 
ENDBRANCH  15  18
ENDBRANCH  14  15
ENDBRANCH   9  14
ENDBRANCH   1   7
BRANCH   3  22
ATOM     22  O   UNL d   1       3.146  -5.523  -0.010  0.00  0.00    -0.310 OA
BRANCH  22  23
ATOM     23  C   UNL d   1       3.966  -5.834  -1.083  0.00  0.00     0.076 A 
ATOM     24  C   UNL d   1       3.481  -6.721  -2.047  0.00  0.00     0.040 A 
ATOM     25  C   UNL d   1       4.298  -7.118  -3.122  0.00  0.00     0.039 A 
ATOM     26  C   UNL d   1       5.596  -6.620  -3.236  0.00  0.00     0.068 A 
ATOM     27  C   UNL d   1       6.057  -5.697  -2.295  0.00  0.00     0.039 A 
ATOM     28  C   UNL d   1       5.245  -5.290  -1.235  0.00  0.00     0.040 A 
BRANCH  26  29
ATOM     29  O   UNL d   1       6.485  -6.904  -4.233  0.00  0.00    -0.356 OA
ATOM     30  C   UNL d   1       6.343  -8.162  -4.881  0.00  0.00     0.210 C 
ENDBRANCH  26  29
ENDBRANCH  22  23
ENDBRANCH   3  22
BRANCH   4  31
ATOM     31  N   UNL d   1       5.756  -5.197   5.001  0.00  0.00    -0.116 N 
ATOM     32  O   UNL d   1       5.370  -4.334   5.801  0.00  0.00    -0.532 OA
ATOM     33  O   UNL d   1       6.716  -5.956   5.193  0.00  0.00    -0.532 OA
ENDBRANCH   4  31
TORSDOF 8
