REMARK  4 active torsions:
REMARK  status: ('A' for Active; 'I' for Inactive)
REMARK    1  A    between atoms: N_12  and  C_3 
REMARK    2  A    between atoms: C_4  and  C_10 
REMARK    3  A    between atoms: N_18  and  C_7 
REMARK    4  A    between atoms: C_14  and  N_12 
ROOT
ATOM      1  N   UNL d   1      -3.954   1.392  -0.990  0.00  0.00    -0.166 N 
ATOM      2  HN  UNL d   1      -4.621   0.623  -1.056  1.00  0.00     0.187 HD
ATOM      3  C   UNL d   1      -2.755   1.232  -0.438  0.00  0.00     0.685 A 
ATOM      4  N   UNL d   1      -1.867   2.214  -0.314  0.00  0.00    -0.188 N 
ATOM      5  HN  UNL d   1      -0.958   2.082   0.129  1.00  0.00     0.185 HD
ATOM      6  C   UNL d   1      -4.238   2.598  -1.448  0.00  0.00     0.170 A 
ATOM      7  N   UNL d   1      -3.433   3.641  -1.379  0.00  0.00    -0.328 N 
ATOM      8  HN  UNL d   1      -3.689   4.564  -1.728  1.00  0.00     0.169 HD
ATOM      9  C   UNL d   1      -2.259   3.382  -0.815  0.00  0.00     0.200 A 
ENDROOT
BRANCH   3  10
ATOM     10  N   UNL d   1      -2.389   0.001   0.107  0.00  0.00    -0.192 N 
ATOM     11  H   UNL d   1      -1.515   0.073   0.605  0.00  0.00     0.184 HD
BRANCH  10  12
ATOM     12  C   UNL d   1      -2.975  -1.265  -0.002  0.00  0.00     0.050 A 
ATOM     13  C   UNL d   1      -2.748  -2.213   1.006  0.00  0.00     0.046 A 
ATOM     14  C   UNL d   1      -3.387  -3.468   0.992  0.00  0.00     0.050 A 
ATOM     15  C   UNL d   1      -4.263  -3.775  -0.057  0.00  0.00     0.016 A 
ATOM     16  C   UNL d   1      -4.499  -2.847  -1.065  0.00  0.00     0.003 A 
ATOM     17  C   UNL d   1      -3.866  -1.603  -1.029  0.00  0.00     0.030 A 
BRANCH  14  18
ATOM     18  C   UNL d   1      -3.159  -4.473   2.092  0.00  0.00     0.417 C 
ATOM     19  F   UNL d   1      -2.286  -4.050   3.049  0.00  0.00    -0.166 F 
ATOM     20  F   UNL d   1      -4.308  -4.793   2.751  0.00  0.00    -0.166 F 
ATOM     21  F   UNL d   1      -2.657  -5.650   1.625  0.00  0.00    -0.166 F 
ENDBRANCH  14  18
ENDBRANCH  10  12
ENDBRANCH   3  10
BRANCH   6  22
ATOM     22  N   UNL d   1      -5.494   2.783  -1.991  0.00  0.00    -0.273 NA
ATOM     23  H   UNL d   1      -6.125   2.082  -1.625  0.00  0.00     0.127 HD
ATOM     24  H   UNL d   1      -5.776   3.748  -1.898  0.00  0.00     0.127 HD
ENDBRANCH   6  22
TORSDOF 4
