REMARK  6 active torsions:
REMARK  status: ('A' for Active; 'I' for Inactive)
REMARK    1  A    between atoms: C_6  and  N_1 
REMARK    2  A    between atoms: O_7  and  N_2 
REMARK    3  A    between atoms: C_4  and  C_10 
REMARK    4  A    between atoms: N_19  and  C_4 
REMARK    5  A    between atoms: C_5  and  O_7 
REMARK    6  A    between atoms: C_11  and  C_5 
ROOT
ATOM      1  N   UNL d   1      -3.170  -5.059  -0.959  0.00  0.00    -0.246 N 
ATOM      2  HN  UNL d   1      -3.711  -5.924  -0.983  1.00  0.00     0.196 HD
ATOM      3  C   UNL d   1      -2.088  -4.903  -0.255  0.00  0.00     0.109 C 
ENDROOT
BRANCH   3   4
ATOM      4  C   UNL d   1      -1.643  -6.063   0.600  0.00  0.00     0.004 A 
ATOM      5  C   UNL d   1      -2.388  -7.255   0.589  0.00  0.00     0.017 A 
ATOM      6  C   UNL d   1      -2.013  -8.345   1.383  0.00  0.00     0.037 A 
ATOM      7  C   UNL d   1      -0.883  -8.242   2.201  0.00  0.00     0.102 A 
ATOM      8  C   UNL d   1      -0.125  -7.064   2.218  0.00  0.00     0.037 A 
ATOM      9  C   UNL d   1      -0.502  -5.982   1.413  0.00  0.00     0.017 A 
BRANCH   7  10
ATOM     10  N   UNL d   1      -0.486  -9.376   3.046  0.00  0.00    -0.116 N 
ATOM     11  O   UNL d   1       0.510  -9.233   3.770  0.00  0.00    -0.532 OA
ATOM     12  O   UNL d   1      -1.172 -10.407   2.990  0.00  0.00    -0.532 OA
ENDBRANCH   7  10
ENDBRANCH   3   4
BRANCH   3  13
ATOM     13  N   UNL d   1      -1.361  -3.734  -0.257  0.00  0.00    -0.286 NA
ATOM     14  H   UNL d   1      -1.862  -2.973  -0.701  0.00  0.00     0.125 HD
ATOM     15  H   UNL d   1      -0.943  -3.451   0.619  0.00  0.00     0.125 HD
ENDBRANCH   3  13
BRANCH   1  16
ATOM     16  O   UNL d   1      -3.514  -3.900  -1.686  0.00  0.00    -0.193 OA
BRANCH  16  17
ATOM     17  C   UNL d   1      -4.648  -4.142  -2.414  0.00  0.00     0.315 C 
ATOM     18  O   UNL d   1      -5.267  -5.193  -2.503  0.00  0.00    -0.257 OA
BRANCH  17  19
ATOM     19  C   UNL d   1      -5.089  -2.902  -3.120  0.00  0.00     0.041 A 
ATOM     20  C   UNL d   1      -6.218  -2.990  -3.950  0.00  0.00     0.019 A 
ATOM     21  C   UNL d   1      -6.695  -1.863  -4.625  0.00  0.00     0.025 A 
ATOM     22  C   UNL d   1      -6.046  -0.641  -4.472  0.00  0.00     0.034 A 
ATOM     23  C   UNL d   1      -4.922  -0.538  -3.652  0.00  0.00     0.025 A 
ATOM     24 CL   UNL d   1      -6.633   0.750  -5.295  0.00  0.00    -0.084 Cl
ATOM     25  C   UNL d   1      -4.441  -1.668  -2.976  0.00  0.00     0.019 A 
ENDBRANCH  17  19
ENDBRANCH  16  17
ENDBRANCH   1  16
TORSDOF 6
