REMARK  4 active torsions:
REMARK  status: ('A' for Active; 'I' for Inactive)
REMARK    1  A    between atoms: C_7  and  C_1 
REMARK    2  A    between atoms: C_2  and  N_6 
REMARK       I    between atoms: C_3  and  N_8 
REMARK       I    between atoms: N_6  and  C_3 
REMARK    3  A    between atoms: N_4  and  C_5 
REMARK    4  A    between atoms: N_8  and  C_15 
ROOT
ATOM      1  C   UNL d   1      -1.266   3.455   0.210  0.00  0.00     0.325 C 
ATOM      2  N   UNL d   1       0.043   3.805   0.095  0.00  0.00    -0.306 N 
ATOM      3  N   UNL d   1      -2.165   4.340   0.698  0.00  0.00    -0.309 N 
ATOM      4  O   UNL d   1      -1.719   2.331  -0.030  0.00  0.00    -0.247 OA
ATOM      5  H   UNL d   1       0.335   4.575   0.672  0.00  0.00     0.170 HD
ATOM      6  H   UNL d   1      -3.034   3.832   0.824  0.00  0.00     0.170 HD
ENDROOT
BRANCH   3   7
ATOM      7  C   UNL d   1      -2.216   5.692   1.063  0.00  0.00     0.037 A 
ATOM      8  C   UNL d   1      -1.210   6.643   0.893  0.00  0.00     0.045 A 
ATOM      9  C   UNL d   1      -1.402   7.971   1.336  0.00  0.00     0.050 A 
ATOM     10  C   UNL d   1      -2.631   8.345   1.904  0.00  0.00     0.016 A 
ATOM     11  C   UNL d   1      -3.647   7.410   2.046  0.00  0.00     0.003 A 
ATOM     12  C   UNL d   1      -3.434   6.097   1.635  0.00  0.00     0.029 A 
BRANCH   9  13
ATOM     13  C   UNL d   1      -0.311   9.009   1.218  0.00  0.00     0.417 C 
ATOM     14  F   UNL d   1       0.860   8.518   0.728  0.00  0.00    -0.166 F 
ATOM     15  F   UNL d   1      -0.660  10.040   0.401  0.00  0.00    -0.166 F 
ATOM     16  F   UNL d   1      -0.006   9.573   2.421  0.00  0.00    -0.166 F 
ENDBRANCH   9  13
ENDBRANCH   3   7
BRANCH   2  17
ATOM     17  C   UNL d   1       1.058   2.872  -0.269  0.00  0.00     0.064 A 
ATOM     18  C   UNL d   1       2.344   2.896   0.310  0.00  0.00     0.065 A 
ATOM     19  C   UNL d   1       3.333   2.007  -0.157  0.00  0.00     0.033 A 
ATOM     20  C   UNL d   1       3.029   1.043  -1.122  0.00  0.00     0.009 A 
ATOM     21  C   UNL d   1       1.750   0.981  -1.673  0.00  0.00    -0.060 A 
ATOM     22  C   UNL d   1       0.792   1.919  -1.270  0.00  0.00     0.038 A 
ATOM     23  C   UNL d   1       1.373  -0.138  -2.599  0.00  0.00     0.048 C 
BRANCH  18  24
ATOM     24  N   UNL d   1       2.656   3.670   1.467  0.00  0.00    -0.331 N 
ATOM     25  C   UNL d   1       1.793   3.997   2.499  0.00  0.00     0.097 A 
ATOM     26  C   UNL d   1       2.473   4.713   3.454  0.00  0.00     0.019 A 
ATOM     27  C   UNL d   1       3.815   4.798   3.034  0.00  0.00     0.019 A 
ATOM     28  C   UNL d   1       3.908   4.141   1.826  0.00  0.00     0.097 A 
ENDBRANCH  18  24
ENDBRANCH   2  17
TORSDOF 4
