REMARK  5 active torsions:
REMARK  status: ('A' for Active; 'I' for Inactive)
REMARK    1  A    between atoms: C_4  and  C_1 
REMARK    2  A    between atoms: C_2  and  C_3 
REMARK    3  A    between atoms: O_9  and  C_6 
REMARK    4  A    between atoms: C_16  and  O_9 
REMARK    5  A    between atoms: N_18  and  C_17 
ROOT
ATOM      1  C   UNL d   1      -0.408   1.126  -3.252  0.00  0.00     0.051 A 
ATOM      2  C   UNL d   1       0.580  -0.002  -1.319  0.00  0.00     0.051 A 
ATOM      3  C   UNL d   1       0.199   1.176  -1.984  0.00  0.00     0.032 A 
ATOM      4  C   UNL d   1      -0.314  -1.306  -3.169  0.00  0.00     0.077 A 
ATOM      5  C   UNL d   1       0.359  -1.237  -1.946  0.00  0.00     0.053 A 
ATOM      6  C   UNL d   1      -0.667  -0.128  -3.829  0.00  0.00     0.053 A 
ENDROOT
BRANCH   4   7
ATOM      7  O   UNL d   1      -0.628  -2.478  -3.818  0.00  0.00    -0.311 OA
BRANCH   7   8
ATOM      8  C   UNL d   1      -0.925  -3.607  -3.090  0.00  0.00     0.076 A 
ATOM      9  C   UNL d   1      -1.601  -3.605  -1.868  0.00  0.00     0.039 A 
ATOM     10  C   UNL d   1      -1.818  -4.806  -1.186  0.00  0.00     0.026 A 
ATOM     11  C   UNL d   1      -1.377  -6.020  -1.718  0.00  0.00     0.005 A 
ATOM     12  C   UNL d   1      -0.828  -6.024  -3.003  0.00  0.00     0.026 A 
ATOM     13  C   UNL d   1      -0.581  -4.824  -3.677  0.00  0.00     0.039 A 
BRANCH  11  14
ATOM     14  N   UNL d   1      -1.694  -7.224  -1.080  0.00  0.00    -0.303 NA
ATOM     15  H   UNL d   1      -1.101  -8.000  -1.356  0.00  0.00     0.124 HD
ATOM     16  H   UNL d   1      -1.766  -7.141  -0.070  0.00  0.00     0.124 HD
ENDBRANCH  11  14
ENDBRANCH   7   8
ENDBRANCH   4   7
BRANCH   2  17
ATOM     17  C   UNL d   1       1.188   0.031   0.060  0.00  0.00     0.417 C 
ATOM     18  F   UNL d   1       1.308   1.287   0.574  0.00  0.00    -0.166 F 
ATOM     19  F   UNL d   1       2.434  -0.513   0.100  0.00  0.00    -0.166 F 
ATOM     20  F   UNL d   1       0.445  -0.669   0.965  0.00  0.00    -0.166 F 
ENDBRANCH   2  17
BRANCH   1  21
ATOM     21  C   UNL d   1      -0.789   2.386  -3.990  0.00  0.00     0.417 C 
ATOM     22  F   UNL d   1      -0.537   3.523  -3.286  0.00  0.00    -0.166 F 
ATOM     23  F   UNL d   1      -0.119   2.519  -5.167  0.00  0.00    -0.166 F 
ATOM     24  F   UNL d   1      -2.113   2.425  -4.303  0.00  0.00    -0.166 F 
ENDBRANCH   1  21
TORSDOF 5
