REMARK  5 active torsions:
REMARK  status: ('A' for Active; 'I' for Inactive)
REMARK    1  A    between atoms: C_6  and  C_1 
REMARK    2  A    between atoms: C_12  and  C_3 
REMARK    3  A    between atoms: O_17  and  C_6 
REMARK       I    between atoms: C_7  and  N_11 
REMARK    4  A    between atoms: C_8  and  C_7 
REMARK    5  A    between atoms: N_11  and  N_9 
ROOT
ATOM      1  N   UNL d   1      -3.777  -1.105  -0.074  0.00  0.00    -0.308 N 
ATOM      2  HN  UNL d   1      -3.931  -0.097  -0.083  1.00  0.00     0.186 HD
ATOM      3  C   UNL d   1      -2.588  -1.609  -0.037  0.00  0.00     0.120 C 
ENDROOT
BRANCH   1   4
ATOM      4  N   UNL d   1      -4.817  -1.990  -0.102  0.00  0.00    -0.266 N 
ATOM      5  C   UNL d   1      -6.115  -1.500  -0.133  0.00  0.00     0.271 C 
ATOM      6  O   UNL d   1      -6.429  -0.316  -0.085  0.00  0.00    -0.266 OA
ATOM      7  H   UNL d   1      -4.625  -2.981  -0.024  0.00  0.00     0.190 HD
BRANCH   5   8
ATOM      8  C   UNL d   1      -7.189  -2.517  -0.214  0.00  0.00     0.049 A 
ATOM      9  C   UNL d   1      -8.435  -2.210   0.320  0.00  0.00     0.104 A 
ATOM     10  N   UNL d   1      -9.502  -3.047   0.280  0.00  0.00    -0.374 N 
ATOM     11  C   UNL d   1      -9.322  -4.232  -0.342  0.00  0.00     0.087 A 
ATOM     12  HN  UNL d   1     -10.397  -2.794   0.699  1.00  0.00     0.164 HD
ATOM     13  C   UNL d   1      -8.122  -4.624  -0.915  0.00  0.00     0.018 A 
ATOM     14  C   UNL d   1      -7.036  -3.752  -0.850  0.00  0.00     0.020 A 
ENDBRANCH   5   8
ENDBRANCH   1   4
BRANCH   3  15
ATOM     15  C   UNL d   1      -1.455  -0.709  -0.021  0.00  0.00    -0.001 A 
ATOM     16  C   UNL d   1      -1.462   0.709  -0.018  0.00  0.00     0.050 A 
ATOM     17  C   UNL d   1      -0.154   1.183  -0.016  0.00  0.00     0.111 A 
ATOM     18  N   UNL d   1       0.651   0.058  -0.017  0.00  0.00    -0.355 N 
ATOM     19  C   UNL d   1      -0.128  -1.081  -0.013  0.00  0.00     0.104 A 
ATOM     20  C   UNL d   1       2.097  -0.010  -0.031  0.00  0.00     0.156 C 
BRANCH  17  21
ATOM     21  C   UNL d   1       0.275   2.571  -0.021  0.00  0.00     0.309 C 
ATOM     22  O   UNL d   1       1.430   2.974  -0.029  0.00  0.00    -0.258 OA
BRANCH  21  23
ATOM     23  O   UNL d   1      -0.821   3.382  -0.018  0.00  0.00    -0.321 OA
ATOM     24  C   UNL d   1      -0.541   4.780  -0.027  0.00  0.00     0.213 C 
ENDBRANCH  21  23
ENDBRANCH  17  21
ENDBRANCH   3  15
TORSDOF 5
