REMARK  4 active torsions:
REMARK  status: ('A' for Active; 'I' for Inactive)
REMARK    1  A    between atoms: C_2  and  N_1 
REMARK       I    between atoms: C_4  and  N_1 
REMARK    2  A    between atoms: C_5  and  N_1 
REMARK    3  A    between atoms: C_8  and  C_4 
REMARK    4  A    between atoms: C_23  and  C_15 
ROOT
ATOM      1  N   UNL d   1       0.786   0.131   0.644  0.00  0.00    -0.255 N 
ATOM      2  C   UNL d   1       0.121   1.324   0.964  0.00  0.00     0.288 C 
ATOM      3  O   UNL d   1       0.523   2.096   1.837  0.00  0.00    -0.264 OA
ENDROOT
BRANCH   1   4
ATOM      4  C   UNL d   1       0.089  -1.072   0.473  0.00  0.00     0.157 C 
ATOM      5  S   UNL d   1      -1.298  -1.329   1.524  0.00  0.00    -0.016 SA
ATOM      6  C   UNL d   1      -2.300  -2.140   0.349  0.00  0.00     0.195 C 
ATOM      7  O   UNL d   1      -3.513  -1.945   0.339  0.00  0.00    -0.285 OA
ATOM      8  C   UNL d   1      -1.656  -3.111  -0.593  0.00  0.00     0.111 C 
ATOM      9  C   UNL d   1      -0.162  -3.252  -0.411  0.00  0.00     0.130 C 
ATOM     10  N   UNL d   1       0.514  -1.964  -0.353  0.00  0.00    -0.369 N 
ATOM     11  HN  UNL d   1       1.312  -1.771  -0.958  1.00  0.00     0.161 HD
ENDBRANCH   1   4
BRANCH   1  12
ATOM     12  C   UNL d   1       2.238   0.091   0.702  0.00  0.00     0.057 C 
ATOM     13  C   UNL d   1       3.042   1.037   0.012  0.00  0.00    -0.034 C 
ATOM     14  C   UNL d   1       4.436   0.820  -0.089  0.00  0.00     0.009 C 
ATOM     15  C   UNL d   1       2.560   2.260  -0.725  0.00  0.00     0.050 C 
ATOM     16  C   UNL d   1       5.051  -0.277   0.495  0.00  0.00     0.001 C 
ATOM     17  C   UNL d   1       4.294  -1.142   1.264  0.00  0.00     0.009 C 
ATOM     18  C   UNL d   1       2.906  -0.951   1.419  0.00  0.00    -0.030 C 
BRANCH  18  19
ATOM     19  C   UNL d   1       2.271  -1.753   2.542  0.00  0.00     0.036 C 
ATOM     20  C   UNL d   1       2.096  -0.885   3.783  0.00  0.00     0.010 C 
ENDBRANCH  18  19
ENDBRANCH   1  12
BRANCH   2  21
ATOM     21  C   UNL d   1      -1.107   1.591   0.210  0.00  0.00     0.143 A 
ATOM     22  O   UNL d   1      -1.364   0.888  -0.942  0.00  0.00    -0.317 OA
ATOM     23  C   UNL d   1      -2.569   1.303  -1.412  0.00  0.00     0.143 A 
ATOM     24  C   UNL d   1      -3.086   2.284  -0.601  0.00  0.00     0.027 A 
ATOM     25  C   UNL d   1      -2.135   2.487   0.430  0.00  0.00     0.045 A 
ENDBRANCH   2  21
TORSDOF 4
