REMARK  8 active torsions:
REMARK  status: ('A' for Active; 'I' for Inactive)
REMARK    1  A    between atoms: C_8  and  N_1 
REMARK    2  A    between atoms: C_12  and  C_5 
REMARK    3  A    between atoms: C_11  and  C_8 
REMARK    4  A    between atoms: C_9  and  C_14 
REMARK    5  A    between atoms: C_10  and  C_13 
REMARK       I    between atoms: N_16  and  C_11 
REMARK       I    between atoms: C_15  and  N_20 
REMARK       I    between atoms: N_29  and  C_15 
REMARK    6  A    between atoms: N_20  and  N_16 
REMARK    7  A    between atoms: C_31  and  N_29 
REMARK    8  A    between atoms: C_32  and  C_31 
ROOT
ATOM      1  N   UNL d   1      -0.060  -1.223  -0.237  0.00  0.00    -0.203 N 
ATOM      2  N   UNL d   1       0.743  -0.755  -1.211  0.00  0.00    -0.268 N 
ATOM      3  HN  UNL d   1       1.094  -1.222  -2.047  1.00  0.00     0.190 HD
ATOM      4  N   UNL d   1      -0.302  -0.361   0.766  0.00  0.00    -0.002 NA
ATOM      5  C   UNL d   1       0.952   0.499  -0.776  0.00  0.00     0.144 A 
ATOM      6  N   UNL d   1       0.330   0.754   0.419  0.00  0.00    -0.266 N 
ATOM      7  HN  UNL d   1       0.350   1.630   0.941  1.00  0.00     0.186 HD
ENDROOT
BRANCH   1   8
ATOM      8  C   UNL d   1      -0.363  -2.637  -0.123  0.00  0.00     0.214 C 
ATOM      9  C   UNL d   1       0.870  -3.426   0.310  0.00  0.00     0.046 C 
BRANCH   8  10
ATOM     10  C   UNL d   1      -0.987  -3.170  -1.406  0.00  0.00     0.262 C 
ATOM     11  N   UNL d   1      -0.203  -3.151  -2.544  0.00  0.00    -0.264 N 
ATOM     12  H   UNL d   1       0.607  -2.528  -2.635  0.00  0.00     0.190 HD
ATOM     13  O   UNL d   1      -2.127  -3.644  -1.416  0.00  0.00    -0.269 OA
BRANCH  11  14
ATOM     14  N   UNL d   1      -0.774  -3.595  -3.760  0.00  0.00    -0.249 N 
ATOM     15  C   UNL d   1      -0.080  -3.340  -4.924  0.00  0.00     0.334 C 
ATOM     16  O   UNL d   1       1.024  -2.806  -4.942  0.00  0.00    -0.246 OA
ATOM     17  N   UNL d   1      -0.768  -3.758  -6.043  0.00  0.00    -0.342 N 
ATOM     18  H   UNL d   1      -1.393  -4.535  -5.883  0.00  0.00     0.164 HD
ATOM     19  H   UNL d   1      -1.790  -3.557  -3.796  0.00  0.00     0.192 HD
BRANCH  17  20
ATOM     20  C   UNL d   1      -0.174  -3.656  -7.362  0.00  0.00     0.124 C 
BRANCH  20  21
ATOM     21  C   UNL d   1      -1.227  -3.624  -8.467  0.00  0.00     0.015 C 
ATOM     22  C   UNL d   1      -2.158  -2.426  -8.350  0.00  0.00     0.006 C 
ENDBRANCH  20  21
ENDBRANCH  17  20
ENDBRANCH  11  14
ENDBRANCH   8  10
ENDBRANCH   1   8
BRANCH   5  23
ATOM     23  C   UNL d   1       1.770   1.466  -1.500  0.00  0.00     0.012 A 
ATOM     24  C   UNL d   1       2.295   1.114  -2.754  0.00  0.00     0.031 A 
ATOM     25  C   UNL d   1       3.076   2.007  -3.496  0.00  0.00     0.049 A 
ATOM     26  C   UNL d   1       3.338   3.276  -2.960  0.00  0.00     0.032 A 
ATOM     27  C   UNL d   1       2.824   3.657  -1.707  0.00  0.00     0.049 A 
ATOM     28  C   UNL d   1       2.041   2.740  -0.982  0.00  0.00     0.031 A 
BRANCH  25  29
ATOM     29  C   UNL d   1       3.613   1.613  -4.851  0.00  0.00     0.417 C 
ATOM     30  F   UNL d   1       3.247   0.363  -5.243  0.00  0.00    -0.166 F 
ATOM     31  F   UNL d   1       3.191   2.453  -5.836  0.00  0.00    -0.166 F 
ATOM     32  F   UNL d   1       4.974   1.637  -4.895  0.00  0.00    -0.166 F 
ENDBRANCH  25  29
BRANCH  27  33
ATOM     33  C   UNL d   1       3.112   5.043  -1.174  0.00  0.00     0.417 C 
ATOM     34  F   UNL d   1       2.529   5.301   0.027  0.00  0.00    -0.166 F 
ATOM     35  F   UNL d   1       4.445   5.263  -1.002  0.00  0.00    -0.166 F 
ATOM     36  F   UNL d   1       2.679   6.019  -2.019  0.00  0.00    -0.166 F 
ENDBRANCH  27  33
ENDBRANCH   5  23
TORSDOF 8
