REMARK  4 active torsions:
REMARK  status: ('A' for Active; 'I' for Inactive)
REMARK    1  A    between atoms: C_8  and  C_3 
REMARK    2  A    between atoms: C_7  and  C_4 
REMARK       I    between atoms: N_13  and  C_7 
REMARK    3  A    between atoms: C_10  and  C_19 
REMARK    4  A    between atoms: N_11  and  N_13 
ROOT
ATOM      1  N   UNL d   1      -0.714  -0.698  -0.100  0.00  0.00    -0.314 N 
ATOM      2  HN  UNL d   1      -1.524  -1.295  -0.265  1.00  0.00     0.169 HD
ATOM      3  C   UNL d   1      -0.664   0.680   0.035  0.00  0.00     0.141 A 
ATOM      4  C   UNL d   1       0.553  -1.042   0.040  0.00  0.00     0.241 A 
ATOM      5  N   UNL d   1       0.575   1.155   0.242  0.00  0.00    -0.242 N 
ATOM      6  HN  UNL d   1       0.859   2.124   0.384  1.00  0.00     0.196 HD
ATOM      7  O   UNL d   1       1.381   0.024   0.217  0.00  0.00    -0.212 OA
ENDROOT
BRANCH   4   8
ATOM      8  C   UNL d   1       1.120  -2.372   0.070  0.00  0.00     0.313 C 
ATOM      9  N   UNL d   1       0.167  -3.393   0.075  0.00  0.00    -0.263 N 
ATOM     10  H   UNL d   1      -0.822  -3.161   0.056  0.00  0.00     0.190 HD
ATOM     11  O   UNL d   1       2.333  -2.576   0.108  0.00  0.00    -0.262 OA
BRANCH   9  12
ATOM     12  N   UNL d   1       0.589  -4.690   0.109  0.00  0.00    -0.308 N 
ATOM     13  C   UNL d   1      -0.318  -5.610   0.100  0.00  0.00     0.122 C 
ATOM     14  HN  UNL d   1       1.582  -4.924   0.141  1.00  0.00     0.186 HD
BRANCH  13  15
ATOM     15  C   UNL d   1       0.042  -7.053   0.118  0.00  0.00     0.024 A 
ATOM     16  C   UNL d   1      -0.831  -7.965   0.737  0.00  0.00     0.047 A 
ATOM     17 CL   UNL d   1      -2.302  -7.481   1.509  0.00  0.00    -0.083 Cl
ATOM     18  C   UNL d   1      -0.523  -9.333   0.777  0.00  0.00     0.025 A 
ATOM     19  C   UNL d   1       0.653  -9.807   0.205  0.00  0.00     0.003 A 
ATOM     20  C   UNL d   1       1.522  -8.914  -0.415  0.00  0.00     0.025 A 
ATOM     21  C   UNL d   1       1.223  -7.545  -0.467  0.00  0.00     0.047 A 
ATOM     22 CL   UNL d   1       2.349  -6.572  -1.351  0.00  0.00    -0.083 Cl
ENDBRANCH  13  15
ENDBRANCH   9  12
ENDBRANCH   4   8
BRANCH   3  23
ATOM     23  C   UNL d   1      -1.852   1.530   0.014  0.00  0.00     0.053 A 
ATOM     24  C   UNL d   1      -3.034   1.143   0.678  0.00  0.00     0.049 A 
ATOM     25 CL   UNL d   1      -3.187  -0.335   1.573  0.00  0.00    -0.083 Cl
ATOM     26  C   UNL d   1      -4.167   1.974   0.683  0.00  0.00     0.025 A 
ATOM     27  C   UNL d   1      -4.141   3.208   0.043  0.00  0.00     0.003 A 
ATOM     28  C   UNL d   1      -2.986   3.610  -0.616  0.00  0.00     0.025 A 
ATOM     29  C   UNL d   1      -1.854   2.781  -0.642  0.00  0.00     0.049 A 
ATOM     30 CL   UNL d   1      -0.513   3.384  -1.562  0.00  0.00    -0.083 Cl
ENDBRANCH   3  23
TORSDOF 4
