REMARK  6 active torsions:
REMARK  status: ('A' for Active; 'I' for Inactive)
REMARK    1  A    between atoms: C_12  and  N_1 
REMARK    2  A    between atoms: C_20  and  C_4 
REMARK    3  A    between atoms: N_8  and  C_17 
REMARK    4  A    between atoms: C_11  and  C_13 
REMARK    5  A    between atoms: C_13  and  C_12 
REMARK    6  A    between atoms: C_27  and  C_16 
ROOT
ATOM      1  C   UNL d   1       0.927  -3.393  -0.143  0.00  0.00     0.180 C 
ATOM      2  O   UNL d   1       0.187  -3.678   0.792  0.00  0.00    -0.290 OA
ENDROOT
BRANCH   1   3
ATOM      3  C   UNL d   1       2.259  -2.745   0.110  0.00  0.00     0.018 C 
ATOM      4  C   UNL d   1       3.339  -3.080  -0.727  0.00  0.00     0.024 C 
ATOM      5  C   UNL d   1       4.597  -2.441  -0.649  0.00  0.00    -0.042 C 
ATOM      6  C   UNL d   1       5.738  -2.917  -1.560  0.00  0.00    -0.020 C 
ATOM      7  C   UNL d   1       4.746  -1.380   0.260  0.00  0.00    -0.043 C 
ATOM      8  C   UNL d   1       7.077  -2.209  -1.246  0.00  0.00     0.015 C 
ATOM      9  C   UNL d   1       5.356  -2.675  -3.037  0.00  0.00     0.020 C 
ATOM     10  C   UNL d   1       5.990  -4.431  -1.357  0.00  0.00     0.020 C 
ATOM     11  C   UNL d   1       6.891  -0.731  -0.948  0.00  0.00     0.015 C 
ATOM     12  C   UNL d   1       5.997  -0.494   0.291  0.00  0.00    -0.020 C 
ATOM     13  C   UNL d   1       6.793  -0.762   1.585  0.00  0.00     0.020 C 
ATOM     14  C   UNL d   1       5.604   1.004   0.256  0.00  0.00     0.020 C 
ATOM     15  C   UNL d   1       3.698  -1.131   1.173  0.00  0.00     0.016 C 
ATOM     16  C   UNL d   1       2.459  -1.802   1.125  0.00  0.00    -0.044 C 
BRANCH  16  17
ATOM     17  C   UNL d   1       1.440  -1.459   2.188  0.00  0.00     0.035 C 
ATOM     18  C   UNL d   1       1.535  -2.396   3.388  0.00  0.00     0.010 C 
ENDBRANCH  16  17
ENDBRANCH   1   3
BRANCH   1  19
ATOM     19  C   UNL d   1       0.560  -3.620  -1.589  0.00  0.00     0.251 C 
BRANCH  19  20
ATOM     20  N   UNL d   1      -0.754  -4.209  -1.760  0.00  0.00    -0.209 N 
ATOM     21  N   UNL d   1      -0.864  -5.533  -2.008  0.00  0.00    -0.268 N 
ATOM     22  C   UNL d   1      -2.067  -5.580  -2.599  0.00  0.00     0.144 A 
ATOM     23  HN  UNL d   1      -0.210  -6.289  -1.801  1.00  0.00     0.190 HD
ATOM     24  N   UNL d   1      -2.647  -4.340  -2.713  0.00  0.00    -0.266 N 
ATOM     25  N   UNL d   1      -1.792  -3.466  -2.198  0.00  0.00    -0.002 NA
ATOM     26  HN  UNL d   1      -3.560  -4.130  -3.116  1.00  0.00     0.186 HD
BRANCH  22  27
ATOM     27  C   UNL d   1      -2.624  -6.793  -3.183  0.00  0.00     0.013 A 
ATOM     28  C   UNL d   1      -1.983  -8.026  -2.982  0.00  0.00     0.051 A 
ATOM     29  C   UNL d   1      -2.459  -9.179  -3.619  0.00  0.00     0.103 A 
ATOM     30  C   UNL d   1      -3.583  -9.119  -4.452  0.00  0.00     0.036 A 
ATOM     31  C   UNL d   1      -4.236  -7.899  -4.636  0.00  0.00     0.003 A 
ATOM     32  C   UNL d   1      -3.761  -6.746  -4.004  0.00  0.00     0.015 A 
BRANCH  29  33
ATOM     33  N   UNL d   1      -1.753 -10.450  -3.435  0.00  0.00    -0.116 N 
ATOM     34  O   UNL d   1      -0.703 -10.441  -2.779  0.00  0.00    -0.532 OA
ATOM     35  O   UNL d   1      -2.247 -11.464  -3.950  0.00  0.00    -0.532 OA
ENDBRANCH  29  33
ENDBRANCH  22  27
ENDBRANCH  19  20
ENDBRANCH   1  19
TORSDOF 6
