REMARK  3 active torsions:
REMARK  status: ('A' for Active; 'I' for Inactive)
REMARK    1  A    between atoms: N_15  and  C_7 
REMARK    2  A    between atoms: C_13  and  C_11 
REMARK    3  A    between atoms: S_18  and  C_12 
ROOT
ATOM      1  N   UNL d   1      -0.193  -0.529   0.119  0.00  0.00    -0.070 N 
ATOM      2  C   UNL d   1      -0.140   0.825  -0.024  0.00  0.00     0.149 A 
ATOM      3  N   UNL d   1      -1.443  -1.050   0.142  0.00  0.00    -0.277 N 
ATOM      4  HN  UNL d   1      -1.726  -2.026   0.230  1.00  0.00     0.188 HD
ATOM      5  N   UNL d   1       1.052   1.462  -0.076  0.00  0.00    -0.321 N 
ATOM      6  HN  UNL d   1       1.111   2.477  -0.161  1.00  0.00     0.169 HD
ATOM      7  C   UNL d   1       0.990  -1.280   0.174  0.00  0.00     0.701 A 
ATOM      8  N   UNL d   1       2.134  -0.660   0.095  0.00  0.00    -0.169 N 
ATOM      9  HN  UNL d   1       3.013  -1.177   0.110  1.00  0.00     0.186 HD
ATOM     10  C   UNL d   1      -1.448   1.231  -0.091  0.00  0.00     0.083 A 
ATOM     11  C   UNL d   1      -2.220   0.044   0.021  0.00  0.00     0.070 A 
ATOM     12  C   UNL d   1       2.122   0.721  -0.012  0.00  0.00     0.160 A 
ENDROOT
BRANCH  11  13
ATOM     13  C   UNL d   1      -3.721  -0.010   0.001  0.00  0.00     0.033 A 
ATOM     14  S   UNL d   1      -4.714   1.362  -0.257  0.00  0.00    -0.100 SA
ATOM     15  C   UNL d   1      -6.144   0.438  -0.127  0.00  0.00     0.050 A 
ATOM     16  C   UNL d   1      -5.877  -0.891   0.118  0.00  0.00     0.008 A 
ATOM     17  C   UNL d   1      -4.473  -1.151   0.188  0.00  0.00     0.021 A 
ENDBRANCH  11  13
BRANCH   7  18
ATOM     18  N   UNL d   1       0.910  -2.646   0.286  0.00  0.00    -0.233 N 
ATOM     19  H   UNL d   1       0.010  -3.049   0.031  0.00  0.00     0.174 HD
ATOM     20  H   UNL d   1       1.721  -3.156  -0.042  0.00  0.00     0.174 HD
ENDBRANCH   7  18
BRANCH  12  21
ATOM     21  S   UNL d   1       3.646   1.595  -0.070  0.00  0.00    -0.098 SA
ATOM     22  C   UNL d   1       4.841   0.257   0.030  0.00  0.00     0.099 C 
ENDBRANCH  12  21
TORSDOF 3
