REMARK  4 active torsions:
REMARK  status: ('A' for Active; 'I' for Inactive)
REMARK    1  A    between atoms: N_8  and  S_1 
REMARK    2  A    between atoms: C_17  and  C_3 
REMARK    3  A    between atoms: C_13  and  N_8 
REMARK    4  A    between atoms: O_18  and  C_17 
ROOT
ATOM      1  C   UNL d   1       2.302   3.173  -3.083  0.00  0.00     0.092 A 
ATOM      2  C   UNL d   1       1.671   4.939  -4.690  0.00  0.00    -0.016 A 
ATOM      3  O   UNL d   1       3.606   3.703  -3.012  0.00  0.00    -0.275 OA
ATOM      4  C   UNL d   1       3.952   4.840  -3.718  0.00  0.00     0.288 A 
ATOM      5  C   UNL d   1       1.316   3.765  -3.877  0.00  0.00     0.007 A 
ATOM      6  C   UNL d   1       2.921   5.422  -4.589  0.00  0.00     0.092 A 
ATOM      7  C   UNL d   1       2.060   2.033  -2.314  0.00  0.00     0.062 A 
ATOM      8  C   UNL d   1       0.040   3.187  -3.860  0.00  0.00     0.017 A 
ATOM      9  C   UNL d   1       0.785   1.477  -2.317  0.00  0.00     0.025 A 
ATOM     10  O   UNL d   1       5.069   5.342  -3.653  0.00  0.00    -0.260 OA
ATOM     11  C   UNL d   1      -0.224   2.047  -3.089  0.00  0.00     0.025 A 
ENDROOT
BRANCH   9  12
ATOM     12  N   UNL d   1       0.522   0.281  -1.589  0.00  0.00    -0.186 NA
ATOM     13  H   UNL d   1       0.987   0.218  -0.681  0.00  0.00     0.145 HD
BRANCH  12  14
ATOM     14  S   UNL d   1       0.758  -1.185  -2.407  0.00  0.00     0.210 S 
ATOM     15  O   UNL d   1       1.184  -2.121  -1.388  0.00  0.00    -0.211 OA
ATOM     16  O   UNL d   1       1.532  -0.974  -3.607  0.00  0.00    -0.211 OA
ATOM     17  C   UNL d   1      -0.912  -1.608  -2.858  0.00  0.00     0.180 C 
ENDBRANCH  12  14
ENDBRANCH   9  12
BRANCH   2  18
ATOM     18  C   UNL d   1       0.687   5.541  -5.657  0.00  0.00     0.206 C 
BRANCH  18  19
ATOM     19  O   UNL d   1      -0.428   6.071  -4.943  0.00  0.00    -0.391 OA
ATOM     20  C   UNL d   1      -1.411   6.596  -5.827  0.00  0.00     0.201 C 
ENDBRANCH  18  19
ENDBRANCH   2  18
TORSDOF 4
