REMARK  7 active torsions:
REMARK  status: ('A' for Active; 'I' for Inactive)
REMARK    1  A    between atoms: C_2  and  C_1 
REMARK    2  A    between atoms: C_3  and  C_1 
REMARK    3  A    between atoms: C_8  and  C_1 
REMARK    4  A    between atoms: C_7  and  C_2 
REMARK    5  A    between atoms: C_4  and  C_3 
REMARK    6  A    between atoms: C_5  and  C_4 
REMARK    7  A    between atoms: O_15  and  C_12 
ROOT
ATOM      1  C   UNL d   1       1.153   0.061   0.168  0.00  0.00     0.101 C 
ENDROOT
BRANCH   1   2
ATOM      2  C   UNL d   1       1.089  -0.529   1.581  0.00  0.00     0.168 C 
ATOM      3  O   UNL d   1       1.132   0.179   2.587  0.00  0.00    -0.292 OA
BRANCH   2   4
ATOM      4  C   UNL d   1       1.077  -2.012   1.745  0.00  0.00     0.010 A 
ATOM      5  C   UNL d   1       1.737  -2.560   2.853  0.00  0.00     0.015 A 
ATOM      6  C   UNL d   1       1.764  -3.943   3.047  0.00  0.00     0.001 A 
ATOM      7  C   UNL d   1       1.123  -4.785   2.139  0.00  0.00     0.000 A 
ATOM      8  C   UNL d   1       0.447  -4.245   1.046  0.00  0.00     0.001 A 
ATOM      9  C   UNL d   1       0.417  -2.861   0.850  0.00  0.00     0.015 A 
ENDBRANCH   2   4
ENDBRANCH   1   2
BRANCH   1  10
ATOM     10  C   UNL d   1       0.437   1.416   0.102  0.00  0.00     0.101 C 
BRANCH  10  11
ATOM     11  C   UNL d   1      -1.071   1.350   0.212  0.00  0.00     0.160 C 
ATOM     12  O   UNL d   1      -1.685   0.287   0.242  0.00  0.00    -0.292 OA
BRANCH  11  13
ATOM     13  C   UNL d   1      -1.797   2.661   0.258  0.00  0.00     0.010 A 
ATOM     14  C   UNL d   1      -1.133   3.872   0.011  0.00  0.00     0.018 A 
ATOM     15  C   UNL d   1      -1.814   5.090   0.082  0.00  0.00     0.037 A 
ATOM     16  C   UNL d   1      -3.167   5.112   0.408  0.00  0.00     0.068 A 
ATOM     17  C   UNL d   1      -3.843   3.907   0.619  0.00  0.00     0.037 A 
ATOM     18  C   UNL d   1      -3.163   2.685   0.552  0.00  0.00     0.018 A 
BRANCH  16  19
ATOM     19  O   UNL d   1      -3.922   6.248   0.516  0.00  0.00    -0.356 OA
ATOM     20  C   UNL d   1      -3.204   7.420   0.895  0.00  0.00     0.210 C 
ENDBRANCH  16  19
ENDBRANCH  11  13
ENDBRANCH  10  11
ENDBRANCH   1  10
BRANCH   1  21
ATOM     21  C   UNL d   1       2.602   0.289  -0.266  0.00  0.00    -0.046 A 
ATOM     22  C   UNL d   1       3.114  -0.371  -1.391  0.00  0.00     0.008 A 
ATOM     23  C   UNL d   1       4.384  -0.053  -1.879  0.00  0.00     0.001 A 
ATOM     24  C   UNL d   1       5.154   0.925  -1.252  0.00  0.00     0.000 A 
ATOM     25  C   UNL d   1       4.673   1.564  -0.114  0.00  0.00     0.001 A 
ATOM     26  C   UNL d   1       3.413   1.237   0.385  0.00  0.00     0.008 A 
ENDBRANCH   1  21
TORSDOF 7
