REMARK  3 active torsions:
REMARK  status: ('A' for Active; 'I' for Inactive)
REMARK    1  A    between atoms: C_6  and  N_1 
REMARK    2  A    between atoms: C_5  and  C_2 
REMARK    3  A    between atoms: C_8  and  C_6 
ROOT
ATOM      1  N   UNL d   1      -0.470  -1.252   0.153  0.00  0.00    -0.334 N 
ATOM      2  C   UNL d   1       0.945  -1.351  -0.153  0.00  0.00     0.184 A 
ATOM      3  S   UNL d   1       1.544   0.342  -0.456  0.00  0.00    -0.129 SA
ATOM      4  C   UNL d   1      -1.059  -0.007   0.008  0.00  0.00     0.230 A 
ATOM      5  C   UNL d   1      -0.083   1.086  -0.339  0.00  0.00     0.179 A 
ATOM      6  O   UNL d   1      -2.262   0.213   0.147  0.00  0.00    -0.273 OA
ENDROOT
BRANCH   2   7
ATOM      7  C   UNL d   1       1.837  -2.007   0.872  0.00  0.00    -0.010 A 
ATOM      8  C   UNL d   1       1.573  -1.996   2.238  0.00  0.00     0.097 A 
ATOM      9  N   UNL d   1       2.424  -2.459   3.186  0.00  0.00    -0.375 N 
ATOM     10  C   UNL d   1       3.615  -2.931   2.761  0.00  0.00     0.087 A 
ATOM     11  HN  UNL d   1       2.176  -2.450   4.175  1.00  0.00     0.164 HD
ATOM     12  C   UNL d   1       3.980  -3.002   1.429  0.00  0.00     0.018 A 
ATOM     13  C   UNL d   1       3.074  -2.545   0.477  0.00  0.00     0.013 A 
ENDBRANCH   2   7
BRANCH   1  14
ATOM     14  C   UNL d   1      -1.298  -2.426   0.406  0.00  0.00     0.132 C 
BRANCH  14  15
ATOM     15  C   UNL d   1      -1.788  -3.171  -0.803  0.00  0.00     0.004 A 
ATOM     16  C   UNL d   1      -0.839  -3.987  -1.648  0.00  0.00     0.007 A 
ATOM     17  C   UNL d   1      -1.536  -2.794  -2.244  0.00  0.00     0.007 A 
ENDBRANCH  14  15
ENDBRANCH   1  14
TORSDOF 3
