REMARK  8 active torsions:
REMARK  status: ('A' for Active; 'I' for Inactive)
REMARK       I    between atoms: N_4  and  C_1 
REMARK       I    between atoms: N_5  and  C_1 
REMARK       I    between atoms: C_2  and  N_3 
REMARK       I    between atoms: N_6  and  C_2 
REMARK    1  A    between atoms: N_3  and  C_10 
REMARK    2  A    between atoms: C_9  and  N_4 
REMARK    3  A    between atoms: C_11  and  N_5 
REMARK    4  A    between atoms: C_12  and  N_6 
REMARK    5  A    between atoms: C_15  and  C_13 
REMARK    6  A    between atoms: C_14  and  C_15 
REMARK    7  A    between atoms: O_34  and  C_16 
REMARK    8  A    between atoms: O_35  and  C_17 
ROOT
ATOM      1  C   UNL d   1      -5.388  -0.598  -0.597  0.00  0.00     0.077 C 
ENDROOT
BRANCH   1   2
ATOM      2  C   UNL d   1      -5.896   0.668   0.051  0.00  0.00    -0.054 A 
ATOM      3  C   UNL d   1      -6.174   1.829  -0.684  0.00  0.00     0.010 A 
ATOM      4  C   UNL d   1      -6.540   3.016  -0.027  0.00  0.00     0.030 A 
ATOM      5  C   UNL d   1      -6.630   3.059   1.371  0.00  0.00     0.036 A 
ATOM      6  C   UNL d   1      -6.446   1.872   2.082  0.00  0.00     0.030 A 
ATOM      7  C   UNL d   1      -6.071   0.697   1.434  0.00  0.00     0.010 A 
BRANCH   5   8
ATOM      8  N   UNL d   1      -6.805   4.316   2.003  0.00  0.00    -0.309 N 
ATOM      9  C   UNL d   1      -6.832   4.542   3.351  0.00  0.00     0.325 C 
ATOM     10  N   UNL d   1      -6.638   5.806   3.815  0.00  0.00    -0.309 N 
ATOM     11  O   UNL d   1      -6.916   3.677   4.224  0.00  0.00    -0.247 OA
ATOM     12  H   UNL d   1      -6.424   5.747   4.804  0.00  0.00     0.170 HD
ATOM     13  H   UNL d   1      -6.717   5.115   1.401  0.00  0.00     0.170 HD
BRANCH  10  14
ATOM     14  C   UNL d   1      -6.535   7.077   3.244  0.00  0.00     0.036 A 
ATOM     15  C   UNL d   1      -7.085   7.454   2.022  0.00  0.00     0.032 A 
ATOM     16  C   UNL d   1      -6.870   8.746   1.520  0.00  0.00     0.039 A 
ATOM     17  C   UNL d   1      -6.126   9.675   2.247  0.00  0.00     0.068 A 
ATOM     18  C   UNL d   1      -5.644   9.323   3.505  0.00  0.00     0.039 A 
ATOM     19  C   UNL d   1      -5.856   8.038   4.005  0.00  0.00     0.032 A 
BRANCH  17  20
ATOM     20  O   UNL d   1      -5.821  10.948   1.854  0.00  0.00    -0.356 OA
ATOM     21  C   UNL d   1      -6.113  11.282   0.503  0.00  0.00     0.210 C 
ENDBRANCH  17  20
ENDBRANCH  10  14
ENDBRANCH   5   8
ENDBRANCH   1   2
BRANCH   1  22
ATOM     22  C   UNL d   1      -3.893  -0.650  -0.842  0.00  0.00    -0.054 A 
ATOM     23  C   UNL d   1      -2.937  -0.374   0.152  0.00  0.00     0.010 A 
ATOM     24  C   UNL d   1      -1.560  -0.420  -0.134  0.00  0.00     0.030 A 
ATOM     25  C   UNL d   1      -1.120  -0.736  -1.421  0.00  0.00     0.036 A 
ATOM     26  C   UNL d   1      -2.070  -1.113  -2.373  0.00  0.00     0.030 A 
ATOM     27  C   UNL d   1      -3.435  -1.058  -2.095  0.00  0.00     0.010 A 
BRANCH  25  28
ATOM     28  N   UNL d   1       0.265  -0.649  -1.731  0.00  0.00    -0.309 N 
ATOM     29  C   UNL d   1       0.732  -0.444  -3.021  0.00  0.00     0.325 C 
ATOM     30  N   UNL d   1       2.115  -0.522  -3.111  0.00  0.00    -0.309 N 
ATOM     31  O   UNL d   1      -0.003  -0.230  -3.978  0.00  0.00    -0.247 OA
ATOM     32  H   UNL d   1       2.604  -0.872  -2.303  0.00  0.00     0.170 HD
ATOM     33  H   UNL d   1       0.887  -0.404  -0.976  0.00  0.00     0.170 HD
BRANCH  30  34
ATOM     34  C   UNL d   1       2.854  -0.412  -4.315  0.00  0.00     0.036 A 
ATOM     35  C   UNL d   1       2.310   0.026  -5.525  0.00  0.00     0.032 A 
ATOM     36  C   UNL d   1       3.056   0.028  -6.708  0.00  0.00     0.039 A 
ATOM     37  C   UNL d   1       4.381  -0.391  -6.698  0.00  0.00     0.068 A 
ATOM     38  C   UNL d   1       4.954  -0.777  -5.483  0.00  0.00     0.039 A 
ATOM     39  C   UNL d   1       4.203  -0.785  -4.300  0.00  0.00     0.032 A 
BRANCH  37  40
ATOM     40  O   UNL d   1       5.201  -0.466  -7.789  0.00  0.00    -0.356 OA
ATOM     41  C   UNL d   1       4.613  -0.156  -9.049  0.00  0.00     0.210 C 
ENDBRANCH  37  40
ENDBRANCH  30  34
ENDBRANCH  25  28
ENDBRANCH   1  22
TORSDOF 8
