REMARK  3 active torsions:
REMARK  status: ('A' for Active; 'I' for Inactive)
REMARK    1  A    between atoms: C_2  and  S_1 
REMARK    2  A    between atoms: N_3  and  S_1 
REMARK    3  A    between atoms: C_4  and  C_6 
ROOT
ATOM      1  S   UNL d   1       1.058  -0.043  -0.181  0.00  0.00     0.266 S 
ATOM      2  O   UNL d   1       0.820  -0.496   1.170  0.00  0.00    -0.200 OA
ATOM      3  O   UNL d   1       2.424   0.033  -0.683  0.00  0.00    -0.200 OA
ENDROOT
BRANCH   1   4
ATOM      4  C   UNL d   1       0.380   1.595  -0.361  0.00  0.00     0.107 A 
ATOM      5  C   UNL d   1      -0.981   1.812  -0.149  0.00  0.00     0.066 A 
ATOM      6  N   UNL d   1      -1.839   0.825   0.189  0.00  0.00    -0.364 N 
ATOM      7  C   UNL d   1      -1.456   3.131  -0.335  0.00  0.00    -0.008 A 
ATOM      8  C   UNL d   1      -3.152   1.100   0.340  0.00  0.00     0.088 A 
ATOM      9  HN  UNL d   1      -1.495  -0.125   0.331  1.00  0.00     0.165 HD
ATOM     10  C   UNL d   1      -3.690   2.354   0.177  0.00  0.00     0.018 A 
ATOM     11  C   UNL d   1      -2.823   3.386  -0.156  0.00  0.00     0.015 A 
ATOM     12  C   UNL d   1      -0.584   4.170  -0.706  0.00  0.00     0.014 A 
ATOM     13  C   UNL d   1       0.765   3.920  -0.919  0.00  0.00     0.003 A 
ATOM     14  C   UNL d   1       1.251   2.631  -0.749  0.00  0.00     0.028 A 
ENDBRANCH   1   4
BRANCH   1  15
ATOM     15  N   UNL d   1       0.189  -1.002  -1.318  0.00  0.00    -0.281 N 
ATOM     16  C   UNL d   1       0.335  -0.581  -2.670  0.00  0.00     0.105 C 
ATOM     17  C   UNL d   1      -0.331  -1.131  -3.684  0.00  0.00     0.052 C 
ATOM     18  C   UNL d   1      -1.254  -2.306  -3.700  0.00  0.00     0.114 C 
ATOM     19  N   UNL d   1      -2.110  -2.623  -2.784  0.00  0.00    -0.384 N 
ATOM     20  C   UNL d   1      -2.187  -1.774  -1.597  0.00  0.00     0.141 C 
ATOM     21  HN  UNL d   1      -2.712  -3.440  -2.887  1.00  0.00     0.159 HD
ATOM     22  C   UNL d   1      -0.901  -1.855  -0.780  0.00  0.00     0.160 C 
BRANCH  18  23
ATOM     23  C   UNL d   1      -1.180  -3.166  -4.973  0.00  0.00     0.432 C 
ATOM     24  F   UNL d   1      -0.267  -2.697  -5.873  0.00  0.00    -0.165 F 
ATOM     25  F   UNL d   1      -0.830  -4.454  -4.715  0.00  0.00    -0.165 F 
ATOM     26  F   UNL d   1      -2.368  -3.204  -5.636  0.00  0.00    -0.165 F 
ENDBRANCH  18  23
ENDBRANCH   1  15
TORSDOF 3
