REMARK  4 active torsions:
REMARK  status: ('A' for Active; 'I' for Inactive)
REMARK    1  A    between atoms: C_11  and  N_1 
REMARK    2  A    between atoms: N_6  and  C_8 
REMARK    3  A    between atoms: C_13  and  C_11 
REMARK    4  A    between atoms: O_20  and  C_13 
ROOT
ATOM      1  N   UNL d   1       2.291  -0.168   0.127  0.00  0.00    -0.270 N 
ATOM      2  C   UNL d   1       1.578  -1.345  -0.095  0.00  0.00     0.262 C 
ATOM      3  C   UNL d   1       1.715   1.101   0.167  0.00  0.00     0.262 C 
ATOM      4  C   UNL d   1       0.102  -1.258  -0.028  0.00  0.00     0.047 A 
ATOM      5  C   UNL d   1       0.240   1.178   0.056  0.00  0.00     0.044 A 
ATOM      6  C   UNL d   1      -0.513  -0.002   0.018  0.00  0.00     0.006 A 
ATOM      7  C   UNL d   1      -2.051  -2.350   0.039  0.00  0.00     0.104 A 
ATOM      8  C   UNL d   1      -0.657  -2.436  -0.021  0.00  0.00     0.054 A 
ATOM      9  C   UNL d   1      -1.927   0.079   0.028  0.00  0.00    -0.021 A 
ATOM     10  C   UNL d   1      -2.688  -1.101   0.052  0.00  0.00     0.048 A 
ATOM     11  O   UNL d   1       2.101  -2.426  -0.339  0.00  0.00    -0.267 OA
ATOM     12  O   UNL d   1       2.368   2.126   0.327  0.00  0.00    -0.267 OA
ATOM     13  C   UNL d   1      -0.388   2.429   0.041  0.00  0.00     0.018 A 
ATOM     14  C   UNL d   1      -2.542   1.341   0.017  0.00  0.00     0.012 A 
ATOM     15  C   UNL d   1      -1.778   2.508   0.008  0.00  0.00     0.002 A 
ENDROOT
BRANCH   1  16
ATOM     16  C   UNL d   1       3.758  -0.243   0.126  0.00  0.00     0.245 C 
BRANCH  16  17
ATOM     17  C   UNL d   1       4.400  -0.297   1.508  0.00  0.00     0.158 C 
ATOM     18  O   UNL d   1       5.614  -0.371   1.676  0.00  0.00    -0.649 OA
BRANCH  17  19
ATOM     19  O   UNL d   1       3.549  -0.267   2.559  0.00  0.00    -0.775 OA
ATOM     20  H   UNL d   1       2.619  -0.171   2.293  0.00  0.00     0.167 HD
ENDBRANCH  17  19
ENDBRANCH  16  17
ENDBRANCH   1  16
BRANCH   7  21
ATOM     21  N   UNL d   1      -2.854  -3.579   0.098  0.00  0.00    -0.116 N 
ATOM     22  O   UNL d   1      -2.252  -4.659   0.094  0.00  0.00    -0.532 OA
ATOM     23  O   UNL d   1      -4.086  -3.455   0.156  0.00  0.00    -0.532 OA
ENDBRANCH   7  21
TORSDOF 4
