REMARK  5 active torsions:
REMARK  status: ('A' for Active; 'I' for Inactive)
REMARK    1  A    between atoms: C_2  and  C_1 
REMARK       I    between atoms: N_12  and  C_2 
REMARK    2  A    between atoms: C_10  and  C_3 
REMARK    3  A    between atoms: N_11  and  C_6 
REMARK    4  A    between atoms: O_20  and  C_10 
REMARK    5  A    between atoms: C_16  and  N_12 
ROOT
ATOM      1  C   UNL d   1      -3.936   0.786   1.121  0.00  0.00     0.068 A 
ATOM      2  C   UNL d   1      -5.004   1.181   0.293  0.00  0.00     0.046 A 
ATOM      3  C   UNL d   1      -2.700   1.468   1.110  0.00  0.00     0.049 A 
ATOM      4  C   UNL d   1      -4.747   2.276  -0.556  0.00  0.00     0.032 A 
ATOM      5  C   UNL d   1      -2.463   2.529   0.241  0.00  0.00     0.036 A 
ATOM      6  C   UNL d   1      -3.502   2.930  -0.596  0.00  0.00     0.032 A 
ENDROOT
BRANCH   5   7
ATOM      7  N   UNL d   1      -1.206   3.168   0.109  0.00  0.00    -0.323 N 
ATOM      8  C   UNL d   1      -0.089   2.957   0.905  0.00  0.00     0.260 C 
ATOM      9  O   UNL d   1      -0.106   2.287   1.935  0.00  0.00    -0.267 OA
ATOM     10  H   UNL d   1      -1.120   3.798  -0.673  0.00  0.00     0.169 HD
BRANCH   8  11
ATOM     11  C   UNL d   1       1.162   3.563   0.465  0.00  0.00     0.087 A 
ATOM     12  C   UNL d   1       2.386   3.232   1.025  0.00  0.00     0.090 A 
ATOM     13  O   UNL d   1       3.379   3.923   0.418  0.00  0.00    -0.242 OA
ATOM     14  C   UNL d   1       2.807   2.308   2.102  0.00  0.00     0.080 C 
ATOM     15  N   UNL d   1       2.843   4.738  -0.550  0.00  0.00    -0.265 N 
ATOM     16  C   UNL d   1       1.518   4.538  -0.516  0.00  0.00     0.047 A 
ATOM     17  HN  UNL d   1       3.351   5.369  -1.170  1.00  0.00     0.194 HD
ATOM     18  C   UNL d   1       0.684   5.332  -1.447  0.00  0.00     0.071 C 
ENDBRANCH   8  11
ENDBRANCH   5   7
BRANCH   1  19
ATOM     19  C   UNL d   1      -3.944  -0.497   1.865  0.00  0.00     0.295 C 
ATOM     20  O   UNL d   1      -4.318  -1.565   1.407  0.00  0.00    -0.259 OA
BRANCH  19  21
ATOM     21  O   UNL d   1      -3.415  -0.308   3.100  0.00  0.00    -0.322 OA
ATOM     22  C   UNL d   1      -3.171  -1.520   3.819  0.00  0.00     0.213 C 
ENDBRANCH  19  21
ENDBRANCH   1  19
BRANCH   2  23
ATOM     23  N   UNL d   1      -6.235   0.559   0.253  0.00  0.00    -0.376 N 
ATOM     24  C   UNL d   1      -6.995   0.173   1.454  0.00  0.00     0.149 C 
ATOM     25  C   UNL d   1      -7.532  -1.265   1.318  0.00  0.00     0.187 C 
ATOM     26  O   UNL d   1      -8.259  -1.449   0.089  0.00  0.00    -0.388 OA
ATOM     27  C   UNL d   1      -7.400  -1.170  -1.031  0.00  0.00     0.187 C 
ATOM     28  C   UNL d   1      -6.929   0.293  -1.015  0.00  0.00     0.149 C 
ENDBRANCH   2  23
TORSDOF 5
