REMARK  5 active torsions:
REMARK  status: ('A' for Active; 'I' for Inactive)
REMARK    1  A    between atoms: N_2  and  S_1 
REMARK    2  A    between atoms: C_3  and  S_1 
REMARK    3  A    between atoms: N_4  and  C_11 
REMARK    4  A    between atoms: O_6  and  C_5 
REMARK    5  A    between atoms: C_13  and  O_6 
ROOT
ATOM      1  C   UNL d   1       0.704  -0.695  -1.588  0.00  0.00     0.083 C 
ATOM      2  C   UNL d   1      -0.679  -2.299  -3.397  0.00  0.00     0.119 C 
ATOM      3  C   UNL d   1      -0.982  -2.359  -2.023  0.00  0.00     0.071 C 
ATOM      4  C   UNL d   1       0.416  -1.527  -3.822  0.00  0.00     0.071 C 
ATOM      5  C   UNL d   1       1.121  -0.732  -2.918  0.00  0.00     0.052 C 
ATOM      6  C   UNL d   1      -0.323  -1.519  -1.130  0.00  0.00     0.052 C 
ATOM      7 CL   UNL d   1       0.921  -1.510  -5.473  0.00  0.00    -0.081 Cl
ATOM      8 CL   UNL d   1      -2.143  -3.449  -1.347  0.00  0.00    -0.081 Cl
ENDROOT
BRANCH   1   9
ATOM      9  S   UNL d   1       1.485   0.392  -0.433  0.00  0.00     0.261 S 
ATOM     10  O   UNL d   1       1.896  -0.442   0.682  0.00  0.00    -0.200 OA
ATOM     11  O   UNL d   1       2.428   1.215  -1.154  0.00  0.00    -0.200 OA
BRANCH   9  12
ATOM     12  N   UNL d   1       0.179   1.368   0.059  0.00  0.00    -0.306 N 
ATOM     13  C   UNL d   1      -0.375   2.356  -0.907  0.00  0.00     0.139 C 
ATOM     14  C   UNL d   1       0.309   3.736  -0.832  0.00  0.00     0.001 C 
ATOM     15  C   UNL d   1      -0.522   4.781  -1.582  0.00  0.00     0.011 C 
ATOM     16  C   UNL d   1       0.565   4.215   0.610  0.00  0.00     0.011 C 
ATOM     17  C   UNL d   1       1.218   3.105   1.437  0.00  0.00     0.001 C 
ATOM     18  C   UNL d   1       0.276   1.904   1.435  0.00  0.00     0.139 C 
ATOM     19  C   UNL d   1       1.546   3.543   2.857  0.00  0.00     0.011 C 
ENDBRANCH   9  12
ENDBRANCH   1   9
BRANCH   2  20
ATOM     20  O   UNL d   1      -1.393  -2.974  -4.367  0.00  0.00    -0.306 OA
BRANCH  20  21
ATOM     21  C   UNL d   1      -2.773  -2.877  -4.353  0.00  0.00     0.098 A 
ATOM     22  C   UNL d   1      -3.508  -3.993  -4.777  0.00  0.00     0.070 A 
ATOM     23  C   UNL d   1      -4.901  -4.005  -4.670  0.00  0.00     0.062 A 
ATOM     24 CL   UNL d   1      -2.723  -5.397  -5.402  0.00  0.00    -0.081 Cl
ATOM     25  C   UNL d   1      -5.556  -2.890  -4.132  0.00  0.00     0.104 A 
ATOM     26  C   UNL d   1      -4.837  -1.752  -3.750  0.00  0.00     0.039 A 
ATOM     27  C   UNL d   1      -3.449  -1.733  -3.897  0.00  0.00     0.041 A 
BRANCH  25  28
ATOM     28  N   UNL d   1      -7.013  -2.914  -3.958  0.00  0.00    -0.116 N 
ATOM     29  O   UNL d   1      -7.626  -3.898  -4.395  0.00  0.00    -0.532 OA
ATOM     30  O   UNL d   1      -7.543  -1.947  -3.388  0.00  0.00    -0.532 OA
ENDBRANCH  25  28
ENDBRANCH  20  21
ENDBRANCH   2  20
TORSDOF 5
