REMARK  11 active torsions:
REMARK  status: ('A' for Active; 'I' for Inactive)
REMARK    1  A    between atoms: S_16  and  C_7 
REMARK    2  A    between atoms: S_15  and  C_8 
REMARK    3  A    between atoms: C_17  and  C_13 
REMARK    4  A    between atoms: C_14  and  C_18 
REMARK    5  A    between atoms: C_20  and  C_17 
REMARK    6  A    between atoms: C_18  and  C_19 
REMARK    7  A    between atoms: C_19  and  C_24 
REMARK    8  A    between atoms: C_21  and  C_20 
REMARK    9  A    between atoms: C_22  and  C_21 
REMARK   10  A    between atoms: C_23  and  C_22 
REMARK   11  A    between atoms: C_24  and  C_23 
ROOT
ATOM      1  C   UNL d   1       6.786  -0.469   0.000  0.00  0.00     0.000 C 
ENDROOT
BRANCH   1   2
ATOM      2  C   UNL d   1       5.563  -1.388   0.002  0.00  0.00     0.000 C 
BRANCH   2   3
ATOM      3  C   UNL d   1       4.288  -0.547   0.001  0.00  0.00     0.008 C 
BRANCH   3   4
ATOM      4  C   UNL d   1       3.021  -1.397   0.006  0.00  0.00     0.086 C 
BRANCH   4   5
ATOM      5  C   UNL d   1       1.820  -0.530  -0.007  0.00  0.00     0.141 A 
ATOM      6  N   UNL d   1       1.161  -0.032  -1.029  0.00  0.00    -0.281 N 
ATOM      7  N   UNL d   1       0.144   0.731  -0.496  0.00  0.00    -0.272 N 
ATOM      8  HN  UNL d   1       1.361  -0.180  -2.018  1.00  0.00     0.189 HD
ATOM      9  C   UNL d   1       0.257   0.650   0.816  0.00  0.00     0.200 A 
ATOM     10  HN  UNL d   1      -0.559   1.256  -1.015  1.00  0.00     0.189 HD
ATOM     11  O   UNL d   1       1.311  -0.136   1.203  0.00  0.00    -0.272 OA
BRANCH   9  12
ATOM     12  S   UNL d   1      -0.804   1.450   1.920  0.00  0.00    -0.098 SA
ATOM     13  H   UNL d   1      -1.573   2.016   0.981  0.00  0.00     0.110 HD
ENDBRANCH   9  12
ENDBRANCH   4   5
ENDBRANCH   3   4
ENDBRANCH   2   3
ENDBRANCH   1   2
BRANCH   1  14
ATOM     14  C   UNL d   1       8.085  -1.265  -0.000  0.00  0.00     0.000 C 
BRANCH  14  15
ATOM     15  C   UNL d   1       9.306  -0.341  -0.001  0.00  0.00     0.000 C 
BRANCH  15  16
ATOM     16  C   UNL d   1      10.586  -1.175  -0.004  0.00  0.00     0.008 C 
BRANCH  16  17
ATOM     17  C   UNL d   1      11.855  -0.324  -0.008  0.00  0.00     0.086 C 
BRANCH  17  18
ATOM     18  C   UNL d   1      13.056  -1.191   0.005  0.00  0.00     0.141 A 
ATOM     19  O   UNL d   1      13.580  -1.588  -1.196  0.00  0.00    -0.272 OA
ATOM     20  C   UNL d   1      14.627  -2.381  -0.793  0.00  0.00     0.200 A 
ATOM     21  N   UNL d   1      14.721  -2.458   0.517  0.00  0.00    -0.272 N 
ATOM     22  N   UNL d   1      13.702  -1.689   1.038  0.00  0.00    -0.281 N 
ATOM     23  HN  UNL d   1      15.415  -2.987   1.046  1.00  0.00     0.189 HD
ATOM     24  HN  UNL d   1      13.492  -1.537   2.024  1.00  0.00     0.189 HD
BRANCH  20  25
ATOM     25  S   UNL d   1      15.698  -3.187  -1.892  0.00  0.00    -0.098 SA
ATOM     26  H   UNL d   1      15.138  -2.763  -3.029  0.00  0.00     0.110 HD
ENDBRANCH  20  25
ENDBRANCH  17  18
ENDBRANCH  16  17
ENDBRANCH  15  16
ENDBRANCH  14  15
ENDBRANCH   1  14
TORSDOF 11
