REMARK  3 active torsions:
REMARK  status: ('A' for Active; 'I' for Inactive)
REMARK    1  A    between atoms: C_4  and  C_1 
REMARK    2  A    between atoms: C_9  and  C_3 
REMARK       I    between atoms: N_7  and  C_4 
REMARK    3  A    between atoms: C_13  and  N_7 
ROOT
ATOM      1  C   UNL d   1      -2.752  -1.279  -0.037  0.00  0.00     0.258 C 
ATOM      2  N   UNL d   1      -3.927  -0.543   0.016  0.00  0.00    -0.323 N 
ATOM      3  O   UNL d   1      -2.713  -2.499  -0.160  0.00  0.00    -0.267 OA
ATOM      4  H   UNL d   1      -3.862   0.448  -0.144  0.00  0.00     0.169 HD
ENDROOT
BRANCH   1   5
ATOM      5  C   UNL d   1      -1.492  -0.540   0.036  0.00  0.00     0.064 A 
ATOM      6  C   UNL d   1      -0.217  -1.150  -0.216  0.00  0.00     0.053 A 
ATOM      7  C   UNL d   1       0.756  -0.207   0.007  0.00  0.00     0.062 A 
ATOM      8  O   UNL d   1       0.159   0.964   0.364  0.00  0.00    -0.318 OA
ATOM      9  C   UNL d   1      -1.192   0.764   0.408  0.00  0.00     0.065 A 
ATOM     10  C   UNL d   1      -1.939   1.951   0.871  0.00  0.00     0.077 C 
BRANCH   7  11
ATOM     11  C   UNL d   1       2.261  -0.205  -0.048  0.00  0.00    -0.002 C 
ATOM     12  C   UNL d   1       2.811  -1.613  -0.353  0.00  0.00     0.021 C 
ATOM     13  C   UNL d   1       2.730   0.755  -1.154  0.00  0.00     0.021 C 
ATOM     14  C   UNL d   1       2.832   0.253   1.307  0.00  0.00     0.021 C 
ENDBRANCH   7  11
ENDBRANCH   1   5
BRANCH   2  15
ATOM     15  C   UNL d   1      -5.220  -1.075   0.253  0.00  0.00     0.037 A 
ATOM     16  C   UNL d   1      -5.440  -2.403   0.646  0.00  0.00     0.069 A 
ATOM     17  C   UNL d   1      -6.719  -2.789   0.988  0.00  0.00     0.107 A 
ATOM     18  O   UNL d   1      -7.075  -4.016   1.455  0.00  0.00    -0.323 OA
ATOM     19  C   UNL d   1      -7.782  -1.923   0.923  0.00  0.00     0.105 A 
ATOM     20  C   UNL d   1      -8.454  -3.779   1.801  0.00  0.00     0.352 C 
ATOM     21  O   UNL d   1      -8.939  -2.498   1.348  0.00  0.00    -0.323 OA
ATOM     22  C   UNL d   1      -7.621  -0.625   0.493  0.00  0.00     0.042 A 
ATOM     23  C   UNL d   1      -6.326  -0.197   0.165  0.00  0.00     0.032 A 
ENDBRANCH   2  15
TORSDOF 3
