REMARK  3 active torsions:
REMARK  status: ('A' for Active; 'I' for Inactive)
REMARK    1  A    between atoms: C_7  and  S_1 
REMARK    2  A    between atoms: O_13  and  S_1 
REMARK    3  A    between atoms: C_12  and  C_4 
ROOT
ATOM      1  N   UNL d   1      -2.634  -3.791   0.911  0.00  0.00    -0.340 N 
ATOM      2  HN  UNL d   1      -3.476  -3.258   1.130  1.00  0.00     0.167 HD
ATOM      3  C   UNL d   1      -2.511  -5.104   0.887  0.00  0.00     0.116 A 
ATOM      4  N   UNL d   1      -1.221  -5.452   0.556  0.00  0.00    -0.340 N 
ATOM      5  C   UNL d   1      -1.402  -3.287   0.583  0.00  0.00     0.062 A 
ATOM      6  C   UNL d   1       0.354  -1.725   0.133  0.00  0.00     0.074 A 
ATOM      7  C   UNL d   1      -0.491  -4.311   0.357  0.00  0.00     0.060 A 
ATOM      8  C   UNL d   1      -0.987  -1.958   0.468  0.00  0.00     0.057 A 
ATOM      9  C   UNL d   1       1.257  -2.770  -0.096  0.00  0.00     0.028 A 
ATOM     10  C   UNL d   1       0.848  -4.101   0.021  0.00  0.00     0.033 A 
ATOM     11  H   UNL d   1      -0.865  -6.395   0.515  0.00  0.00     0.167 HD
ENDROOT
BRANCH   3  12
ATOM     12  C   UNL d   1      -3.539  -6.086   1.227  0.00  0.00     0.008 A 
ATOM     13  C   UNL d   1      -3.546  -7.368   0.658  0.00  0.00     0.015 A 
ATOM     14  C   UNL d   1      -4.503  -8.310   1.042  0.00  0.00     0.001 A 
ATOM     15  C   UNL d   1      -5.464  -7.978   1.995  0.00  0.00     0.000 A 
ATOM     16  C   UNL d   1      -5.482  -6.700   2.550  0.00  0.00     0.001 A 
ATOM     17  C   UNL d   1      -4.530  -5.756   2.161  0.00  0.00     0.015 A 
ENDBRANCH   3  12
BRANCH   6  18
ATOM     18  S   UNL d   1       0.890  -0.052  -0.066  0.00  0.00     0.129 S 
ATOM     19  O   UNL d   1       1.928  -0.040  -1.074  0.00  0.00    -0.598 OA
ATOM     20  O   UNL d   1       1.082   0.505   1.252  0.00  0.00    -0.598 OA
BRANCH  18  21
ATOM     21  O   UNL d   1      -0.372   0.681  -0.756  0.00  0.00    -0.292 OA
ATOM     22  H   UNL d   1      -0.232   0.674  -1.724  0.00  0.00     0.232 HD
ENDBRANCH  18  21
ENDBRANCH   6  18
TORSDOF 3
