REMARK  2 active torsions:
REMARK  status: ('A' for Active; 'I' for Inactive)
REMARK    1  A    between atoms: C_4  and  O_10 
REMARK    2  A    between atoms: O_10  and  C_11 
ROOT
ATOM      1  N   UNL d   1       1.196  -0.304   2.184  0.00  0.00    -0.195 NA
ATOM      2  C   UNL d   1       2.294  -0.095   1.864  0.00  0.00     0.085 C 
ATOM      3  C   UNL d   1       3.686   0.198   1.484  0.00  0.00     0.299 C 
ENDROOT
BRANCH   3   4
ATOM      4  O   UNL d   1       4.335  -1.008   1.068  0.00  0.00    -0.338 OA
BRANCH   4   5
ATOM      5  C   UNL d   1       5.692  -1.053   1.223  0.00  0.00     0.070 A 
ATOM      6  C   UNL d   1       6.226  -2.339   1.343  0.00  0.00     0.038 A 
ATOM      7  C   UNL d   1       7.596  -2.523   1.536  0.00  0.00     0.022 A 
ATOM      8  C   UNL d   1       8.436  -1.414   1.593  0.00  0.00     0.011 A 
ATOM      9  C   UNL d   1       7.917  -0.128   1.440  0.00  0.00     0.022 A 
ATOM     10 BR   UNL d   1      10.288  -1.653   1.879  0.00  0.00    -0.051 Br
ATOM     11  C   UNL d   1       6.543   0.053   1.246  0.00  0.00     0.038 A 
ENDBRANCH   4   5
ENDBRANCH   3   4
TORSDOF 2
