REMARK  9 active torsions:
REMARK  status: ('A' for Active; 'I' for Inactive)
REMARK    1  A    between atoms: O_4  and  C_1 
REMARK       I    between atoms: N_13  and  C_1 
REMARK    2  A    between atoms: C_2  and  C_3 
REMARK    3  A    between atoms: C_3  and  O_4 
REMARK    4  A    between atoms: C_5  and  C_9 
REMARK    5  A    between atoms: O_16  and  C_5 
REMARK    6  A    between atoms: C_9  and  C_15 
REMARK    7  A    between atoms: O_18  and  C_10 
REMARK    8  A    between atoms: O_17  and  C_11 
REMARK    9  A    between atoms: C_15  and  N_13 
ROOT
ATOM      1  C   UNL d   1       1.025  -1.420   1.782  0.00  0.00     0.092 C 
ATOM      2  C   UNL d   1       1.599  -0.579   2.953  0.00  0.00     0.052 C 
ATOM      3  C   UNL d   1      -0.223  -2.133   2.368  0.00  0.00     0.052 C 
ENDROOT
BRANCH   1   4
ATOM      4  C   UNL d   1       1.934  -2.506   1.169  0.00  0.00    -0.019 A 
ATOM      5  C   UNL d   1       3.238  -2.783   1.625  0.00  0.00     0.047 A 
ATOM      6  C   UNL d   1       3.967  -3.863   1.109  0.00  0.00     0.071 A 
ATOM      7  C   UNL d   1       3.413  -4.666   0.110  0.00  0.00     0.073 A 
ATOM      8  C   UNL d   1       2.148  -4.392  -0.396  0.00  0.00     0.071 A 
ATOM      9  C   UNL d   1       1.426  -3.317   0.129  0.00  0.00     0.047 A 
BRANCH   6  10
ATOM     10  O   UNL d   1       5.213  -4.273   1.501  0.00  0.00    -0.356 OA
ATOM     11  C   UNL d   1       5.928  -3.446   2.406  0.00  0.00     0.210 C 
ENDBRANCH   6  10
BRANCH   8  12
ATOM     12  O   UNL d   1       1.507  -5.104  -1.373  0.00  0.00    -0.356 OA
ATOM     13  C   UNL d   1       2.242  -6.166  -1.972  0.00  0.00     0.210 C 
ENDBRANCH   8  12
ENDBRANCH   1   4
BRANCH   1  14
ATOM     14  O   UNL d   1       0.497  -0.537   0.744  0.00  0.00    -0.289 OA
BRANCH  14  15
ATOM     15  C   UNL d   1       1.350   0.301   0.111  0.00  0.00     0.361 C 
ATOM     16  O   UNL d   1       2.560   0.390   0.303  0.00  0.00    -0.238 OA
ATOM     17  N   UNL d   1       0.746   1.145  -0.782  0.00  0.00    -0.336 N 
ATOM     18  H   UNL d   1       1.428   1.717  -1.265  0.00  0.00     0.164 HD
BRANCH  17  19
ATOM     19  C   UNL d   1      -0.559   0.973  -1.401  0.00  0.00     0.135 C 
BRANCH  19  20
ATOM     20  C   UNL d   1      -1.349   2.278  -1.411  0.00  0.00     0.129 C 
BRANCH  20  21
ATOM     21  C   UNL d   1      -2.637   2.120  -2.175  0.00  0.00     0.140 C 
ATOM     22  O   UNL d   1      -2.982   1.111  -2.776  0.00  0.00    -0.650 OA
BRANCH  21  23
ATOM     23  O   UNL d   1      -3.399   3.236  -2.151  0.00  0.00    -0.776 OA
ATOM     24  H   UNL d   1      -3.010   3.975  -1.648  0.00  0.00     0.167 HD
ENDBRANCH  21  23
ENDBRANCH  20  21
ENDBRANCH  19  20
ENDBRANCH  17  19
ENDBRANCH  14  15
ENDBRANCH   1  14
TORSDOF 9
