REMARK  4 active torsions:
REMARK  status: ('A' for Active; 'I' for Inactive)
REMARK    1  A    between atoms: C_3  and  C_1 
REMARK    2  A    between atoms: O_8  and  C_3 
REMARK    3  A    between atoms: C_10  and  O_8 
REMARK    4  A    between atoms: O_17  and  C_11 
ROOT
ATOM      1  C   UNL d   1      -0.414  -2.967   0.553  0.00  0.00     0.308 C 
ATOM      2  O   UNL d   1      -0.385  -2.257   1.552  0.00  0.00    -0.258 OA
ENDROOT
BRANCH   1   3
ATOM      3  C   UNL d   1      -1.627  -3.445  -0.061  0.00  0.00     0.118 A 
ATOM      4  C   UNL d   1      -2.953  -3.227   0.297  0.00  0.00     0.043 A 
ATOM      5  N   UNL d   1      -3.884  -3.837  -0.540  0.00  0.00    -0.296 N 
ATOM      6  C   UNL d   1      -3.492  -2.439   1.437  0.00  0.00     0.071 C 
ATOM      7  N   UNL d   1      -3.307  -4.508  -1.519  0.00  0.00    -0.061 NA
ATOM      8  HN  UNL d   1      -4.894  -3.772  -0.411  1.00  0.00     0.183 HD
ATOM      9  S   UNL d   1      -1.643  -4.429  -1.464  0.00  0.00     0.008 SA
ENDBRANCH   1   3
BRANCH   1  10
ATOM     10  O   UNL d   1       0.718  -3.406  -0.146  0.00  0.00    -0.275 OA
BRANCH  10  11
ATOM     11  C   UNL d   1       2.058  -3.011   0.095  0.00  0.00     0.079 A 
ATOM     12  C   UNL d   1       2.457  -2.142   1.106  0.00  0.00     0.040 A 
ATOM     13  C   UNL d   1       3.798  -1.757   1.201  0.00  0.00     0.039 A 
ATOM     14  C   UNL d   1       4.735  -2.235   0.285  0.00  0.00     0.068 A 
ATOM     15  C   UNL d   1       4.337  -3.148  -0.692  0.00  0.00     0.039 A 
ATOM     16  C   UNL d   1       2.998  -3.532  -0.796  0.00  0.00     0.040 A 
BRANCH  14  17
ATOM     17  O   UNL d   1       6.060  -1.895   0.278  0.00  0.00    -0.356 OA
ATOM     18  C   UNL d   1       6.341  -0.576   0.740  0.00  0.00     0.210 C 
ENDBRANCH  14  17
ENDBRANCH  10  11
ENDBRANCH   1  10
TORSDOF 4
