REMARK  3 active torsions:
REMARK  status: ('A' for Active; 'I' for Inactive)
REMARK    1  A    between atoms: C_3  and  C_1 
REMARK       I    between atoms: C_2  and  N_4 
REMARK       I    between atoms: N_5  and  C_2 
REMARK    2  A    between atoms: N_4  and  C_3 
REMARK    3  A    between atoms: C_11  and  N_5 
ROOT
ATOM      1  C   UNL d   1      -0.180   2.240   0.376  0.00  0.00     0.167 C 
ENDROOT
BRANCH   1   2
ATOM      2  C   UNL d   1      -0.487   0.760   0.358  0.00  0.00     0.020 A 
ATOM      3  C   UNL d   1      -1.760   0.241   0.097  0.00  0.00     0.126 A 
ATOM      4  F   UNL d   1      -2.795   1.062  -0.145  0.00  0.00    -0.205 F 
ATOM      5  C   UNL d   1      -2.017  -1.133   0.090  0.00  0.00     0.043 A 
ATOM      6  C   UNL d   1      -0.994  -2.034   0.358  0.00  0.00     0.005 A 
ATOM      7  C   UNL d   1       0.284  -1.552   0.633  0.00  0.00     0.024 A 
ATOM      8  C   UNL d   1       0.534  -0.173   0.633  0.00  0.00     0.044 A 
ATOM      9 CL   UNL d   1       2.150   0.329   0.997  0.00  0.00    -0.084 Cl
ENDBRANCH   1   2
BRANCH   1  10
ATOM     10  N   UNL d   1      -1.278   3.128   0.056  0.00  0.00    -0.339 N 
ATOM     11  C   UNL d   1      -1.090   4.488   0.114  0.00  0.00     0.316 C 
ATOM     12  N   UNL d   1      -2.259   5.161  -0.119  0.00  0.00    -0.339 N 
ATOM     13  O   UNL d   1      -0.014   5.017   0.351  0.00  0.00    -0.247 OA
ATOM     14  H   UNL d   1      -2.965   4.635  -0.612  0.00  0.00     0.164 HD
ATOM     15  H   UNL d   1      -2.211   2.808   0.276  0.00  0.00     0.164 HD
BRANCH  12  16
ATOM     16  C   UNL d   1      -2.380   6.614  -0.158  0.00  0.00     0.078 C 
ATOM     17  C   UNL d   1      -2.040   7.268   1.181  0.00  0.00     0.032 C 
ATOM     18  C   UNL d   1      -1.581   7.244  -1.297  0.00  0.00     0.032 C 
ENDBRANCH  12  16
ENDBRANCH   1  10
TORSDOF 3
