REMARK  1 active torsions:
REMARK  status: ('A' for Active; 'I' for Inactive)
REMARK    1  A    between atoms: C_12  and  N_3 
ROOT
ATOM      1  C   UNL d   1      -0.198  -0.667   0.033  0.00  0.00     0.145 A 
ATOM      2  C   UNL d   1      -0.283   0.706  -0.011  0.00  0.00     0.095 A 
ATOM      3  N   UNL d   1      -1.509  -1.141  -0.029  0.00  0.00    -0.239 N 
ATOM      4  N   UNL d   1      -2.395  -0.094  -0.117  0.00  0.00    -0.302 N 
ATOM      5  HN  UNL d   1      -3.412  -0.147  -0.183  1.00  0.00     0.186 HD
ATOM      6  N   UNL d   1       0.956  -1.393   0.095  0.00  0.00    -0.336 N 
ATOM      7  HN  UNL d   1       0.972  -2.412   0.125  1.00  0.00     0.168 HD
ATOM      8  C   UNL d   1      -1.639   1.006  -0.096  0.00  0.00     0.128 A 
ATOM      9  C   UNL d   1       0.918   1.488   0.020  0.00  0.00     0.261 A 
ATOM     10  N   UNL d   1       2.058   0.711   0.080  0.00  0.00    -0.319 N 
ATOM     11  C   UNL d   1       2.029  -0.667   0.112  0.00  0.00     0.185 A 
ATOM     12  O   UNL d   1       0.950   2.710  -0.008  0.00  0.00    -0.267 OA
ATOM     13  H   UNL d   1       2.935   1.208   0.096  0.00  0.00     0.169 HD
ENDROOT
BRANCH   3  14
ATOM     14  C   UNL d   1      -1.990  -2.486  -0.027  0.00  0.00     0.058 A 
ATOM     15  C   UNL d   1      -1.130  -3.577   0.150  0.00  0.00     0.031 A 
ATOM     16  C   UNL d   1      -1.626  -4.884   0.122  0.00  0.00     0.002 A 
ATOM     17  C   UNL d   1      -2.983  -5.114  -0.083  0.00  0.00     0.000 A 
ATOM     18  C   UNL d   1      -3.851  -4.037  -0.249  0.00  0.00     0.002 A 
ATOM     19  C   UNL d   1      -3.361  -2.728  -0.217  0.00  0.00     0.031 A 
ENDBRANCH   3  14
TORSDOF 1
