REMARK  4 active torsions:
REMARK  status: ('A' for Active; 'I' for Inactive)
REMARK    1  A    between atoms: C_9  and  N_1 
REMARK    2  A    between atoms: N_6  and  C_2 
REMARK       I    between atoms: C_3  and  N_7 
REMARK    3  A    between atoms: C_10  and  C_3 
REMARK    4  A    between atoms: N_8  and  C_4 
ROOT
ATOM      1  C   UNL d   1      -3.210   8.684   2.112  0.00  0.00     0.254 C 
ATOM      2  N   UNL d   1      -2.694   7.387   2.042  0.00  0.00    -0.345 N 
ATOM      3  N   UNL d   1      -1.514   4.792   1.604  0.00  0.00    -0.376 N 
ATOM      4  C   UNL d   1      -1.998   6.670   3.129  0.00  0.00     0.146 C 
ATOM      5  C   UNL d   1      -2.422   6.887   0.686  0.00  0.00     0.146 C 
ATOM      6  C   UNL d   1      -1.949   5.133   2.967  0.00  0.00     0.143 C 
ATOM      7  C   UNL d   1      -2.446   5.352   0.594  0.00  0.00     0.143 C 
ATOM      8  O   UNL d   1      -3.555   9.309   1.107  0.00  0.00    -0.267 OA
ENDROOT
BRANCH   3   9
ATOM      9  C   UNL d   1      -0.920   3.565   1.304  0.00  0.00     0.058 A 
ATOM     10  C   UNL d   1      -1.117   2.446   2.138  0.00  0.00     0.034 A 
ATOM     11  C   UNL d   1      -0.605   1.181   1.820  0.00  0.00     0.038 A 
ATOM     12  C   UNL d   1       0.109   1.002   0.634  0.00  0.00     0.105 A 
ATOM     13  C   UNL d   1       0.341   2.084  -0.218  0.00  0.00     0.068 A 
ATOM     14  C   UNL d   1      -0.131   3.362   0.137  0.00  0.00     0.067 A 
BRANCH  12  15
ATOM     15  N   UNL d   1       0.646  -0.320   0.295  0.00  0.00    -0.116 N 
ATOM     16  O   UNL d   1       1.218  -0.450  -0.794  0.00  0.00    -0.532 OA
ATOM     17  O   UNL d   1       0.495  -1.233   1.124  0.00  0.00    -0.532 OA
ENDBRANCH  12  15
BRANCH  14  18
ATOM     18  N   UNL d   1       0.284   4.451  -0.685  0.00  0.00    -0.331 N 
ATOM     19  C   UNL d   1       0.391   4.440  -2.063  0.00  0.00     0.097 A 
ATOM     20  C   UNL d   1       0.695   5.713  -2.495  0.00  0.00     0.019 A 
ATOM     21  C   UNL d   1       0.873   6.516  -1.349  0.00  0.00     0.019 A 
ATOM     22  C   UNL d   1       0.659   5.709  -0.254  0.00  0.00     0.097 A 
ENDBRANCH  14  18
ENDBRANCH   3   9
BRANCH   1  23
ATOM     23  C   UNL d   1      -3.462   9.351   3.412  0.00  0.00     0.033 A 
ATOM     24  C   UNL d   1      -2.519   9.428   4.438  0.00  0.00     0.041 A 
ATOM     25  C   UNL d   1      -2.861  10.051   5.638  0.00  0.00     0.035 A 
ATOM     26 CL   UNL d   1      -1.734  10.058   6.940  0.00  0.00    -0.084 Cl
ATOM     27  C   UNL d   1      -4.106  10.657   5.801  0.00  0.00     0.024 A 
ATOM     28  C   UNL d   1      -5.023  10.646   4.752  0.00  0.00     0.003 A 
ATOM     29  C   UNL d   1      -4.702   9.992   3.563  0.00  0.00     0.017 A 
ENDBRANCH   1  23
TORSDOF 4
