REMARK  3 active torsions:
REMARK  status: ('A' for Active; 'I' for Inactive)
REMARK    1  A    between atoms: C_2  and  N_1 
REMARK       I    between atoms: C_3  and  N_6 
REMARK    2  A    between atoms: C_9  and  C_5 
REMARK    3  A    between atoms: N_6  and  C_10 
ROOT
ATOM      1  C   UNL d   1       0.141   3.769  -0.046  0.00  0.00    -0.035 A 
ATOM      2  C   UNL d   1      -1.216   6.248   0.142  0.00  0.00     0.034 A 
ATOM      3  C   UNL d   1      -0.921   3.934   0.850  0.00  0.00     0.013 A 
ATOM      4  C   UNL d   1       0.546   4.871  -0.804  0.00  0.00     0.013 A 
ATOM      5  C   UNL d   1      -0.130   6.091  -0.717  0.00  0.00     0.030 A 
ATOM      6  C   UNL d   1      -1.598   5.162   0.939  0.00  0.00     0.030 A 
ENDROOT
BRANCH   1   7
ATOM      7  C   UNL d   1       0.822   2.469  -0.148  0.00  0.00     0.035 C 
ATOM      8  C   UNL d   1       1.376   2.046  -1.294  0.00  0.00     0.168 C 
BRANCH   8   9
ATOM      9  N   UNL d   1       2.030   0.764  -1.359  0.00  0.00    -0.127 N 
ATOM     10  O   UNL d   1       2.538   0.476  -2.450  0.00  0.00    -0.532 OA
ATOM     11  O   UNL d   1       2.048   0.047  -0.353  0.00  0.00    -0.532 OA
ENDBRANCH   8   9
ENDBRANCH   1   7
BRANCH   2  12
ATOM     12  N   UNL d   1      -1.955   7.447   0.247  0.00  0.00    -0.328 N 
ATOM     13  C   UNL d   1      -1.757   8.608  -0.481  0.00  0.00     0.218 C 
ATOM     14  O   UNL d   1      -0.899   8.801  -1.338  0.00  0.00    -0.274 OA
ATOM     15  C   UNL d   1      -2.731   9.709  -0.145  0.00  0.00     0.117 C 
ATOM     16  H   UNL d   1      -2.720   7.441   0.910  0.00  0.00     0.169 HD
ENDBRANCH   2  12
TORSDOF 3
