REMARK  5 active torsions:
REMARK  status: ('A' for Active; 'I' for Inactive)
REMARK    1  A    between atoms: S_8  and  C_2 
REMARK    2  A    between atoms: C_15  and  S_8 
REMARK    3  A    between atoms: C_9  and  C_15 
REMARK       I    between atoms: N_10  and  C_9 
REMARK    4  A    between atoms: C_18  and  N_10 
REMARK    5  A    between atoms: C_11  and  C_12 
ROOT
ATOM      1  C   UNL d   1       2.642   4.349  -0.142  0.00  0.00     0.231 C 
ATOM      2  N   UNL d   1       1.665   5.336  -0.194  0.00  0.00    -0.327 N 
ATOM      3  O   UNL d   1       2.443   3.172   0.159  0.00  0.00    -0.272 OA
ATOM      4  H   UNL d   1       1.958   6.240  -0.540  0.00  0.00     0.169 HD
ENDROOT
BRANCH   1   5
ATOM      5  C   UNL d   1       4.023   4.769  -0.606  0.00  0.00     0.185 C 
BRANCH   5   6
ATOM      6  S   UNL d   1       4.559   6.374   0.065  0.00  0.00    -0.083 SA
BRANCH   6   7
ATOM      7  C   UNL d   1       6.165   6.410  -0.584  0.00  0.00     0.162 A 
ATOM      8  N   UNL d   1       7.121   7.328  -0.261  0.00  0.00    -0.326 N 
ATOM      9  C   UNL d   1       8.204   7.014  -1.031  0.00  0.00     0.201 A 
ATOM     10  C   UNL d   1       7.072   8.416   0.677  0.00  0.00     0.159 C 
ATOM     11  N   UNL d   1       7.938   5.955  -1.758  0.00  0.00    -0.294 N 
ATOM     12  N   UNL d   1       6.647   5.573  -1.475  0.00  0.00    -0.279 N 
ATOM     13  HN  UNL d   1       8.572   5.498  -2.414  1.00  0.00     0.187 HD
ATOM     14  HN  UNL d   1       6.152   4.781  -1.884  1.00  0.00     0.189 HD
ENDBRANCH   6   7
ENDBRANCH   5   6
ENDBRANCH   1   5
BRANCH   2  15
ATOM     15  C   UNL d   1       0.311   5.205   0.201  0.00  0.00     0.034 A 
ATOM     16  C   UNL d   1      -0.210   4.055   0.796  0.00  0.00     0.030 A 
ATOM     17  C   UNL d   1      -1.550   3.992   1.194  0.00  0.00     0.017 A 
ATOM     18  C   UNL d   1      -2.393   5.089   1.012  0.00  0.00     0.009 A 
ATOM     19  C   UNL d   1      -1.893   6.238   0.396  0.00  0.00     0.017 A 
ATOM     20  C   UNL d   1      -0.545   6.296  -0.002  0.00  0.00     0.030 A 
BRANCH  18  21
ATOM     21  C   UNL d   1      -3.799   4.969   1.490  0.00  0.00     0.155 C 
ATOM     22  O   UNL d   1      -4.338   3.863   1.514  0.00  0.00    -0.293 OA
ATOM     23  C   UNL d   1      -4.523   6.192   1.987  0.00  0.00     0.096 C 
ENDBRANCH  18  21
ENDBRANCH   2  15
TORSDOF 5
