REMARK  7 active torsions:
REMARK  status: ('A' for Active; 'I' for Inactive)
REMARK    1  A    between atoms: N_5  and  S_1 
REMARK    2  A    between atoms: C_16  and  S_1 
REMARK    3  A    between atoms: C_10  and  C_2 
REMARK    4  A    between atoms: C_4  and  C_3 
REMARK    5  A    between atoms: N_9  and  N_5 
REMARK    6  A    between atoms: C_8  and  N_9 
REMARK    7  A    between atoms: O_21  and  C_10 
ROOT
ATOM      1  C   UNL d   1      -0.110  -1.240  -6.449  0.00  0.00     0.087 A 
ATOM      2  C   UNL d   1       1.151  -0.773  -6.136  0.00  0.00     0.150 A 
ATOM      3  N   UNL d   1       1.450  -0.358  -4.866  0.00  0.00    -0.184 N 
ATOM      4  HN  UNL d   1       2.363   0.046  -4.658  1.00  0.00     0.184 HD
ATOM      5  C   UNL d   1       0.535  -0.488  -3.900  0.00  0.00     0.697 A 
ATOM      6  N   UNL d   1      -0.689  -0.991  -4.115  0.00  0.00    -0.199 N 
ATOM      7  HN  UNL d   1      -1.362  -1.102  -3.357  1.00  0.00     0.183 HD
ATOM      8  C   UNL d   1      -0.987  -1.344  -5.385  0.00  0.00     0.126 A 
ENDROOT
BRANCH   5   9
ATOM      9  N   UNL d   1       0.919  -0.089  -2.629  0.00  0.00    -0.122 N 
ATOM     10  H   UNL d   1       1.875   0.256  -2.577  0.00  0.00     0.206 HD
BRANCH   9  11
ATOM     11  N   UNL d   1       0.230  -0.400  -1.390  0.00  0.00    -0.208 N 
ATOM     12  H   UNL d   1      -0.628  -0.957  -1.389  0.00  0.00     0.201 HD
BRANCH  11  13
ATOM     13  S   UNL d   1       0.927  -0.024   0.097  0.00  0.00     0.276 S 
ATOM     14  O   UNL d   1       2.351  -0.266  -0.008  0.00  0.00    -0.199 OA
ATOM     15  O   UNL d   1       0.117  -0.635   1.127  0.00  0.00    -0.199 OA
BRANCH  13  16
ATOM     16  C   UNL d   1       0.675   1.735   0.166  0.00  0.00     0.081 A 
ATOM     17  C   UNL d   1      -0.551   2.238   0.607  0.00  0.00     0.025 A 
ATOM     18  C   UNL d   1      -0.735   3.619   0.691  0.00  0.00     0.002 A 
ATOM     19  C   UNL d   1       0.304   4.485   0.343  0.00  0.00     0.000 A 
ATOM     20  C   UNL d   1       1.529   3.978  -0.090  0.00  0.00     0.002 A 
ATOM     21  C   UNL d   1       1.721   2.599  -0.177  0.00  0.00     0.025 A 
ENDBRANCH  13  16
ENDBRANCH  11  13
ENDBRANCH   9  11
ENDBRANCH   5   9
BRANCH   2  22
ATOM     22  C   UNL d   1       2.309  -0.738  -7.112  0.00  0.00     0.434 C 
ATOM     23  F   UNL d   1       2.144  -1.448  -8.261  0.00  0.00    -0.165 F 
ATOM     24  F   UNL d   1       2.636   0.530  -7.489  0.00  0.00    -0.165 F 
ATOM     25  F   UNL d   1       3.448  -1.258  -6.559  0.00  0.00    -0.165 F 
ENDBRANCH   2  22
BRANCH   1  26
ATOM     26  C   UNL d   1      -0.594  -1.679  -7.763  0.00  0.00     0.296 C 
ATOM     27  O   UNL d   1      -1.350  -2.619  -7.906  0.00  0.00    -0.259 OA
BRANCH  26  28
ATOM     28  O   UNL d   1      -0.158  -0.836  -8.727  0.00  0.00    -0.322 OA
ATOM     29  C   UNL d   1      -0.518  -1.240 -10.055  0.00  0.00     0.213 C 
ENDBRANCH  26  28
ENDBRANCH   1  26
TORSDOF 7
