REMARK  6 active torsions:
REMARK  status: ('A' for Active; 'I' for Inactive)
REMARK    1  A    between atoms: C_2  and  C_1 
REMARK    2  A    between atoms: C_20  and  C_7 
REMARK    3  A    between atoms: C_23  and  C_8 
REMARK    4  A    between atoms: C_9  and  C_15 
REMARK    5  A    between atoms: C_18  and  S_21 
REMARK    6  A    between atoms: S_21  and  C_23 
ROOT
ATOM      1  C   UNL d   1       0.525  -0.896  -0.084  0.00  0.00     0.186 A 
ATOM      2  N   UNL d   1       1.283   0.174   0.060  0.00  0.00    -0.322 N 
ATOM      3  HN  UNL d   1       2.289   0.224   0.220  1.00  0.00     0.169 HD
ATOM      4  C   UNL d   1       0.382   1.209  -0.060  0.00  0.00     0.113 A 
ATOM      5  N   UNL d   1      -0.872   0.821  -0.325  0.00  0.00    -0.246 N 
ATOM      6  HN  UNL d   1      -1.694   1.403  -0.483  1.00  0.00     0.196 HD
ATOM      7  O   UNL d   1      -0.782  -0.568  -0.333  0.00  0.00    -0.217 OA
ENDROOT
BRANCH   1   8
ATOM      8  C   UNL d   1       1.031  -2.289   0.012  0.00  0.00     0.078 A 
ATOM      9  C   UNL d   1       0.328  -3.522   0.137  0.00  0.00     0.082 A 
ATOM     10  N   UNL d   1       1.203  -4.542   0.147  0.00  0.00    -0.259 N 
ATOM     11  O   UNL d   1       2.460  -3.988   0.036  0.00  0.00    -0.241 OA
ATOM     12  HN  UNL d   1       0.979  -5.535   0.222  1.00  0.00     0.195 HD
ATOM     13  C   UNL d   1       2.359  -2.639  -0.046  0.00  0.00     0.089 A 
ATOM     14  C   UNL d   1       3.619  -1.896  -0.242  0.00  0.00     0.080 C 
BRANCH   9  15
ATOM     15  C   UNL d   1      -1.110  -3.784   0.242  0.00  0.00    -0.006 A 
ATOM     16  C   UNL d   1      -1.962  -2.937   0.962  0.00  0.00     0.014 A 
ATOM     17  C   UNL d   1      -3.342  -3.161   0.987  0.00  0.00     0.001 A 
ATOM     18  C   UNL d   1      -3.881  -4.266   0.334  0.00  0.00     0.000 A 
ATOM     19  C   UNL d   1      -3.042  -5.153  -0.336  0.00  0.00     0.001 A 
ATOM     20  C   UNL d   1      -1.665  -4.915  -0.383  0.00  0.00     0.014 A 
ENDBRANCH   9  15
ENDBRANCH   1   8
BRANCH   4  21
ATOM     21  C   UNL d   1       0.774   2.641   0.041  0.00  0.00     0.159 C 
BRANCH  21  22
ATOM     22  S   UNL d   1       0.351   3.337   1.675  0.00  0.00    -0.105 SA
BRANCH  22  23
ATOM     23  C   UNL d   1       0.923   5.013   1.462  0.00  0.00     0.069 A 
ATOM     24  N   UNL d   1       1.478   5.366   0.281  0.00  0.00    -0.360 N 
ATOM     25  C   UNL d   1       1.914   6.643   0.149  0.00  0.00     0.105 A 
ATOM     26  HN  UNL d   1       1.566   4.696  -0.483  1.00  0.00     0.166 HD
ATOM     27  C   UNL d   1       1.828   7.603   1.145  0.00  0.00     0.063 A 
ATOM     28  C   UNL d   1       1.247   7.216   2.356  0.00  0.00     0.020 A 
ATOM     29  C   UNL d   1       0.789   5.908   2.516  0.00  0.00     0.038 A 
BRANCH  27  30
ATOM     30  C   UNL d   1       2.341   8.994   0.930  0.00  0.00     0.418 C 
ATOM     31  F   UNL d   1       2.876   9.192  -0.306  0.00  0.00    -0.166 F 
ATOM     32  F   UNL d   1       1.369   9.935   1.071  0.00  0.00    -0.166 F 
ATOM     33  F   UNL d   1       3.318   9.329   1.816  0.00  0.00    -0.166 F 
ENDBRANCH  27  30
ENDBRANCH  22  23
ENDBRANCH  21  22
ENDBRANCH   4  21
TORSDOF 6
