REMARK  5 active torsions:
REMARK  status: ('A' for Active; 'I' for Inactive)
REMARK    1  A    between atoms: N_2  and  C_1 
REMARK    2  A    between atoms: N_3  and  C_1 
REMARK    3  A    between atoms: C_4  and  N_2 
REMARK    4  A    between atoms: C_8  and  N_3 
REMARK    5  A    between atoms: S_11  and  C_10 
ROOT
ATOM      1  C   UNL d   1       1.060  -0.109  -0.036  0.00  0.00     0.177 C 
ATOM      2  S   UNL d   1       0.895   1.542   0.219  0.00  0.00    -0.040 SA
ENDROOT
BRANCH   1   3
ATOM      3  N   UNL d   1       2.099  -0.731   0.599  0.00  0.00    -0.319 N 
ATOM      4  H   UNL d   1       2.575  -0.150   1.277  0.00  0.00     0.169 HD
BRANCH   3   5
ATOM      5  C   UNL d   1       2.506  -2.064   0.490  0.00  0.00     0.106 A 
ATOM      6  N   UNL d   1       2.117  -2.799  -0.578  0.00  0.00    -0.352 N 
ATOM      7  C   UNL d   1       2.571  -4.070  -0.649  0.00  0.00     0.089 A 
ATOM      8  HN  UNL d   1       1.509  -2.410  -1.298  1.00  0.00     0.166 HD
ATOM      9  C   UNL d   1       3.368  -4.661   0.317  0.00  0.00     0.017 A 
ATOM     10  C   UNL d   1       3.739  -3.897   1.415  0.00  0.00     0.005 A 
ATOM     11  C   UNL d   1       3.321  -2.573   1.496  0.00  0.00     0.048 A 
ENDBRANCH   3   5
ENDBRANCH   1   3
BRANCH   1  12
ATOM     12  N   UNL d   1       0.239  -0.907  -0.790  0.00  0.00    -0.333 N 
ATOM     13  H   UNL d   1       0.712  -1.713  -1.201  0.00  0.00     0.168 HD
BRANCH  12  14
ATOM     14  C   UNL d   1      -1.150  -0.804  -1.005  0.00  0.00     0.035 A 
ATOM     15  C   UNL d   1      -2.004  -0.180  -0.089  0.00  0.00     0.048 A 
ATOM     16  C   UNL d   1      -3.388  -0.152  -0.296  0.00  0.00     0.002 A 
ATOM     17  C   UNL d   1      -3.909  -0.770  -1.437  0.00  0.00     0.018 A 
ATOM     18  C   UNL d   1      -3.066  -1.412  -2.346  0.00  0.00     0.004 A 
ATOM     19  C   UNL d   1      -1.689  -1.446  -2.120  0.00  0.00     0.029 A 
BRANCH  16  20
ATOM     20  S   UNL d   1      -4.547   0.549   0.874  0.00  0.00    -0.134 SA
ATOM     21  C   UNL d   1      -3.579   1.890   1.619  0.00  0.00     0.095 C 
ENDBRANCH  16  20
ENDBRANCH  12  14
ENDBRANCH   1  12
TORSDOF 5
