REMARK  3 active torsions:
REMARK  status: ('A' for Active; 'I' for Inactive)
REMARK    1  A    between atoms: C_6  and  N_1 
REMARK    2  A    between atoms: C_5  and  C_2 
REMARK    3  A    between atoms: C_8  and  C_9 
ROOT
ATOM      1  N   UNL d   1      -0.605  -1.107   0.256  0.00  0.00    -0.299 N 
ATOM      2  C   UNL d   1      -0.185  -0.144   1.260  0.00  0.00     0.190 C 
ATOM      3  S   UNL d   1       0.521   1.251   0.347  0.00  0.00    -0.129 SA
ATOM      4  C   UNL d   1       0.006  -1.000  -0.996  0.00  0.00     0.235 C 
ATOM      5  C   UNL d   1       0.879   0.234  -1.096  0.00  0.00     0.179 C 
ATOM      6  O   UNL d   1      -0.070  -1.809  -1.911  0.00  0.00    -0.272 OA
ENDROOT
BRANCH   1   7
ATOM      7  C   UNL d   1      -1.401  -2.232   0.595  0.00  0.00     0.038 A 
ATOM      8  C   UNL d   1      -1.222  -2.910   1.799  0.00  0.00     0.030 A 
ATOM      9  C   UNL d   1      -2.051  -3.985   2.139  0.00  0.00     0.010 A 
ATOM     10  C   UNL d   1      -3.102  -4.399   1.301  0.00  0.00    -0.051 A 
ATOM     11  C   UNL d   1      -3.279  -3.695   0.101  0.00  0.00     0.010 A 
ATOM     12  C   UNL d   1      -2.429  -2.639  -0.258  0.00  0.00     0.030 A 
BRANCH  10  13
ATOM     13  C   UNL d   1      -3.979  -5.597   1.703  0.00  0.00    -0.024 C 
ATOM     14  C   UNL d   1      -5.135  -5.877   0.717  0.00  0.00     0.019 C 
ATOM     15  C   UNL d   1      -3.103  -6.867   1.762  0.00  0.00     0.019 C 
ATOM     16  C   UNL d   1      -4.613  -5.359   3.091  0.00  0.00     0.019 C 
ENDBRANCH  10  13
ENDBRANCH   1   7
BRANCH   2  17
ATOM     17  C   UNL d   1      -1.281   0.286   2.208  0.00  0.00    -0.010 A 
ATOM     18  C   UNL d   1      -1.097   0.147   3.584  0.00  0.00     0.097 A 
ATOM     19  N   UNL d   1      -2.056   0.368   4.511  0.00  0.00    -0.375 N 
ATOM     20  C   UNL d   1      -3.262   0.760   4.053  0.00  0.00     0.087 A 
ATOM     21  HN  UNL d   1      -1.876   0.245   5.508  1.00  0.00     0.164 HD
ATOM     22  C   UNL d   1      -3.544   0.975   2.714  0.00  0.00     0.018 A 
ATOM     23  C   UNL d   1      -2.534   0.741   1.780  0.00  0.00     0.013 A 
ENDBRANCH   2  17
TORSDOF 3
