REMARK  5 active torsions:
REMARK  status: ('A' for Active; 'I' for Inactive)
REMARK    1  A    between atoms: C_12  and  C_1 
REMARK    2  A    between atoms: N_10  and  C_2 
REMARK    3  A    between atoms: N_11  and  C_3 
REMARK       I    between atoms: C_13  and  N_10 
REMARK       I    between atoms: C_14  and  N_11 
REMARK    4  A    between atoms: C_15  and  C_13 
REMARK    5  A    between atoms: C_16  and  C_14 
ROOT
ATOM      1  C   UNL d   1       1.023  -0.881  -0.067  0.00  0.00     0.148 C 
ATOM      2  C   UNL d   1      -1.081  -0.131  -0.244  0.00  0.00     0.701 C 
ATOM      3  C   UNL d   1       0.625   1.325  -0.259  0.00  0.00     0.701 C 
ATOM      4  N   UNL d   1      -0.275  -1.147  -0.012  0.00  0.00    -0.174 N 
ATOM      5  HN  UNL d   1      -0.627  -2.081   0.197  1.00  0.00     0.186 HD
ATOM      6  N   UNL d   1       1.523   0.351  -0.143  0.00  0.00    -0.174 N 
ATOM      7  HN  UNL d   1       2.526   0.535  -0.115  1.00  0.00     0.186 HD
ATOM      8  N   UNL d   1      -0.687   1.133  -0.347  0.00  0.00    -0.022 N 
ATOM      9  HN  UNL d   1      -1.344   1.901  -0.484  1.00  0.00     0.203 HD
ENDROOT
BRANCH   2  10
ATOM     10  N   UNL d   1      -2.401  -0.538  -0.379  0.00  0.00    -0.158 N 
ATOM     11  C   UNL d   1      -3.389   0.148  -1.035  0.00  0.00     0.243 C 
ATOM     12  O   UNL d   1      -3.241   1.255  -1.545  0.00  0.00    -0.272 OA
ATOM     13  H   UNL d   1      -2.509  -1.522  -0.186  0.00  0.00     0.187 HD
BRANCH  11  14
ATOM     14  C   UNL d   1      -4.754  -0.587  -1.070  0.00  0.00     0.031 C 
ATOM     15  C   UNL d   1      -5.323  -0.648   0.355  0.00  0.00     0.025 C 
ATOM     16  C   UNL d   1      -5.722   0.207  -1.967  0.00  0.00     0.025 C 
ATOM     17  C   UNL d   1      -4.642  -2.013  -1.637  0.00  0.00     0.025 C 
ENDBRANCH  11  14
ENDBRANCH   2  10
BRANCH   1  18
ATOM     18  C   UNL d   1       1.925  -2.046   0.008  0.00  0.00     0.031 A 
ATOM     19  C   UNL d   1       1.591  -3.319  -0.514  0.00  0.00     0.048 A 
ATOM     20 CL   UNL d   1       0.174  -3.622  -1.477  0.00  0.00    -0.083 Cl
ATOM     21  C   UNL d   1       2.422  -4.431  -0.321  0.00  0.00     0.025 A 
ATOM     22  C   UNL d   1       3.623  -4.299   0.366  0.00  0.00     0.002 A 
ATOM     23  C   UNL d   1       4.007  -3.048   0.840  0.00  0.00     0.001 A 
ATOM     24  C   UNL d   1       3.173  -1.937   0.661  0.00  0.00     0.017 A 
ENDBRANCH   1  18
BRANCH   3  25
ATOM     25  N   UNL d   1       0.991   2.677  -0.233  0.00  0.00    -0.158 N 
ATOM     26  C   UNL d   1       2.272   3.173  -0.176  0.00  0.00     0.243 C 
ATOM     27  O   UNL d   1       3.287   2.482  -0.283  0.00  0.00    -0.272 OA
ATOM     28  H   UNL d   1       0.195   3.294  -0.252  0.00  0.00     0.187 HD
BRANCH  26  29
ATOM     29  C   UNL d   1       2.383   4.700   0.096  0.00  0.00     0.031 C 
ATOM     30  C   UNL d   1       1.813   5.012   1.489  0.00  0.00     0.025 C 
ATOM     31  C   UNL d   1       3.870   5.112   0.078  0.00  0.00     0.025 C 
ATOM     32  C   UNL d   1       1.647   5.545  -0.955  0.00  0.00     0.025 C 
ENDBRANCH  26  29
ENDBRANCH   3  25
TORSDOF 5
