REMARK  7 active torsions:
REMARK  status: ('A' for Active; 'I' for Inactive)
REMARK    1  A    between atoms: C_2  and  C_1 
REMARK       I    between atoms: N_9  and  C_2 
REMARK    2  A    between atoms: O_17  and  C_4 
REMARK    3  A    between atoms: O_18  and  C_6 
REMARK    4  A    between atoms: C_19  and  N_9 
REMARK    5  A    between atoms: O_20  and  C_12 
REMARK    6  A    between atoms: C_13  and  C_21 
REMARK    7  A    between atoms: C_21  and  C_19 
ROOT
ATOM      1  C   UNL d   1       0.234  -2.484  -0.057  0.00  0.00     0.253 C 
ATOM      2  O   UNL d   1       0.907  -3.510  -0.032  0.00  0.00    -0.268 OA
ATOM      3  N   UNL d   1      -1.141  -2.504  -0.097  0.00  0.00    -0.357 N 
ATOM      4  H   UNL d   1      -1.649  -1.629  -0.099  0.00  0.00     0.162 HD
ENDROOT
BRANCH   3   5
ATOM      5  C   UNL d   1      -1.880  -3.756  -0.053  0.00  0.00     0.127 C 
BRANCH   5   6
ATOM      6  C   UNL d   1      -3.391  -3.524  -0.060  0.00  0.00     0.058 C 
BRANCH   6   7
ATOM      7  C   UNL d   1      -4.187  -4.806  -0.065  0.00  0.00    -0.054 A 
ATOM      8  C   UNL d   1      -4.535  -5.415  -1.282  0.00  0.00     0.046 A 
ATOM      9  C   UNL d   1      -5.304  -6.592  -1.324  0.00  0.00     0.102 A 
ATOM     10  C   UNL d   1      -5.698  -7.184  -0.112  0.00  0.00     0.101 A 
ATOM     11  C   UNL d   1      -5.355  -6.572   1.101  0.00  0.00     0.040 A 
ATOM     12  C   UNL d   1      -4.600  -5.397   1.130  0.00  0.00     0.010 A 
BRANCH   9  13
ATOM     13  O   UNL d   1      -5.726  -7.170  -2.491  0.00  0.00    -0.353 OA
ATOM     14  C   UNL d   1      -5.349  -6.559  -3.718  0.00  0.00     0.210 C 
ENDBRANCH   9  13
BRANCH  10  15
ATOM     15  O   UNL d   1      -6.462  -8.311   0.054  0.00  0.00    -0.353 OA
ATOM     16  C   UNL d   1      -6.319  -9.335  -0.923  0.00  0.00     0.210 C 
ENDBRANCH  10  15
ENDBRANCH   6   7
ENDBRANCH   5   6
ENDBRANCH   3   5
BRANCH   1  17
ATOM     17  C   UNL d   1       0.917  -1.155  -0.112  0.00  0.00     0.051 A 
ATOM     18  C   UNL d   1       0.425   0.049   0.418  0.00  0.00     0.026 A 
ATOM     19  C   UNL d   1       1.186   1.221   0.302  0.00  0.00     0.023 A 
ATOM     20 BR   UNL d   1      -1.218   0.222   1.357  0.00  0.00    -0.050 Br
ATOM     21  C   UNL d   1       2.429   1.199  -0.332  0.00  0.00     0.038 A 
ATOM     22  C   UNL d   1       2.934   0.012  -0.857  0.00  0.00     0.069 A 
ATOM     23  C   UNL d   1       2.179  -1.156  -0.744  0.00  0.00     0.055 A 
BRANCH  22  24
ATOM     24  O   UNL d   1       4.162   0.124  -1.447  0.00  0.00    -0.356 OA
ATOM     25  C   UNL d   1       4.724  -1.060  -2.000  0.00  0.00     0.210 C 
ENDBRANCH  22  24
ENDBRANCH   1  17
TORSDOF 7
