REMARK  4 active torsions:
REMARK  status: ('A' for Active; 'I' for Inactive)
REMARK    1  A    between atoms: C_11  and  N_3 
REMARK    2  A    between atoms: O_12  and  C_5 
REMARK    3  A    between atoms: C_16  and  C_11 
REMARK    4  A    between atoms: O_14  and  C_16 
ROOT
ATOM      1  N   UNL d   1       2.369  -0.714   0.036  0.00  0.00    -0.273 N 
ATOM      2  HN  UNL d   1       3.247  -1.233   0.051  1.00  0.00     0.189 HD
ATOM      3  N   UNL d   1       2.350   0.667   0.034  0.00  0.00    -0.253 N 
ATOM      4  C   UNL d   1       1.180   1.430   0.011  0.00  0.00     0.274 A 
ATOM      5  C   UNL d   1       1.229  -1.320   0.020  0.00  0.00     0.183 A 
ATOM      6  C   UNL d   1      -0.094   0.698   0.008  0.00  0.00     0.065 A 
ATOM      7  C   UNL d   1      -0.088  -0.680  -0.001  0.00  0.00     0.100 A 
ATOM      8  N   UNL d   1      -1.209  -1.450  -0.038  0.00  0.00    -0.362 N 
ATOM      9  HN  UNL d   1      -1.162  -2.469  -0.043  1.00  0.00     0.165 HD
ATOM     10  O   UNL d   1       1.156   2.657  -0.013  0.00  0.00    -0.266 OA
ATOM     11  C   UNL d   1      -1.327   1.352  -0.013  0.00  0.00     0.021 A 
ATOM     12  C   UNL d   1      -2.387  -0.790  -0.069  0.00  0.00     0.088 A 
ATOM     13  C   UNL d   1      -2.495   0.594  -0.055  0.00  0.00     0.018 A 
ENDROOT
BRANCH   3  14
ATOM     14  C   UNL d   1       3.648   1.330  -0.088  0.00  0.00     0.178 C 
BRANCH  14  15
ATOM     15  C   UNL d   1       4.014   2.194   1.118  0.00  0.00     0.186 C 
BRANCH  15  16
ATOM     16  O   UNL d   1       5.309   2.761   0.929  0.00  0.00    -0.399 OA
ATOM     17  H   UNL d   1       5.447   3.397   1.652  0.00  0.00     0.209 HD
ENDBRANCH  15  16
ENDBRANCH  14  15
ENDBRANCH   3  14
BRANCH   5  18
ATOM     18  O   UNL d   1       1.218  -2.661   0.012  0.00  0.00    -0.343 OA
ATOM     19  H   UNL d   1       2.138  -2.970   0.012  0.00  0.00     0.219 HD
ENDBRANCH   5  18
TORSDOF 4
