REMARK  5 active torsions:
REMARK  status: ('A' for Active; 'I' for Inactive)
REMARK    1  A    between atoms: C_5  and  N_1 
REMARK    2  A    between atoms: C_12  and  C_4 
REMARK    3  A    between atoms: O_16  and  C_6 
REMARK    4  A    between atoms: C_10  and  C_11 
REMARK    5  A    between atoms: O_22  and  C_12 
ROOT
ATOM      1  N   UNL d   1       0.853  -0.699  -0.028  0.00  0.00    -0.230 N 
ATOM      2  N   UNL d   1       0.945   0.653  -0.126  0.00  0.00    -0.286 N 
ATOM      3  HN  UNL d   1       1.797   1.202  -0.235  1.00  0.00     0.188 HD
ATOM      4  C   UNL d   1      -0.311   1.120  -0.051  0.00  0.00     0.128 A 
ATOM      5  C   UNL d   1      -0.485  -1.095   0.096  0.00  0.00     0.164 A 
ATOM      6  C   UNL d   1      -1.233   0.056   0.044  0.00  0.00     0.095 A 
ENDROOT
BRANCH   1   7
ATOM      7  C   UNL d   1       2.042  -1.487  -0.037  0.00  0.00     0.102 A 
ATOM      8  C   UNL d   1       3.198  -1.048   0.644  0.00  0.00     0.065 A 
ATOM      9  C   UNL d   1       4.368  -1.827   0.643  0.00  0.00     0.042 A 
ATOM     10 CL   UNL d   1       3.284   0.371   1.639  0.00  0.00    -0.082 Cl
ATOM     11  C   UNL d   1       4.419  -3.061  -0.014  0.00  0.00     0.051 A 
ATOM     12  C   UNL d   1       3.283  -3.486  -0.706  0.00  0.00     0.042 A 
ATOM     13  C   UNL d   1       2.115  -2.705  -0.738  0.00  0.00     0.065 A 
ATOM     14 CL   UNL d   1       0.881  -3.298  -1.797  0.00  0.00    -0.082 Cl
BRANCH  11  15
ATOM     15  C   UNL d   1       5.679  -3.891   0.022  0.00  0.00     0.417 C 
ATOM     16  F   UNL d   1       5.550  -5.092  -0.605  0.00  0.00    -0.166 F 
ATOM     17  F   UNL d   1       6.729  -3.265  -0.573  0.00  0.00    -0.166 F 
ATOM     18  F   UNL d   1       6.075  -4.173   1.292  0.00  0.00    -0.166 F 
ENDBRANCH  11  15
ENDBRANCH   1   7
BRANCH   5  19
ATOM     19  O   UNL d   1      -0.933  -2.329   0.320  0.00  0.00    -0.345 OA
ATOM     20  H   UNL d   1      -0.251  -2.989   0.105  0.00  0.00     0.219 HD
ENDBRANCH   5  19
BRANCH   4  21
ATOM     21  C   UNL d   1      -0.649   2.553  -0.045  0.00  0.00     0.311 C 
ATOM     22  O   UNL d   1      -1.809   2.959  -0.045  0.00  0.00    -0.258 OA
BRANCH  21  23
ATOM     23  O   UNL d   1       0.446   3.367  -0.009  0.00  0.00    -0.321 OA
ATOM     24  C   UNL d   1       0.139   4.757   0.057  0.00  0.00     0.213 C 
ENDBRANCH  21  23
ENDBRANCH   4  21
TORSDOF 5
