REMARK  10 active torsions:
REMARK  status: ('A' for Active; 'I' for Inactive)
REMARK    1  A    between atoms: C_14  and  C_1 
REMARK    2  A    between atoms: C_15  and  C_2 
REMARK    3  A    between atoms: C_4  and  C_3 
REMARK    4  A    between atoms: C_16  and  C_9 
REMARK    5  A    between atoms: C_10  and  C_12 
REMARK    6  A    between atoms: C_11  and  C_13 
REMARK    7  A    between atoms: O_31  and  C_14 
REMARK    8  A    between atoms: O_30  and  C_15 
REMARK    9  A    between atoms: C_34  and  O_30 
REMARK   10  A    between atoms: C_35  and  O_31 
ROOT
ATOM      1  C   UNL d   1      -1.266  -1.063   0.138  0.00  0.00     0.054 C 
ATOM      2  C   UNL d   1       1.291  -1.030   0.146  0.00  0.00     0.054 C 
ATOM      3  C   UNL d   1       0.026  -1.865  -0.126  0.00  0.00     0.125 C 
ATOM      4  C   UNL d   1      -1.231   0.293   0.065  0.00  0.00     0.018 C 
ATOM      5  C   UNL d   1       1.222   0.323   0.086  0.00  0.00     0.018 C 
ATOM      6  N   UNL d   1      -0.005   0.932  -0.106  0.00  0.00    -0.362 N 
ATOM      7  C   UNL d   1      -2.396   1.251   0.138  0.00  0.00     0.069 C 
ATOM      8  C   UNL d   1       2.410   1.248   0.173  0.00  0.00     0.069 C 
ATOM      9  H   UNL d   1      -0.020   1.949  -0.074  0.00  0.00     0.165 HD
ENDROOT
BRANCH   3  10
ATOM     10  C   UNL d   1       0.042  -2.359  -1.565  0.00  0.00     0.067 A 
ATOM     11  O   UNL d   1      -0.024  -3.703  -1.816  0.00  0.00    -0.313 OA
ATOM     12  C   UNL d   1      -0.014  -3.858  -3.179  0.00  0.00     0.086 A 
ATOM     13  C   UNL d   1       0.084  -2.618  -3.783  0.00  0.00     0.040 A 
ATOM     14  C   UNL d   1       0.105  -1.660  -2.753  0.00  0.00     0.036 A 
BRANCH  12  15
ATOM     15  C   UNL d   1      -0.157  -5.208  -3.726  0.00  0.00    -0.001 A 
ATOM     16  C   UNL d   1      -0.217  -6.349  -2.917  0.00  0.00     0.030 A 
ATOM     17  C   UNL d   1      -0.448  -7.625  -3.473  0.00  0.00     0.049 A 
ATOM     18  C   UNL d   1      -0.596  -7.753  -4.865  0.00  0.00     0.032 A 
ATOM     19  C   UNL d   1      -0.532  -6.630  -5.697  0.00  0.00     0.049 A 
ATOM     20  C   UNL d   1      -0.300  -5.373  -5.115  0.00  0.00     0.030 A 
BRANCH  17  21
ATOM     21  C   UNL d   1      -0.576  -8.832  -2.573  0.00  0.00     0.417 C 
ATOM     22  F   UNL d   1      -0.920  -9.969  -3.242  0.00  0.00    -0.166 F 
ATOM     23  F   UNL d   1       0.578  -9.122  -1.914  0.00  0.00    -0.166 F 
ATOM     24  F   UNL d   1      -1.529  -8.665  -1.615  0.00  0.00    -0.166 F 
ENDBRANCH  17  21
BRANCH  19  25
ATOM     25  C   UNL d   1      -0.754  -6.727  -7.188  0.00  0.00     0.417 C 
ATOM     26  F   UNL d   1      -1.028  -7.989  -7.617  0.00  0.00    -0.166 F 
ATOM     27  F   UNL d   1      -1.798  -5.956  -7.602  0.00  0.00    -0.166 F 
ATOM     28  F   UNL d   1       0.326  -6.310  -7.904  0.00  0.00    -0.166 F 
ENDBRANCH  19  25
ENDBRANCH  12  15
ENDBRANCH   3  10
BRANCH   2  29
ATOM     29  C   UNL d   1       2.584  -1.731   0.353  0.00  0.00     0.292 C 
ATOM     30  O   UNL d   1       3.666  -1.178   0.488  0.00  0.00    -0.259 OA
BRANCH  29  31
ATOM     31  O   UNL d   1       2.411  -3.075   0.305  0.00  0.00    -0.318 OA
BRANCH  31  32
ATOM     32  C   UNL d   1       3.607  -3.833   0.074  0.00  0.00     0.174 C 
ATOM     33  C   UNL d   1       3.802  -3.956  -1.426  0.00  0.00     0.034 C 
ENDBRANCH  31  32
ENDBRANCH  29  31
ENDBRANCH   2  29
BRANCH   1  34
ATOM     34  C   UNL d   1      -2.508  -1.834   0.431  0.00  0.00     0.292 C 
ATOM     35  O   UNL d   1      -3.604  -1.350   0.675  0.00  0.00    -0.259 OA
BRANCH  34  36
ATOM     36  O   UNL d   1      -2.256  -3.165   0.425  0.00  0.00    -0.318 OA
BRANCH  36  37
ATOM     37  C   UNL d   1      -3.377  -4.027   0.684  0.00  0.00     0.174 C 
ATOM     38  C   UNL d   1      -4.141  -4.277  -0.603  0.00  0.00     0.034 C 
ENDBRANCH  36  37
ENDBRANCH  34  36
ENDBRANCH   1  34
TORSDOF 10
