REMARK  4 active torsions:
REMARK  status: ('A' for Active; 'I' for Inactive)
REMARK    1  A    between atoms: C_11  and  C_3 
REMARK    2  A    between atoms: C_10  and  N_6 
REMARK    3  A    between atoms: C_8  and  C_10 
REMARK    4  A    between atoms: C_9  and  C_12 
ROOT
ATOM      1  N   UNL d   1      -0.297  -1.151  -0.192  0.00  0.00    -0.268 N 
ATOM      2  HN  UNL d   1      -0.519  -2.127  -0.390  1.00  0.00     0.190 HD
ATOM      3  C   UNL d   1       0.898  -0.558  -0.015  0.00  0.00     0.144 A 
ATOM      4  N   UNL d   1       0.781   0.788   0.251  0.00  0.00    -0.266 N 
ATOM      5  HN  UNL d   1       1.546   1.442   0.417  1.00  0.00     0.186 HD
ATOM      6  N   UNL d   1      -1.120  -0.091  -0.035  0.00  0.00    -0.212 N 
ATOM      7  N   UNL d   1      -0.512   1.072   0.251  0.00  0.00    -0.002 NA
ENDROOT
BRANCH   3   8
ATOM      8  C   UNL d   1       2.190  -1.233  -0.083  0.00  0.00     0.011 A 
ATOM      9  C   UNL d   1       2.285  -2.596  -0.406  0.00  0.00     0.031 A 
ATOM     10  C   UNL d   1       3.535  -3.235  -0.491  0.00  0.00     0.048 A 
ATOM     11  C   UNL d   1       4.699  -2.491  -0.238  0.00  0.00     0.016 A 
ATOM     12  C   UNL d   1       4.616  -1.140   0.093  0.00  0.00     0.002 A 
ATOM     13  C   UNL d   1       3.370  -0.516   0.169  0.00  0.00     0.015 A 
BRANCH  10  14
ATOM     14  C   UNL d   1       3.649  -4.694  -0.859  0.00  0.00     0.417 C 
ATOM     15  F   UNL d   1       2.450  -5.309  -1.053  0.00  0.00    -0.166 F 
ATOM     16  F   UNL d   1       4.356  -4.884  -2.009  0.00  0.00    -0.166 F 
ATOM     17  F   UNL d   1       4.292  -5.423   0.095  0.00  0.00    -0.166 F 
ENDBRANCH  10  14
ENDBRANCH   3   8
BRANCH   6  18
ATOM     18  C   UNL d   1      -2.566  -0.223   0.003  0.00  0.00     0.210 C 
BRANCH  18  19
ATOM     19  C   UNL d   1      -3.195   0.047  -1.337  0.00  0.00     0.023 A 
ATOM     20  C   UNL d   1      -3.404  -1.025  -2.213  0.00  0.00     0.126 A 
ATOM     21  F   UNL d   1      -3.065  -2.265  -1.834  0.00  0.00    -0.205 F 
ATOM     22  C   UNL d   1      -3.978  -0.853  -3.470  0.00  0.00     0.043 A 
ATOM     23  C   UNL d   1      -4.353   0.420  -3.887  0.00  0.00     0.005 A 
ATOM     24  C   UNL d   1      -4.154   1.508  -3.037  0.00  0.00     0.024 A 
ATOM     25  C   UNL d   1      -3.579   1.324  -1.772  0.00  0.00     0.045 A 
ATOM     26 CL   UNL d   1      -3.399   2.722  -0.776  0.00  0.00    -0.084 Cl
ENDBRANCH  18  19
ENDBRANCH   6  18
TORSDOF 4
