REMARK  7 active torsions:
REMARK  status: ('A' for Active; 'I' for Inactive)
REMARK    1  A    between atoms: C_11  and  N_1 
REMARK    2  A    between atoms: S_8  and  C_4 
REMARK    3  A    between atoms: C_6  and  S_8 
REMARK    4  A    between atoms: C_10  and  C_7 
REMARK    5  A    between atoms: C_9  and  O_16 
REMARK    6  A    between atoms: O_24  and  C_10 
REMARK    7  A    between atoms: O_16  and  C_23 
ROOT
ATOM      1  N   UNL d   1       0.073   0.864   0.028  0.00  0.00    -0.251 N 
ATOM      2  C   UNL d   1      -1.041   0.094   0.269  0.00  0.00     0.232 C 
ATOM      3  C   UNL d   1       1.208   0.091  -0.081  0.00  0.00     0.245 C 
ATOM      4  C   UNL d   1       0.813  -1.367  -0.054  0.00  0.00     0.155 C 
ATOM      5  C   UNL d   1      -0.631  -1.339   0.400  0.00  0.00     0.129 C 
ATOM      6  O   UNL d   1      -2.208   0.444   0.384  0.00  0.00    -0.273 OA
ATOM      7  O   UNL d   1       2.377   0.455  -0.167  0.00  0.00    -0.271 OA
ENDROOT
BRANCH   4   8
ATOM      8  S   UNL d   1       1.058  -2.027  -1.746  0.00  0.00    -0.096 SA
BRANCH   8   9
ATOM      9  C   UNL d   1       0.801  -3.777  -1.492  0.00  0.00     0.087 A 
ATOM     10  C   UNL d   1       0.972  -4.706  -2.518  0.00  0.00     0.071 A 
ATOM     11  C   UNL d   1       0.622  -6.040  -2.270  0.00  0.00     0.022 A 
ATOM     12  C   UNL d   1       0.172  -6.415  -1.010  0.00  0.00     0.018 A 
ATOM     13  C   UNL d   1       0.086  -5.439  -0.036  0.00  0.00     0.089 A 
ATOM     14  N   UNL d   1       0.385  -4.138  -0.251  0.00  0.00    -0.360 N 
ATOM     15  HN  UNL d   1       0.300  -3.449   0.497  1.00  0.00     0.166 HD
BRANCH  10  16
ATOM     16  C   UNL d   1       1.482  -4.393  -3.867  0.00  0.00     0.179 C 
ATOM     17  O   UNL d   1       1.061  -4.966  -4.863  0.00  0.00    -0.646 OA
BRANCH  16  18
ATOM     18  O   UNL d   1       2.529  -3.545  -3.908  0.00  0.00    -0.773 OA
ATOM     19  H   UNL d   1       2.738  -3.083  -3.071  0.00  0.00     0.167 HD
ENDBRANCH  16  18
ENDBRANCH  10  16
ENDBRANCH   8   9
ENDBRANCH   4   8
BRANCH   1  20
ATOM     20  C   UNL d   1       0.068   2.285  -0.050  0.00  0.00     0.045 A 
ATOM     21  C   UNL d   1      -0.916   3.047   0.597  0.00  0.00     0.033 A 
ATOM     22  C   UNL d   1      -0.895   4.449   0.566  0.00  0.00     0.039 A 
ATOM     23  C   UNL d   1       0.073   5.120  -0.170  0.00  0.00     0.078 A 
ATOM     24  C   UNL d   1       1.059   4.376  -0.817  0.00  0.00     0.039 A 
ATOM     25  C   UNL d   1       1.059   2.977  -0.757  0.00  0.00     0.033 A 
BRANCH  23  26
ATOM     26  O   UNL d   1       0.207   6.467  -0.292  0.00  0.00    -0.255 OA
BRANCH  26  27
ATOM     27  C   UNL d   1      -0.936   7.305  -0.209  0.00  0.00     0.530 C 
ATOM     28  F   UNL d   1      -2.113   6.646  -0.209  0.00  0.00    -0.144 F 
ATOM     29  F   UNL d   1      -0.858   8.059   0.909  0.00  0.00    -0.144 F 
ATOM     30  F   UNL d   1      -0.932   8.136  -1.277  0.00  0.00    -0.144 F 
ENDBRANCH  26  27
ENDBRANCH  23  26
ENDBRANCH   1  20
TORSDOF 7
