REMARK  6 active torsions:
REMARK  status: ('A' for Active; 'I' for Inactive)
REMARK    1  A    between atoms: C_5  and  N_1 
REMARK    2  A    between atoms: C_2  and  N_4 
REMARK    3  A    between atoms: C_3  and  C_10 
REMARK    4  A    between atoms: S_7  and  C_3 
REMARK       I    between atoms: N_4  and  C_6 
REMARK    5  A    between atoms: C_6  and  C_19 
REMARK    6  A    between atoms: C_19  and  S_7 
ROOT
ATOM      1  C   UNL d   1      -3.482   4.129  -1.984  0.00  0.00     0.185 C 
ENDROOT
BRANCH   1   2
ATOM      2  C   UNL d   1      -4.625   5.089  -1.677  0.00  0.00     0.231 C 
ATOM      3  N   UNL d   1      -5.539   5.318  -2.693  0.00  0.00    -0.326 N 
ATOM      4  H   UNL d   1      -5.585   4.564  -3.359  0.00  0.00     0.169 HD
ATOM      5  O   UNL d   1      -4.702   5.577  -0.548  0.00  0.00    -0.272 OA
BRANCH   3   6
ATOM      6  C   UNL d   1      -6.722   6.071  -2.508  0.00  0.00     0.046 C 
ATOM      7  C   UNL d   1      -6.687   7.377  -1.970  0.00  0.00    -0.035 C 
ATOM      8  C   UNL d   1      -7.895   8.027  -1.664  0.00  0.00     0.009 C 
ATOM      9  C   UNL d   1      -5.420   8.160  -1.742  0.00  0.00     0.050 C 
ATOM     10  C   UNL d   1      -9.118   7.424  -1.934  0.00  0.00     0.001 C 
ATOM     11  C   UNL d   1      -9.149   6.182  -2.556  0.00  0.00     0.009 C 
ATOM     12  C   UNL d   1      -7.961   5.500  -2.879  0.00  0.00    -0.035 C 
ATOM     13  C   UNL d   1      -8.128   4.144  -3.512  0.00  0.00     0.050 C 
ENDBRANCH   3   6
ENDBRANCH   1   2
BRANCH   1  14
ATOM     14  S   UNL d   1      -3.261   3.667  -3.721  0.00  0.00    -0.078 SA
BRANCH  14  15
ATOM     15  C   UNL d   1      -4.476   2.406  -3.886  0.00  0.00     0.219 C 
ATOM     16  O   UNL d   1      -5.294   2.197  -2.999  0.00  0.00    -0.280 OA
BRANCH  15  17
ATOM     17  C   UNL d   1      -4.574   1.713  -5.205  0.00  0.00     0.021 A 
ATOM     18  C   UNL d   1      -3.500   1.638  -6.104  0.00  0.00     0.018 A 
ATOM     19  C   UNL d   1      -3.666   1.034  -7.355  0.00  0.00     0.037 A 
ATOM     20  C   UNL d   1      -4.908   0.496  -7.711  0.00  0.00     0.102 A 
ATOM     21  C   UNL d   1      -5.983   0.540  -6.812  0.00  0.00     0.037 A 
ATOM     22  C   UNL d   1      -5.809   1.143  -5.559  0.00  0.00     0.018 A 
BRANCH  20  23
ATOM     23  N   UNL d   1      -5.087  -0.106  -9.038  0.00  0.00    -0.116 N 
ATOM     24  O   UNL d   1      -6.203  -0.568  -9.315  0.00  0.00    -0.532 OA
ATOM     25  O   UNL d   1      -4.113  -0.111  -9.802  0.00  0.00    -0.532 OA
ENDBRANCH  20  23
ENDBRANCH  15  17
ENDBRANCH  14  15
ENDBRANCH   1  14
TORSDOF 6
