REMARK  3 active torsions:
REMARK  status: ('A' for Active; 'I' for Inactive)
REMARK    1  A    between atoms: N_3  and  S_1 
REMARK    2  A    between atoms: C_10  and  S_1 
REMARK    3  A    between atoms: C_2  and  N_3 
ROOT
ATOM      1  S   UNL d   1       0.968  -0.202  -0.088  0.00  0.00     0.247 S 
ATOM      2  O   UNL d   1       0.372  -1.110   0.871  0.00  0.00    -0.205 OA
ATOM      3  O   UNL d   1       0.533   1.174  -0.201  0.00  0.00    -0.205 OA
ENDROOT
BRANCH   1   4
ATOM      4  N   UNL d   1       0.848  -0.877  -1.660  0.00  0.00    -0.165 NA
ATOM      5  H   UNL d   1       1.229  -0.193  -2.317  0.00  0.00     0.147 HD
BRANCH   4   6
ATOM      6  C   UNL d   1       1.384  -2.199  -1.779  0.00  0.00     0.111 A 
ATOM      7  N   UNL d   1       0.862  -3.384  -1.327  0.00  0.00    -0.285 N 
ATOM      8  N   UNL d   1       1.684  -4.434  -1.554  0.00  0.00    -0.309 N 
ATOM      9  C   UNL d   1      -0.457  -3.630  -0.796  0.00  0.00     0.179 C 
ATOM     10  C   UNL d   1       2.710  -3.897  -2.217  0.00  0.00     0.110 A 
ATOM     11  HN  UNL d   1       1.551  -5.408  -1.281  1.00  0.00     0.186 HD
ATOM     12  C   UNL d   1       2.560  -2.512  -2.416  0.00  0.00     0.063 A 
ENDBRANCH   4   6
ENDBRANCH   1   4
BRANCH   1  13
ATOM     13  C   UNL d   1       2.734  -0.178   0.164  0.00  0.00     0.074 A 
ATOM     14  C   UNL d   1       3.487   0.883  -0.353  0.00  0.00     0.025 A 
ATOM     15  C   UNL d   1       4.876   0.869  -0.217  0.00  0.00     0.002 A 
ATOM     16  C   UNL d   1       5.502  -0.192   0.439  0.00  0.00     0.000 A 
ATOM     17  C   UNL d   1       4.743  -1.233   0.978  0.00  0.00     0.002 A 
ATOM     18  C   UNL d   1       3.354  -1.225   0.851  0.00  0.00     0.025 A 
ENDBRANCH   1  13
TORSDOF 3
