REMARK  5 active torsions:
REMARK  status: ('A' for Active; 'I' for Inactive)
REMARK    1  A    between atoms: N_2  and  C_1 
REMARK    2  A    between atoms: N_3  and  C_1 
REMARK    3  A    between atoms: C_8  and  N_3 
REMARK    4  A    between atoms: C_7  and  N_4 
REMARK    5  A    between atoms: C_11  and  C_7 
ROOT
ATOM      1  N   UNL d   1      -0.003  -0.785   0.730  0.00  0.00    -0.356 N 
ATOM      2  N   UNL d   1      -2.078  -2.817   1.885  0.00  0.00     0.094 N 
ATOM      3  C   UNL d   1      -0.758  -1.756  -0.069  0.00  0.00     0.155 C 
ATOM      4  C   UNL d   1      -2.097  -2.157   0.573  0.00  0.00     0.292 C 
ATOM      5  C   UNL d   1      -0.271  -1.449   3.151  0.00  0.00     0.050 C 
ATOM      6  C   UNL d   1       0.627  -1.330   1.929  0.00  0.00     0.127 C 
ATOM      7  C   UNL d   1      -1.724  -1.889   2.960  0.00  0.00     0.274 C 
ENDROOT
BRANCH   1   8
ATOM      8  C   UNL d   1       0.742   0.201   0.081  0.00  0.00     0.174 C 
ATOM      9  S   UNL d   1       1.875  -0.092  -1.115  0.00  0.00    -0.041 SA
BRANCH   8  10
ATOM     10  N   UNL d   1       0.637   1.456   0.624  0.00  0.00    -0.333 N 
ATOM     11  H   UNL d   1       1.430   2.067   0.458  0.00  0.00     0.168 HD
BRANCH  10  12
ATOM     12  C   UNL d   1      -0.538   2.090   1.085  0.00  0.00     0.034 A 
ATOM     13  C   UNL d   1      -0.407   3.239   1.864  0.00  0.00     0.031 A 
ATOM     14  C   UNL d   1      -1.542   3.955   2.265  0.00  0.00     0.026 A 
ATOM     15  C   UNL d   1      -2.807   3.533   1.858  0.00  0.00     0.034 A 
ATOM     16  C   UNL d   1      -2.947   2.394   1.075  0.00  0.00     0.026 A 
ATOM     17 CL   UNL d   1      -4.199   4.442   2.302  0.00  0.00    -0.084 Cl
ATOM     18  C   UNL d   1      -1.813   1.672   0.691  0.00  0.00     0.031 A 
ENDBRANCH  10  12
ENDBRANCH   8  10
ENDBRANCH   1   8
BRANCH   2  19
ATOM     19  C   UNL d   1      -1.373  -4.099   1.947  0.00  0.00     0.311 C 
BRANCH  19  20
ATOM     20  C   UNL d   1      -1.838  -5.110   0.918  0.00  0.00    -0.030 A 
ATOM     21  C   UNL d   1      -0.934  -5.622  -0.031  0.00  0.00     0.012 A 
ATOM     22  C   UNL d   1      -1.357  -6.550  -0.984  0.00  0.00     0.043 A 
ATOM     23  C   UNL d   1      -2.682  -6.971  -0.989  0.00  0.00     0.116 A 
ATOM     24  C   UNL d   1      -3.592  -6.481  -0.060  0.00  0.00     0.043 A 
ATOM     25  F   UNL d   1      -3.085  -7.862  -1.904  0.00  0.00    -0.206 F 
ATOM     26  C   UNL d   1      -3.171  -5.553   0.894  0.00  0.00     0.012 A 
ENDBRANCH  19  20
ENDBRANCH   2  19
TORSDOF 5
