REMARK  5 active torsions:
REMARK  status: ('A' for Active; 'I' for Inactive)
REMARK    1  A    between atoms: C_2  and  N_1 
REMARK       I    between atoms: C_3  and  N_1 
REMARK    2  A    between atoms: C_4  and  C_3 
REMARK    3  A    between atoms: O_13  and  C_5 
REMARK    4  A    between atoms: O_14  and  C_6 
REMARK    5  A    between atoms: O_15  and  C_7 
ROOT
ATOM      1  C   UNL d   1       3.324  -1.153   0.551  0.00  0.00     0.037 A 
ATOM      2  C   UNL d   1       4.860  -3.353   1.449  0.00  0.00     0.135 A 
ATOM      3  C   UNL d   1       3.630  -3.560   0.775  0.00  0.00     0.105 A 
ATOM      4  C   UNL d   1       5.315  -2.029   1.641  0.00  0.00     0.105 A 
ATOM      5  C   UNL d   1       2.872  -2.457   0.340  0.00  0.00     0.057 A 
ATOM      6  C   UNL d   1       4.537  -0.948   1.211  0.00  0.00     0.057 A 
ENDROOT
BRANCH   1   7
ATOM      7  C   UNL d   1       2.611   0.034  -0.002  0.00  0.00     0.256 C 
ATOM      8  N   UNL d   1       1.233  -0.073  -0.143  0.00  0.00    -0.318 N 
ATOM      9  H   UNL d   1       0.752  -0.705   0.487  0.00  0.00     0.169 HD
ATOM     10  O   UNL d   1       3.246   1.039  -0.246  0.00  0.00    -0.267 OA
BRANCH   8  11
ATOM     11  C   UNL d   1       0.486   1.018  -0.655  0.00  0.00     0.113 A 
ATOM     12  C   UNL d   1       0.772   1.573  -1.906  0.00  0.00     0.146 A 
ATOM     13  F   UNL d   1       1.761   1.072  -2.663  0.00  0.00    -0.204 F 
ATOM     14  C   UNL d   1      -0.012   2.596  -2.438  0.00  0.00     0.045 A 
ATOM     15  C   UNL d   1      -1.081   3.109  -1.704  0.00  0.00     0.006 A 
ATOM     16  C   UNL d   1      -1.355   2.594  -0.436  0.00  0.00     0.045 A 
ATOM     17  C   UNL d   1      -0.583   1.546   0.071  0.00  0.00     0.146 A 
ATOM     18  F   UNL d   1      -0.840   1.095   1.309  0.00  0.00    -0.204 F 
ENDBRANCH   8  11
ENDBRANCH   1   7
BRANCH   3  19
ATOM     19  O   UNL d   1       3.237  -4.852   0.544  0.00  0.00    -0.353 OA
ATOM     20  C   UNL d   1       2.015  -5.098  -0.139  0.00  0.00     0.210 C 
ENDBRANCH   3  19
BRANCH   4  21
ATOM     21  O   UNL d   1       6.473  -1.626   2.263  0.00  0.00    -0.353 OA
ATOM     22  C   UNL d   1       7.609  -2.479   2.159  0.00  0.00     0.210 C 
ENDBRANCH   4  21
BRANCH   2  23
ATOM     23  O   UNL d   1       5.670  -4.326   1.973  0.00  0.00    -0.351 OA
ATOM     24  C   UNL d   1       5.334  -5.700   1.862  0.00  0.00     0.210 C 
ENDBRANCH   2  23
TORSDOF 5
