REMARK  8 active torsions:
REMARK  status: ('A' for Active; 'I' for Inactive)
REMARK    1  A    between atoms: N_4  and  S_1 
REMARK    2  A    between atoms: C_10  and  S_1 
REMARK    3  A    between atoms: S_2  and  N_7 
REMARK    4  A    between atoms: C_9  and  S_2 
REMARK    5  A    between atoms: C_3  and  C_5 
REMARK    6  A    between atoms: C_8  and  N_4 
REMARK    7  A    between atoms: C_6  and  C_11 
REMARK    8  A    between atoms: N_7  and  C_25 
ROOT
ATOM      1  C   UNL d   1       0.238  -1.534  -0.258  0.00  0.00     0.080 A 
ATOM      2  C   UNL d   1       1.089  -2.586   0.099  0.00  0.00     0.027 A 
ATOM      3  C   UNL d   1      -0.951  -1.789  -0.952  0.00  0.00     0.027 A 
ATOM      4  C   UNL d   1      -0.390  -4.140  -1.019  0.00  0.00     0.042 A 
ATOM      5  C   UNL d   1      -1.258  -3.097  -1.341  0.00  0.00     0.031 A 
ATOM      6  C   UNL d   1       0.765  -3.891  -0.275  0.00  0.00     0.031 A 
ENDROOT
BRANCH   1   7
ATOM      7  S   UNL d   1       0.629   0.121   0.279  0.00  0.00     0.263 S 
ATOM      8  O   UNL d   1      -0.603   0.880   0.279  0.00  0.00    -0.200 OA
ATOM      9  O   UNL d   1       1.447  -0.006   1.464  0.00  0.00    -0.200 OA
BRANCH   7  10
ATOM     10  N   UNL d   1       1.643   0.710  -0.941  0.00  0.00    -0.280 N 
ATOM     11  H   UNL d   1       2.600   0.370  -0.847  0.00  0.00     0.179 HD
BRANCH  10  12
ATOM     12  C   UNL d   1       1.125   0.892  -2.252  0.00  0.00     0.057 A 
ATOM     13  C   UNL d   1       0.430   2.048  -2.633  0.00  0.00     0.075 A 
ATOM     14  C   UNL d   1      -0.094   2.112  -3.943  0.00  0.00     0.018 A 
ATOM     15  C   UNL d   1       0.082   1.064  -4.845  0.00  0.00     0.001 A 
ATOM     16  C   UNL d   1       0.789  -0.068  -4.457  0.00  0.00     0.002 A 
ATOM     17  C   UNL d   1       1.309  -0.153  -3.167  0.00  0.00     0.031 A 
BRANCH  13  18
ATOM     18  C   UNL d   1       0.258   3.271  -1.764  0.00  0.00     0.419 C 
ATOM     19  F   UNL d   1       0.849   3.229  -0.541  0.00  0.00    -0.166 F 
ATOM     20  F   UNL d   1       0.781   4.381  -2.370  0.00  0.00    -0.166 F 
ATOM     21  F   UNL d   1      -1.054   3.574  -1.548  0.00  0.00    -0.166 F 
ENDBRANCH  13  18
ENDBRANCH  10  12
ENDBRANCH   7  10
ENDBRANCH   1   7
BRANCH   4  22
ATOM     22  N   UNL d   1      -0.676  -5.464  -1.423  0.00  0.00    -0.281 N 
ATOM     23  H   UNL d   1      -1.340  -6.039  -0.908  0.00  0.00     0.179 HD
BRANCH  22  24
ATOM     24  S   UNL d   1      -0.182  -6.029  -2.924  0.00  0.00     0.263 S 
ATOM     25  O   UNL d   1      -0.660  -7.389  -3.033  0.00  0.00    -0.200 OA
ATOM     26  O   UNL d   1      -0.487  -5.036  -3.933  0.00  0.00    -0.200 OA
BRANCH  24  27
ATOM     27  C   UNL d   1       1.586  -6.093  -2.730  0.00  0.00     0.080 A 
ATOM     28  C   UNL d   1       2.355  -4.987  -3.112  0.00  0.00     0.041 A 
ATOM     29  C   UNL d   1       3.727  -4.955  -2.824  0.00  0.00     0.049 A 
ATOM     30  C   UNL d   1       4.318  -6.076  -2.217  0.00  0.00     0.016 A 
ATOM     31  C   UNL d   1       3.554  -7.203  -1.896  0.00  0.00     0.002 A 
ATOM     32  C   UNL d   1       2.182  -7.213  -2.146  0.00  0.00     0.025 A 
BRANCH  29  33
ATOM     33  C   UNL d   1       4.544  -3.716  -3.094  0.00  0.00     0.417 C 
ATOM     34  F   UNL d   1       3.825  -2.709  -3.668  0.00  0.00    -0.166 F 
ATOM     35  F   UNL d   1       5.055  -3.185  -1.947  0.00  0.00    -0.166 F 
ATOM     36  F   UNL d   1       5.604  -3.941  -3.913  0.00  0.00    -0.166 F 
ENDBRANCH  29  33
ENDBRANCH  24  27
ENDBRANCH  22  24
ENDBRANCH   4  22
TORSDOF 8
