REMARK  7 active torsions:
REMARK  status: ('A' for Active; 'I' for Inactive)
REMARK    1  A    between atoms: C_4  and  C_1 
REMARK    2  A    between atoms: C_2  and  N_7 
REMARK    3  A    between atoms: N_6  and  C_2 
REMARK       I    between atoms: C_3  and  N_5 
REMARK    4  A    between atoms: C_9  and  C_3 
REMARK    5  A    between atoms: N_5  and  N_6 
REMARK    6  A    between atoms: N_7  and  C_13 
REMARK    7  A    between atoms: C_10  and  C_11 
ROOT
ATOM      1  N   UNL d   1      -0.455  -1.659  -1.472  0.00  0.00    -0.273 N 
ATOM      2  H   UNL d   1       0.064  -0.835  -1.198  0.00  0.00     0.189 HD
ENDROOT
BRANCH   1   3
ATOM      3  N   UNL d   1      -0.006  -2.794  -0.793  0.00  0.00    -0.264 N 
ATOM      4  C   UNL d   1       1.233  -2.728  -0.196  0.00  0.00     0.270 C 
ATOM      5  O   UNL d   1       1.942  -1.723  -0.229  0.00  0.00    -0.266 OA
ATOM      6  H   UNL d   1      -0.691  -3.520  -0.603  0.00  0.00     0.190 HD
BRANCH   4   7
ATOM      7  C   UNL d   1       1.656  -3.943   0.554  0.00  0.00     0.033 A 
ATOM      8  C   UNL d   1       1.234  -5.221   0.179  0.00  0.00     0.017 A 
ATOM      9  C   UNL d   1       1.659  -6.339   0.905  0.00  0.00     0.009 A 
ATOM     10  C   UNL d   1       2.512  -6.215   2.019  0.00  0.00    -0.051 A 
ATOM     11  C   UNL d   1       2.937  -4.920   2.367  0.00  0.00     0.009 A 
ATOM     12  C   UNL d   1       2.520  -3.799   1.641  0.00  0.00     0.017 A 
BRANCH  10  13
ATOM     13  C   UNL d   1       2.939  -7.467   2.807  0.00  0.00    -0.024 C 
ATOM     14  C   UNL d   1       3.862  -7.159   4.008  0.00  0.00     0.019 C 
ATOM     15  C   UNL d   1       1.685  -8.176   3.363  0.00  0.00     0.019 C 
ATOM     16  C   UNL d   1       3.703  -8.439   1.882  0.00  0.00     0.019 C 
ENDBRANCH  10  13
ENDBRANCH   4   7
ENDBRANCH   1   3
BRANCH   1  17
ATOM     17  C   UNL d   1      -1.042  -1.748  -2.707  0.00  0.00     0.191 C 
ATOM     18  S   UNL d   1      -1.622  -3.188  -3.357  0.00  0.00    -0.039 SA
BRANCH  17  19
ATOM     19  N   UNL d   1      -1.322  -0.601  -3.404  0.00  0.00    -0.332 N 
ATOM     20  H   UNL d   1      -1.976  -0.781  -4.159  0.00  0.00     0.168 HD
BRANCH  19  21
ATOM     21  C   UNL d   1      -1.089   0.756  -3.108  0.00  0.00     0.035 C 
ATOM     22  C   UNL d   1      -0.035   1.212  -2.320  0.00  0.00     0.045 C 
ATOM     23  C   UNL d   1      -0.020   2.527  -1.830  0.00  0.00     0.050 C 
ATOM     24  C   UNL d   1      -0.969   3.440  -2.304  0.00  0.00     0.016 C 
ATOM     25  C   UNL d   1      -1.934   3.030  -3.222  0.00  0.00     0.003 C 
ATOM     26  C   UNL d   1      -2.003   1.689  -3.610  0.00  0.00     0.029 C 
BRANCH  23  27
ATOM     27  C   UNL d   1       0.933   2.908  -0.723  0.00  0.00     0.417 C 
ATOM     28  F   UNL d   1       1.787   1.908  -0.373  0.00  0.00    -0.166 F 
ATOM     29  F   UNL d   1       0.266   3.236   0.420  0.00  0.00    -0.166 F 
ATOM     30  F   UNL d   1       1.708   3.982  -1.027  0.00  0.00    -0.166 F 
ENDBRANCH  23  27
ENDBRANCH  19  21
ENDBRANCH  17  19
ENDBRANCH   1  17
TORSDOF 7
