REMARK  2 active torsions:
REMARK  status: ('A' for Active; 'I' for Inactive)
REMARK    1  A    between atoms: C_4  and  C_1 
REMARK       I    between atoms: N_7  and  C_4 
REMARK    2  A    between atoms: C_11  and  N_7 
ROOT
ATOM      1  N   UNL d   1       9.999   0.828   1.192  0.00  0.00    -0.191 NA
ATOM      2  C   UNL d   1       9.212   0.098   0.742  0.00  0.00     0.099 C 
ATOM      3  C   UNL d   1       5.948  -1.459  -0.214  0.00  0.00     0.036 A 
ATOM      4  C   UNL d   1       8.261  -0.818   0.186  0.00  0.00     0.046 A 
ATOM      5  C   UNL d   1       6.888  -0.580   0.335  0.00  0.00     0.052 A 
ATOM      6  C   UNL d   1       7.770  -2.849  -1.023  0.00  0.00     0.004 A 
ATOM      7  C   UNL d   1       6.400  -2.613  -0.863  0.00  0.00     0.029 A 
ATOM      8  C   UNL d   1       8.699  -1.945  -0.508  0.00  0.00     0.023 A 
ENDROOT
BRANCH   3   9
ATOM      9  N   UNL d   1       4.552  -1.243  -0.164  0.00  0.00    -0.322 N 
ATOM     10  C   UNL d   1       3.912  -0.044   0.137  0.00  0.00     0.264 C 
ATOM     11  O   UNL d   1       4.529   0.988   0.383  0.00  0.00    -0.267 OA
ATOM     12  H   UNL d   1       3.957  -1.998  -0.480  0.00  0.00     0.169 HD
BRANCH  10  13
ATOM     13  C   UNL d   1       2.450  -0.081   0.123  0.00  0.00     0.096 A 
ATOM     14  S   UNL d   1       1.580  -1.539  -0.100  0.00  0.00    -0.082 SA
ATOM     15  C   UNL d   1       0.057  -0.782   0.157  0.00  0.00     0.017 A 
ATOM     16  C   UNL d   1      -1.213  -1.395   0.147  0.00  0.00     0.020 A 
ATOM     17  C   UNL d   1       0.205   0.584   0.403  0.00  0.00     0.004 A 
ATOM     18  C   UNL d   1      -2.341  -0.625   0.442  0.00  0.00     0.001 A 
ATOM     19  C   UNL d   1      -2.217   0.724   0.737  0.00  0.00     0.001 A 
ATOM     20  C   UNL d   1      -0.962   1.335   0.704  0.00  0.00     0.014 A 
ATOM     21  C   UNL d   1       1.583   0.984   0.290  0.00  0.00     0.068 A 
ATOM     22 CL   UNL d   1       2.029   2.644   0.400  0.00  0.00    -0.082 Cl
ENDBRANCH  10  13
ENDBRANCH   3   9
TORSDOF 2
