REMARK  7 active torsions:
REMARK  status: ('A' for Active; 'I' for Inactive)
REMARK    1  A    between atoms: N_4  and  S_1 
REMARK    2  A    between atoms: C_8  and  S_1 
REMARK    3  A    between atoms: C_6  and  C_2 
REMARK    4  A    between atoms: C_3  and  N_4 
REMARK    5  A    between atoms: O_16  and  C_6 
REMARK    6  A    between atoms: O_18  and  C_9 
REMARK    7  A    between atoms: O_19  and  C_10 
ROOT
ATOM      1  C   UNL d   1       2.062   2.992   0.571  0.00  0.00     0.064 A 
ATOM      2  C   UNL d   1       0.792   2.593   0.124  0.00  0.00     0.042 A 
ATOM      3  C   UNL d   1       2.190   4.157   1.334  0.00  0.00     0.059 A 
ATOM      4  C   UNL d   1      -0.320   3.415   0.370  0.00  0.00     0.065 A 
ATOM      5  C   UNL d   1       1.072   4.938   1.644  0.00  0.00     0.102 A 
ATOM      6  C   UNL d   1      -0.191   4.592   1.131  0.00  0.00     0.103 A 
ENDROOT
BRANCH   2   7
ATOM      7  N   UNL d   1       0.615   1.381  -0.648  0.00  0.00    -0.180 NA
ATOM      8  H   UNL d   1       1.309   0.666  -0.388  0.00  0.00     0.146 HD
BRANCH   7   9
ATOM      9  S   UNL d   1       0.665   1.601  -2.340  0.00  0.00     0.245 S 
ATOM     10  O   UNL d   1       1.747   2.511  -2.653  0.00  0.00    -0.206 OA
ATOM     11  O   UNL d   1      -0.684   1.847  -2.801  0.00  0.00    -0.206 OA
BRANCH   9  12
ATOM     12  C   UNL d   1       1.160  -0.019  -2.911  0.00  0.00     0.074 A 
ATOM     13  C   UNL d   1       0.189  -0.969  -3.243  0.00  0.00     0.026 A 
ATOM     14  C   UNL d   1       0.582  -2.200  -3.787  0.00  0.00     0.025 A 
ATOM     15  C   UNL d   1       1.934  -2.466  -4.000  0.00  0.00     0.034 A 
ATOM     16  C   UNL d   1       2.904  -1.521  -3.663  0.00  0.00     0.025 A 
ATOM     17 CL   UNL d   1       2.409  -3.964  -4.703  0.00  0.00    -0.084 Cl
ATOM     18  C   UNL d   1       2.519  -0.293  -3.120  0.00  0.00     0.026 A 
ENDBRANCH   9  12
ENDBRANCH   7   9
ENDBRANCH   2   7
BRANCH   1  19
ATOM     19  C   UNL d   1       3.254   2.165   0.271  0.00  0.00     0.294 C 
ATOM     20  O   UNL d   1       3.189   0.972   0.010  0.00  0.00    -0.259 OA
BRANCH  19  21
ATOM     21  O   UNL d   1       4.372   2.929   0.299  0.00  0.00    -0.322 OA
ATOM     22  C   UNL d   1       5.602   2.271  -0.007  0.00  0.00     0.213 C 
ENDBRANCH  19  21
ENDBRANCH   1  19
BRANCH   6  23
ATOM     23  O   UNL d   1      -1.219   5.454   1.398  0.00  0.00    -0.353 OA
ATOM     24  C   UNL d   1      -2.496   5.194   0.837  0.00  0.00     0.210 C 
ENDBRANCH   6  23
BRANCH   5  25
ATOM     25  O   UNL d   1       1.384   6.035   2.407  0.00  0.00    -0.353 OA
ATOM     26  C   UNL d   1       0.400   6.471   3.338  0.00  0.00     0.210 C 
ENDBRANCH   5  25
TORSDOF 7
