REMARK  4 active torsions:
REMARK  status: ('A' for Active; 'I' for Inactive)
REMARK    1  A    between atoms: C_6  and  S_1 
REMARK    2  A    between atoms: C_7  and  S_1 
REMARK    3  A    between atoms: C_12  and  C_6 
REMARK    4  A    between atoms: C_13  and  C_7 
ROOT
ATOM      1  S   UNL d   1       0.900   0.095   0.057  0.00  0.00     0.152 S 
ATOM      2  O   UNL d   1       0.530  -0.276   1.411  0.00  0.00    -0.227 OA
ATOM      3  O   UNL d   1       0.472   1.354  -0.529  0.00  0.00    -0.227 OA
ENDROOT
BRANCH   1   4
ATOM      4  C   UNL d   1       0.387  -1.228  -1.037  0.00  0.00     0.179 C 
BRANCH   4   5
ATOM      5  C   UNL d   1      -1.115  -1.371  -0.992  0.00  0.00    -0.043 A 
ATOM      6  C   UNL d   1      -1.932  -0.644  -1.871  0.00  0.00     0.033 A 
ATOM      7  C   UNL d   1      -3.328  -0.770  -1.824  0.00  0.00     0.056 A 
ATOM      8 CL   UNL d   1      -4.256   0.157  -2.948  0.00  0.00    -0.083 Cl
ATOM      9  C   UNL d   1      -3.918  -1.628  -0.891  0.00  0.00     0.055 A 
ATOM     10  C   UNL d   1      -3.113  -2.349  -0.008  0.00  0.00     0.026 A 
ATOM     11 CL   UNL d   1      -5.629  -1.841  -0.778  0.00  0.00    -0.083 Cl
ATOM     12  C   UNL d   1      -1.721  -2.222  -0.057  0.00  0.00     0.010 A 
ENDBRANCH   4   5
ENDBRANCH   1   4
BRANCH   1  13
ATOM     13  C   UNL d   1       2.683   0.008  -0.070  0.00  0.00     0.179 C 
BRANCH  13  14
ATOM     14  C   UNL d   1       3.319   0.979   0.895  0.00  0.00    -0.043 A 
ATOM     15  C   UNL d   1       3.630   0.579   2.206  0.00  0.00     0.033 A 
ATOM     16  C   UNL d   1       4.245   1.464   3.101  0.00  0.00     0.056 A 
ATOM     17 CL   UNL d   1       4.611   0.879   4.685  0.00  0.00    -0.083 Cl
ATOM     18  C   UNL d   1       4.548   2.766   2.694  0.00  0.00     0.055 A 
ATOM     19  C   UNL d   1       4.225   3.178   1.398  0.00  0.00     0.026 A 
ATOM     20 CL   UNL d   1       5.325   3.907   3.733  0.00  0.00    -0.083 Cl
ATOM     21  C   UNL d   1       3.613   2.292   0.506  0.00  0.00     0.010 A 
ENDBRANCH  13  14
ENDBRANCH   1  13
TORSDOF 4
