REMARK  4 active torsions:
REMARK  status: ('A' for Active; 'I' for Inactive)
REMARK    1  A    between atoms: N_6  and  C_1 
REMARK       I    between atoms: C_5  and  N_8 
REMARK    2  A    between atoms: C_7  and  C_5 
REMARK    3  A    between atoms: C_12  and  C_10 
REMARK    4  A    between atoms: O_24  and  C_12 
ROOT
ATOM      1  C   UNL d   1      -8.510  -0.715  -0.407  0.00  0.00     0.225 C 
ATOM      2  N   UNL d   1      -4.510   0.156   0.121  0.00  0.00    -0.358 N 
ATOM      3  N   UNL d   1      -7.124  -0.792  -0.497  0.00  0.00    -0.349 N 
ATOM      4  O   UNL d   1      -9.108  -1.181   0.575  0.00  0.00    -0.273 OA
ATOM      5  C   UNL d   1      -5.330  -0.426   1.191  0.00  0.00     0.145 C 
ATOM      6  C   UNL d   1      -5.267   0.801  -0.963  0.00  0.00     0.145 C 
ATOM      7  C   UNL d   1      -6.283  -0.205  -1.554  0.00  0.00     0.145 C 
ATOM      8  C   UNL d   1      -6.357  -1.408   0.596  0.00  0.00     0.145 C 
ENDROOT
BRANCH   2   9
ATOM      9  C   UNL d   1      -3.139   0.161   0.114  0.00  0.00     0.148 A 
ATOM     10  N   UNL d   1      -2.423   0.762  -0.808  0.00  0.00    -0.336 N 
ATOM     11  C   UNL d   1      -1.067   0.599  -0.576  0.00  0.00     0.051 A 
ATOM     12  HN  UNL d   1      -2.815   1.282  -1.594  1.00  0.00     0.168 HD
ATOM     13  C   UNL d   1      -0.015   1.131  -1.353  0.00  0.00     0.032 A 
ATOM     14  C   UNL d   1      -0.745  -0.170   0.538  0.00  0.00     0.036 A 
ATOM     15  C   UNL d   1       1.315   0.877  -0.991  0.00  0.00     0.026 A 
ATOM     16  C   UNL d   1       1.600   0.094   0.123  0.00  0.00     0.035 A 
ATOM     17  C   UNL d   1       0.582  -0.446   0.907  0.00  0.00     0.045 A 
ATOM     18 CL   UNL d   1       3.240  -0.214   0.550  0.00  0.00    -0.084 Cl
ATOM     19  S   UNL d   1      -2.192  -0.662   1.304  0.00  0.00    -0.052 SA
ENDBRANCH   2   9
BRANCH   1  20
ATOM     20  C   UNL d   1      -9.300   0.003  -1.526  0.00  0.00     0.092 C 
ATOM     21  C   UNL d   1     -10.859  -0.038  -1.348  0.00  0.00     0.096 C 
ATOM     22  C   UNL d   1     -10.987  -0.315  -2.857  0.00  0.00     0.017 C 
ATOM     23  C   UNL d   1      -9.498  -0.687  -2.894  0.00  0.00     0.016 C 
BRANCH  21  24
ATOM     24  C   UNL d   1     -11.494   1.250  -0.774  0.00  0.00     0.144 C 
ATOM     25  O   UNL d   1     -11.890   2.212  -1.425  0.00  0.00    -0.650 OA
BRANCH  24  26
ATOM     26  O   UNL d   1     -11.573   1.257   0.585  0.00  0.00    -0.776 OA
ATOM     27  H   UNL d   1     -11.191   0.450   0.986  0.00  0.00     0.167 HD
ENDBRANCH  24  26
ENDBRANCH  21  24
ENDBRANCH   1  20
TORSDOF 4
