REMARK  4 active torsions:
REMARK  status: ('A' for Active; 'I' for Inactive)
REMARK    1  A    between atoms: C_3  and  C_1 
REMARK    2  A    between atoms: C_2  and  C_3 
REMARK    3  A    between atoms: O_14  and  C_8 
REMARK    4  A    between atoms: O_15  and  C_9 
ROOT
ATOM      1  C   UNL d   1      -0.021  -3.500  -0.024  0.00  0.00     0.014 C 
ATOM      2  C   UNL d   1      -1.516  -3.662  -0.493  0.00  0.00     0.019 C 
ATOM      3  C   UNL d   1       0.843  -4.203  -1.129  0.00  0.00     0.019 C 
ATOM      4  C   UNL d   1      -1.986  -5.038  -0.956  0.00  0.00     0.001 C 
ATOM      5  C   UNL d   1       0.416  -5.662  -1.355  0.00  0.00     0.001 C 
ATOM      6  C   UNL d   1      -1.009  -5.734  -1.883  0.00  0.00     0.000 C 
ENDROOT
BRANCH   1   7
ATOM      7  C   UNL d   1       0.401  -4.130   1.330  0.00  0.00    -0.044 A 
ATOM      8  C   UNL d   1      -0.441  -4.905   2.132  0.00  0.00     0.017 A 
ATOM      9  C   UNL d   1       0.037  -5.524   3.303  0.00  0.00    -0.028 A 
ATOM     10  C   UNL d   1      -0.868  -6.417   4.105  0.00  0.00     0.051 C 
ATOM     11  C   UNL d   1       1.371  -5.343   3.691  0.00  0.00     0.077 A 
ATOM     12  C   UNL d   1       2.235  -4.539   2.943  0.00  0.00    -0.028 A 
ATOM     13  C   UNL d   1       1.733  -3.945   1.775  0.00  0.00     0.017 A 
ATOM     14  C   UNL d   1       3.674  -4.319   3.312  0.00  0.00     0.051 C 
BRANCH  11  15
ATOM     15  O   UNL d   1       1.792  -5.988   4.822  0.00  0.00    -0.360 OA
ATOM     16  H   UNL d   1       2.735  -5.807   4.967  0.00  0.00     0.217 HD
ENDBRANCH  11  15
ENDBRANCH   1   7
BRANCH   1  17
ATOM     17  C   UNL d   1       0.169  -1.958   0.095  0.00  0.00    -0.044 A 
ATOM     18  C   UNL d   1       1.137  -1.218  -0.597  0.00  0.00     0.017 A 
ATOM     19  C   UNL d   1       1.196   0.186  -0.474  0.00  0.00    -0.028 A 
ATOM     20  C   UNL d   1       2.248   0.966  -1.214  0.00  0.00     0.051 C 
ATOM     21  C   UNL d   1       0.240   0.851   0.308  0.00  0.00     0.077 A 
ATOM     22  C   UNL d   1      -0.731   0.148   1.016  0.00  0.00    -0.028 A 
ATOM     23  C   UNL d   1      -0.712  -1.247   0.942  0.00  0.00     0.017 A 
ATOM     24  C   UNL d   1      -1.819   0.809   1.811  0.00  0.00     0.051 C 
BRANCH  21  25
ATOM     25  O   UNL d   1       0.292   2.225   0.345  0.00  0.00    -0.360 OA
ATOM     26  H   UNL d   1      -0.392   2.555   0.941  0.00  0.00     0.217 HD
ENDBRANCH  21  25
ENDBRANCH   1  17
TORSDOF 4
