REMARK  2 active torsions:
REMARK  status: ('A' for Active; 'I' for Inactive)
REMARK    1  A    between atoms: C_7  and  C_3 
REMARK    2  A    between atoms: C_12  and  C_4 
ROOT
ATOM      1  N   UNL d   1      -1.050  -2.470  -3.349  0.00  0.00    -0.197 NA
ATOM      2  C   UNL d   1      -0.649  -2.494  -2.261  0.00  0.00     0.065 C 
ATOM      3  C   UNL d   1      -0.138  -2.531  -0.859  0.00  0.00     0.188 C 
ENDROOT
BRANCH   3   4
ATOM      4  C   UNL d   1       0.172  -1.136  -0.381  0.00  0.00     0.064 A 
ATOM      5  N   UNL d   1       1.344  -0.543  -0.505  0.00  0.00    -0.352 N 
ATOM      6  C   UNL d   1       1.289   0.748   0.007  0.00  0.00     0.049 A 
ATOM      7  HN  UNL d   1       2.173  -0.971  -0.918  1.00  0.00     0.166 HD
ATOM      8  C   UNL d   1       0.054   1.114   0.508  0.00  0.00     0.081 A 
ATOM      9  S   UNL d   1      -1.053  -0.185   0.367  0.00  0.00    -0.085 SA
BRANCH   6  10
ATOM     10  C   UNL d   1       2.449   1.635  -0.015  0.00  0.00    -0.008 A 
ATOM     11  C   UNL d   1       3.386   1.539  -1.054  0.00  0.00     0.021 A 
ATOM     12  C   UNL d   1       4.505   2.392  -1.114  0.00  0.00    -0.055 A 
ATOM     13  C   UNL d   1       5.473   2.260  -2.258  0.00  0.00     0.049 C 
ATOM     14  C   UNL d   1       4.695   3.354  -0.103  0.00  0.00    -0.056 A 
ATOM     15  C   UNL d   1       3.766   3.438   0.943  0.00  0.00     0.008 A 
ATOM     16  C   UNL d   1       5.871   4.293  -0.120  0.00  0.00     0.049 C 
ATOM     17  C   UNL d   1       2.657   2.590   0.987  0.00  0.00     0.014 A 
ENDBRANCH   6  10
ENDBRANCH   3   4
TORSDOF 2
