REMARK  2 active torsions:
REMARK  status: ('A' for Active; 'I' for Inactive)
REMARK    1  A    between atoms: N_8  and  C_1 
REMARK       I    between atoms: C_2  and  N_5 
REMARK    2  A    between atoms: C_7  and  C_2 
REMARK       I    between atoms: N_5  and  C_6 
REMARK       I    between atoms: C_6  and  N_8 
ROOT
ATOM      1  C   UNL d   1       2.998   2.893  -0.177  0.00  0.00     0.263 C 
ATOM      2  N   UNL d   1       4.289   2.380  -0.226  0.00  0.00    -0.275 N 
ATOM      3  C   UNL d   1       4.779   1.096  -0.204  0.00  0.00     0.329 C 
ATOM      4  N   UNL d   1       3.860   0.110   0.006  0.00  0.00    -0.288 N 
ATOM      5  O   UNL d   1       2.004   2.188  -0.189  0.00  0.00    -0.267 OA
ATOM      6  O   UNL d   1       6.000   0.984  -0.281  0.00  0.00    -0.247 OA
ATOM      7  H   UNL d   1       5.067   3.028  -0.267  0.00  0.00     0.173 HD
ATOM      8  H   UNL d   1       2.922   0.409   0.246  0.00  0.00     0.172 HD
ENDROOT
BRANCH   4   9
ATOM      9  C   UNL d   1       4.322  -1.040   0.592  0.00  0.00     0.153 C 
ATOM     10  N   UNL d   1       5.467  -1.644   0.409  0.00  0.00    -0.335 N 
ATOM     11  C   UNL d   1       5.717  -2.471   1.486  0.00  0.00     0.054 A 
ATOM     12  HN  UNL d   1       6.078  -1.523  -0.399  1.00  0.00     0.168 HD
ATOM     13  C   UNL d   1       6.904  -3.198   1.711  0.00  0.00     0.073 A 
ATOM     14  C   UNL d   1       4.700  -2.518   2.445  0.00  0.00     0.035 A 
ATOM     15  C   UNL d   1       7.055  -3.874   2.919  0.00  0.00     0.118 A 
ATOM     16  F   UNL d   1       8.196  -4.533   3.160  0.00  0.00    -0.206 F 
ATOM     17  C   UNL d   1       6.062  -3.862   3.889  0.00  0.00     0.044 A 
ATOM     18  C   UNL d   1       4.853  -3.201   3.660  0.00  0.00     0.024 A 
ATOM     19  S   UNL d   1       3.347  -1.614   1.863  0.00  0.00    -0.052 SA
ENDBRANCH   4   9
BRANCH   1  20
ATOM     20  C   UNL d   1       2.950   4.390  -0.039  0.00  0.00     0.075 A 
ATOM     21  C   UNL d   1       3.893   5.216  -0.689  0.00  0.00     0.051 A 
ATOM     22 CL   UNL d   1       4.964   4.653  -1.930  0.00  0.00    -0.083 Cl
ATOM     23  C   UNL d   1       4.009   6.572  -0.366  0.00  0.00     0.025 A 
ATOM     24  C   UNL d   1       3.151   7.145   0.564  0.00  0.00     0.003 A 
ATOM     25  C   UNL d   1       2.152   6.367   1.144  0.00  0.00     0.025 A 
ATOM     26  C   UNL d   1       2.049   4.997   0.851  0.00  0.00     0.051 A 
ATOM     27 CL   UNL d   1       0.802   4.139   1.690  0.00  0.00    -0.083 Cl
ENDBRANCH   1  20
TORSDOF 2
