REMARK  4 active torsions:
REMARK  status: ('A' for Active; 'I' for Inactive)
REMARK    1  A    between atoms: C_18  and  C_2 
REMARK       I    between atoms: C_4  and  N_9 
REMARK    2  A    between atoms: C_8  and  C_4 
REMARK    3  A    between atoms: N_9  and  C_14 
REMARK    4  A    between atoms: O_19  and  C_18 
ROOT
ATOM      1  C   UNL d   1       0.221   0.468   0.090  0.00  0.00     0.092 A 
ATOM      2  C   UNL d   1      -0.528  -1.881  -0.004  0.00  0.00    -0.016 A 
ATOM      3  O   UNL d   1      -1.122   0.894   0.118  0.00  0.00    -0.275 OA
ATOM      4  C   UNL d   1      -2.160  -0.014   0.051  0.00  0.00     0.288 A 
ATOM      5  C   UNL d   1       0.556  -0.885   0.031  0.00  0.00     0.007 A 
ATOM      6  C   UNL d   1      -1.794  -1.436  -0.002  0.00  0.00     0.092 A 
ATOM      7  C   UNL d   1       1.182   1.483   0.104  0.00  0.00     0.067 A 
ATOM      8  C   UNL d   1       1.917  -1.203  -0.001  0.00  0.00     0.017 A 
ATOM      9  C   UNL d   1       2.534   1.159   0.043  0.00  0.00     0.037 A 
ATOM     10  O   UNL d   1      -3.337   0.328   0.026  0.00  0.00    -0.260 OA
ATOM     11  C   UNL d   1       2.895  -0.194   0.003  0.00  0.00     0.030 A 
ENDROOT
BRANCH   9  12
ATOM     12  N   UNL d   1       3.572   2.116  -0.007  0.00  0.00    -0.327 N 
ATOM     13  C   UNL d   1       3.438   3.490  -0.014  0.00  0.00     0.226 C 
ATOM     14  O   UNL d   1       2.395   4.122   0.078  0.00  0.00    -0.273 OA
ATOM     15  H   UNL d   1       4.509   1.751  -0.092  0.00  0.00     0.169 HD
BRANCH  13  16
ATOM     16  C   UNL d   1       4.699   4.278  -0.173  0.00  0.00     0.078 A 
ATOM     17  C   UNL d   1       5.670   3.960  -1.287  0.00  0.00     0.015 A 
ATOM     18  C   UNL d   1       6.086   3.780   0.145  0.00  0.00     0.015 A 
ENDBRANCH  13  16
ENDBRANCH   9  12
BRANCH   2  19
ATOM     19  C   UNL d   1      -0.228  -3.353  -0.083  0.00  0.00     0.206 C 
BRANCH  19  20
ATOM     20  O   UNL d   1       0.444  -3.759   1.107  0.00  0.00    -0.391 OA
ATOM     21  C   UNL d   1       0.755  -5.145   1.089  0.00  0.00     0.201 C 
ENDBRANCH  19  20
ENDBRANCH   2  19
TORSDOF 4
