REMARK  3 active torsions:
REMARK  status: ('A' for Active; 'I' for Inactive)
REMARK    1  A    between atoms: C_4  and  C_1 
REMARK    2  A    between atoms: C_8  and  C_3 
REMARK       I    between atoms: N_7  and  C_4 
REMARK    3  A    between atoms: C_10  and  N_7 
ROOT
ATOM      1  C   UNL d   1      -2.736  -1.325   0.078  0.00  0.00     0.258 C 
ATOM      2  N   UNL d   1      -3.912  -0.593   0.099  0.00  0.00    -0.323 N 
ATOM      3  O   UNL d   1      -2.679  -2.545  -0.057  0.00  0.00    -0.267 OA
ATOM      4  H   UNL d   1      -3.831   0.408   0.019  0.00  0.00     0.169 HD
ENDROOT
BRANCH   1   5
ATOM      5  C   UNL d   1      -1.478  -0.581   0.156  0.00  0.00     0.064 A 
ATOM      6  C   UNL d   1      -0.210  -1.170  -0.166  0.00  0.00     0.053 A 
ATOM      7  C   UNL d   1       0.760  -0.225   0.051  0.00  0.00     0.062 A 
ATOM      8  O   UNL d   1       0.168   0.928   0.469  0.00  0.00    -0.318 OA
ATOM      9  C   UNL d   1      -1.176   0.712   0.551  0.00  0.00     0.065 A 
ATOM     10  C   UNL d   1      -1.922   1.885   1.064  0.00  0.00     0.077 C 
BRANCH   7  11
ATOM     11  C   UNL d   1       2.264  -0.211  -0.057  0.00  0.00    -0.002 C 
ATOM     12  C   UNL d   1       2.809  -1.608  -0.420  0.00  0.00     0.021 C 
ATOM     13  C   UNL d   1       2.695   0.780  -1.150  0.00  0.00     0.021 C 
ATOM     14  C   UNL d   1       2.873   0.209   1.293  0.00  0.00     0.021 C 
ENDBRANCH   7  11
ENDBRANCH   1   5
BRANCH   2  15
ATOM     15  C   UNL d   1      -5.217  -1.131  -0.015  0.00  0.00     0.035 A 
ATOM     16  C   UNL d   1      -5.499  -2.497   0.104  0.00  0.00     0.036 A 
ATOM     17  C   UNL d   1      -6.785  -3.003  -0.132  0.00  0.00    -0.060 A 
ATOM     18  C   UNL d   1      -7.035  -4.482  -0.092  0.00  0.00     0.048 C 
ATOM     19  C   UNL d   1      -7.816  -2.116  -0.449  0.00  0.00     0.007 A 
ATOM     20  C   UNL d   1      -7.563  -0.746  -0.511  0.00  0.00     0.003 A 
ATOM     21  C   UNL d   1      -6.271  -0.255  -0.291  0.00  0.00     0.029 A 
ENDBRANCH   2  15
TORSDOF 3
