REMARK  2 active torsions:
REMARK  status: ('A' for Active; 'I' for Inactive)
REMARK    1  A    between atoms: C_4  and  N_1 
REMARK    2  A    between atoms: C_14  and  C_9 
ROOT
ATOM      1  C   UNL d   1       0.107   2.155  -0.145  0.00  0.00     0.045 A 
ATOM      2  C   UNL d   1       0.167   5.018  -0.217  0.00  0.00    -0.054 A 
ATOM      3  C   UNL d   1      -0.568   2.922   0.812  0.00  0.00     0.031 A 
ATOM      4  C   UNL d   1       0.789   2.847  -1.150  0.00  0.00     0.031 A 
ATOM      5  C   UNL d   1      -0.532   4.325   0.781  0.00  0.00     0.010 A 
ATOM      6  C   UNL d   1       0.797   4.248  -1.199  0.00  0.00     0.010 A 
ENDROOT
BRANCH   1   7
ATOM      7  N   UNL d   1       0.098   0.730  -0.110  0.00  0.00    -0.252 N 
ATOM      8  C   UNL d   1      -0.888  -0.024   0.484  0.00  0.00     0.231 A 
ATOM      9  C   UNL d   1      -0.588  -1.479   0.280  0.00  0.00     0.113 A 
ATOM     10  O   UNL d   1      -1.912   0.345   1.048  0.00  0.00    -0.273 OA
ATOM     11  C   UNL d   1       0.755  -1.502  -0.405  0.00  0.00     0.113 A 
ATOM     12  C   UNL d   1       1.074  -0.063  -0.673  0.00  0.00     0.231 A 
ATOM     13  O   UNL d   1       2.099   0.265  -1.255  0.00  0.00    -0.273 OA
ENDBRANCH   1   7
BRANCH   2  14
ATOM     14  C   UNL d   1       0.157   6.547  -0.226  0.00  0.00     0.018 C 
ATOM     15  C   UNL d   1       0.885   7.230  -1.404  0.00  0.00     0.009 C 
ATOM     16  C   UNL d   1       2.412   7.184  -1.293  0.00  0.00     0.001 C 
ATOM     17  C   UNL d   1       2.919   7.699   0.048  0.00  0.00     0.000 C 
ATOM     18  C   UNL d   1       2.190   7.077   1.234  0.00  0.00     0.001 C 
ATOM     19  C   UNL d   1       0.672   7.169   1.090  0.00  0.00     0.009 C 
ENDBRANCH   2  14
TORSDOF 2
