REMARK  2 active torsions:
REMARK  status: ('A' for Active; 'I' for Inactive)
REMARK    1  A    between atoms: N_14  and  C_11 
REMARK    2  A    between atoms: C_17  and  N_14 
ROOT
ATOM      1  C   UNL d   1       0.019  -0.760  -0.078  0.00  0.00     0.135 C 
ATOM      2  C   UNL d   1       0.004   0.597  -0.028  0.00  0.00     0.128 C 
ATOM      3  N   UNL d   1       1.267  -1.411   0.015  0.00  0.00    -0.288 N 
ATOM      4  N   UNL d   1       2.439   0.637  -0.036  0.00  0.00    -0.270 N 
ATOM      5  N   UNL d   1      -1.198  -1.471  -0.191  0.00  0.00    -0.303 N 
ATOM      6  C   UNL d   1       2.492  -0.734  -0.059  0.00  0.00     0.332 C 
ATOM      7  C   UNL d   1       1.274   1.354   0.100  0.00  0.00     0.269 C 
ATOM      8  C   UNL d   1      -2.462   0.555  -0.387  0.00  0.00     0.099 C 
ATOM      9  C   UNL d   1      -2.451  -0.873  -0.068  0.00  0.00     0.264 C 
ATOM     10  C   UNL d   1      -1.263   1.368  -0.159  0.00  0.00     0.208 C 
ATOM     11  C   UNL d   1      -3.487   1.052  -1.102  0.00  0.00     0.109 C 
ATOM     12  O   UNL d   1       3.565  -1.340  -0.113  0.00  0.00    -0.246 OA
ATOM     13  O   UNL d   1       1.288   2.563   0.314  0.00  0.00    -0.267 OA
ATOM     14  O   UNL d   1      -3.497  -1.492   0.131  0.00  0.00    -0.267 OA
ATOM     15  O   UNL d   1      -1.341   2.587  -0.134  0.00  0.00    -0.286 OA
ATOM     16  C   UNL d   1       1.425  -2.843   0.223  0.00  0.00     0.163 C 
ATOM     17  C   UNL d   1       3.684   1.390  -0.004  0.00  0.00     0.164 C 
ATOM     18  C   UNL d   1      -1.319  -2.864  -0.594  0.00  0.00     0.161 C 
ENDROOT
BRANCH  11  19
ATOM     19  N   UNL d   1      -4.603   0.362  -1.517  0.00  0.00    -0.365 N 
ATOM     20  H   UNL d   1      -4.698  -0.572  -1.103  0.00  0.00     0.165 HD
BRANCH  19  21
ATOM     21  C   UNL d   1      -5.567   0.694  -2.478  0.00  0.00     0.035 A 
ATOM     22  C   UNL d   1      -5.556   1.887  -3.208  0.00  0.00     0.053 A 
ATOM     23  C   UNL d   1      -6.572   2.166  -4.125  0.00  0.00     0.037 A 
ATOM     24 CL   UNL d   1      -6.541   3.648  -5.001  0.00  0.00    -0.084 Cl
ATOM     25  C   UNL d   1      -7.610   1.265  -4.340  0.00  0.00     0.048 A 
ATOM     26  C   UNL d   1      -7.618   0.069  -3.632  0.00  0.00     0.037 A 
ATOM     27  C   UNL d   1      -6.609  -0.217  -2.713  0.00  0.00     0.053 A 
ATOM     28 CL   UNL d   1      -8.885  -1.067  -3.888  0.00  0.00    -0.084 Cl
ENDBRANCH  19  21
ENDBRANCH  11  19
TORSDOF 2
