REMARK  3 active torsions:
REMARK  status: ('A' for Active; 'I' for Inactive)
REMARK    1  A    between atoms: N_6  and  C_1 
REMARK    2  A    between atoms: C_13  and  N_2 
REMARK       I    between atoms: C_8  and  N_6 
REMARK    3  A    between atoms: C_9  and  C_8 
ROOT
ATOM      1  C   UNL d   1       0.139  -1.051  -0.404  0.00  0.00     0.154 C 
ATOM      2  N   UNL d   1       1.349  -0.479  -0.003  0.00  0.00    -0.238 N 
ATOM      3  C   UNL d   1      -0.752   0.002  -0.494  0.00  0.00     0.103 C 
ATOM      4  N   UNL d   1       1.148   0.804   0.438  0.00  0.00    -0.295 N 
ATOM      5  HN  UNL d   1       1.801   1.392   0.955  1.00  0.00     0.187 HD
ATOM      6  C   UNL d   1      -0.090   1.118   0.043  0.00  0.00     0.048 C 
ATOM      7 CL   UNL d   1      -2.372  -0.067  -1.006  0.00  0.00    -0.078 Cl
ATOM      8  C   UNL d   1      -0.602   2.498   0.224  0.00  0.00     0.071 C 
ENDROOT
BRANCH   1   9
ATOM      9  N   UNL d   1      -0.213  -2.376  -0.644  0.00  0.00    -0.306 N 
ATOM     10  C   UNL d   1       0.282  -3.444   0.080  0.00  0.00     0.259 C 
ATOM     11  O   UNL d   1       1.300  -3.439   0.755  0.00  0.00    -0.267 OA
ATOM     12  H   UNL d   1      -1.150  -2.483  -1.024  0.00  0.00     0.170 HD
BRANCH  10  13
ATOM     13  C   UNL d   1      -0.636  -4.631   0.163  0.00  0.00     0.054 A 
ATOM     14  C   UNL d   1      -1.637  -4.954  -0.770  0.00  0.00     0.051 A 
ATOM     15  C   UNL d   1      -2.590  -5.937  -0.474  0.00  0.00     0.048 A 
ATOM     16 CL   UNL d   1      -1.782  -4.199  -2.320  0.00  0.00    -0.083 Cl
ATOM     17  C   UNL d   1      -2.527  -6.628   0.733  0.00  0.00     0.035 A 
ATOM     18  C   UNL d   1      -1.496  -6.380   1.631  0.00  0.00     0.025 A 
ATOM     19 CL   UNL d   1      -3.744  -7.778   1.120  0.00  0.00    -0.084 Cl
ATOM     20  C   UNL d   1      -0.552  -5.389   1.346  0.00  0.00     0.020 A 
ENDBRANCH  10  13
ENDBRANCH   1   9
BRANCH   2  21
ATOM     21  C   UNL d   1       2.695  -0.922  -0.166  0.00  0.00     0.058 A 
ATOM     22  C   UNL d   1       3.035  -1.917  -1.091  0.00  0.00     0.031 A 
ATOM     23  C   UNL d   1       4.375  -2.283  -1.264  0.00  0.00     0.002 A 
ATOM     24  C   UNL d   1       5.378  -1.656  -0.525  0.00  0.00     0.000 A 
ATOM     25  C   UNL d   1       5.049  -0.654   0.383  0.00  0.00     0.002 A 
ATOM     26  C   UNL d   1       3.715  -0.280   0.556  0.00  0.00     0.031 A 
ENDBRANCH   2  21
TORSDOF 3
