REMARK  7 active torsions:
REMARK  status: ('A' for Active; 'I' for Inactive)
REMARK    1  A    between atoms: C_15  and  N_1 
REMARK    2  A    between atoms: C_2  and  C_5 
REMARK    3  A    between atoms: C_18  and  C_8 
REMARK    4  A    between atoms: C_13  and  C_15 
REMARK    5  A    between atoms: C_21  and  C_18 
REMARK    6  A    between atoms: O_29  and  C_21 
REMARK    7  A    between atoms: C_33  and  O_29 
ROOT
ATOM      1  N   UNL d   1       2.395  -0.697  -0.067  0.00  0.00    -0.251 N 
ATOM      2  N   UNL d   1       2.400   0.683  -0.046  0.00  0.00    -0.298 N 
ATOM      3  HN  UNL d   1       3.283   1.195  -0.066  1.00  0.00     0.187 HD
ATOM      4  C   UNL d   1       1.234  -1.456  -0.026  0.00  0.00     0.273 A 
ATOM      5  C   UNL d   1       1.270   1.326  -0.000  0.00  0.00     0.046 A 
ATOM      6  C   UNL d   1      -0.047  -0.733   0.019  0.00  0.00     0.046 A 
ATOM      7  C   UNL d   1      -0.051   0.656  -0.002  0.00  0.00     0.004 A 
ATOM      8  O   UNL d   1       1.213  -2.689  -0.077  0.00  0.00    -0.266 OA
ATOM      9  C   UNL d   1      -1.257  -1.446   0.025  0.00  0.00     0.018 A 
ATOM     10  C   UNL d   1      -1.274   1.341  -0.038  0.00  0.00     0.014 A 
ATOM     11  C   UNL d   1      -2.471  -0.763   0.008  0.00  0.00     0.001 A 
ATOM     12  C   UNL d   1      -2.479   0.629  -0.030  0.00  0.00     0.001 A 
ENDROOT
BRANCH   1  13
ATOM     13  C   UNL d   1       3.659  -1.369  -0.397  0.00  0.00     0.217 C 
BRANCH  13  14
ATOM     14  C   UNL d   1       4.580  -1.581   0.780  0.00  0.00     0.071 A 
ATOM     15  N   UNL d   1       4.615  -2.642   1.571  0.00  0.00    -0.351 N 
ATOM     16  C   UNL d   1       5.710  -2.580   2.427  0.00  0.00     0.057 A 
ATOM     17  HN  UNL d   1       3.934  -3.400   1.555  1.00  0.00     0.166 HD
ATOM     18  C   UNL d   1       6.521  -1.472   2.240  0.00  0.00     0.082 A 
ATOM     19  S   UNL d   1       5.853  -0.444   1.050  0.00  0.00    -0.085 SA
BRANCH  16  20
ATOM     20  C   UNL d   1       5.896  -3.554   3.588  0.00  0.00     0.039 C 
ATOM     21  S   UNL d   1       6.878  -3.163   5.012  0.00  0.00    -0.087 SA
ATOM     22  C   UNL d   1       5.377  -2.483   5.654  0.00  0.00     0.016 C 
ATOM     23  C   UNL d   1       5.203  -1.447   6.575  0.00  0.00     0.021 C 
ATOM     24  C   UNL d   1       4.302  -3.058   4.944  0.00  0.00    -0.010 C 
ATOM     25  C   UNL d   1       3.978  -0.773   6.518  0.00  0.00     0.025 C 
ATOM     26  C   UNL d   1       2.966  -1.186   5.649  0.00  0.00     0.035 C 
ATOM     27  C   UNL d   1       3.076  -2.367   4.912  0.00  0.00     0.037 C 
ATOM     28 CL   UNL d   1       1.595  -0.169   5.407  0.00  0.00    -0.084 Cl
ATOM     29  C   UNL d   1       4.824  -4.191   4.218  0.00  0.00    -0.031 C 
ATOM     30  C   UNL d   1       4.827  -5.596   4.769  0.00  0.00     0.050 C 
ENDBRANCH  16  20
ENDBRANCH  13  14
ENDBRANCH   1  13
BRANCH   5  31
ATOM     31  C   UNL d   1       1.341   2.840   0.034  0.00  0.00     0.170 C 
BRANCH  31  32
ATOM     32  C   UNL d   1       1.291   3.444  -1.341  0.00  0.00     0.264 C 
ATOM     33  O   UNL d   1       0.728   2.942  -2.305  0.00  0.00    -0.265 OA
BRANCH  32  34
ATOM     34  O   UNL d   1       1.954   4.634  -1.349  0.00  0.00    -0.322 OA
BRANCH  34  35
ATOM     35  C   UNL d   1       2.237   5.174  -2.650  0.00  0.00     0.174 C 
ATOM     36  C   UNL d   1       3.553   4.592  -3.134  0.00  0.00     0.034 C 
ENDBRANCH  34  35
ENDBRANCH  32  34
ENDBRANCH  31  32
ENDBRANCH   5  31
TORSDOF 7
