REMARK  2 active torsions:
REMARK  status: ('A' for Active; 'I' for Inactive)
REMARK    1  A    between atoms: N_2  and  C_1 
REMARK    2  A    between atoms: N_4  and  C_3 
ROOT
ATOM      1  C   UNL d   1      -1.114   1.262  -0.060  0.00  0.00     0.130 A 
ATOM      2  C   UNL d   1      -1.857   0.073  -0.009  0.00  0.00     0.071 A 
ATOM      3  C   UNL d   1       0.293   1.253  -0.060  0.00  0.00     0.045 A 
ATOM      4  C   UNL d   1      -1.145  -1.138   0.061  0.00  0.00     0.033 A 
ATOM      5  C   UNL d   1       0.985   0.041  -0.004  0.00  0.00    -0.059 A 
ATOM      6  C   UNL d   1       0.255  -1.151   0.057  0.00  0.00     0.009 A 
ATOM      7  C   UNL d   1       2.485   0.000  -0.011  0.00  0.00     0.048 C 
ENDROOT
BRANCH   2   8
ATOM      8  N   UNL d   1      -3.281   0.018  -0.056  0.00  0.00    -0.331 N 
ATOM      9  C   UNL d   1      -4.138   0.900  -0.684  0.00  0.00     0.097 A 
ATOM     10  C   UNL d   1      -5.439   0.494  -0.481  0.00  0.00     0.019 A 
ATOM     11  C   UNL d   1      -5.393  -0.701   0.261  0.00  0.00     0.019 A 
ATOM     12  C   UNL d   1      -4.064  -0.988   0.484  0.00  0.00     0.097 A 
ENDBRANCH   2   8
BRANCH   1  13
ATOM     13  N   UNL d   1      -1.729   2.572   0.039  0.00  0.00    -0.113 N 
ATOM     14  O   UNL d   1      -2.350   2.831   1.078  0.00  0.00    -0.532 OA
ATOM     15  O   UNL d   1      -1.546   3.348  -0.908  0.00  0.00    -0.532 OA
ENDBRANCH   1  13
TORSDOF 2
