REMARK  2 active torsions:
REMARK  status: ('A' for Active; 'I' for Inactive)
REMARK       I    between atoms: N_2  and  C_1 
REMARK    1  A    between atoms: C_4  and  C_1 
REMARK    2  A    between atoms: C_3  and  C_5 
ROOT
ATOM      1  C   UNL d   1       0.276   0.168   1.190  0.00  0.00     0.032 A 
ATOM      2  C   UNL d   1      -1.179   0.349   3.614  0.00  0.00    -0.023 A 
ATOM      3  C   UNL d   1       0.587   1.157   2.125  0.00  0.00     0.018 A 
ATOM      4  C   UNL d   1      -0.813  -0.674   1.415  0.00  0.00     0.018 A 
ATOM      5  C   UNL d   1      -1.526  -0.586   2.617  0.00  0.00     0.013 A 
ATOM      6  C   UNL d   1      -0.120   1.229   3.328  0.00  0.00     0.013 A 
ENDROOT
BRANCH   1   7
ATOM      7  C   UNL d   1       1.071   0.005  -0.052  0.00  0.00     0.253 C 
ATOM      8  N   UNL d   1       2.462  -0.018   0.034  0.00  0.00    -0.344 N 
ATOM      9  C   UNL d   1       3.259  -0.006  -1.194  0.00  0.00     0.152 C 
ATOM     10  C   UNL d   1       3.264  -0.102   1.264  0.00  0.00     0.152 C 
ATOM     11  C   UNL d   1       4.290  -1.139  -1.188  0.00  0.00     0.187 C 
ATOM     12  O   UNL d   1       5.110  -1.087  -0.008  0.00  0.00    -0.388 OA
ATOM     13  C   UNL d   1       4.301  -1.224   1.168  0.00  0.00     0.187 C 
ATOM     14  O   UNL d   1       0.460  -0.118  -1.110  0.00  0.00    -0.267 OA
ENDBRANCH   1   7
BRANCH   2  15
ATOM     15  C   UNL d   1      -1.905   0.416   4.904  0.00  0.00     0.013 A 
ATOM     16  C   UNL d   1      -1.256   0.706   6.118  0.00  0.00     0.127 A 
ATOM     17  F   UNL d   1       0.074   0.902   6.153  0.00  0.00    -0.205 F 
ATOM     18  C   UNL d   1      -1.945   0.792   7.327  0.00  0.00     0.043 A 
ATOM     19  C   UNL d   1      -3.317   0.570   7.360  0.00  0.00     0.003 A 
ATOM     20  C   UNL d   1      -3.993   0.270   6.183  0.00  0.00     0.001 A 
ATOM     21  C   UNL d   1      -3.295   0.198   4.969  0.00  0.00     0.015 A 
ENDBRANCH   2  15
TORSDOF 2
