REMARK  6 active torsions:
REMARK  status: ('A' for Active; 'I' for Inactive)
REMARK    1  A    between atoms: C_2  and  S_1 
REMARK    2  A    between atoms: C_12  and  S_1 
REMARK    3  A    between atoms: C_4  and  C_3 
REMARK    4  A    between atoms: C_9  and  N_5 
REMARK    5  A    between atoms: C_6  and  O_16 
REMARK    6  A    between atoms: O_16  and  C_22 
ROOT
ATOM      1  C   UNL d   1       0.826  -1.558  -1.511  0.00  0.00     0.146 C 
ATOM      2  C   UNL d   1      -0.448  -1.922  -1.268  0.00  0.00     0.065 C 
ATOM      3  C   UNL d   1       1.886  -1.632  -0.580  0.00  0.00     0.112 C 
ATOM      4  N   UNL d   1       2.766  -1.698   0.176  0.00  0.00    -0.191 NA
ENDROOT
BRANCH   1   5
ATOM      5  S   UNL d   1       1.152  -0.866  -3.069  0.00  0.00     0.216 S 
ATOM      6  O   UNL d   1       0.977   0.574  -2.977  0.00  0.00    -0.216 OA
ATOM      7  O   UNL d   1       0.415  -1.603  -4.083  0.00  0.00    -0.216 OA
BRANCH   5   8
ATOM      8  C   UNL d   1       2.878  -1.164  -3.407  0.00  0.00     0.065 A 
ATOM      9  C   UNL d   1       3.264  -2.354  -4.033  0.00  0.00     0.024 A 
ATOM     10  C   UNL d   1       4.600  -2.542  -4.388  0.00  0.00     0.002 A 
ATOM     11  C   UNL d   1       5.541  -1.545  -4.129  0.00  0.00     0.000 A 
ATOM     12  C   UNL d   1       5.150  -0.354  -3.514  0.00  0.00     0.002 A 
ATOM     13  C   UNL d   1       3.816  -0.156  -3.157  0.00  0.00     0.024 A 
ENDBRANCH   5   8
ENDBRANCH   1   5
BRANCH   2  14
ATOM     14  C   UNL d   1      -0.862  -2.523  -0.051  0.00  0.00     0.041 A 
ATOM     15  N   UNL d   1      -1.346  -1.804   1.052  0.00  0.00    -0.322 N 
ATOM     16  C   UNL d   1      -1.498  -2.726   2.082  0.00  0.00     0.097 A 
ATOM     17  C   UNL d   1      -1.248  -3.995   1.619  0.00  0.00     0.020 A 
ATOM     18  C   UNL d   1      -0.858  -3.869   0.276  0.00  0.00     0.031 A 
BRANCH  15  19
ATOM     19  C   UNL d   1      -1.716  -0.421   1.175  0.00  0.00     0.039 A 
ATOM     20  C   UNL d   1      -2.092   0.349   0.068  0.00  0.00     0.033 A 
ATOM     21  C   UNL d   1      -2.593   1.651   0.237  0.00  0.00     0.039 A 
ATOM     22  C   UNL d   1      -2.757   2.184   1.512  0.00  0.00     0.078 A 
ATOM     23  C   UNL d   1      -2.308   1.456   2.611  0.00  0.00     0.039 A 
ATOM     24  C   UNL d   1      -1.796   0.164   2.448  0.00  0.00     0.033 A 
BRANCH  22  25
ATOM     25  O   UNL d   1      -3.292   3.400   1.804  0.00  0.00    -0.255 OA
BRANCH  25  26
ATOM     26  C   UNL d   1      -4.370   3.878   1.007  0.00  0.00     0.530 C 
ATOM     27  F   UNL d   1      -4.889   2.957   0.167  0.00  0.00    -0.144 F 
ATOM     28  F   UNL d   1      -5.363   4.287   1.830  0.00  0.00    -0.144 F 
ATOM     29  F   UNL d   1      -3.956   4.942   0.287  0.00  0.00    -0.144 F 
ENDBRANCH  25  26
ENDBRANCH  22  25
ENDBRANCH  15  19
ENDBRANCH   2  14
TORSDOF 6
