REMARK  5 active torsions:
REMARK  status: ('A' for Active; 'I' for Inactive)
REMARK    1  A    between atoms: C_2  and  N_1 
REMARK    2  A    between atoms: C_8  and  C_3 
REMARK    3  A    between atoms: O_16  and  C_8 
REMARK    4  A    between atoms: O_17  and  C_9 
REMARK    5  A    between atoms: O_18  and  C_10 
ROOT
ATOM      1  C   UNL d   1       0.022   2.277  -0.110  0.00  0.00     0.064 A 
ATOM      2  C   UNL d   1      -0.716   3.007   0.837  0.00  0.00     0.069 A 
ATOM      3  C   UNL d   1       0.805   2.975  -1.039  0.00  0.00     0.071 A 
ATOM      4  C   UNL d   1      -0.646   4.415   0.837  0.00  0.00     0.059 A 
ATOM      5  C   UNL d   1       0.853   4.376  -1.053  0.00  0.00     0.103 A 
ATOM      6  C   UNL d   1       0.118   5.111  -0.109  0.00  0.00     0.102 A 
ENDROOT
BRANCH   1   7
ATOM      7  N   UNL d   1       0.005   0.867  -0.162  0.00  0.00    -0.251 N 
ATOM      8  C   UNL d   1       1.137   0.095  -0.098  0.00  0.00     0.231 A 
ATOM      9  C   UNL d   1       0.734  -1.348  -0.088  0.00  0.00     0.113 A 
ATOM     10  O   UNL d   1       2.298   0.468  -0.025  0.00  0.00    -0.273 OA
ATOM     11  C   UNL d   1      -0.780  -1.331  -0.172  0.00  0.00     0.113 A 
ATOM     12  C   UNL d   1      -1.140   0.121  -0.266  0.00  0.00     0.231 A 
ATOM     13  O   UNL d   1      -2.279   0.527  -0.463  0.00  0.00    -0.273 OA
ENDBRANCH   1   7
BRANCH   2  14
ATOM     14  C   UNL d   1      -1.449   2.324   1.940  0.00  0.00     0.295 C 
ATOM     15  O   UNL d   1      -1.148   1.229   2.388  0.00  0.00    -0.259 OA
BRANCH  14  16
ATOM     16  O   UNL d   1      -2.468   3.110   2.369  0.00  0.00    -0.322 OA
ATOM     17  C   UNL d   1      -3.240   2.559   3.438  0.00  0.00     0.213 C 
ENDBRANCH  14  16
ENDBRANCH   2  14
BRANCH   5  18
ATOM     18  O   UNL d   1       1.609   4.874  -2.084  0.00  0.00    -0.353 OA
ATOM     19  C   UNL d   1       2.287   6.102  -1.851  0.00  0.00     0.210 C 
ENDBRANCH   5  18
BRANCH   6  20
ATOM     20  O   UNL d   1       0.172   6.477  -0.173  0.00  0.00    -0.353 OA
ATOM     21  C   UNL d   1      -0.545   7.227   0.799  0.00  0.00     0.210 C 
ENDBRANCH   6  20
TORSDOF 5
