REMARK  2 active torsions:
REMARK  status: ('A' for Active; 'I' for Inactive)
REMARK       I    between atoms: C_2  and  N_7 
REMARK    1  A    between atoms: C_5  and  C_2 
REMARK    2  A    between atoms: N_7  and  C_13 
ROOT
ATOM      1  C   UNL d   1      -1.329  -0.543  -0.288  0.00  0.00     0.072 A 
ATOM      2  C   UNL d   1      -0.057   0.096  -0.237  0.00  0.00     0.015 A 
ATOM      3  N   UNL d   1       0.224  -2.108  -0.016  0.00  0.00    -0.364 N 
ATOM      4  C   UNL d   1      -1.125  -1.897  -0.135  0.00  0.00     0.112 A 
ATOM      5  C   UNL d   1      -2.606   0.084  -0.434  0.00  0.00     0.102 C 
ATOM      6  N   UNL d   1      -3.651   0.579  -0.547  0.00  0.00    -0.191 NA
ATOM      7  C   UNL d   1       0.897  -0.905  -0.058  0.00  0.00     0.044 A 
ATOM      8  C   UNL d   1       0.375   1.438  -0.306  0.00  0.00     0.044 A 
ATOM      9  C   UNL d   1       1.730   1.752  -0.146  0.00  0.00     0.035 A 
ATOM     10  C   UNL d   1       2.263  -0.629   0.055  0.00  0.00     0.033 A 
ATOM     11  C   UNL d   1       2.657   0.716   0.018  0.00  0.00     0.032 A 
ATOM     12  H   UNL d   1       0.665  -3.008   0.111  0.00  0.00     0.165 HD
ENDROOT
BRANCH   9  13
ATOM     13  N   UNL d   1       2.223   3.074  -0.119  0.00  0.00    -0.322 N 
ATOM     14  C   UNL d   1       1.498   4.254  -0.201  0.00  0.00     0.263 C 
ATOM     15  O   UNL d   1       0.278   4.310  -0.321  0.00  0.00    -0.267 OA
ATOM     16  H   UNL d   1       3.222   3.186   0.006  0.00  0.00     0.169 HD
BRANCH  14  17
ATOM     17  C   UNL d   1       2.294   5.479  -0.145  0.00  0.00     0.072 A 
ATOM     18  S   UNL d   1       3.992   5.483   0.091  0.00  0.00    -0.097 SA
ATOM     19  C   UNL d   1       4.075   7.187  -0.033  0.00  0.00     0.050 A 
ATOM     20  C   UNL d   1       2.835   7.753  -0.226  0.00  0.00     0.009 A 
ATOM     21  C   UNL d   1       1.808   6.769  -0.273  0.00  0.00     0.025 A 
ENDBRANCH  14  17
ENDBRANCH   9  13
TORSDOF 2
