REMARK  6 active torsions:
REMARK  status: ('A' for Active; 'I' for Inactive)
REMARK    1  A    between atoms: C_2  and  S_1 
REMARK    2  A    between atoms: N_7  and  S_1 
REMARK    3  A    between atoms: C_8  and  C_3 
REMARK    4  A    between atoms: C_18  and  N_7 
REMARK    5  A    between atoms: O_21  and  C_8 
REMARK    6  A    between atoms: C_11  and  C_14 
ROOT
ATOM      1  N   UNL d   1       0.511  -1.507  -0.554  0.00  0.00    -0.180 NA
ATOM      2  H   UNL d   1       1.055  -2.227  -0.079  0.00  0.00     0.146 HD
ENDROOT
BRANCH   1   3
ATOM      3  S   UNL d   1       0.913   0.004   0.099  0.00  0.00     0.268 S 
ATOM      4  O   UNL d   1       0.087   0.250   1.262  0.00  0.00    -0.204 OA
ATOM      5  O   UNL d   1       2.356   0.048   0.184  0.00  0.00    -0.204 OA
BRANCH   3   6
ATOM      6  C   UNL d   1       0.470   1.280  -1.079  0.00  0.00     0.186 A 
ATOM      7  C   UNL d   1      -0.308   2.420  -0.926  0.00  0.00     0.071 A 
ATOM      8  C   UNL d   1      -0.330   3.120  -2.167  0.00  0.00     0.072 A 
ATOM      9  C   UNL d   1       0.444   2.361  -3.023  0.00  0.00     0.067 A 
ATOM     10  O   UNL d   1       0.910   1.250  -2.387  0.00  0.00    -0.301 OA
ATOM     11  C   UNL d   1       0.851   2.525  -4.438  0.00  0.00     0.078 C 
BRANCH   8  12
ATOM     12  C   UNL d   1      -1.002   4.366  -2.493  0.00  0.00     0.295 C 
ATOM     13  O   UNL d   1      -0.957   4.900  -3.594  0.00  0.00    -0.259 OA
BRANCH  12  14
ATOM     14  O   UNL d   1      -1.689   4.862  -1.421  0.00  0.00    -0.322 OA
ATOM     15  C   UNL d   1      -2.379   6.083  -1.671  0.00  0.00     0.213 C 
ENDBRANCH  12  14
ENDBRANCH   8  12
ENDBRANCH   3   6
ENDBRANCH   1   3
BRANCH   1  16
ATOM     16  C   UNL d   1      -0.875  -1.806  -0.691  0.00  0.00     0.023 A 
ATOM     17  C   UNL d   1      -1.478  -1.577  -1.927  0.00  0.00     0.038 A 
ATOM     18  C   UNL d   1      -2.830  -1.885  -2.134  0.00  0.00     0.001 A 
ATOM     19  C   UNL d   1      -3.565  -2.416  -1.064  0.00  0.00     0.014 A 
ATOM     20  C   UNL d   1      -2.967  -2.617   0.185  0.00  0.00     0.003 A 
ATOM     21  C   UNL d   1      -1.620  -2.306   0.375  0.00  0.00     0.024 A 
BRANCH  18  22
ATOM     22  C   UNL d   1      -3.426  -1.651  -3.441  0.00  0.00     0.102 A 
ATOM     23  O   UNL d   1      -4.744  -1.989  -3.614  0.00  0.00    -0.304 OA
ATOM     24  C   UNL d   1      -5.003  -1.654  -4.908  0.00  0.00     0.233 A 
ATOM     25  N   UNL d   1      -3.991  -1.145  -5.569  0.00  0.00    -0.354 N 
ATOM     26  C   UNL d   1      -2.981  -1.139  -4.643  0.00  0.00     0.127 A 
ATOM     27  HN  UNL d   1      -3.963  -0.829  -6.538  1.00  0.00     0.166 HD
ENDBRANCH  18  22
ENDBRANCH   1  16
TORSDOF 6
