REMARK  1 active torsions:
REMARK  status: ('A' for Active; 'I' for Inactive)
REMARK    1  A    between atoms: N_4  and  C_1 
ROOT
ATOM      1  C   UNL d   1       0.002  -2.175   0.001  0.00  0.00     0.032 A 
ATOM      2  C   UNL d   1      -1.190  -1.436  -0.001  0.00  0.00     0.053 A 
ATOM      3  C   UNL d   1       1.196  -1.434   0.003  0.00  0.00     0.053 A 
ATOM      4  C   UNL d   1      -1.192  -0.035  -0.004  0.00  0.00     0.037 A 
ATOM      5  C   UNL d   1       1.192  -0.033  -0.004  0.00  0.00     0.037 A 
ATOM      6  C   UNL d   1       0.001   0.674  -0.004  0.00  0.00     0.048 A 
ATOM      7 CL   UNL d   1      -2.688   0.815  -0.004  0.00  0.00    -0.084 Cl
ATOM      8 CL   UNL d   1       2.688   0.820  -0.001  0.00  0.00    -0.084 Cl
ENDROOT
BRANCH   1   9
ATOM      9  N   UNL d   1       0.007  -3.560   0.012  0.00  0.00    -0.389 N 
ATOM     10  C   UNL d   1       1.083  -4.338  -0.594  0.00  0.00     0.149 C 
ATOM     11  C   UNL d   1      -1.084  -4.338   0.590  0.00  0.00     0.149 C 
ENDBRANCH   1   9
TORSDOF 1
