REMARK  9 active torsions:
REMARK  status: ('A' for Active; 'I' for Inactive)
REMARK    1  A    between atoms: N_3  and  C_1 
REMARK    2  A    between atoms: C_4  and  C_1 
REMARK    3  A    between atoms: C_5  and  C_1 
REMARK    4  A    between atoms: N_6  and  C_1 
REMARK    5  A    between atoms: S_2  and  N_3 
REMARK    6  A    between atoms: C_7  and  S_2 
REMARK    7  A    between atoms: O_19  and  C_5 
REMARK    8  A    between atoms: C_10  and  N_6 
REMARK    9  A    between atoms: C_27  and  O_19 
ROOT
ATOM      1  C   UNL d   1       0.906  -0.066   0.002  0.00  0.00     0.303 C 
ENDROOT
BRANCH   1   2
ATOM      2  N   UNL d   1       0.318   0.719  -1.127  0.00  0.00    -0.271 N 
ATOM      3  H   UNL d   1      -0.540   1.223  -0.889  0.00  0.00     0.175 HD
BRANCH   2   4
ATOM      4  S   UNL d   1       0.450   0.233  -2.716  0.00  0.00     0.261 S 
ATOM      5  O   UNL d   1       0.278   1.429  -3.522  0.00  0.00    -0.200 OA
ATOM      6  O   UNL d   1       1.612  -0.615  -2.836  0.00  0.00    -0.200 OA
BRANCH   4   7
ATOM      7  C   UNL d   1      -0.982  -0.768  -3.035  0.00  0.00     0.079 A 
ATOM      8  C   UNL d   1      -2.264  -0.221  -2.921  0.00  0.00     0.026 A 
ATOM      9  C   UNL d   1      -3.378  -1.054  -3.062  0.00  0.00     0.008 A 
ATOM     10  C   UNL d   1      -3.216  -2.425  -3.317  0.00  0.00    -0.062 A 
ATOM     11  C   UNL d   1      -1.929  -2.935  -3.526  0.00  0.00     0.008 A 
ATOM     12  C   UNL d   1      -4.410  -3.333  -3.380  0.00  0.00     0.048 C 
ATOM     13  C   UNL d   1      -0.813  -2.110  -3.393  0.00  0.00     0.026 A 
ENDBRANCH   4   7
ENDBRANCH   2   4
ENDBRANCH   1   2
BRANCH   1  14
ATOM     14  C   UNL d   1       0.327  -1.514   0.203  0.00  0.00     0.442 C 
ATOM     15  F   UNL d   1      -0.743  -1.762  -0.580  0.00  0.00    -0.166 F 
ATOM     16  F   UNL d   1       1.262  -2.457  -0.093  0.00  0.00    -0.166 F 
ATOM     17  F   UNL d   1      -0.080  -1.774   1.470  0.00  0.00    -0.166 F 
ENDBRANCH   1  14
BRANCH   1  18
ATOM     18  C   UNL d   1       0.425   0.622   1.302  0.00  0.00     0.318 C 
ATOM     19  O   UNL d   1      -0.613   1.274   1.379  0.00  0.00    -0.260 OA
BRANCH  18  20
ATOM     20  O   UNL d   1       1.284   0.395   2.341  0.00  0.00    -0.318 OA
BRANCH  20  21
ATOM     21  C   UNL d   1       0.917   0.903   3.629  0.00  0.00     0.174 C 
ATOM     22  C   UNL d   1       1.258   2.374   3.760  0.00  0.00     0.034 C 
ENDBRANCH  20  21
ENDBRANCH  18  20
ENDBRANCH   1  18
BRANCH   1  23
ATOM     23  N   UNL d   1       2.386  -0.062  -0.067  0.00  0.00    -0.347 N 
ATOM     24  H   UNL d   1       2.788  -0.978  -0.256  0.00  0.00     0.163 HD
BRANCH  23  25
ATOM     25  C   UNL d   1       3.251   1.008  -0.146  0.00  0.00     0.033 A 
ATOM     26  C   UNL d   1       2.862   2.347  -0.074  0.00  0.00     0.071 A 
ATOM     27  C   UNL d   1       3.815   3.366  -0.100  0.00  0.00     0.118 A 
ATOM     28  F   UNL d   1       3.411   4.642  -0.022  0.00  0.00    -0.206 F 
ATOM     29  C   UNL d   1       5.171   3.088  -0.197  0.00  0.00     0.042 A 
ATOM     30  C   UNL d   1       5.582   1.765  -0.270  0.00  0.00     0.005 A 
ATOM     31  C   UNL d   1       4.629   0.740  -0.239  0.00  0.00     0.029 A 
ENDBRANCH  23  25
ENDBRANCH   1  23
TORSDOF 9
