REMARK  3 active torsions:
REMARK  status: ('A' for Active; 'I' for Inactive)
REMARK    1  A    between atoms: C_10  and  C_5 
REMARK    2  A    between atoms: C_11  and  C_7 
REMARK    3  A    between atoms: C_12  and  C_8 
ROOT
ATOM      1  N   UNL d   1      -0.261   1.501  -0.091  0.00  0.00    -0.300 N 
ATOM      2  HN  UNL d   1      -0.411   2.493  -0.275  1.00  0.00     0.187 HD
ATOM      3  N   UNL d   1       1.047   1.117   0.031  0.00  0.00    -0.303 N 
ATOM      4  HN  UNL d   1       1.709   1.872   0.213  1.00  0.00     0.186 HD
ATOM      5  C   UNL d   1      -0.569  -1.594   0.034  0.00  0.00    -0.040 C 
ATOM      6  C   UNL d   1      -1.518  -0.669   0.181  0.00  0.00     0.040 C 
ATOM      7  C   UNL d   1      -1.329   0.787  -0.007  0.00  0.00     0.059 C 
ATOM      8  C   UNL d   1       1.563  -0.066  -0.052  0.00  0.00     0.040 C 
ATOM      9  C   UNL d   1       0.877  -1.403  -0.233  0.00  0.00     0.099 C 
ENDROOT
BRANCH   5  10
ATOM     10  C   UNL d   1      -0.999  -3.006   0.069  0.00  0.00    -0.029 A 
ATOM     11  C   UNL d   1      -1.233  -3.687  -1.135  0.00  0.00     0.015 A 
ATOM     12  C   UNL d   1      -1.639  -5.022  -1.120  0.00  0.00     0.043 A 
ATOM     13  C   UNL d   1      -1.808  -5.668   0.100  0.00  0.00     0.116 A 
ATOM     14  C   UNL d   1      -1.582  -5.008   1.301  0.00  0.00     0.043 A 
ATOM     15  F   UNL d   1      -2.198  -6.952   0.114  0.00  0.00    -0.206 F 
ATOM     16  C   UNL d   1      -1.179  -3.669   1.289  0.00  0.00     0.015 A 
ENDBRANCH   5  10
BRANCH   7  17
ATOM     17  C   UNL d   1      -2.631   1.555  -0.070  0.00  0.00    -0.008 A 
ATOM     18  C   UNL d   1      -2.689   2.828   0.519  0.00  0.00     0.014 A 
ATOM     19  C   UNL d   1      -3.882   3.555   0.517  0.00  0.00     0.001 A 
ATOM     20  C   UNL d   1      -5.026   3.020  -0.074  0.00  0.00     0.000 A 
ATOM     21  C   UNL d   1      -4.974   1.765  -0.679  0.00  0.00     0.001 A 
ATOM     22  C   UNL d   1      -3.780   1.039  -0.688  0.00  0.00     0.014 A 
ENDBRANCH   7  17
BRANCH   8  23
ATOM     23  C   UNL d   1       3.075  -0.137   0.027  0.00  0.00    -0.012 A 
ATOM     24  C   UNL d   1       3.786   0.893   0.657  0.00  0.00     0.013 A 
ATOM     25  C   UNL d   1       5.177   0.820   0.780  0.00  0.00     0.001 A 
ATOM     26  C   UNL d   1       5.870  -0.275   0.266  0.00  0.00     0.000 A 
ATOM     27  C   UNL d   1       5.179  -1.289  -0.389  0.00  0.00     0.001 A 
ATOM     28  C   UNL d   1       3.788  -1.219  -0.515  0.00  0.00     0.013 A 
ENDBRANCH   8  23
TORSDOF 3
