REMARK  2 active torsions:
REMARK  status: ('A' for Active; 'I' for Inactive)
REMARK    1  A    between atoms: N_9  and  N_6 
REMARK    2  A    between atoms: C_11  and  N_9 
ROOT
ATOM      1  C   UNL d   1       0.032   0.797   0.009  0.00  0.00     0.141 A 
ATOM      2  C   UNL d   1      -1.190  -0.067  -0.005  0.00  0.00     0.290 A 
ATOM      3  N   UNL d   1       0.742  -1.388  -0.035  0.00  0.00    -0.300 N 
ATOM      4  HN  UNL d   1       1.316  -2.231  -0.053  1.00  0.00     0.186 HD
ATOM      5  N   UNL d   1      -0.648  -1.335  -0.038  0.00  0.00    -0.264 N 
ATOM      6  N   UNL d   1       0.147   2.088   0.013  0.00  0.00    -0.293 N 
ATOM      7  HN  UNL d   1       1.055   2.550   0.066  1.00  0.00     0.187 HD
ATOM      8  C   UNL d   1       1.172  -0.157  -0.006  0.00  0.00     0.055 A 
ATOM      9  O   UNL d   1      -2.339   0.313   0.024  0.00  0.00    -0.264 OA
ATOM     10  C   UNL d   1       2.583   0.297   0.001  0.00  0.00     0.072 C 
ATOM     11  H   UNL d   1      -1.194  -2.190  -0.045  0.00  0.00     0.190 HD
ENDROOT
BRANCH   6  12
ATOM     12  N   UNL d   1      -1.012   2.787  -0.056  0.00  0.00    -0.300 N 
ATOM     13  H   UNL d   1      -1.932   2.339   0.020  0.00  0.00     0.187 HD
BRANCH  12  14
ATOM     14  C   UNL d   1      -0.995   4.190  -0.031  0.00  0.00     0.048 A 
ATOM     15  C   UNL d   1      -2.065   4.899  -0.600  0.00  0.00     0.034 A 
ATOM     16  C   UNL d   1      -2.050   6.295  -0.654  0.00  0.00     0.044 A 
ATOM     17  C   UNL d   1      -0.964   6.987  -0.135  0.00  0.00     0.116 A 
ATOM     18  C   UNL d   1       0.115   6.309   0.417  0.00  0.00     0.044 A 
ATOM     19  F   UNL d   1      -0.952   8.326  -0.176  0.00  0.00    -0.206 F 
ATOM     20  C   UNL d   1       0.107   4.913   0.446  0.00  0.00     0.034 A 
ENDBRANCH  12  14
ENDBRANCH   6  12
TORSDOF 2
