REMARK  3 active torsions:
REMARK  status: ('A' for Active; 'I' for Inactive)
REMARK    1  A    between atoms: N_3  and  C_1 
REMARK    2  A    between atoms: C_2  and  N_3 
REMARK    3  A    between atoms: O_12  and  C_6 
ROOT
ATOM      1  C   UNL d   1       1.021   2.110   1.282  0.00  0.00     0.069 A 
ATOM      2  C   UNL d   1       2.122   2.868   0.838  0.00  0.00     0.056 A 
ATOM      3  C   UNL d   1       0.469   2.407   2.546  0.00  0.00     0.095 A 
ATOM      4  C   UNL d   1       1.077   3.401   3.339  0.00  0.00     0.041 A 
ATOM      5  C   UNL d   1       2.699   3.853   1.639  0.00  0.00     0.036 A 
ATOM      6  C   UNL d   1       2.189   4.116   2.899  0.00  0.00     0.026 A 
ATOM      7 CL   UNL d   1       4.040   4.758   1.053  0.00  0.00    -0.084 Cl
ENDROOT
BRANCH   1   8
ATOM      8  N   UNL d   1       0.461   1.139   0.421  0.00  0.00    -0.331 N 
ATOM      9  H   UNL d   1      -0.527   0.964   0.515  0.00  0.00     0.168 HD
BRANCH   8  10
ATOM     10  C   UNL d   1       1.014   0.410  -0.580  0.00  0.00     0.170 C 
ATOM     11  S   UNL d   1       0.048  -0.478  -1.601  0.00  0.00    -0.041 SA
ATOM     12  N   UNL d   1       2.354   0.359  -0.709  0.00  0.00    -0.376 N 
ATOM     13  H   UNL d   1       2.935   0.513   0.104  0.00  0.00     0.158 HD
ATOM     14  H   UNL d   1       2.724  -0.291  -1.393  0.00  0.00     0.158 HD
ENDBRANCH   8  10
ENDBRANCH   1   8
BRANCH   3  15
ATOM     15  O   UNL d   1      -0.592   1.863   3.213  0.00  0.00    -0.354 OA
ATOM     16  C   UNL d   1      -1.329   0.769   2.705  0.00  0.00     0.210 C 
ENDBRANCH   3  15
TORSDOF 3
