REMARK  4 active torsions:
REMARK  status: ('A' for Active; 'I' for Inactive)
REMARK    1  A    between atoms: C_11  and  C_4 
REMARK    2  A    between atoms: C_12  and  C_20 
REMARK    3  A    between atoms: O_19  and  C_14 
REMARK    4  A    between atoms: C_20  and  O_19 
ROOT
ATOM      1  C   UNL d   1      -3.106  -1.386  -0.096  0.00  0.00    -0.034 A 
ATOM      2  C   UNL d   1      -5.823  -0.656  -0.303  0.00  0.00     0.069 A 
ATOM      3  C   UNL d   1      -3.730  -1.278  -1.349  0.00  0.00     0.014 A 
ATOM      4  C   UNL d   1      -3.851  -1.107   1.053  0.00  0.00     0.014 A 
ATOM      5  C   UNL d   1      -5.077  -0.909  -1.460  0.00  0.00     0.037 A 
ATOM      6  C   UNL d   1      -5.190  -0.729   0.939  0.00  0.00     0.037 A 
ENDROOT
BRANCH   1   7
ATOM      7  C   UNL d   1      -1.705  -1.762   0.011  0.00  0.00     0.038 C 
ATOM      8  C   UNL d   1      -0.716  -0.861   0.022  0.00  0.00     0.058 C 
ATOM      9  C   UNL d   1       0.732  -1.308   0.096  0.00  0.00     0.174 C 
ATOM     10  N   UNL d   1      -0.802   0.549  -0.019  0.00  0.00    -0.280 NA
ATOM     11  C   UNL d   1       1.664  -0.095   0.132  0.00  0.00     0.064 C 
ATOM     12  O   UNL d   1       1.105  -2.471   0.119  0.00  0.00    -0.291 OA
ATOM     13  C   UNL d   1       1.387   0.725  -1.144  0.00  0.00     0.027 C 
ATOM     14  C   UNL d   1       1.240   0.744   1.355  0.00  0.00     0.027 C 
ATOM     15  C   UNL d   1      -0.105   1.125  -1.206  0.00  0.00     0.096 C 
ATOM     16  C   UNL d   1      -0.236   1.181   1.210  0.00  0.00     0.096 C 
ENDBRANCH   1   7
BRANCH   2  17
ATOM     17  O   UNL d   1      -7.153  -0.352  -0.452  0.00  0.00    -0.348 OA
BRANCH  17  18
ATOM     18  C   UNL d   1      -7.936  -0.665   0.706  0.00  0.00     0.202 C 
BRANCH  18  19
ATOM     19  C   UNL d   1      -9.362  -0.854   0.298  0.00  0.00    -0.011 C 
ATOM     20  C   UNL d   1     -10.016  -2.012   0.460  0.00  0.00     0.009 C 
ENDBRANCH  18  19
ENDBRANCH  17  18
ENDBRANCH   2  17
TORSDOF 4
