REMARK  10 active torsions:
REMARK  status: ('A' for Active; 'I' for Inactive)
REMARK    1  A    between atoms: N_5  and  C_1 
REMARK    2  A    between atoms: N_6  and  C_1 
REMARK    3  A    between atoms: C_2  and  N_7 
REMARK    4  A    between atoms: N_11  and  C_2 
REMARK    5  A    between atoms: C_4  and  N_5 
REMARK    6  A    between atoms: N_7  and  N_6 
REMARK    7  A    between atoms: C_18  and  N_11 
REMARK    8  A    between atoms: C_14  and  C_18 
REMARK    9  A    between atoms: C_20  and  C_14 
REMARK   10  A    between atoms: O_17  and  C_20 
ROOT
ATOM      1  N   UNL d   1       0.069   0.425  -1.231  0.00  0.00    -0.274 N 
ATOM      2  H   UNL d   1       0.513   1.078  -1.873  0.00  0.00     0.189 HD
ENDROOT
BRANCH   1   3
ATOM      3  C   UNL d   1       0.873  -0.367  -0.444  0.00  0.00     0.191 C 
ATOM      4  S   UNL d   1       0.481  -1.872   0.159  0.00  0.00    -0.039 SA
BRANCH   3   5
ATOM      5  N   UNL d   1       2.108   0.181  -0.174  0.00  0.00    -0.332 N 
ATOM      6  H   UNL d   1       2.821  -0.477   0.121  0.00  0.00     0.168 HD
BRANCH   5   7
ATOM      7  C   UNL d   1       2.391   1.560  -0.003  0.00  0.00     0.042 A 
ATOM      8  C   UNL d   1       3.696   2.053  -0.181  0.00  0.00    -0.013 A 
ATOM      9  C   UNL d   1       3.925   3.427   0.050  0.00  0.00     0.042 A 
ATOM     10  C   UNL d   1       4.829   1.179  -0.656  0.00  0.00     0.052 C 
ATOM     11 CL   UNL d   1       5.491   4.136  -0.151  0.00  0.00    -0.084 Cl
ATOM     12  C   UNL d   1       2.889   4.282   0.447  0.00  0.00     0.024 A 
ATOM     13  C   UNL d   1       1.610   3.782   0.633  0.00  0.00     0.004 A 
ATOM     14  C   UNL d   1       1.368   2.431   0.415  0.00  0.00     0.030 A 
ENDBRANCH   5   7
ENDBRANCH   3   5
ENDBRANCH   1   3
BRANCH   1  15
ATOM     15  N   UNL d   1      -1.292   0.212  -1.401  0.00  0.00    -0.274 N 
ATOM     16  H   UNL d   1      -1.849   0.297  -0.559  0.00  0.00     0.189 HD
BRANCH  15  17
ATOM     17  C   UNL d   1      -1.878   0.427  -2.638  0.00  0.00     0.186 C 
ATOM     18  S   UNL d   1      -1.105   0.148  -4.093  0.00  0.00    -0.040 SA
BRANCH  17  19
ATOM     19  N   UNL d   1      -3.162   0.898  -2.487  0.00  0.00    -0.366 N 
ATOM     20  H   UNL d   1      -3.406   1.283  -1.585  0.00  0.00     0.161 HD
BRANCH  19  21
ATOM     21  C   UNL d   1      -4.218   0.963  -3.488  0.00  0.00     0.124 C 
BRANCH  21  22
ATOM     22  C   UNL d   1      -5.234  -0.153  -3.249  0.00  0.00     0.046 C 
BRANCH  22  23
ATOM     23  C   UNL d   1      -5.954  -0.019  -1.908  0.00  0.00     0.168 C 
BRANCH  23  24
ATOM     24  O   UNL d   1      -6.630   1.236  -1.863  0.00  0.00    -0.396 OA
ATOM     25  C   UNL d   1      -7.295   1.437  -0.623  0.00  0.00     0.201 C 
ENDBRANCH  23  24
ENDBRANCH  22  23
ENDBRANCH  21  22
ENDBRANCH  19  21
ENDBRANCH  17  19
ENDBRANCH  15  17
ENDBRANCH   1  15
TORSDOF 10
