REMARK  8 active torsions:
REMARK  status: ('A' for Active; 'I' for Inactive)
REMARK    1  A    between atoms: C_7  and  C_1 
REMARK    2  A    between atoms: C_8  and  C_2 
REMARK    3  A    between atoms: C_10  and  C_5 
REMARK    4  A    between atoms: C_14  and  C_6 
REMARK       I    between atoms: N_12  and  C_7 
REMARK    5  A    between atoms: N_11  and  C_9 
REMARK    6  A    between atoms: O_26  and  C_10 
REMARK    7  A    between atoms: C_16  and  N_12 
REMARK    8  A    between atoms: O_32  and  C_27 
ROOT
ATOM      1  C   UNL d   1       2.431   1.494  -0.478  0.00  0.00     0.259 C 
ATOM      2  N   UNL d   1       3.503   0.768   0.010  0.00  0.00    -0.323 N 
ATOM      3  O   UNL d   1       1.502   1.022  -1.125  0.00  0.00    -0.267 OA
ATOM      4  H   UNL d   1       4.143   1.223   0.646  0.00  0.00     0.169 HD
ENDROOT
BRANCH   1   5
ATOM      5  C   UNL d   1       2.452   2.933  -0.232  0.00  0.00     0.073 A 
ATOM      6  C   UNL d   1       3.050   3.692   0.766  0.00  0.00     0.175 A 
ATOM      7  O   UNL d   1       2.818   5.026   0.536  0.00  0.00    -0.304 OA
ATOM      8  C   UNL d   1       2.030   5.133  -0.571  0.00  0.00     0.087 A 
ATOM      9  C   UNL d   1       1.736   3.874  -1.036  0.00  0.00     0.058 A 
BRANCH   6  10
ATOM     10  C   UNL d   1       3.821   3.388   1.994  0.00  0.00     0.440 C 
ATOM     11  F   UNL d   1       3.889   2.049   2.231  0.00  0.00    -0.164 F 
ATOM     12  F   UNL d   1       5.106   3.813   1.907  0.00  0.00    -0.164 F 
ATOM     13  F   UNL d   1       3.283   3.950   3.104  0.00  0.00    -0.164 F 
ENDBRANCH   6  10
BRANCH   8  14
ATOM     14  C   UNL d   1       1.668   6.474  -1.012  0.00  0.00    -0.002 A 
ATOM     15  C   UNL d   1       1.791   7.584  -0.167  0.00  0.00     0.017 A 
ATOM     16  C   UNL d   1       1.386   8.856  -0.590  0.00  0.00     0.037 A 
ATOM     17  C   UNL d   1       0.856   9.035  -1.868  0.00  0.00     0.068 A 
ATOM     18  C   UNL d   1       0.774   7.946  -2.732  0.00  0.00     0.037 A 
ATOM     19  C   UNL d   1       1.168   6.675  -2.306  0.00  0.00     0.017 A 
BRANCH  17  20
ATOM     20  O   UNL d   1       0.433  10.227  -2.384  0.00  0.00    -0.356 OA
ATOM     21  C   UNL d   1      -0.112  11.141  -1.438  0.00  0.00     0.210 C 
ENDBRANCH  17  20
ENDBRANCH   8  14
ENDBRANCH   1   5
BRANCH   2  22
ATOM     22  C   UNL d   1       3.695  -0.624  -0.138  0.00  0.00     0.036 A 
ATOM     23  C   UNL d   1       2.976  -1.413  -1.033  0.00  0.00     0.049 A 
ATOM     24  C   UNL d   1       3.100  -2.813  -1.021  0.00  0.00     0.068 A 
ATOM     25  C   UNL d   1       4.005  -3.456  -0.143  0.00  0.00     0.046 A 
ATOM     26  C   UNL d   1       4.768  -2.634   0.701  0.00  0.00     0.032 A 
ATOM     27  C   UNL d   1       4.622  -1.241   0.703  0.00  0.00     0.032 A 
BRANCH  24  28
ATOM     28  C   UNL d   1       2.115  -3.592  -1.812  0.00  0.00     0.295 C 
ATOM     29  O   UNL d   1       1.594  -4.633  -1.435  0.00  0.00    -0.259 OA
BRANCH  28  30
ATOM     30  O   UNL d   1       1.856  -2.994  -3.004  0.00  0.00    -0.322 OA
ATOM     31  C   UNL d   1       0.837  -3.662  -3.755  0.00  0.00     0.213 C 
ENDBRANCH  28  30
ENDBRANCH  24  28
BRANCH  25  32
ATOM     32  N   UNL d   1       4.128  -4.837  -0.095  0.00  0.00    -0.376 N 
ATOM     33  C   UNL d   1       4.408  -5.539   1.164  0.00  0.00     0.149 C 
ATOM     34  C   UNL d   1       3.901  -6.988   1.044  0.00  0.00     0.187 C 
ATOM     35  O   UNL d   1       4.497  -7.662  -0.079  0.00  0.00    -0.388 OA
ATOM     36  C   UNL d   1       4.163  -6.974  -1.300  0.00  0.00     0.187 C 
ATOM     37  C   UNL d   1       4.673  -5.523  -1.280  0.00  0.00     0.149 C 
ENDBRANCH  25  32
ENDBRANCH   2  22
TORSDOF 8
