REMARK  2 active torsions:
REMARK  status: ('A' for Active; 'I' for Inactive)
REMARK    1  A    between atoms: C_7  and  N_3 
REMARK    2  A    between atoms: N_8  and  C_4 
ROOT
ATOM      1  N   UNL d   1       0.961   0.713  -0.085  0.00  0.00    -0.291 N 
ATOM      2  HN  UNL d   1       1.779   1.318  -0.161  1.00  0.00     0.188 HD
ATOM      3  N   UNL d   1      -0.328   1.109   0.136  0.00  0.00    -0.291 N 
ATOM      4  C   UNL d   1       0.941  -0.578  -0.181  0.00  0.00     0.070 C 
ATOM      5  C   UNL d   1      -0.399  -1.206   0.061  0.00  0.00     0.093 C 
ATOM      6  C   UNL d   1      -1.279   0.025  -0.036  0.00  0.00     0.156 C 
ENDROOT
BRANCH   3   7
ATOM      7  C   UNL d   1      -0.648   2.416   0.488  0.00  0.00     0.050 A 
ATOM      8  C   UNL d   1       0.356   3.374   0.701  0.00  0.00     0.031 A 
ATOM      9  C   UNL d   1       0.059   4.679   1.109  0.00  0.00     0.002 A 
ATOM     10  C   UNL d   1      -1.263   5.060   1.308  0.00  0.00     0.000 A 
ATOM     11  C   UNL d   1      -2.282   4.141   1.085  0.00  0.00     0.002 A 
ATOM     12  C   UNL d   1      -1.975   2.837   0.675  0.00  0.00     0.031 A 
ENDBRANCH   3   7
BRANCH   4  13
ATOM     13  N   UNL d   1       2.043  -1.347  -0.418  0.00  0.00    -0.291 NA
ATOM     14  H   UNL d   1       2.910  -0.834  -0.294  0.00  0.00     0.125 HD
ATOM     15  H   UNL d   1       2.053  -2.271  -0.007  0.00  0.00     0.125 HD
ENDBRANCH   4  13
TORSDOF 2
