REMARK  4 active torsions:
REMARK  status: ('A' for Active; 'I' for Inactive)
REMARK    1  A    between atoms: C_5  and  C_1 
REMARK    2  A    between atoms: N_4  and  C_2 
REMARK       I    between atoms: C_3  and  N_4 
REMARK    3  A    between atoms: C_6  and  C_3 
REMARK    4  A    between atoms: O_16  and  C_5 
ROOT
ATOM      1  C   UNL d   1       0.221   1.435  -0.366  0.00  0.00     0.106 A 
ATOM      2  C   UNL d   1       1.476   0.859  -0.224  0.00  0.00     0.058 A 
ATOM      3  S   UNL d   1      -1.030   0.271  -0.140  0.00  0.00    -0.094 SA
ATOM      4  C   UNL d   1       1.383  -0.565  -0.084  0.00  0.00     0.038 A 
ATOM      5  C   UNL d   1       0.084  -1.010  -0.011  0.00  0.00     0.053 A 
ENDROOT
BRANCH   2   6
ATOM      6  N   UNL d   1       2.724   1.477  -0.267  0.00  0.00    -0.321 N 
ATOM      7  C   UNL d   1       3.003   2.796   0.042  0.00  0.00     0.263 C 
ATOM      8  O   UNL d   1       2.228   3.530   0.650  0.00  0.00    -0.267 OA
ATOM      9  H   UNL d   1       3.522   0.882  -0.444  0.00  0.00     0.169 HD
BRANCH   7  10
ATOM     10  C   UNL d   1       4.330   3.247  -0.372  0.00  0.00     0.072 A 
ATOM     11  S   UNL d   1       5.379   2.261  -1.309  0.00  0.00    -0.097 SA
ATOM     12  C   UNL d   1       6.564   3.487  -1.405  0.00  0.00     0.050 A 
ATOM     13  C   UNL d   1       6.188   4.622  -0.726  0.00  0.00     0.009 A 
ATOM     14  C   UNL d   1       4.901   4.484  -0.129  0.00  0.00     0.025 A 
ENDBRANCH   7  10
ENDBRANCH   2   6
BRANCH   1  15
ATOM     15  C   UNL d   1      -0.192   2.779  -0.726  0.00  0.00     0.302 C 
ATOM     16  O   UNL d   1      -1.216   3.348  -0.361  0.00  0.00    -0.259 OA
BRANCH  15  17
ATOM     17  O   UNL d   1       0.694   3.307  -1.626  0.00  0.00    -0.322 OA
ATOM     18  C   UNL d   1       0.479   4.689  -1.907  0.00  0.00     0.213 C 
ENDBRANCH  15  17
ENDBRANCH   1  15
TORSDOF 4
