REMARK  6 active torsions:
REMARK  status: ('A' for Active; 'I' for Inactive)
REMARK    1  A    between atoms: N_8  and  C_1 
REMARK    2  A    between atoms: N_4  and  C_2 
REMARK    3  A    between atoms: N_5  and  C_3 
REMARK    4  A    between atoms: C_6  and  C_7 
REMARK    5  A    between atoms: N_11  and  N_8 
REMARK    6  A    between atoms: C_15  and  C_18 
ROOT
ATOM      1  C   UNL d   1       0.951  -2.621   0.179  0.00  0.00     0.114 A 
ATOM      2  C   UNL d   1       0.075  -3.530  -0.455  0.00  0.00     0.134 A 
ATOM      3  C   UNL d   1       0.327  -1.482   0.723  0.00  0.00     0.134 A 
ATOM      4  C   UNL d   1      -1.914  -2.260   0.164  0.00  0.00     0.052 A 
ATOM      5  C   UNL d   1      -1.072  -1.300   0.734  0.00  0.00     0.054 A 
ATOM      6  C   UNL d   1      -1.327  -3.370  -0.454  0.00  0.00     0.054 A 
ENDROOT
BRANCH   1   7
ATOM      7  N   UNL d   1       2.340  -2.838   0.218  0.00  0.00    -0.296 N 
ATOM      8  H   UNL d   1       2.690  -3.778   0.005  0.00  0.00     0.187 HD
BRANCH   7   9
ATOM      9  N   UNL d   1       3.171  -1.778   0.217  0.00  0.00    -0.305 N 
ATOM     10  C   UNL d   1       4.327  -1.908   0.804  0.00  0.00     0.022 C 
ATOM     11  C   UNL d   1       4.760  -3.163   1.532  0.00  0.00     0.069 C 
ATOM     12  HN  UNL d   1       2.903  -0.901  -0.230  1.00  0.00     0.186 HD
BRANCH  10  13
ATOM     13  C   UNL d   1       5.266  -0.746   0.887  0.00  0.00     0.028 C 
ATOM     14  C   UNL d   1       5.446   0.190  -0.063  0.00  0.00    -0.086 C 
ATOM     15  C   UNL d   1       4.774   0.202  -1.409  0.00  0.00     0.043 C 
ATOM     16  C   UNL d   1       6.367   1.355   0.185  0.00  0.00     0.043 C 
ENDBRANCH  10  13
ENDBRANCH   7   9
ENDBRANCH   1   7
BRANCH   2  17
ATOM     17  N   UNL d   1       0.610  -4.673  -1.196  0.00  0.00    -0.113 N 
ATOM     18  O   UNL d   1       1.576  -5.269  -0.708  0.00  0.00    -0.532 OA
ATOM     19  O   UNL d   1       0.046  -4.968  -2.259  0.00  0.00    -0.532 OA
ENDBRANCH   2  17
BRANCH   3  20
ATOM     20  N   UNL d   1       1.095  -0.433   1.374  0.00  0.00    -0.113 N 
ATOM     21  O   UNL d   1       1.554  -0.681   2.498  0.00  0.00    -0.532 OA
ATOM     22  O   UNL d   1       1.099   0.676   0.815  0.00  0.00    -0.532 OA
ENDBRANCH   3  20
BRANCH   4  23
ATOM     23  C   UNL d   1      -3.417  -2.118   0.215  0.00  0.00     0.417 C 
ATOM     24  F   UNL d   1      -3.830  -0.955   0.786  0.00  0.00    -0.166 F 
ATOM     25  F   UNL d   1      -3.983  -2.160  -1.019  0.00  0.00    -0.166 F 
ATOM     26  F   UNL d   1      -3.996  -3.118   0.934  0.00  0.00    -0.166 F 
ENDBRANCH   4  23
TORSDOF 6
