REMARK  12 active torsions:
REMARK  status: ('A' for Active; 'I' for Inactive)
REMARK    1  A    between atoms: C_4  and  N_1 
REMARK    2  A    between atoms: N_2  and  C_3 
REMARK    3  A    between atoms: C_3  and  C_7 
REMARK    4  A    between atoms: C_8  and  C_4 
REMARK    5  A    between atoms: S_5  and  C_8 
REMARK    6  A    between atoms: C_10  and  S_5 
REMARK    7  A    between atoms: S_6  and  C_7 
REMARK    8  A    between atoms: C_9  and  S_6 
REMARK    9  A    between atoms: C_7  and  C_15 
REMARK   10  A    between atoms: C_16  and  C_8 
REMARK   11  A    between atoms: N_23  and  C_17 
REMARK   12  A    between atoms: N_24  and  C_18 
ROOT
ATOM      1  C   UNL d   1      -0.635   5.824  -2.557  0.00  0.00    -0.042 A 
ATOM      2  C   UNL d   1       0.451   3.383  -1.493  0.00  0.00    -0.042 A 
ATOM      3  C   UNL d   1      -1.177   4.573  -2.880  0.00  0.00     0.009 A 
ATOM      4  C   UNL d   1       0.420   5.826  -1.626  0.00  0.00     0.009 A 
ATOM      5  C   UNL d   1      -0.657   3.385  -2.351  0.00  0.00     0.009 A 
ATOM      6  C   UNL d   1       0.958   4.633  -1.114  0.00  0.00     0.009 A 
ENDROOT
BRANCH   1   7
ATOM      7  C   UNL d   1      -1.279   7.115  -3.087  0.00  0.00     0.109 C 
BRANCH   7   8
ATOM      8  C   UNL d   1      -0.528   8.402  -2.737  0.00  0.00     0.221 C 
BRANCH   8   9
ATOM      9  N   UNL d   1      -1.357   9.597  -3.100  0.00  0.00    -0.154 N 
ATOM     10  O   UNL d   1      -0.978  10.298  -4.044  0.00  0.00    -0.536 OA
ATOM     11  O   UNL d   1      -2.357   9.812  -2.402  0.00  0.00    -0.536 OA
ENDBRANCH   8   9
ENDBRANCH   7   8
BRANCH   7  12
ATOM     12  S   UNL d   1      -1.855   7.051  -4.864  0.00  0.00    -0.117 SA
BRANCH  12  13
ATOM     13  C   UNL d   1      -0.427   6.540  -5.817  0.00  0.00     0.022 C 
ATOM     14  C   UNL d   1       0.649   7.393  -6.138  0.00  0.00     0.022 C 
ATOM     15  C   UNL d   1       1.713   6.886  -6.898  0.00  0.00     0.024 C 
ATOM     16  C   UNL d   1       1.639   5.631  -7.487  0.00  0.00     0.002 C 
ATOM     17  C   UNL d   1       0.513   4.842  -7.282  0.00  0.00     0.001 C 
ATOM     18  C   UNL d   1      -0.500   5.281  -6.430  0.00  0.00     0.020 C 
BRANCH  14  19
ATOM     19  N   UNL d   1       0.778   8.685  -5.601  0.00  0.00    -0.302 NA
ATOM     20  H   UNL d   1      -0.126   9.158  -5.518  0.00  0.00     0.124 HD
ATOM     21  H   UNL d   1       1.427   9.276  -6.114  0.00  0.00     0.124 HD
ENDBRANCH  14  19
ENDBRANCH  12  13
ENDBRANCH   7  12
ENDBRANCH   1   7
BRANCH   2  22
ATOM     22  C   UNL d   1       1.133   2.108  -0.974  0.00  0.00     0.109 C 
BRANCH  22  23
ATOM     23  S   UNL d   1       0.744   0.572  -1.953  0.00  0.00    -0.117 SA
BRANCH  23  24
ATOM     24  C   UNL d   1       1.219   1.067  -3.621  0.00  0.00     0.022 A 
ATOM     25  C   UNL d   1       0.355   0.798  -4.709  0.00  0.00     0.022 A 
ATOM     26  C   UNL d   1       0.704   1.271  -5.979  0.00  0.00     0.024 A 
ATOM     27  C   UNL d   1       1.921   1.919  -6.191  0.00  0.00     0.002 A 
ATOM     28  C   UNL d   1       2.785   2.148  -5.127  0.00  0.00     0.001 A 
ATOM     29  C   UNL d   1       2.442   1.712  -3.849  0.00  0.00     0.020 A 
BRANCH  25  30
ATOM     30  N   UNL d   1      -0.949   0.293  -4.513  0.00  0.00    -0.302 NA
ATOM     31  H   UNL d   1      -1.003  -0.275  -3.669  0.00  0.00     0.124 HD
ATOM     32  H   UNL d   1      -1.326  -0.184  -5.326  0.00  0.00     0.124 HD
ENDBRANCH  25  30
ENDBRANCH  23  24
ENDBRANCH  22  23
BRANCH  22  33
ATOM     33  C   UNL d   1       0.833   1.926   0.516  0.00  0.00     0.221 C 
BRANCH  33  34
ATOM     34  N   UNL d   1       1.580   0.748   1.063  0.00  0.00    -0.154 N 
ATOM     35  O   UNL d   1       0.909  -0.149   1.587  0.00  0.00    -0.536 OA
ATOM     36  O   UNL d   1       2.816   0.781   1.000  0.00  0.00    -0.536 OA
ENDBRANCH  33  34
ENDBRANCH  22  33
ENDBRANCH   2  22
TORSDOF 12
