REMARK  3 active torsions:
REMARK  status: ('A' for Active; 'I' for Inactive)
REMARK    1  A    between atoms: C_7  and  N_1 
REMARK    2  A    between atoms: N_6  and  C_4 
REMARK    3  A    between atoms: C_12  and  N_6 
ROOT
ATOM      1  N   UNL d   1       0.026   0.921  -0.045  0.00  0.00    -0.251 N 
ATOM      2  C   UNL d   1      -1.116   0.190   0.190  0.00  0.00     0.233 A 
ATOM      3  C   UNL d   1       1.107   0.091  -0.248  0.00  0.00     0.249 A 
ATOM      4  C   UNL d   1       0.655  -1.357  -0.191  0.00  0.00     0.162 A 
ATOM      5  C   UNL d   1      -0.828  -1.272   0.079  0.00  0.00     0.133 A 
ATOM      6  O   UNL d   1      -2.249   0.584   0.442  0.00  0.00    -0.273 OA
ATOM      7  O   UNL d   1       2.287   0.383  -0.425  0.00  0.00    -0.271 OA
ENDROOT
BRANCH   4   8
ATOM      8  N   UNL d   1       0.951  -2.016  -1.474  0.00  0.00    -0.279 NA
ATOM      9  H   UNL d   1       1.929  -1.868  -1.742  0.00  0.00     0.128 HD
BRANCH   8  10
ATOM     10  C   UNL d   1       0.612  -3.361  -1.652  0.00  0.00     0.009 A 
ATOM     11  C   UNL d   1       0.424  -3.812  -2.966  0.00  0.00     0.026 A 
ATOM     12  C   UNL d   1       0.069  -5.136  -3.230  0.00  0.00     0.044 A 
ATOM     13  C   UNL d   1      -0.064  -6.027  -2.175  0.00  0.00     0.116 A 
ATOM     14  C   UNL d   1       0.168  -5.620  -0.869  0.00  0.00     0.044 A 
ATOM     15  F   UNL d   1      -0.414  -7.296  -2.419  0.00  0.00    -0.206 F 
ATOM     16  C   UNL d   1       0.514  -4.290  -0.609  0.00  0.00     0.026 A 
ENDBRANCH   8  10
ENDBRANCH   4   8
BRANCH   1  17
ATOM     17  C   UNL d   1       0.085   2.353  -0.072  0.00  0.00     0.045 A 
ATOM     18  C   UNL d   1      -0.956   3.145   0.449  0.00  0.00     0.033 A 
ATOM     19  C   UNL d   1      -0.905   4.544   0.408  0.00  0.00     0.044 A 
ATOM     20  C   UNL d   1       0.189   5.175  -0.160  0.00  0.00     0.116 A 
ATOM     21  C   UNL d   1       1.232   4.431  -0.684  0.00  0.00     0.044 A 
ATOM     22  F   UNL d   1       0.237   6.513  -0.204  0.00  0.00    -0.206 F 
ATOM     23  C   UNL d   1       1.179   3.032  -0.638  0.00  0.00     0.033 A 
ENDBRANCH   1  17
TORSDOF 3
