REMARK  1 active torsions:
REMARK  status: ('A' for Active; 'I' for Inactive)
REMARK    1  A    between atoms: C_4  and  C_1 
ROOT
ATOM      1  C   UNL d   1       0.389  -3.792  -1.041  0.00  0.00    -0.006 C 
ATOM      2  C   UNL d   1       0.394  -5.282  -0.964  0.00  0.00     0.189 C 
ATOM      3  C   UNL d   1       0.998  -3.103  -0.057  0.00  0.00     0.024 C 
ATOM      4  C   UNL d   1      -0.745  -5.982  -1.633  0.00  0.00     0.021 A 
ATOM      5  C   UNL d   1      -1.793  -5.253  -2.228  0.00  0.00    -0.044 A 
ATOM      6  C   UNL d   1      -0.354  -3.211  -2.211  0.00  0.00     0.047 C 
ATOM      7  O   UNL d   1       1.266  -5.904  -0.369  0.00  0.00    -0.287 OA
ATOM      8  C   UNL d   1      -1.780  -3.747  -2.241  0.00  0.00     0.044 C 
ATOM      9  C   UNL d   1      -0.782  -7.381  -1.628  0.00  0.00     0.016 A 
ATOM     10  C   UNL d   1      -2.885  -5.943  -2.773  0.00  0.00     0.008 A 
ATOM     11  C   UNL d   1      -1.864  -8.056  -2.195  0.00  0.00     0.001 A 
ATOM     12  C   UNL d   1      -2.918  -7.337  -2.759  0.00  0.00     0.001 A 
ENDROOT
BRANCH   3  13
ATOM     13  C   UNL d   1       0.968  -1.677   0.052  0.00  0.00    -0.017 A 
ATOM     14  C   UNL d   1       1.912  -0.870  -0.539  0.00  0.00     0.062 A 
ATOM     15  S   UNL d   1       1.535   0.784  -0.358  0.00  0.00    -0.100 SA
ATOM     16  C   UNL d   1       0.099   0.440   0.532  0.00  0.00     0.015 A 
ATOM     17  C   UNL d   1      -0.065  -0.934   0.728  0.00  0.00    -0.008 A 
ATOM     18  C   UNL d   1      -0.835   1.372   1.027  0.00  0.00     0.019 A 
ATOM     19  C   UNL d   1      -1.185  -1.368   1.484  0.00  0.00     0.013 A 
ATOM     20  C   UNL d   1      -2.107  -0.446   1.987  0.00  0.00     0.001 A 
ATOM     21  C   UNL d   1      -1.939   0.910   1.747  0.00  0.00     0.001 A 
ENDBRANCH   3  13
TORSDOF 1
