REMARK  4 active torsions:
REMARK  status: ('A' for Active; 'I' for Inactive)
REMARK       I    between atoms: N_2  and  C_1 
REMARK    1  A    between atoms: C_5  and  C_1 
REMARK    2  A    between atoms: C_6  and  N_2 
REMARK    3  A    between atoms: S_3  and  C_5 
REMARK    4  A    between atoms: C_7  and  S_3 
ROOT
ATOM      1  C   UNL d   1       1.013  -0.034  -0.128  0.00  0.00     0.231 C 
ATOM      2  N   UNL d   1       0.377  -0.845   0.793  0.00  0.00    -0.327 N 
ATOM      3  O   UNL d   1       0.445   0.686  -0.950  0.00  0.00    -0.272 OA
ATOM      4  H   UNL d   1       0.975  -1.296   1.477  0.00  0.00     0.169 HD
ENDROOT
BRANCH   1   5
ATOM      5  C   UNL d   1       2.535   0.023  -0.033  0.00  0.00     0.182 C 
BRANCH   5   6
ATOM      6  S   UNL d   1       3.284  -1.541   0.526  0.00  0.00    -0.121 SA
BRANCH   6   7
ATOM      7  C   UNL d   1       5.021  -1.337   0.130  0.00  0.00     0.001 A 
ATOM      8  C   UNL d   1       5.933  -2.124   0.846  0.00  0.00     0.019 A 
ATOM      9  C   UNL d   1       7.298  -2.108   0.538  0.00  0.00     0.008 A 
ATOM     10  C   UNL d   1       7.782  -1.306  -0.499  0.00  0.00    -0.062 A 
ATOM     11  C   UNL d   1       6.882  -0.503  -1.202  0.00  0.00     0.008 A 
ATOM     12  C   UNL d   1       9.234  -1.351  -0.873  0.00  0.00     0.048 C 
ATOM     13  C   UNL d   1       5.515  -0.521  -0.893  0.00  0.00     0.019 A 
ENDBRANCH   6   7
ENDBRANCH   5   6
ENDBRANCH   1   5
BRANCH   2  14
ATOM     14  C   UNL d   1      -1.004  -1.134   0.859  0.00  0.00     0.034 A 
ATOM     15  C   UNL d   1      -1.923  -0.748  -0.120  0.00  0.00     0.031 A 
ATOM     16  C   UNL d   1      -3.276  -1.086  -0.009  0.00  0.00     0.021 A 
ATOM     17  C   UNL d   1      -3.721  -1.809   1.093  0.00  0.00     0.011 A 
ATOM     18  C   UNL d   1      -2.820  -2.204   2.078  0.00  0.00     0.021 A 
ATOM     19 BR   UNL d   1      -5.548  -2.263   1.244  0.00  0.00    -0.051 Br
ATOM     20  C   UNL d   1      -1.464  -1.871   1.957  0.00  0.00     0.031 A 
ENDBRANCH   2  14
TORSDOF 4
