REMARK  3 active torsions:
REMARK  status: ('A' for Active; 'I' for Inactive)
REMARK    1  A    between atoms: C_3  and  N_1 
REMARK    2  A    between atoms: N_4  and  C_2 
REMARK    3  A    between atoms: O_17  and  C_15 
ROOT
ATOM      1  C   UNL d   1      -0.717   3.046   0.904  0.00  0.00     0.132 A 
ATOM      2  C   UNL d   1       0.035   2.261   0.012  0.00  0.00     0.079 A 
ATOM      3  C   UNL d   1      -0.729   4.447   0.818  0.00  0.00     0.075 A 
ATOM      4  C   UNL d   1       0.796   2.935  -0.957  0.00  0.00     0.035 A 
ATOM      5  C   UNL d   1       0.005   5.093  -0.175  0.00  0.00     0.070 A 
ATOM      6  C   UNL d   1       0.770   4.333  -1.059  0.00  0.00     0.039 A 
ENDROOT
BRANCH   2   7
ATOM      7  N   UNL d   1       0.030   0.846   0.011  0.00  0.00    -0.243 N 
ATOM      8  C   UNL d   1      -1.095   0.079   0.081  0.00  0.00     0.255 A 
ATOM      9  C   UNL d   1      -0.672  -1.324   0.013  0.00  0.00     0.080 A 
ATOM     10  O   UNL d   1      -2.264   0.423   0.099  0.00  0.00    -0.268 OA
ATOM     11  C   UNL d   1       0.651  -1.341  -0.143  0.00  0.00     0.080 A 
ATOM     12  C   UNL d   1       1.117   0.051  -0.196  0.00  0.00     0.255 A 
ATOM     13  O   UNL d   1       2.287   0.347  -0.377  0.00  0.00    -0.268 OA
ENDBRANCH   2   7
BRANCH   1  14
ATOM     14  N   UNL d   1      -1.362   2.457   2.072  0.00  0.00    -0.113 N 
ATOM     15  O   UNL d   1      -0.729   1.592   2.696  0.00  0.00    -0.532 OA
ATOM     16  O   UNL d   1      -2.470   2.905   2.399  0.00  0.00    -0.532 OA
ENDBRANCH   1  14
BRANCH   5  17
ATOM     17  O   UNL d   1      -0.092   6.455  -0.163  0.00  0.00    -0.356 OA
ATOM     18  C   UNL d   1       0.591   7.162  -1.192  0.00  0.00     0.210 C 
ENDBRANCH   5  17
TORSDOF 3
