REMARK  2 active torsions:
REMARK  status: ('A' for Active; 'I' for Inactive)
REMARK    1  A    between atoms: C_8  and  C_3 
REMARK    2  A    between atoms: C_7  and  C_4 
ROOT
ATOM      1  N   UNL d   1       1.402  -0.591   0.006  0.00  0.00    -0.349 N 
ATOM      2  HN  UNL d   1       2.281  -1.107   0.049  1.00  0.00     0.166 HD
ATOM      3  C   UNL d   1       0.205  -1.148  -0.039  0.00  0.00     0.084 A 
ATOM      4  C   UNL d   1       1.299   0.793  -0.012  0.00  0.00     0.050 A 
ATOM      5  S   UNL d   1      -1.107  -0.026  -0.018  0.00  0.00    -0.081 SA
ATOM      6  C   UNL d   1       0.004   1.272   0.001  0.00  0.00     0.082 A 
ENDROOT
BRANCH   4   7
ATOM      7  C   UNL d   1       2.478   1.654  -0.012  0.00  0.00    -0.009 A 
ATOM      8  C   UNL d   1       2.448   2.942  -0.567  0.00  0.00     0.014 A 
ATOM      9  C   UNL d   1       3.582   3.759  -0.542  0.00  0.00     0.007 A 
ATOM     10  C   UNL d   1       4.772   3.303   0.033  0.00  0.00    -0.062 A 
ATOM     11  C   UNL d   1       4.813   2.014   0.575  0.00  0.00     0.007 A 
ATOM     12  C   UNL d   1       5.976   4.198   0.062  0.00  0.00     0.048 C 
ATOM     13  C   UNL d   1       3.678   1.196   0.547  0.00  0.00     0.014 A 
ENDBRANCH   4   7
BRANCH   3  14
ATOM     14  C   UNL d   1      -0.046  -2.601  -0.045  0.00  0.00    -0.002 A 
ATOM     15  C   UNL d   1       0.876  -3.463   0.570  0.00  0.00     0.014 A 
ATOM     16  C   UNL d   1       0.657  -4.844   0.605  0.00  0.00     0.001 A 
ATOM     17  C   UNL d   1      -0.481  -5.385   0.014  0.00  0.00     0.000 A 
ATOM     18  C   UNL d   1      -1.397  -4.550  -0.621  0.00  0.00     0.001 A 
ATOM     19  C   UNL d   1      -1.179  -3.169  -0.652  0.00  0.00     0.014 A 
ENDBRANCH   3  14
TORSDOF 2
