REMARK  4 active torsions:
REMARK  status: ('A' for Active; 'I' for Inactive)
REMARK    1  A    between atoms: C_2  and  S_1 
REMARK    2  A    between atoms: N_4  and  S_1 
REMARK    3  A    between atoms: C_11  and  N_4 
REMARK    4  A    between atoms: C_5  and  C_11 
ROOT
ATOM      1  C   UNL d   1       0.494  -1.634  -0.524  0.00  0.00     0.106 A 
ATOM      2  C   UNL d   1      -0.612  -1.780  -1.369  0.00  0.00     0.066 A 
ATOM      3  N   UNL d   1      -1.319  -0.743  -1.863  0.00  0.00    -0.364 N 
ATOM      4  HN  UNL d   1      -1.081   0.211  -1.590  1.00  0.00     0.165 HD
ATOM      5  C   UNL d   1      -0.974  -3.104  -1.730  0.00  0.00    -0.008 A 
ATOM      6  C   UNL d   1       1.229  -2.751  -0.082  0.00  0.00     0.028 A 
ATOM      7  C   UNL d   1       0.828  -4.039  -0.410  0.00  0.00     0.003 A 
ATOM      8  C   UNL d   1      -2.340  -0.963  -2.718  0.00  0.00     0.088 A 
ATOM      9  C   UNL d   1      -0.273  -4.213  -1.234  0.00  0.00     0.014 A 
ATOM     10  C   UNL d   1      -2.042  -3.303  -2.615  0.00  0.00     0.015 A 
ATOM     11  C   UNL d   1      -2.734  -2.216  -3.127  0.00  0.00     0.018 A 
ENDROOT
BRANCH   1  12
ATOM     12  S   UNL d   1       1.108  -0.025  -0.069  0.00  0.00     0.261 S 
ATOM     13  O   UNL d   1       0.228   1.027  -0.527  0.00  0.00    -0.200 OA
ATOM     14  O   UNL d   1       2.521  -0.011  -0.385  0.00  0.00    -0.200 OA
BRANCH  12  15
ATOM     15  N   UNL d   1       0.966   0.006   1.618  0.00  0.00    -0.311 N 
ATOM     16  H   UNL d   1       0.039  -0.259   1.947  0.00  0.00     0.172 HD
BRANCH  15  17
ATOM     17  C   UNL d   1       2.098  -0.488   2.400  0.00  0.00     0.178 C 
BRANCH  17  18
ATOM     18  C   UNL d   1       1.772  -0.358   3.855  0.00  0.00     0.001 A 
ATOM     19  S   UNL d   1       1.101  -1.685   4.710  0.00  0.00    -0.105 SA
ATOM     20  C   UNL d   1       1.086  -0.811   6.179  0.00  0.00     0.050 A 
ATOM     21  C   UNL d   1       1.572   0.468   6.024  0.00  0.00     0.008 A 
ATOM     22  C   UNL d   1       1.968   0.730   4.682  0.00  0.00     0.017 A 
ENDBRANCH  17  18
ENDBRANCH  15  17
ENDBRANCH  12  15
ENDBRANCH   1  12
TORSDOF 4
