REMARK  7 active torsions:
REMARK  status: ('A' for Active; 'I' for Inactive)
REMARK    1  A    between atoms: C_3  and  C_8 
REMARK    2  A    between atoms: C_21  and  C_4 
REMARK    3  A    between atoms: C_20  and  C_7 
REMARK    4  A    between atoms: C_14  and  S_18 
REMARK    5  A    between atoms: C_16  and  O_17 
REMARK    6  A    between atoms: O_17  and  C_20 
REMARK    7  A    between atoms: S_18  and  C_21 
ROOT
ATOM      1  N   UNL d   1       1.318   0.215   0.264  0.00  0.00    -0.324 N 
ATOM      2  HN  UNL d   1       2.310   0.360   0.450  1.00  0.00     0.169 HD
ATOM      3  C   UNL d   1       0.325   1.155   0.078  0.00  0.00     0.113 A 
ATOM      4  N   UNL d   1      -0.880   0.634  -0.201  0.00  0.00    -0.246 N 
ATOM      5  HN  UNL d   1      -1.747   1.129  -0.412  1.00  0.00     0.196 HD
ATOM      6  C   UNL d   1       0.657  -0.918   0.138  0.00  0.00     0.172 A 
ATOM      7  O   UNL d   1      -0.669  -0.739  -0.133  0.00  0.00    -0.221 OA
ENDROOT
BRANCH   3   8
ATOM      8  C   UNL d   1       0.592   2.627   0.093  0.00  0.00     0.159 C 
BRANCH   8   9
ATOM      9  S   UNL d   1      -0.693   3.537   1.020  0.00  0.00    -0.105 SA
BRANCH   9  10
ATOM     10  C   UNL d   1      -0.180   5.223   0.781  0.00  0.00     0.069 A 
ATOM     11  N   UNL d   1       1.004   5.485   0.186  0.00  0.00    -0.360 N 
ATOM     12  C   UNL d   1       1.373   6.788   0.081  0.00  0.00     0.105 A 
ATOM     13  HN  UNL d   1       1.596   4.735  -0.170  1.00  0.00     0.166 HD
ATOM     14  C   UNL d   1       0.614   7.855   0.544  0.00  0.00     0.063 A 
ATOM     15  C   UNL d   1      -0.613   7.556   1.138  0.00  0.00     0.020 A 
ATOM     16  C   UNL d   1      -1.015   6.228   1.257  0.00  0.00     0.038 A 
BRANCH  14  17
ATOM     17  C   UNL d   1       1.097   9.268   0.426  0.00  0.00     0.418 C 
ATOM     18  F   UNL d   1       2.305   9.384  -0.191  0.00  0.00    -0.166 F 
ATOM     19  F   UNL d   1       0.239  10.054  -0.281  0.00  0.00    -0.166 F 
ATOM     20  F   UNL d   1       1.238   9.870   1.639  0.00  0.00    -0.166 F 
ENDBRANCH  14  17
ENDBRANCH   9  10
ENDBRANCH   8   9
ENDBRANCH   3   8
BRANCH   6  21
ATOM     21  C   UNL d   1       1.140  -2.323   0.103  0.00  0.00     0.262 C 
BRANCH  21  22
ATOM     22  O   UNL d   1       0.564  -3.018   1.212  0.00  0.00    -0.342 OA
BRANCH  22  23
ATOM     23  C   UNL d   1       0.836  -4.361   1.290  0.00  0.00     0.091 A 
ATOM     24  C   UNL d   1       0.972  -4.931   2.566  0.00  0.00     0.069 A 
ATOM     25  C   UNL d   1       1.195  -6.303   2.720  0.00  0.00     0.050 A 
ATOM     26 CL   UNL d   1       0.886  -3.961   3.995  0.00  0.00    -0.081 Cl
ATOM     27  C   UNL d   1       1.268  -7.115   1.593  0.00  0.00     0.035 A 
ATOM     28  C   UNL d   1       1.116  -6.571   0.321  0.00  0.00     0.026 A 
ATOM     29 CL   UNL d   1       1.529  -8.806   1.769  0.00  0.00    -0.084 Cl
ATOM     30  C   UNL d   1       0.895  -5.197   0.168  0.00  0.00     0.040 A 
ENDBRANCH  22  23
ENDBRANCH  21  22
ENDBRANCH   6  21
TORSDOF 7
