REMARK  5 active torsions:
REMARK  status: ('A' for Active; 'I' for Inactive)
REMARK    1  A    between atoms: N_2  and  C_1 
REMARK    2  A    between atoms: N_3  and  C_1 
REMARK    3  A    between atoms: C_10  and  N_3 
REMARK    4  A    between atoms: C_4  and  C_9 
REMARK    5  A    between atoms: C_6  and  C_4 
ROOT
ATOM      1  N   UNL d   1      -0.212  -0.656   0.743  0.00  0.00    -0.358 N 
ATOM      2  C   UNL d   1      -0.940  -1.601  -0.095  0.00  0.00     0.126 C 
ATOM      3  C   UNL d   1       0.287  -1.239   1.988  0.00  0.00     0.126 C 
ATOM      4  C   UNL d   1      -1.774  -2.774   2.011  0.00  0.00     0.064 C 
ATOM      5  C   UNL d   1      -2.147  -2.151   0.659  0.00  0.00     0.032 C 
ATOM      6  C   UNL d   1      -0.822  -1.875   2.815  0.00  0.00     0.032 C 
ENDROOT
BRANCH   1   7
ATOM      7  C   UNL d   1       0.616   0.303   0.162  0.00  0.00     0.174 C 
ATOM      8  S   UNL d   1       1.736   0.009  -1.046  0.00  0.00    -0.041 SA
BRANCH   7   9
ATOM      9  N   UNL d   1       0.563   1.551   0.739  0.00  0.00    -0.333 N 
ATOM     10  H   UNL d   1       1.383   2.129   0.588  0.00  0.00     0.168 HD
BRANCH   9  11
ATOM     11  C   UNL d   1      -0.597   2.231   1.178  0.00  0.00     0.035 A 
ATOM     12  C   UNL d   1      -1.883   1.837   0.797  0.00  0.00     0.053 A 
ATOM     13  C   UNL d   1      -2.991   2.598   1.166  0.00  0.00     0.036 A 
ATOM     14 CL   UNL d   1      -4.561   2.118   0.647  0.00  0.00    -0.084 Cl
ATOM     15  C   UNL d   1      -2.833   3.753   1.925  0.00  0.00     0.024 A 
ATOM     16  C   UNL d   1      -1.553   4.152   2.309  0.00  0.00     0.004 A 
ATOM     17  C   UNL d   1      -0.437   3.401   1.924  0.00  0.00     0.029 A 
ENDBRANCH   9  11
ENDBRANCH   7   9
ENDBRANCH   1   7
BRANCH   4  18
ATOM     18  C   UNL d   1      -1.266  -4.205   1.835  0.00  0.00     0.163 C 
ATOM     19  O   UNL d   1      -0.065  -4.474   1.816  0.00  0.00    -0.292 OA
BRANCH  18  20
ATOM     20  C   UNL d   1      -2.275  -5.316   1.661  0.00  0.00     0.010 A 
ATOM     21  C   UNL d   1      -3.657  -5.064   1.599  0.00  0.00     0.015 A 
ATOM     22  C   UNL d   1      -4.566  -6.110   1.435  0.00  0.00     0.007 A 
ATOM     23  C   UNL d   1      -4.125  -7.429   1.330  0.00  0.00    -0.062 A 
ATOM     24  C   UNL d   1      -2.751  -7.689   1.395  0.00  0.00     0.007 A 
ATOM     25  C   UNL d   1      -5.131  -8.526   1.146  0.00  0.00     0.048 C 
ATOM     26  C   UNL d   1      -1.834  -6.641   1.560  0.00  0.00     0.015 A 
ENDBRANCH  18  20
ENDBRANCH   4  18
TORSDOF 5
