REMARK  9 active torsions:
REMARK  status: ('A' for Active; 'I' for Inactive)
REMARK    1  A    between atoms: C_3  and  S_1 
REMARK    2  A    between atoms: C_4  and  S_1 
REMARK    3  A    between atoms: C_2  and  O_11 
REMARK       I    between atoms: N_5  and  C_2 
REMARK    4  A    between atoms: C_18  and  C_4 
REMARK    5  A    between atoms: C_13  and  N_5 
REMARK    6  A    between atoms: O_11  and  C_20 
REMARK    7  A    between atoms: S_16  and  C_18 
REMARK    8  A    between atoms: C_19  and  S_16 
REMARK    9  A    between atoms: C_20  and  C_19 
ROOT
ATOM      1  S   UNL d   1       0.491  -4.192   0.369  0.00  0.00    -0.166 SA
ENDROOT
BRANCH   1   2
ATOM      2  C   UNL d   1       1.332  -2.660  -0.162  0.00  0.00     0.089 C 
BRANCH   2   3
ATOM      3  C   UNL d   1       0.937  -1.556   0.806  0.00  0.00     0.156 C 
BRANCH   3   4
ATOM      4  S   UNL d   1       1.669  -0.006   0.342  0.00  0.00     0.176 S 
ATOM      5  O   UNL d   1       3.097  -0.085   0.565  0.00  0.00    -0.223 OA
ATOM      6  O   UNL d   1       1.138   0.381  -0.954  0.00  0.00    -0.223 OA
BRANCH   4   7
ATOM      7  C   UNL d   1       1.004   1.136   1.540  0.00  0.00     0.059 A 
ATOM      8  C   UNL d   1       1.712   1.399   2.719  0.00  0.00     0.025 A 
ATOM      9  C   UNL d   1       1.188   2.303   3.648  0.00  0.00     0.025 A 
ATOM     10  C   UNL d   1      -0.025   2.943   3.389  0.00  0.00     0.034 A 
ATOM     11  C   UNL d   1      -0.718   2.696   2.203  0.00  0.00     0.025 A 
ATOM     12 CL   UNL d   1      -0.671   4.048   4.540  0.00  0.00    -0.084 Cl
ATOM     13  C   UNL d   1      -0.202   1.794   1.271  0.00  0.00     0.025 A 
ENDBRANCH   4   7
ENDBRANCH   3   4
ENDBRANCH   2   3
ENDBRANCH   1   2
BRANCH   1  14
ATOM     14  C   UNL d   1       1.196  -5.373  -0.836  0.00  0.00     0.101 C 
BRANCH  14  15
ATOM     15  C   UNL d   1       0.708  -6.800  -0.549  0.00  0.00     0.191 C 
BRANCH  15  16
ATOM     16  O   UNL d   1       1.019  -7.263   0.780  0.00  0.00    -0.303 OA
BRANCH  16  17
ATOM     17  C   UNL d   1       2.320  -7.556   1.019  0.00  0.00     0.365 C 
ATOM     18  N   UNL d   1       2.626  -7.975   2.286  0.00  0.00    -0.303 N 
ATOM     19  H   UNL d   1       3.624  -8.106   2.382  0.00  0.00     0.171 HD
ATOM     20  O   UNL d   1       3.209  -7.444   0.181  0.00  0.00    -0.238 OA
BRANCH  18  21
ATOM     21  C   UNL d   1       1.853  -8.176   3.443  0.00  0.00     0.036 A 
ATOM     22  C   UNL d   1       0.463  -8.072   3.511  0.00  0.00     0.029 A 
ATOM     23  C   UNL d   1      -0.200  -8.222   4.737  0.00  0.00     0.002 A 
ATOM     24  C   UNL d   1       0.517  -8.490   5.901  0.00  0.00     0.000 A 
ATOM     25  C   UNL d   1       1.897  -8.641   5.838  0.00  0.00     0.002 A 
ATOM     26  C   UNL d   1       2.558  -8.491   4.615  0.00  0.00     0.029 A 
ENDBRANCH  18  21
ENDBRANCH  16  17
ENDBRANCH  15  16
ENDBRANCH  14  15
ENDBRANCH   1  14
TORSDOF 9
