REMARK  5 active torsions:
REMARK  status: ('A' for Active; 'I' for Inactive)
REMARK    1  A    between atoms: S_11  and  C_5 
REMARK    2  A    between atoms: C_6  and  C_10 
REMARK    3  A    between atoms: O_15  and  C_7 
REMARK    4  A    between atoms: O_14  and  C_8 
REMARK    5  A    between atoms: C_10  and  S_11 
ROOT
ATOM      1  N   UNL d   1      -0.404  -0.804  -0.032  0.00  0.00    -0.317 N 
ATOM      2  HN  UNL d   1      -0.716  -1.775  -0.038  1.00  0.00     0.170 HD
ATOM      3  N   UNL d   1      -0.900   1.522  -0.037  0.00  0.00    -0.317 N 
ATOM      4  HN  UNL d   1      -1.588   2.275  -0.049  1.00  0.00     0.170 HD
ATOM      5  C   UNL d   1      -1.266   0.232  -0.043  0.00  0.00     0.148 A 
ATOM      6  C   UNL d   1       0.414   1.769  -0.016  0.00  0.00     0.145 A 
ATOM      7  C   UNL d   1       0.888  -0.468  -0.013  0.00  0.00     0.145 A 
ATOM      8  C   UNL d   1       1.383   0.804  -0.003  0.00  0.00     0.111 A 
ENDROOT
BRANCH   5   9
ATOM      9  S   UNL d   1      -3.001  -0.174  -0.058  0.00  0.00    -0.089 SA
BRANCH   9  10
ATOM     10  C   UNL d   1      -3.727   1.500  -0.061  0.00  0.00     0.124 C 
BRANCH  10  11
ATOM     11  C   UNL d   1      -5.240   1.480   0.042  0.00  0.00    -0.005 A 
ATOM     12  C   UNL d   1      -5.887   1.473   1.295  0.00  0.00     0.042 A 
ATOM     13 CL   UNL d   1      -5.009   1.473   2.786  0.00  0.00    -0.084 Cl
ATOM     14  C   UNL d   1      -7.286   1.478   1.395  0.00  0.00     0.024 A 
ATOM     15  C   UNL d   1      -8.074   1.482   0.249  0.00  0.00     0.003 A 
ATOM     16  C   UNL d   1      -7.461   1.478  -0.999  0.00  0.00     0.024 A 
ATOM     17  C   UNL d   1      -6.061   1.472  -1.103  0.00  0.00     0.042 A 
ATOM     18 CL   UNL d   1      -5.409   1.472  -2.706  0.00  0.00    -0.084 Cl
ENDBRANCH  10  11
ENDBRANCH   9  10
ENDBRANCH   5   9
BRANCH   6  19
ATOM     19  O   UNL d   1       0.739   3.096  -0.005  0.00  0.00    -0.346 OA
ATOM     20  H   UNL d   1       1.706   3.178   0.014  0.00  0.00     0.219 HD
ENDBRANCH   6  19
BRANCH   7  21
ATOM     21  O   UNL d   1       1.749  -1.521  -0.002  0.00  0.00    -0.346 OA
ATOM     22  H   UNL d   1       1.129  -2.273  -0.011  0.00  0.00     0.219 HD
ENDBRANCH   7  21
TORSDOF 5
