REMARK  1 active torsions:
REMARK  status: ('A' for Active; 'I' for Inactive)
REMARK    1  A    between atoms: C_10  and  C_5 
ROOT
ATOM      1  C   UNL d   1       0.255  -0.443  -0.272  0.00  0.00     0.155 A 
ATOM      2  N   UNL d   1       1.353  -1.115  -0.485  0.00  0.00    -0.334 N 
ATOM      3  HN  UNL d   1       1.462  -2.024  -0.934  1.00  0.00     0.168 HD
ATOM      4  N   UNL d   1       0.459   0.760   0.332  0.00  0.00    -0.310 N 
ATOM      5  C   UNL d   1       2.335  -0.292   0.049  0.00  0.00     0.060 A 
ATOM      6  C   UNL d   1       1.793   0.883   0.555  0.00  0.00     0.129 A 
ATOM      7  S   UNL d   1      -1.431  -0.695  -0.601  0.00  0.00    -0.064 SA
ATOM      8  C   UNL d   1      -0.665   1.522   0.547  0.00  0.00     0.106 A 
ATOM      9  C   UNL d   1      -1.772   0.895   0.109  0.00  0.00     0.071 A 
ENDROOT
BRANCH   5  10
ATOM     10  C   UNL d   1       3.753  -0.607   0.021  0.00  0.00    -0.008 A 
ATOM     11  C   UNL d   1       4.273  -1.392  -1.015  0.00  0.00     0.014 A 
ATOM     12  C   UNL d   1       5.644  -1.651  -1.088  0.00  0.00     0.001 A 
ATOM     13  C   UNL d   1       6.504  -1.139  -0.116  0.00  0.00     0.000 A 
ATOM     14  C   UNL d   1       5.993  -0.382   0.936  0.00  0.00     0.001 A 
ATOM     15  C   UNL d   1       4.624  -0.118   1.005  0.00  0.00     0.014 A 
ENDBRANCH   5  10
TORSDOF 1
