REMARK  9 active torsions:
REMARK  status: ('A' for Active; 'I' for Inactive)
REMARK    1  A    between atoms: C_9  and  C_3 
REMARK    2  A    between atoms: C_16  and  C_6 
REMARK    3  A    between atoms: C_7  and  C_10 
REMARK       I    between atoms: C_11  and  N_13 
REMARK    4  A    between atoms: C_26  and  C_11 
REMARK    5  A    between atoms: C_12  and  C_27 
REMARK    6  A    between atoms: O_25  and  C_12 
REMARK    7  A    between atoms: N_13  and  C_16 
REMARK    8  A    between atoms: S_24  and  C_26 
REMARK    9  A    between atoms: C_27  and  S_24 
ROOT
ATOM      1  N   UNL d   1       1.338   0.155  -0.132  0.00  0.00    -0.321 N 
ATOM      2  HN  UNL d   1       2.332   0.323  -0.287  1.00  0.00     0.169 HD
ATOM      3  C   UNL d   1       0.316   1.076  -0.014  0.00  0.00     0.137 A 
ATOM      4  N   UNL d   1      -0.896   0.517   0.145  0.00  0.00    -0.242 N 
ATOM      5  HN  UNL d   1      -1.798   0.985   0.234  1.00  0.00     0.196 HD
ATOM      6  C   UNL d   1       0.710  -0.992   0.005  0.00  0.00     0.166 A 
ATOM      7  O   UNL d   1      -0.636  -0.851   0.161  0.00  0.00    -0.221 OA
ENDROOT
BRANCH   6   8
ATOM      8  C   UNL d   1       1.249  -2.373   0.022  0.00  0.00     0.209 C 
BRANCH   8   9
ATOM      9  N   UNL d   1       1.275  -2.938  -1.314  0.00  0.00    -0.353 N 
ATOM     10  C   UNL d   1       1.802  -4.188  -1.530  0.00  0.00     0.227 C 
ATOM     11  O   UNL d   1       2.249  -4.902  -0.629  0.00  0.00    -0.273 OA
ATOM     12  H   UNL d   1       1.175  -2.310  -2.106  0.00  0.00     0.162 HD
BRANCH  10  13
ATOM     13  C   UNL d   1       1.865  -4.625  -2.982  0.00  0.00     0.177 C 
BRANCH  13  14
ATOM     14  S   UNL d   1       3.483  -4.198  -3.700  0.00  0.00    -0.149 SA
BRANCH  14  15
ATOM     15  C   UNL d   1       4.620  -5.103  -2.595  0.00  0.00     0.184 C 
BRANCH  15  16
ATOM     16  C   UNL d   1       4.362  -6.593  -2.579  0.00  0.00     0.149 C 
ATOM     17  O   UNL d   1       4.809  -7.373  -3.406  0.00  0.00    -0.649 OA
BRANCH  16  18
ATOM     18  O   UNL d   1       3.561  -7.005  -1.567  0.00  0.00    -0.776 OA
ATOM     19  H   UNL d   1       3.215  -6.289  -0.982  0.00  0.00     0.167 HD
ENDBRANCH  16  18
ENDBRANCH  15  16
ENDBRANCH  14  15
ENDBRANCH  13  14
ENDBRANCH  10  13
ENDBRANCH   8   9
ENDBRANCH   6   8
BRANCH   3  20
ATOM     20  C   UNL d   1       0.556   2.517  -0.037  0.00  0.00     0.010 A 
ATOM     21  C   UNL d   1       1.858   3.014  -0.192  0.00  0.00     0.016 A 
ATOM     22  C   UNL d   1       2.105   4.392  -0.194  0.00  0.00     0.017 A 
ATOM     23  C   UNL d   1       1.053   5.306  -0.041  0.00  0.00     0.048 A 
ATOM     24  C   UNL d   1      -0.251   4.811   0.110  0.00  0.00     0.017 A 
ATOM     25  C   UNL d   1      -0.496   3.433   0.112  0.00  0.00     0.016 A 
BRANCH  23  26
ATOM     26  C   UNL d   1       1.303   6.795  -0.035  0.00  0.00     0.417 C 
ATOM     27  F   UNL d   1       2.616   7.129  -0.176  0.00  0.00    -0.166 F 
ATOM     28  F   UNL d   1       0.644   7.437  -1.039  0.00  0.00    -0.166 F 
ATOM     29  F   UNL d   1       0.890   7.387   1.121  0.00  0.00    -0.166 F 
ENDBRANCH  23  26
ENDBRANCH   3  20
TORSDOF 9
