REMARK  3 active torsions:
REMARK  status: ('A' for Active; 'I' for Inactive)
REMARK    1  A    between atoms: C_9  and  C_3 
REMARK    2  A    between atoms: C_8  and  C_6 
REMARK    3  A    between atoms: C_14  and  C_10 
ROOT
ATOM      1  N   UNL d   1       1.259   0.142  -0.027  0.00  0.00    -0.319 N 
ATOM      2  HN  UNL d   1       2.267   0.272  -0.113  1.00  0.00     0.169 HD
ATOM      3  C   UNL d   1       0.283   1.111   0.032  0.00  0.00     0.138 A 
ATOM      4  N   UNL d   1      -0.957   0.617   0.141  0.00  0.00    -0.242 N 
ATOM      5  HN  UNL d   1      -1.836   1.131   0.199  1.00  0.00     0.196 HD
ATOM      6  C   UNL d   1       0.590  -0.995   0.053  0.00  0.00     0.171 A 
ATOM      7  O   UNL d   1      -0.765  -0.756   0.158  0.00  0.00    -0.218 OA
ENDROOT
BRANCH   6   8
ATOM      8  C   UNL d   1       1.114  -2.316   0.031  0.00  0.00     0.059 C 
ATOM      9  C   UNL d   1       2.429  -2.549  -0.109  0.00  0.00     0.015 C 
BRANCH   9  10
ATOM     10  C   UNL d   1       3.026  -3.893  -0.170  0.00  0.00    -0.036 A 
ATOM     11  C   UNL d   1       2.344  -4.994  -0.707  0.00  0.00     0.011 A 
ATOM     12  C   UNL d   1       2.959  -6.245  -0.787  0.00  0.00     0.001 A 
ATOM     13  C   UNL d   1       4.269  -6.409  -0.342  0.00  0.00     0.000 A 
ATOM     14  C   UNL d   1       4.964  -5.321   0.180  0.00  0.00     0.001 A 
ATOM     15  C   UNL d   1       4.348  -4.069   0.263  0.00  0.00     0.011 A 
ENDBRANCH   9  10
ENDBRANCH   6   8
BRANCH   3  16
ATOM     16  C   UNL d   1       0.594   2.536  -0.017  0.00  0.00     0.010 A 
ATOM     17  C   UNL d   1       1.925   2.965  -0.135  0.00  0.00     0.017 A 
ATOM     18  C   UNL d   1       2.233   4.329  -0.176  0.00  0.00     0.025 A 
ATOM     19  C   UNL d   1       1.212   5.272  -0.100  0.00  0.00     0.034 A 
ATOM     20  C   UNL d   1      -0.115   4.865   0.017  0.00  0.00     0.025 A 
ATOM     21 CL   UNL d   1       1.590   6.949  -0.149  0.00  0.00    -0.084 Cl
ATOM     22  C   UNL d   1      -0.423   3.501   0.057  0.00  0.00     0.017 A 
ENDBRANCH   3  16
TORSDOF 3
