REMARK  6 active torsions:
REMARK  status: ('A' for Active; 'I' for Inactive)
REMARK    1  A    between atoms: C_11  and  C_3 
REMARK    2  A    between atoms: C_17  and  C_6 
REMARK    3  A    between atoms: C_7  and  C_12 
REMARK       I    between atoms: C_9  and  N_14 
REMARK       I    between atoms: N_10  and  C_9 
REMARK    4  A    between atoms: C_13  and  N_10 
REMARK    5  A    between atoms: N_14  and  C_17 
REMARK    6  A    between atoms: O_25  and  C_16 
ROOT
ATOM      1  N   UNL d   1       0.465  -0.035  -0.342  0.00  0.00    -0.321 N 
ATOM      2  HN  UNL d   1       0.776  -0.155  -1.306  1.00  0.00     0.169 HD
ATOM      3  C   UNL d   1      -0.150   1.057   0.239  0.00  0.00     0.137 A 
ATOM      4  N   UNL d   1      -0.413   0.896   1.549  0.00  0.00    -0.242 N 
ATOM      5  HN  UNL d   1      -0.850   1.560   2.188  1.00  0.00     0.196 HD
ATOM      6  C   UNL d   1       0.548  -0.881   0.662  0.00  0.00     0.166 A 
ATOM      7  O   UNL d   1       0.050  -0.384   1.828  0.00  0.00    -0.221 OA
ENDROOT
BRANCH   6   8
ATOM      8  C   UNL d   1       1.095  -2.258   0.714  0.00  0.00     0.211 C 
BRANCH   8   9
ATOM      9  N   UNL d   1       2.537  -2.199   0.851  0.00  0.00    -0.335 N 
ATOM     10  C   UNL d   1       3.194  -3.085   1.669  0.00  0.00     0.321 C 
ATOM     11  N   UNL d   1       4.542  -2.825   1.700  0.00  0.00    -0.306 N 
ATOM     12  O   UNL d   1       2.604  -3.936   2.322  0.00  0.00    -0.247 OA
ATOM     13  H   UNL d   1       4.831  -1.915   1.372  0.00  0.00     0.171 HD
ATOM     14  H   UNL d   1       3.057  -1.814   0.074  0.00  0.00     0.164 HD
BRANCH  11  15
ATOM     15  C   UNL d   1       5.492  -3.512   2.485  0.00  0.00     0.069 A 
ATOM     16  C   UNL d   1       6.644  -2.830   2.911  0.00  0.00     0.095 A 
ATOM     17  C   UNL d   1       7.644  -3.502   3.620  0.00  0.00     0.039 A 
ATOM     18  C   UNL d   1       7.488  -4.854   3.931  0.00  0.00     0.003 A 
ATOM     19  C   UNL d   1       6.340  -5.532   3.529  0.00  0.00     0.002 A 
ATOM     20  C   UNL d   1       5.343  -4.864   2.813  0.00  0.00     0.032 A 
BRANCH  16  21
ATOM     21  O   UNL d   1       6.870  -1.506   2.627  0.00  0.00    -0.354 OA
ATOM     22  C   UNL d   1       5.948  -0.635   3.288  0.00  0.00     0.210 C 
ENDBRANCH  16  21
ENDBRANCH  11  15
ENDBRANCH   8   9
ENDBRANCH   6   8
BRANCH   3  23
ATOM     23  C   UNL d   1      -0.481   2.267  -0.507  0.00  0.00     0.010 A 
ATOM     24  C   UNL d   1      -0.170   2.369  -1.872  0.00  0.00     0.016 A 
ATOM     25  C   UNL d   1      -0.474   3.533  -2.590  0.00  0.00     0.017 A 
ATOM     26  C   UNL d   1      -1.098   4.617  -1.960  0.00  0.00     0.048 A 
ATOM     27  C   UNL d   1      -1.418   4.512  -0.597  0.00  0.00     0.017 A 
ATOM     28  C   UNL d   1      -1.113   3.351   0.119  0.00  0.00     0.016 A 
BRANCH  26  29
ATOM     29  C   UNL d   1      -1.422   5.885  -2.713  0.00  0.00     0.417 C 
ATOM     30  F   UNL d   1      -1.049   5.852  -4.023  0.00  0.00    -0.166 F 
ATOM     31  F   UNL d   1      -2.755   6.167  -2.711  0.00  0.00    -0.166 F 
ATOM     32  F   UNL d   1      -0.810   6.978  -2.179  0.00  0.00    -0.166 F 
ENDBRANCH  26  29
ENDBRANCH   3  23
TORSDOF 6
