REMARK  8 active torsions:
REMARK  status: ('A' for Active; 'I' for Inactive)
REMARK    1  A    between atoms: C_8  and  C_1 
REMARK    2  A    between atoms: C_12  and  N_6 
REMARK    3  A    between atoms: N_9  and  C_10 
REMARK       I    between atoms: C_14  and  N_9 
REMARK    4  A    between atoms: C_10  and  N_19 
REMARK    5  A    between atoms: C_13  and  C_12 
REMARK       I    between atoms: N_20  and  C_13 
REMARK    6  A    between atoms: C_17  and  C_14 
REMARK    7  A    between atoms: C_18  and  C_17 
REMARK    8  A    between atoms: N_19  and  N_20 
ROOT
ATOM      1  C   UNL d   1       1.534  -0.089   1.336  0.00  0.00     0.257 C 
ATOM      2  N   UNL d   1       1.978  -1.395   1.173  0.00  0.00    -0.266 N 
ATOM      3  O   UNL d   1       0.917   0.521   0.465  0.00  0.00    -0.270 OA
ATOM      4  H   UNL d   1       2.710  -1.760   1.782  0.00  0.00     0.190 HD
ENDROOT
BRANCH   1   5
ATOM      5  C   UNL d   1       1.908   0.532   2.665  0.00  0.00     0.271 C 
BRANCH   5   6
ATOM      6  N   UNL d   1       3.227   1.107   2.550  0.00  0.00    -0.207 N 
ATOM      7  N   UNL d   1       4.264   0.333   2.173  0.00  0.00    -0.268 N 
ATOM      8  C   UNL d   1       5.026   1.252   1.546  0.00  0.00     0.146 C 
ATOM      9  HN  UNL d   1       4.426  -0.663   2.320  1.00  0.00     0.190 HD
ATOM     10  N   UNL d   1       4.557   2.530   1.741  0.00  0.00    -0.266 N 
ATOM     11  N   UNL d   1       3.417   2.427   2.411  0.00  0.00    -0.002 NA
ATOM     12  HN  UNL d   1       5.003   3.393   1.430  1.00  0.00     0.186 HD
BRANCH   8  13
ATOM     13  C   UNL d   1       6.019   0.891   0.540  0.00  0.00     0.034 A 
ATOM     14  C   UNL d   1       7.068   1.731   0.129  0.00  0.00     0.069 A 
ATOM     15  C   UNL d   1       7.877   1.335  -0.955  0.00  0.00     0.056 A 
ATOM     16 CL   UNL d   1       7.404   3.224   0.950  0.00  0.00    -0.082 Cl
ATOM     17 CL   UNL d   1       9.171   2.316  -1.560  0.00  0.00    -0.083 Cl
ATOM     18  C   UNL d   1       7.660   0.118  -1.608  0.00  0.00     0.026 A 
ATOM     19  C   UNL d   1       6.645  -0.733  -1.184  0.00  0.00     0.003 A 
ATOM     20  C   UNL d   1       5.837  -0.345  -0.119  0.00  0.00     0.017 A 
ENDBRANCH   8  13
ENDBRANCH   5   6
ENDBRANCH   1   5
BRANCH   2  21
ATOM     21  N   UNL d   1       1.935  -1.959  -0.115  0.00  0.00    -0.273 N 
ATOM     22  H   UNL d   1       1.747  -1.322  -0.900  0.00  0.00     0.189 HD
BRANCH  21  23
ATOM     23  C   UNL d   1       1.927  -3.318  -0.305  0.00  0.00     0.193 C 
ATOM     24  S   UNL d   1       1.962  -4.463   0.917  0.00  0.00    -0.039 SA
BRANCH  23  25
ATOM     25  N   UNL d   1       1.966  -3.765  -1.608  0.00  0.00    -0.299 N 
ATOM     26  C   UNL d   1       2.052  -3.005  -2.760  0.00  0.00     0.247 C 
ATOM     27  O   UNL d   1       1.887  -1.793  -2.800  0.00  0.00    -0.268 OA
ATOM     28  H   UNL d   1       2.022  -4.771  -1.688  0.00  0.00     0.171 HD
BRANCH  26  29
ATOM     29  C   UNL d   1       2.373  -3.810  -3.967  0.00  0.00     0.076 C 
BRANCH  29  30
ATOM     30  C   UNL d   1       2.241  -3.245  -5.178  0.00  0.00     0.024 C 
ATOM     31  C   UNL d   1       2.638  -3.892  -6.385  0.00  0.00     0.004 A 
ATOM     32  S   UNL d   1       2.211  -3.151  -7.888  0.00  0.00    -0.102 SA
ATOM     33  C   UNL d   1       3.369  -5.047  -6.617  0.00  0.00     0.019 A 
ATOM     34  C   UNL d   1       3.026  -4.338  -8.802  0.00  0.00     0.050 A 
ATOM     35  C   UNL d   1       3.602  -5.297  -8.004  0.00  0.00     0.008 A 
ENDBRANCH  29  30
ENDBRANCH  26  29
ENDBRANCH  23  25
ENDBRANCH  21  23
ENDBRANCH   2  21
TORSDOF 8
