REMARK  4 active torsions:
REMARK  status: ('A' for Active; 'I' for Inactive)
REMARK    1  A    between atoms: C_2  and  S_1 
REMARK    2  A    between atoms: N_7  and  S_1 
REMARK    3  A    between atoms: C_8  and  C_3 
REMARK    4  A    between atoms: O_12  and  C_8 
ROOT
ATOM      1  C   UNL d   1       0.416   0.404  -1.577  0.00  0.00     0.186 A 
ATOM      2  C   UNL d   1      -0.157   1.445  -3.526  0.00  0.00     0.072 A 
ATOM      3  C   UNL d   1       0.336   1.641  -2.203  0.00  0.00     0.071 A 
ATOM      4  O   UNL d   1      -0.042  -0.543  -2.467  0.00  0.00    -0.301 OA
ATOM      5  C   UNL d   1      -0.372   0.083  -3.628  0.00  0.00     0.067 A 
ATOM      6  C   UNL d   1      -0.848  -0.801  -4.716  0.00  0.00     0.078 C 
ENDROOT
BRANCH   1   7
ATOM      7  S   UNL d   1       1.012  -0.053   0.050  0.00  0.00     0.266 S 
ATOM      8  O   UNL d   1      -0.123  -0.636   0.736  0.00  0.00    -0.204 OA
ATOM      9  O   UNL d   1       1.663   1.140   0.547  0.00  0.00    -0.204 OA
BRANCH   7  10
ATOM     10  N   UNL d   1       2.201  -1.259  -0.150  0.00  0.00    -0.205 NA
ATOM     11  C   UNL d   1       1.714  -2.579  -0.630  0.00  0.00     0.107 C 
ATOM     12  C   UNL d   1       1.792  -3.480   0.589  0.00  0.00     0.017 C 
ATOM     13  C   UNL d   1       3.058  -3.005   1.270  0.00  0.00     0.017 C 
ATOM     14  C   UNL d   1       3.041  -1.496   1.059  0.00  0.00     0.107 C 
ENDBRANCH   7  10
ENDBRANCH   1   7
BRANCH   2  15
ATOM     15  C   UNL d   1      -0.374   2.423  -4.577  0.00  0.00     0.295 C 
ATOM     16  O   UNL d   1      -0.800   2.142  -5.690  0.00  0.00    -0.259 OA
BRANCH  15  17
ATOM     17  O   UNL d   1      -0.036   3.686  -4.178  0.00  0.00    -0.322 OA
ATOM     18  C   UNL d   1      -0.201   4.684  -5.186  0.00  0.00     0.213 C 
ENDBRANCH  15  17
ENDBRANCH   2  15
TORSDOF 4
