REMARK  2 active torsions:
REMARK  status: ('A' for Active; 'I' for Inactive)
REMARK       I    between atoms: N_2  and  C_1 
REMARK    1  A    between atoms: C_3  and  C_1 
REMARK       I    between atoms: C_4  and  N_2 
REMARK       I    between atoms: N_6  and  C_4 
REMARK    2  A    between atoms: C_12  and  N_6 
ROOT
ATOM      1  C   UNL d   1       2.708  -6.504  -3.391  0.00  0.00    -0.078 C 
ATOM      2  C   UNL d   1       2.132  -7.355  -4.005  0.00  0.00     0.018 C 
ATOM      3  C   UNL d   1       3.066  -3.383  -1.398  0.00  0.00     0.037 A 
ATOM      4  C   UNL d   1       3.312  -5.475  -2.601  0.00  0.00     0.019 A 
ATOM      5  C   UNL d   1       2.557  -4.347  -2.271  0.00  0.00     0.050 A 
ATOM      6  C   UNL d   1       5.146  -4.631  -1.286  0.00  0.00     0.004 A 
ATOM      7  C   UNL d   1       4.380  -3.514  -0.936  0.00  0.00     0.029 A 
ATOM      8  C   UNL d   1       4.605  -5.620  -2.108  0.00  0.00     0.021 A 
ENDROOT
BRANCH   3   9
ATOM      9  N   UNL d   1       2.296  -2.300  -0.930  0.00  0.00    -0.309 N 
ATOM     10  C   UNL d   1       0.933  -2.183  -0.993  0.00  0.00     0.327 C 
ATOM     11  N   UNL d   1       0.404  -1.032  -0.455  0.00  0.00    -0.275 N 
ATOM     12  O   UNL d   1       0.141  -2.998  -1.460  0.00  0.00    -0.247 OA
ATOM     13  C   UNL d   1       1.041  -0.033   0.258  0.00  0.00     0.265 C 
ATOM     14  H   UNL d   1      -0.600  -0.994  -0.582  0.00  0.00     0.173 HD
ATOM     15  O   UNL d   1       2.244  -0.055   0.497  0.00  0.00    -0.267 OA
ATOM     16  H   UNL d   1       2.766  -1.606  -0.348  0.00  0.00     0.170 HD
BRANCH  13  17
ATOM     17  C   UNL d   1       0.194   1.092   0.725  0.00  0.00     0.109 A 
ATOM     18  C   UNL d   1       0.631   1.894   1.779  0.00  0.00     0.135 A 
ATOM     19  F   UNL d   1       1.763   1.618   2.442  0.00  0.00    -0.205 F 
ATOM     20  C   UNL d   1      -0.111   2.999   2.200  0.00  0.00     0.043 A 
ATOM     21  C   UNL d   1      -1.311   3.318   1.565  0.00  0.00     0.006 A 
ATOM     22  C   UNL d   1      -1.773   2.514   0.526  0.00  0.00     0.043 A 
ATOM     23  C   UNL d   1      -1.023   1.410   0.117  0.00  0.00     0.135 A 
ATOM     24  F   UNL d   1      -1.508   0.660  -0.884  0.00  0.00    -0.205 F 
ENDBRANCH  13  17
ENDBRANCH   3   9
TORSDOF 2
