REMARK  9 active torsions:
REMARK  status: ('A' for Active; 'I' for Inactive)
REMARK    1  A    between atoms: N_5  and  C_1 
REMARK    2  A    between atoms: C_11  and  C_2 
REMARK    3  A    between atoms: O_17  and  C_3 
REMARK       I    between atoms: C_4  and  N_5 
REMARK    4  A    between atoms: C_6  and  C_4 
REMARK    5  A    between atoms: O_18  and  C_7 
REMARK    6  A    between atoms: O_12  and  C_8 
REMARK    7  A    between atoms: O_20  and  C_10 
REMARK    8  A    between atoms: O_19  and  C_11 
REMARK    9  A    between atoms: C_21  and  O_12 
ROOT
ATOM      1  C   UNL d   1       2.688  -2.032   1.333  0.00  0.00     0.260 C 
ATOM      2  N   UNL d   1       2.644  -0.862   0.573  0.00  0.00    -0.319 N 
ATOM      3  O   UNL d   1       1.702  -2.697   1.628  0.00  0.00    -0.267 OA
ATOM      4  H   UNL d   1       3.343  -0.172   0.813  0.00  0.00     0.169 HD
ENDROOT
BRANCH   2   5
ATOM      5  C   UNL d   1       1.403  -0.363   0.073  0.00  0.00     0.088 C 
ATOM      6  C   UNL d   1       0.438  -1.184  -0.534  0.00  0.00     0.071 C 
ATOM      7  C   UNL d   1      -0.870  -0.704  -0.688  0.00  0.00     0.059 C 
ATOM      8  C   UNL d   1      -1.230   0.588  -0.289  0.00  0.00     0.105 C 
ATOM      9  C   UNL d   1      -0.233   1.469   0.161  0.00  0.00     0.137 C 
ATOM     10  C   UNL d   1       1.096   0.999   0.294  0.00  0.00     0.132 C 
BRANCH   6  11
ATOM     11  C   UNL d   1       0.824  -2.459  -1.207  0.00  0.00     0.295 C 
ATOM     12  O   UNL d   1       1.950  -2.702  -1.615  0.00  0.00    -0.259 OA
BRANCH  11  13
ATOM     13  O   UNL d   1      -0.279  -3.219  -1.438  0.00  0.00    -0.322 OA
ATOM     14  C   UNL d   1      -0.066  -4.322  -2.318  0.00  0.00     0.213 C 
ENDBRANCH  11  13
ENDBRANCH   6  11
BRANCH   8  15
ATOM     15  O   UNL d   1      -2.568   0.817  -0.469  0.00  0.00    -0.353 OA
ATOM     16  C   UNL d   1      -3.167   1.952   0.136  0.00  0.00     0.210 C 
ENDBRANCH   8  15
BRANCH   9  17
ATOM     17  O   UNL d   1      -0.619   2.721   0.567  0.00  0.00    -0.351 OA
ATOM     18  C   UNL d   1       0.111   3.803   0.005  0.00  0.00     0.210 C 
ENDBRANCH   9  17
BRANCH  10  19
ATOM     19  O   UNL d   1       2.071   1.839   0.789  0.00  0.00    -0.351 OA
ATOM     20  C   UNL d   1       3.080   2.131  -0.187  0.00  0.00     0.210 C 
ENDBRANCH  10  19
ENDBRANCH   2   5
BRANCH   1  21
ATOM     21  C   UNL d   1       4.031  -2.445   1.820  0.00  0.00     0.083 A 
ATOM     22  C   UNL d   1       4.208  -3.106   3.039  0.00  0.00     0.163 A 
ATOM     23  N   UNL d   1       5.417  -3.574   3.457  0.00  0.00    -0.346 N 
ATOM     24  C   UNL d   1       6.468  -3.423   2.627  0.00  0.00     0.090 A 
ATOM     25  HN  UNL d   1       5.524  -4.022   4.367  1.00  0.00     0.167 HD
ATOM     26  C   UNL d   1       6.391  -2.777   1.409  0.00  0.00     0.018 A 
ATOM     27  C   UNL d   1       5.156  -2.275   1.001  0.00  0.00     0.023 A 
BRANCH  22  28
ATOM     28  O   UNL d   1       3.135  -3.200   3.920  0.00  0.00    -0.293 OA
BRANCH  28  29
ATOM     29  C   UNL d   1       3.198  -4.158   4.906  0.00  0.00     0.077 A 
ATOM     30  C   UNL d   1       2.979  -3.758   6.226  0.00  0.00     0.037 A 
ATOM     31  C   UNL d   1       2.982  -4.704   7.252  0.00  0.00     0.003 A 
ATOM     32  C   UNL d   1       3.192  -6.048   6.967  0.00  0.00     0.000 A 
ATOM     33  C   UNL d   1       3.394  -6.458   5.644  0.00  0.00     0.003 A 
ATOM     34  C   UNL d   1       3.388  -5.511   4.613  0.00  0.00     0.037 A 
ENDBRANCH  28  29
ENDBRANCH  22  28
ENDBRANCH   1  21
TORSDOF 9
