REMARK  4 active torsions:
REMARK  status: ('A' for Active; 'I' for Inactive)
REMARK    1  A    between atoms: C_4  and  N_1 
REMARK    2  A    between atoms: C_14  and  C_3 
REMARK    3  A    between atoms: O_22  and  C_14 
REMARK    4  A    between atoms: C_24  and  O_22 
ROOT
ATOM      1  N   UNL d   1       1.279  -1.542  -0.489  0.00  0.00    -0.222 N 
ATOM      2  C   UNL d   1       1.482  -0.162  -0.384  0.00  0.00     0.140 C 
ATOM      3  C   UNL d   1       0.226   0.399  -0.228  0.00  0.00     0.101 C 
ATOM      4  N   UNL d   1      -0.005  -1.881  -0.186  0.00  0.00    -0.301 N 
ATOM      5  HN  UNL d   1      -0.392  -2.813  -0.042  1.00  0.00     0.186 HD
ATOM      6  C   UNL d   1      -0.638  -0.709  -0.122  0.00  0.00     0.129 C 
ATOM      7  N   UNL d   1       2.710   0.411  -0.450  0.00  0.00    -0.383 N 
ATOM      8  H   UNL d   1       3.497  -0.127  -0.824  0.00  0.00     0.157 HD
ATOM      9  H   UNL d   1       2.805   1.419  -0.571  0.00  0.00     0.157 HD
ENDROOT
BRANCH   1  10
ATOM     10  C   UNL d   1       2.182  -2.508  -1.022  0.00  0.00     0.145 C 
ATOM     11  C   UNL d   1       1.898  -3.876  -0.971  0.00  0.00     0.072 C 
ATOM     12  C   UNL d   1       2.647  -4.690  -1.803  0.00  0.00     0.138 C 
ATOM     13  C   UNL d   1       1.018  -4.766  -0.315  0.00  0.00     0.126 C 
ATOM     14  N   UNL d   1       2.089  -5.936  -1.702  0.00  0.00    -0.281 N 
ATOM     15  N   UNL d   1       3.662  -4.316  -2.602  0.00  0.00    -0.337 N 
ATOM     16  C   UNL d   1       2.333  -7.048  -2.586  0.00  0.00     0.179 C 
ATOM     17  N   UNL d   1       1.149  -6.030  -0.736  0.00  0.00    -0.307 N 
ATOM     18  HN  UNL d   1       0.658  -6.862  -0.408  1.00  0.00     0.186 HD
ATOM     19  C   UNL d   1       3.927  -3.004  -2.485  0.00  0.00     0.183 C 
ATOM     20  HN  UNL d   1       4.168  -4.950  -3.220  1.00  0.00     0.168 HD
ATOM     21  N   UNL d   1       3.268  -2.090  -1.746  0.00  0.00    -0.336 N 
ATOM     22  HN  UNL d   1       3.568  -1.116  -1.727  1.00  0.00     0.168 HD
ENDBRANCH   1  10
BRANCH   3  23
ATOM     23  C   UNL d   1      -0.169   1.797  -0.161  0.00  0.00     0.298 C 
ATOM     24  O   UNL d   1      -1.337   2.139  -0.009  0.00  0.00    -0.259 OA
BRANCH  23  25
ATOM     25  O   UNL d   1       0.876   2.666  -0.290  0.00  0.00    -0.318 OA
BRANCH  25  26
ATOM     26  C   UNL d   1       0.559   4.051  -0.080  0.00  0.00     0.174 C 
ATOM     27  C   UNL d   1       0.106   4.716  -1.366  0.00  0.00     0.034 C 
ENDBRANCH  25  26
ENDBRANCH  23  25
ENDBRANCH   3  23
TORSDOF 4
