REMARK  2 active torsions:
REMARK  status: ('A' for Active; 'I' for Inactive)
REMARK    1  A    between atoms: C_11  and  C_4 
REMARK    2  A    between atoms: O_17  and  C_12 
ROOT
ATOM      1  C   UNL d   1      -0.705  -0.863   0.020  0.00  0.00     0.058 C 
ATOM      2  C   UNL d   1       0.744  -1.307   0.094  0.00  0.00     0.174 C 
ATOM      3  N   UNL d   1      -0.793   0.546  -0.027  0.00  0.00    -0.280 NA
ATOM      4  C   UNL d   1      -1.696  -1.763   0.022  0.00  0.00     0.038 C 
ATOM      5  C   UNL d   1       1.674  -0.092   0.134  0.00  0.00     0.064 C 
ATOM      6  C   UNL d   1      -0.234   1.181   1.204  0.00  0.00     0.096 C 
ATOM      7  C   UNL d   1      -0.092   1.122  -1.212  0.00  0.00     0.096 C 
ATOM      8  O   UNL d   1       1.121  -2.470   0.113  0.00  0.00    -0.291 OA
ATOM      9  C   UNL d   1       1.401   0.727  -1.144  0.00  0.00     0.027 C 
ATOM     10  C   UNL d   1       1.243   0.747   1.355  0.00  0.00     0.027 C 
ENDROOT
BRANCH   4  11
ATOM     11  C   UNL d   1      -3.107  -1.390  -0.090  0.00  0.00    -0.034 A 
ATOM     12  C   UNL d   1      -3.699  -1.290  -1.353  0.00  0.00     0.014 A 
ATOM     13  C   UNL d   1      -5.045  -0.922  -1.481  0.00  0.00     0.037 A 
ATOM     14  C   UNL d   1      -5.809  -0.649  -0.348  0.00  0.00     0.068 A 
ATOM     15  C   UNL d   1      -5.219  -0.755   0.915  0.00  0.00     0.037 A 
ATOM     16  C   UNL d   1      -3.875  -1.121   1.046  0.00  0.00     0.014 A 
BRANCH  14  17
ATOM     17  O   UNL d   1      -7.124  -0.268  -0.343  0.00  0.00    -0.356 OA
ATOM     18  C   UNL d   1      -7.755  -0.143  -1.613  0.00  0.00     0.210 C 
ENDBRANCH  14  17
ENDBRANCH   4  11
TORSDOF 2
