REMARK  4 active torsions:
REMARK  status: ('A' for Active; 'I' for Inactive)
REMARK    1  A    between atoms: C_11  and  C_3 
REMARK    2  A    between atoms: C_14  and  C_4 
REMARK    3  A    between atoms: N_5  and  C_10 
REMARK    4  A    between atoms: N_8  and  C_12 
ROOT
ATOM      1  N   UNL d   1       1.294   0.118  -0.004  0.00  0.00    -0.319 N 
ATOM      2  HN  UNL d   1       2.307   0.240  -0.001  1.00  0.00     0.169 HD
ATOM      3  C   UNL d   1       0.311   1.084  -0.015  0.00  0.00     0.138 A 
ATOM      4  C   UNL d   1       0.602  -0.998   0.001  0.00  0.00     0.182 A 
ATOM      5  N   UNL d   1      -0.938   0.591  -0.025  0.00  0.00    -0.242 N 
ATOM      6  HN  UNL d   1      -1.819   1.105  -0.037  1.00  0.00     0.196 HD
ATOM      7  O   UNL d   1      -0.747  -0.788  -0.014  0.00  0.00    -0.217 OA
ENDROOT
BRANCH   3   8
ATOM      8  C   UNL d   1       0.626   2.507   0.003  0.00  0.00     0.012 A 
ATOM      9  C   UNL d   1       1.964   2.927  -0.018  0.00  0.00     0.051 A 
ATOM     10  C   UNL d   1       2.267   4.295   0.020  0.00  0.00     0.103 A 
ATOM     11  C   UNL d   1       1.247   5.253   0.077  0.00  0.00     0.036 A 
ATOM     12  C   UNL d   1      -0.084   4.837   0.092  0.00  0.00     0.003 A 
ATOM     13  C   UNL d   1      -0.392   3.474   0.054  0.00  0.00     0.015 A 
BRANCH  10  14
ATOM     14  N   UNL d   1       3.671   4.725   0.005  0.00  0.00    -0.116 N 
ATOM     15  O   UNL d   1       4.543   3.847  -0.039  0.00  0.00    -0.532 OA
ATOM     16  O   UNL d   1       3.900   5.943   0.039  0.00  0.00    -0.532 OA
ENDBRANCH  10  14
ENDBRANCH   3   8
BRANCH   4  17
ATOM     17  C   UNL d   1       1.058  -2.382   0.039  0.00  0.00     0.017 A 
ATOM     18  C   UNL d   1       2.435  -2.662   0.095  0.00  0.00     0.018 A 
ATOM     19  C   UNL d   1       2.900  -3.981   0.148  0.00  0.00     0.037 A 
ATOM     20  C   UNL d   1       1.980  -5.036   0.145  0.00  0.00     0.102 A 
ATOM     21  C   UNL d   1       0.606  -4.778   0.085  0.00  0.00     0.037 A 
ATOM     22  C   UNL d   1       0.153  -3.456   0.032  0.00  0.00     0.018 A 
BRANCH  20  23
ATOM     23  N   UNL d   1       2.455  -6.424   0.210  0.00  0.00    -0.116 N 
ATOM     24  O   UNL d   1       3.679  -6.611   0.264  0.00  0.00    -0.532 OA
ATOM     25  O   UNL d   1       1.604  -7.324   0.208  0.00  0.00    -0.532 OA
ENDBRANCH  20  23
ENDBRANCH   4  17
TORSDOF 4
