REMARK  3 active torsions:
REMARK  status: ('A' for Active; 'I' for Inactive)
REMARK    1  A    between atoms: N_11  and  C_3 
REMARK    2  A    between atoms: C_15  and  N_11 
REMARK    3  A    between atoms: C_16  and  C_15 
ROOT
ATOM      1  C   UNL d   1       0.539  -0.650   0.298  0.00  0.00     0.049 A 
ATOM      2  C   UNL d   1       1.109   0.620   0.314  0.00  0.00     0.089 A 
ATOM      3  C   UNL d   1       1.470  -1.720   0.207  0.00  0.00     0.116 A 
ATOM      4  S   UNL d   1      -0.023   1.887   0.321  0.00  0.00    -0.075 SA
ATOM      5  C   UNL d   1      -0.914  -0.529   0.391  0.00  0.00    -0.028 A 
ATOM      6  C   UNL d   1      -1.317   0.798   0.320  0.00  0.00    -0.008 A 
ATOM      7  N   UNL d   1       2.412   0.934   0.298  0.00  0.00    -0.346 N 
ATOM      8  HN  UNL d   1       2.766   1.891   0.323  1.00  0.00     0.167 HD
ATOM      9  N   UNL d   1       2.793  -1.413   0.196  0.00  0.00    -0.338 N 
ATOM     10  HN  UNL d   1       3.488  -2.158   0.147  1.00  0.00     0.168 HD
ATOM     11  C   UNL d   1       3.187  -0.135   0.249  0.00  0.00     0.182 A 
ATOM     12  C   UNL d   1      -1.944  -1.612   0.549  0.00  0.00     0.041 C 
ATOM     13  C   UNL d   1      -2.727   1.294   0.220  0.00  0.00     0.047 C 
ATOM     14  C   UNL d   1      -3.334  -1.166   0.061  0.00  0.00     0.005 C 
ATOM     15  C   UNL d   1      -3.728   0.207   0.621  0.00  0.00     0.005 C 
ENDROOT
BRANCH   3  16
ATOM     16  N   UNL d   1       1.145  -3.068   0.093  0.00  0.00    -0.371 N 
ATOM     17  H   UNL d   1       0.195  -3.336   0.296  0.00  0.00     0.161 HD
BRANCH  16  18
ATOM     18  C   UNL d   1       2.198  -4.065   0.316  0.00  0.00     0.078 C 
ATOM     19  C   UNL d   1       1.804  -5.393  -0.324  0.00  0.00     0.032 C 
BRANCH  18  20
ATOM     20  C   UNL d   1       2.530  -4.222   1.814  0.00  0.00     0.020 C 
ATOM     21  C   UNL d   1       1.351  -4.584   2.705  0.00  0.00     0.007 C 
ENDBRANCH  18  20
ENDBRANCH  16  18
ENDBRANCH   3  16
TORSDOF 3
