REMARK  2 active torsions:
REMARK  status: ('A' for Active; 'I' for Inactive)
REMARK    1  A    between atoms: C_2  and  C_1 
REMARK    2  A    between atoms: C_8  and  C_5 
ROOT
ATOM      1  N   UNL d   1      -0.930   2.762  -4.237  0.00  0.00    -0.192 NA
ATOM      2  C   UNL d   1      -0.549   1.762  -3.786  0.00  0.00     0.087 C 
ATOM      3  C   UNL d   1      -0.072   0.529  -3.256  0.00  0.00     0.094 C 
ATOM      4  C   UNL d   1      -0.598  -0.036  -2.158  0.00  0.00     0.023 C 
ENDROOT
BRANCH   4   5
ATOM      5  C   UNL d   1      -0.100  -1.308  -1.613  0.00  0.00    -0.021 A 
ATOM      6  C   UNL d   1       0.843  -1.390  -0.570  0.00  0.00     0.059 A 
ATOM      7  C   UNL d   1       1.251  -2.665  -0.114  0.00  0.00     0.036 A 
ATOM      8  C   UNL d   1       0.739  -3.827  -0.682  0.00  0.00     0.011 A 
ATOM      9  C   UNL d   1      -0.187  -3.748  -1.713  0.00  0.00     0.020 A 
ATOM     10 BR   UNL d   1       1.307  -5.514  -0.048  0.00  0.00    -0.051 Br
ATOM     11  C   UNL d   1      -0.604  -2.495  -2.175  0.00  0.00     0.013 A 
BRANCH   6  12
ATOM     12  C   UNL d   1       1.468  -0.196   0.114  0.00  0.00     0.418 C 
ATOM     13  F   UNL d   1       1.062   1.020  -0.338  0.00  0.00    -0.166 F 
ATOM     14  F   UNL d   1       2.826  -0.199  -0.009  0.00  0.00    -0.166 F 
ATOM     15  F   UNL d   1       1.221  -0.192   1.455  0.00  0.00    -0.166 F 
ENDBRANCH   6  12
ENDBRANCH   4   5
TORSDOF 2
