REMARK  6 active torsions:
REMARK  status: ('A' for Active; 'I' for Inactive)
REMARK    1  A    between atoms: C_8  and  N_1 
REMARK    2  A    between atoms: C_10  and  C_2 
REMARK    3  A    between atoms: C_3  and  C_11 
REMARK    4  A    between atoms: O_6  and  C_3 
REMARK    5  A    between atoms: C_4  and  O_6 
REMARK    6  A    between atoms: C_13  and  C_7 
ROOT
ATOM      1  C   UNL d   1      -2.915   1.444   3.496  0.00  0.00    -0.016 C 
ATOM      2  C   UNL d   1      -3.792   2.399   2.948  0.00  0.00     0.086 C 
ATOM      3  C   UNL d   1      -3.391   0.106   3.511  0.00  0.00     0.018 C 
ATOM      4  C   UNL d   1      -4.696  -0.270   3.121  0.00  0.00    -0.050 C 
ATOM      5  C   UNL d   1      -5.119   2.064   2.630  0.00  0.00     0.038 C 
ATOM      6  C   UNL d   1      -5.569   0.756   2.747  0.00  0.00     0.011 C 
ENDROOT
BRANCH   2   7
ATOM      7  O   UNL d   1      -3.301   3.628   2.448  0.00  0.00    -0.274 OA
BRANCH   7   8
ATOM      8  C   UNL d   1      -4.107   4.739   2.608  0.00  0.00     0.298 C 
ATOM      9  O   UNL d   1      -4.858   4.957   3.545  0.00  0.00    -0.259 OA
BRANCH   8  10
ATOM     10  C   UNL d   1      -3.986   5.669   1.446  0.00  0.00     0.040 A 
ATOM     11  C   UNL d   1      -3.383   5.302   0.233  0.00  0.00     0.020 A 
ATOM     12  C   UNL d   1      -3.302   6.220  -0.825  0.00  0.00     0.037 A 
ATOM     13  C   UNL d   1      -3.832   7.508  -0.671  0.00  0.00     0.102 A 
ATOM     14  C   UNL d   1      -4.482   7.869   0.515  0.00  0.00     0.037 A 
ATOM     15  C   UNL d   1      -4.562   6.946   1.564  0.00  0.00     0.020 A 
BRANCH  13  16
ATOM     16  N   UNL d   1      -3.684   8.498  -1.750  0.00  0.00    -0.116 N 
ATOM     17  O   UNL d   1      -4.084   9.650  -1.532  0.00  0.00    -0.532 OA
ATOM     18  O   UNL d   1      -3.156   8.122  -2.805  0.00  0.00    -0.532 OA
ENDBRANCH  13  16
ENDBRANCH   8  10
ENDBRANCH   7   8
ENDBRANCH   2   7
BRANCH   1  19
ATOM     19  C   UNL d   1      -1.507   1.758   4.052  0.00  0.00    -0.021 C 
ATOM     20  C   UNL d   1      -1.383   3.183   4.638  0.00  0.00     0.019 C 
ATOM     21  C   UNL d   1      -1.126   0.810   5.228  0.00  0.00     0.019 C 
ATOM     22  C   UNL d   1      -0.452   1.579   2.945  0.00  0.00     0.019 C 
ENDBRANCH   1  19
BRANCH   4  23
ATOM     23  C   UNL d   1      -5.105  -1.748   2.970  0.00  0.00    -0.024 C 
ATOM     24  C   UNL d   1      -4.686  -2.188   1.551  0.00  0.00     0.019 C 
ATOM     25  C   UNL d   1      -4.422  -2.677   3.998  0.00  0.00     0.019 C 
ATOM     26  C   UNL d   1      -6.628  -1.982   3.113  0.00  0.00     0.019 C 
ENDBRANCH   4  23
TORSDOF 6
