REMARK  7 active torsions:
REMARK  status: ('A' for Active; 'I' for Inactive)
REMARK    1  A    between atoms: C_5  and  C_1 
REMARK    2  A    between atoms: O_7  and  C_2 
REMARK    3  A    between atoms: C_3  and  C_10 
REMARK       I    between atoms: C_4  and  N_8 
REMARK       I    between atoms: N_15  and  C_4 
REMARK    4  A    between atoms: O_24  and  C_5 
REMARK    5  A    between atoms: N_8  and  C_6 
REMARK    6  A    between atoms: C_11  and  O_7 
REMARK    7  A    between atoms: C_23  and  N_15 
ROOT
ATOM      1  C   UNL d   1       1.985   3.414   0.750  0.00  0.00     0.071 C 
ATOM      2  C   UNL d   1       2.319   5.739   0.080  0.00  0.00     0.050 C 
ATOM      3  C   UNL d   1       2.067   3.036  -0.595  0.00  0.00     0.102 C 
ATOM      4  C   UNL d   1       2.050   4.777   1.070  0.00  0.00     0.048 C 
ATOM      5  C   UNL d   1       2.557   5.316  -1.235  0.00  0.00     0.019 C 
ATOM      6  C   UNL d   1       2.435   3.972  -1.570  0.00  0.00     0.040 C 
ENDROOT
BRANCH   1   7
ATOM      7  N   UNL d   1       1.765   2.515   1.809  0.00  0.00    -0.306 N 
ATOM      8  C   UNL d   1       2.429   1.358   2.145  0.00  0.00     0.325 C 
ATOM      9  N   UNL d   1       3.557   1.054   1.426  0.00  0.00    -0.309 N 
ATOM     10  O   UNL d   1       2.048   0.777   3.160  0.00  0.00    -0.247 OA
ATOM     11  H   UNL d   1       3.734   1.623   0.614  0.00  0.00     0.170 HD
ATOM     12  H   UNL d   1       1.277   2.863   2.626  0.00  0.00     0.171 HD
BRANCH   9  13
ATOM     13  C   UNL d   1       4.566   0.120   1.767  0.00  0.00     0.036 A 
ATOM     14  C   UNL d   1       4.480  -0.773   2.840  0.00  0.00     0.031 A 
ATOM     15  C   UNL d   1       5.548  -1.627   3.151  0.00  0.00     0.026 A 
ATOM     16  C   UNL d   1       6.708  -1.595   2.386  0.00  0.00     0.034 A 
ATOM     17  C   UNL d   1       6.805  -0.728   1.303  0.00  0.00     0.026 A 
ATOM     18 CL   UNL d   1       8.028  -2.623   2.786  0.00  0.00    -0.084 Cl
ATOM     19  C   UNL d   1       5.736   0.125   0.992  0.00  0.00     0.031 A 
ENDBRANCH   9  13
ENDBRANCH   1   7
BRANCH   3  20
ATOM     20  O   UNL d   1       1.704   1.761  -0.973  0.00  0.00    -0.307 OA
BRANCH  20  21
ATOM     21  C   UNL d   1       0.858   1.577  -2.031  0.00  0.00     0.099 A 
ATOM     22  C   UNL d   1       0.895   0.423  -2.794  0.00  0.00     0.114 A 
ATOM     23  S   UNL d   1      -0.225   0.509  -4.100  0.00  0.00    -0.093 SA
ATOM     24  C   UNL d   1      -0.788   2.045  -3.621  0.00  0.00     0.053 A 
ATOM     25  C   UNL d   1      -0.162   2.484  -2.477  0.00  0.00     0.046 A 
BRANCH  22  26
ATOM     26  C   UNL d   1       1.710  -0.770  -2.674  0.00  0.00     0.302 C 
ATOM     27  O   UNL d   1       1.572  -1.805  -3.316  0.00  0.00    -0.259 OA
BRANCH  26  28
ATOM     28  O   UNL d   1       2.683  -0.584  -1.736  0.00  0.00    -0.322 OA
ATOM     29  C   UNL d   1       3.522  -1.712  -1.498  0.00  0.00     0.213 C 
ENDBRANCH  26  28
ENDBRANCH  22  26
ENDBRANCH  20  21
ENDBRANCH   3  20
BRANCH   2  30
ATOM     30  C   UNL d   1       2.348   7.214   0.398  0.00  0.00     0.417 C 
ATOM     31  F   UNL d   1       1.962   7.503   1.670  0.00  0.00    -0.166 F 
ATOM     32  F   UNL d   1       3.588   7.752   0.245  0.00  0.00    -0.166 F 
ATOM     33  F   UNL d   1       1.523   7.931  -0.415  0.00  0.00    -0.166 F 
ENDBRANCH   2  30
TORSDOF 7
