REMARK  8 active torsions:
REMARK  status: ('A' for Active; 'I' for Inactive)
REMARK    1  A    between atoms: N_9  and  S_1 
REMARK    2  A    between atoms: C_14  and  S_1 
REMARK    3  A    between atoms: N_4  and  C_12 
REMARK    4  A    between atoms: C_16  and  C_5 
REMARK    5  A    between atoms: N_15  and  N_9 
REMARK    6  A    between atoms: C_10  and  C_18 
REMARK    7  A    between atoms: C_11  and  C_17 
REMARK    8  A    between atoms: C_12  and  C_13 
REMARK       I    between atoms: C_13  and  N_15 
ROOT
ATOM      1  C   UNL d   1       0.105  -2.382   2.986  0.00  0.00     0.257 C 
ATOM      2  N   UNL d   1       0.708  -1.804   1.898  0.00  0.00    -0.259 N 
ATOM      3  O   UNL d   1       0.289  -3.576   3.252  0.00  0.00    -0.270 OA
ATOM      4  H   UNL d   1       0.609  -0.803   1.683  0.00  0.00     0.190 HD
ENDROOT
BRANCH   1   5
ATOM      5  C   UNL d   1      -0.742  -1.526   3.893  0.00  0.00     0.271 C 
BRANCH   5   6
ATOM      6  N   UNL d   1      -0.957  -0.135   3.544  0.00  0.00    -0.207 N 
ATOM      7  N   UNL d   1      -0.366   0.509   2.512  0.00  0.00    -0.268 N 
ATOM      8  C   UNL d   1      -0.912   1.737   2.646  0.00  0.00     0.144 A 
ATOM      9  HN  UNL d   1       0.305   0.164   1.826  1.00  0.00     0.190 HD
ATOM     10  N   UNL d   1      -1.747   1.819   3.734  0.00  0.00    -0.266 N 
ATOM     11  N   UNL d   1      -1.762   0.625   4.305  0.00  0.00    -0.002 NA
ATOM     12  HN  UNL d   1      -2.259   2.645   4.045  1.00  0.00     0.186 HD
BRANCH   8  13
ATOM     13  C   UNL d   1      -0.671   2.864   1.749  0.00  0.00     0.011 A 
ATOM     14  C   UNL d   1      -1.346   4.085   1.933  0.00  0.00     0.031 A 
ATOM     15  C   UNL d   1      -1.134   5.171   1.061  0.00  0.00     0.048 A 
ATOM     16  C   UNL d   1      -0.220   5.025   0.008  0.00  0.00     0.016 A 
ATOM     17  C   UNL d   1       0.455   3.821  -0.183  0.00  0.00     0.002 A 
ATOM     18  C   UNL d   1       0.225   2.746   0.679  0.00  0.00     0.015 A 
BRANCH  15  19
ATOM     19  C   UNL d   1      -1.867   6.481   1.232  0.00  0.00     0.417 C 
ATOM     20  F   UNL d   1      -2.795   6.465   2.227  0.00  0.00    -0.166 F 
ATOM     21  F   UNL d   1      -1.026   7.513   1.520  0.00  0.00    -0.166 F 
ATOM     22  F   UNL d   1      -2.537   6.851   0.104  0.00  0.00    -0.166 F 
ENDBRANCH  15  19
ENDBRANCH   8  13
ENDBRANCH   5   6
ENDBRANCH   1   5
BRANCH   2  23
ATOM     23  N   UNL d   1       1.621  -2.595   1.110  0.00  0.00    -0.220 N 
ATOM     24  H   UNL d   1       1.755  -3.587   1.339  0.00  0.00     0.200 HD
BRANCH  23  25
ATOM     25  S   UNL d   1       2.809  -1.844   0.186  0.00  0.00     0.276 S 
ATOM     26  O   UNL d   1       2.172  -0.800  -0.585  0.00  0.00    -0.199 OA
ATOM     27  O   UNL d   1       3.631  -2.871  -0.416  0.00  0.00    -0.199 OA
BRANCH  25  28
ATOM     28  C   UNL d   1       3.778  -1.060   1.458  0.00  0.00     0.081 A 
ATOM     29  C   UNL d   1       3.831   0.335   1.526  0.00  0.00     0.041 A 
ATOM     30  C   UNL d   1       4.566   0.962   2.542  0.00  0.00     0.049 A 
ATOM     31  C   UNL d   1       5.256   0.165   3.471  0.00  0.00     0.016 A 
ATOM     32  C   UNL d   1       5.202  -1.230   3.396  0.00  0.00     0.002 A 
ATOM     33  C   UNL d   1       4.461  -1.849   2.389  0.00  0.00     0.025 A 
BRANCH  30  34
ATOM     34  C   UNL d   1       4.621   2.469   2.637  0.00  0.00     0.417 C 
ATOM     35  F   UNL d   1       3.792   3.093   1.755  0.00  0.00    -0.166 F 
ATOM     36  F   UNL d   1       4.263   2.924   3.869  0.00  0.00    -0.166 F 
ATOM     37  F   UNL d   1       5.865   2.961   2.398  0.00  0.00    -0.166 F 
ENDBRANCH  30  34
ENDBRANCH  25  28
ENDBRANCH  23  25
ENDBRANCH   2  23
TORSDOF 8
