REMARK  5 active torsions:
REMARK  status: ('A' for Active; 'I' for Inactive)
REMARK    1  A    between atoms: C_7  and  C_1 
REMARK    2  A    between atoms: O_19  and  C_7 
REMARK    3  A    between atoms: N_8  and  N_11 
REMARK    4  A    between atoms: C_17  and  C_16 
REMARK    5  A    between atoms: C_23  and  O_19 
ROOT
ATOM      1  C   UNL d   1      -0.101   1.352   0.034  0.00  0.00     0.109 A 
ATOM      2  C   UNL d   1      -1.392   0.867   0.071  0.00  0.00     0.153 A 
ATOM      3  N   UNL d   1      -0.024  -0.946   0.059  0.00  0.00    -0.302 N 
ATOM      4  HN  UNL d   1       0.300  -1.913   0.071  1.00  0.00     0.186 HD
ATOM      5  N   UNL d   1      -1.285  -0.493   0.058  0.00  0.00    -0.283 N 
ATOM      6  C   UNL d   1       0.711   0.175   0.042  0.00  0.00     0.042 A 
ATOM      7  N   UNL d   1      -2.614   1.447   0.106  0.00  0.00    -0.284 N 
ATOM      8  C   UNL d   1       2.192   0.063   0.014  0.00  0.00     0.071 C 
ATOM      9  H   UNL d   1      -2.060  -1.144   0.046  0.00  0.00     0.188 HD
ATOM     10  H   UNL d   1      -2.674   2.471   0.062  0.00  0.00     0.188 HD
ENDROOT
BRANCH   1  11
ATOM     11  C   UNL d   1       0.278   2.746  -0.050  0.00  0.00     0.299 C 
ATOM     12  O   UNL d   1      -0.536   3.663  -0.130  0.00  0.00    -0.259 OA
BRANCH  11  13
ATOM     13  O   UNL d   1       1.629   2.909  -0.105  0.00  0.00    -0.318 OA
BRANCH  13  14
ATOM     14  C   UNL d   1       2.101   4.176  -0.579  0.00  0.00     0.174 C 
ATOM     15  C   UNL d   1       2.218   4.101  -2.091  0.00  0.00     0.034 C 
ENDBRANCH  13  14
ENDBRANCH  11  13
ENDBRANCH   1  11
BRANCH   7  16
ATOM     16  N   UNL d   1      -3.726   0.692  -0.072  0.00  0.00    -0.309 N 
ATOM     17  C   UNL d   1      -4.845   1.224   0.296  0.00  0.00     0.118 C 
ATOM     18  HN  UNL d   1      -3.682  -0.244  -0.475  1.00  0.00     0.186 HD
BRANCH  17  19
ATOM     19  C   UNL d   1      -6.108   0.477   0.121  0.00  0.00    -0.018 A 
ATOM     20  C   UNL d   1      -6.108  -0.748  -0.557  0.00  0.00     0.038 A 
ATOM     21  C   UNL d   1      -7.303  -1.451  -0.731  0.00  0.00     0.056 A 
ATOM     22 CL   UNL d   1      -7.234  -2.954  -1.581  0.00  0.00    -0.083 Cl
ATOM     23  C   UNL d   1      -8.499  -0.928  -0.224  0.00  0.00     0.055 A 
ATOM     24  C   UNL d   1      -8.490   0.294   0.460  0.00  0.00     0.026 A 
ATOM     25 CL   UNL d   1     -10.014  -1.735  -0.411  0.00  0.00    -0.083 Cl
ATOM     26  C   UNL d   1      -7.296   1.000   0.633  0.00  0.00     0.014 A 
ENDBRANCH  17  19
ENDBRANCH   7  16
TORSDOF 5
