REMARK  6 active torsions:
REMARK  status: ('A' for Active; 'I' for Inactive)
REMARK    1  A    between atoms: C_8  and  C_1 
REMARK    2  A    between atoms: C_4  and  N_10 
REMARK    3  A    between atoms: C_18  and  C_5 
REMARK       I    between atoms: N_10  and  C_8 
REMARK    4  A    between atoms: C_15  and  C_9 
REMARK    5  A    between atoms: C_16  and  C_15 
REMARK    6  A    between atoms: O_20  and  C_16 
ROOT
ATOM      1  C   UNL d   1       0.066   2.636  -0.103  0.00  0.00     0.276 C 
ATOM      2  N   UNL d   1      -1.080   3.357   0.129  0.00  0.00    -0.302 N 
ATOM      3  O   UNL d   1       1.190   3.079  -0.302  0.00  0.00    -0.266 OA
ATOM      4  H   UNL d   1      -1.931   2.858   0.346  0.00  0.00     0.171 HD
ENDROOT
BRANCH   1   5
ATOM      5  C   UNL d   1      -0.192   1.198  -0.059  0.00  0.00     0.132 A 
ATOM      6  N   UNL d   1      -1.459   0.646   0.106  0.00  0.00    -0.330 N 
ATOM      7  C   UNL d   1      -1.244  -0.658   0.095  0.00  0.00     0.158 A 
ATOM      8  HN  UNL d   1      -2.348   1.135   0.212  1.00  0.00     0.168 HD
ATOM      9  O   UNL d   1       0.071  -1.006  -0.058  0.00  0.00    -0.295 OA
ATOM     10  C   UNL d   1       0.738   0.182  -0.159  0.00  0.00     0.084 A 
ATOM     11  C   UNL d   1       2.199   0.101  -0.335  0.00  0.00     0.079 C 
BRANCH   7  12
ATOM     12  C   UNL d   1      -2.199  -1.761   0.210  0.00  0.00     0.015 A 
ATOM     13  C   UNL d   1      -3.577  -1.499   0.173  0.00  0.00     0.016 A 
ATOM     14  C   UNL d   1      -4.507  -2.538   0.279  0.00  0.00     0.001 A 
ATOM     15  C   UNL d   1      -4.071  -3.853   0.426  0.00  0.00     0.000 A 
ATOM     16  C   UNL d   1      -2.707  -4.131   0.466  0.00  0.00     0.001 A 
ATOM     17  C   UNL d   1      -1.778  -3.092   0.357  0.00  0.00     0.016 A 
ENDBRANCH   7  12
ENDBRANCH   1   5
BRANCH   2  18
ATOM     18  C   UNL d   1      -1.080   4.719   0.178  0.00  0.00     0.152 A 
ATOM     19  N   UNL d   1      -0.118   5.551  -0.116  0.00  0.00    -0.339 N 
ATOM     20  C   UNL d   1      -0.520   6.856   0.132  0.00  0.00     0.033 A 
ATOM     21  HN  UNL d   1       0.797   5.281  -0.477  1.00  0.00     0.168 HD
ATOM     22  C   UNL d   1      -1.817   6.973   0.616  0.00  0.00     0.005 A 
ATOM     23  S   UNL d   1      -2.542   5.414   0.705  0.00  0.00    -0.057 SA
ATOM     24  C   UNL d   1      -2.571   8.185   1.035  0.00  0.00     0.058 C 
BRANCH  20  25
ATOM     25  C   UNL d   1       0.452   7.948  -0.186  0.00  0.00     0.169 C 
BRANCH  25  26
ATOM     26  C   UNL d   1       0.969   8.677   1.029  0.00  0.00     0.264 C 
ATOM     27  O   UNL d   1       0.534   8.596   2.171  0.00  0.00    -0.265 OA
BRANCH  26  28
ATOM     28  O   UNL d   1       1.981   9.518   0.651  0.00  0.00    -0.326 OA
ATOM     29  C   UNL d   1       2.526  10.292   1.721  0.00  0.00     0.213 C 
ENDBRANCH  26  28
ENDBRANCH  25  26
ENDBRANCH  20  25
ENDBRANCH   2  18
TORSDOF 6
