REMARK  4 active torsions:
REMARK  status: ('A' for Active; 'I' for Inactive)
REMARK    1  A    between atoms: C_2  and  C_1 
REMARK    2  A    between atoms: O_9  and  C_2 
REMARK    3  A    between atoms: O_11  and  C_6 
REMARK    4  A    between atoms: O_10  and  C_7 
ROOT
ATOM      1  C   UNL d   1       1.376  -0.262   0.035  0.00  0.00     0.043 A 
ATOM      2  C   UNL d   1       0.535  -1.380  -0.053  0.00  0.00     0.055 A 
ATOM      3  C   UNL d   1       0.833   1.024   0.110  0.00  0.00     0.055 A 
ATOM      4  C   UNL d   1      -1.383   0.090   0.053  0.00  0.00     0.073 A 
ATOM      5  C   UNL d   1      -0.848  -1.203  -0.030  0.00  0.00     0.071 A 
ATOM      6  C   UNL d   1      -0.550   1.206   0.122  0.00  0.00     0.071 A 
ENDROOT
BRANCH   1   7
ATOM      7  C   UNL d   1       2.852  -0.397   0.010  0.00  0.00     0.176 C 
ATOM      8  O   UNL d   1       3.585   0.419  -0.522  0.00  0.00    -0.646 OA
BRANCH   7   9
ATOM      9  O   UNL d   1       3.307  -1.488   0.661  0.00  0.00    -0.773 OA
ATOM     10  H   UNL d   1       2.646  -1.942   1.215  0.00  0.00     0.167 HD
ENDBRANCH   7   9
ENDBRANCH   1   7
BRANCH   5  11
ATOM     11  O   UNL d   1      -1.785  -2.199  -0.087  0.00  0.00    -0.356 OA
ATOM     12  C   UNL d   1      -1.314  -3.540  -0.117  0.00  0.00     0.210 C 
ENDBRANCH   5  11
BRANCH   6  13
ATOM     13  O   UNL d   1      -0.954   2.509   0.213  0.00  0.00    -0.356 OA
ATOM     14  C   UNL d   1      -2.355   2.754   0.192  0.00  0.00     0.210 C 
ENDBRANCH   6  13
TORSDOF 4
