REMARK  5 active torsions:
REMARK  status: ('A' for Active; 'I' for Inactive)
REMARK    1  A    between atoms: N_7  and  S_1 
REMARK    2  A    between atoms: C_8  and  S_1 
REMARK    3  A    between atoms: C_2  and  N_7 
REMARK    4  A    between atoms: C_10  and  C_3 
REMARK    5  A    between atoms: C_15  and  C_6 
ROOT
ATOM      1  C   UNL d   1       0.922   1.483   2.253  0.00  0.00     0.045 A 
ATOM      2  C   UNL d   1       2.180   1.336   2.816  0.00  0.00     0.073 A 
ATOM      3  S   UNL d   1       2.125   1.571   4.509  0.00  0.00    -0.084 SA
ATOM      4  C   UNL d   1      -0.065   1.808   3.243  0.00  0.00     0.045 A 
ATOM      5  C   UNL d   1       0.445   1.887   4.526  0.00  0.00     0.017 A 
ENDROOT
BRANCH   1   6
ATOM      6  N   UNL d   1       0.575   1.363   0.879  0.00  0.00    -0.180 NA
ATOM      7  H   UNL d   1      -0.271   1.897   0.661  0.00  0.00     0.146 HD
BRANCH   6   8
ATOM      8  S   UNL d   1       0.233  -0.217   0.311  0.00  0.00     0.246 S 
ATOM      9  O   UNL d   1      -1.209  -0.334   0.353  0.00  0.00    -0.206 OA
ATOM     10  O   UNL d   1       1.096  -1.180   0.962  0.00  0.00    -0.206 OA
BRANCH   8  11
ATOM     11  C   UNL d   1       0.713  -0.143  -1.399  0.00  0.00     0.076 A 
ATOM     12  C   UNL d   1       2.048   0.100  -1.727  0.00  0.00     0.050 A 
ATOM     13  C   UNL d   1       2.446   0.122  -3.066  0.00  0.00     0.057 A 
ATOM     14 CL   UNL d   1       4.111   0.439  -3.405  0.00  0.00    -0.083 Cl
ATOM     15  C   UNL d   1       1.509  -0.115  -4.079  0.00  0.00     0.055 A 
ATOM     16  C   UNL d   1       0.173  -0.369  -3.745  0.00  0.00     0.027 A 
ATOM     17 CL   UNL d   1       1.934  -0.119  -5.753  0.00  0.00    -0.083 Cl
ATOM     18  C   UNL d   1      -0.229  -0.383  -2.405  0.00  0.00     0.026 A 
ENDBRANCH   8  11
ENDBRANCH   6   8
ENDBRANCH   1   6
BRANCH   2  19
ATOM     19  C   UNL d   1       3.454   1.080   2.153  0.00  0.00     0.164 C 
ATOM     20  O   UNL d   1       3.625   1.285   0.949  0.00  0.00    -0.292 OA
ATOM     21  C   UNL d   1       4.643   0.609   2.966  0.00  0.00     0.097 C 
ENDBRANCH   2  19
BRANCH   5  22
ATOM     22  C   UNL d   1      -0.245   2.155   5.802  0.00  0.00    -0.019 A 
ATOM     23  C   UNL d   1      -1.570   1.734   5.995  0.00  0.00     0.013 A 
ATOM     24  C   UNL d   1      -2.222   1.951   7.213  0.00  0.00     0.001 A 
ATOM     25  C   UNL d   1      -1.561   2.592   8.258  0.00  0.00     0.000 A 
ATOM     26  C   UNL d   1      -0.253   3.028   8.083  0.00  0.00     0.001 A 
ATOM     27  C   UNL d   1       0.396   2.818   6.863  0.00  0.00     0.013 A 
ENDBRANCH   5  22
TORSDOF 5
