REMARK  2 active torsions:
REMARK  status: ('A' for Active; 'I' for Inactive)
REMARK    1  A    between atoms: C_7  and  N_1 
REMARK    2  A    between atoms: S_9  and  C_2 
ROOT
ATOM      1  N   UNL d   1       1.029  -0.644   0.032  0.00  0.00    -0.273 N 
ATOM      2  C   UNL d   1       1.023   0.707   0.213  0.00  0.00     0.165 A 
ATOM      3  C   UNL d   1      -0.280  -1.011   0.210  0.00  0.00     0.343 A 
ATOM      4  N   UNL d   1      -0.146   1.232   0.431  0.00  0.00    -0.276 N 
ATOM      5  HN  UNL d   1      -0.379   2.215   0.580  1.00  0.00     0.189 HD
ATOM      6  N   UNL d   1      -0.986   0.164   0.415  0.00  0.00    -0.249 N 
ATOM      7  O   UNL d   1      -0.779  -2.124   0.203  0.00  0.00    -0.245 OA
ATOM      8  H   UNL d   1      -1.985   0.239   0.555  0.00  0.00     0.192 HD
ENDROOT
BRANCH   1   9
ATOM      9  C   UNL d   1       2.161  -1.538  -0.268  0.00  0.00     0.097 C 
ATOM     10  C   UNL d   1       1.922  -2.439  -1.495  0.00  0.00     0.026 C 
ATOM     11  C   UNL d   1       1.405  -3.847  -1.206  0.00  0.00     0.002 C 
ATOM     12  C   UNL d   1       2.163  -4.513  -0.068  0.00  0.00     0.000 C 
ATOM     13  C   UNL d   1       2.100  -3.667   1.196  0.00  0.00     0.002 C 
ATOM     14  C   UNL d   1       2.690  -2.279   0.971  0.00  0.00     0.026 C 
ENDBRANCH   1   9
BRANCH   2  15
ATOM     15  S   UNL d   1       2.486   1.630   0.151  0.00  0.00    -0.097 SA
ATOM     16  C   UNL d   1       1.843   3.296   0.417  0.00  0.00     0.099 C 
ENDBRANCH   2  15
TORSDOF 2
