REMARK  4 active torsions:
REMARK  status: ('A' for Active; 'I' for Inactive)
REMARK    1  A    between atoms: C_11  and  N_1 
REMARK    2  A    between atoms: C_6  and  N_7 
REMARK       I    between atoms: N_7  and  C_8 
REMARK    3  A    between atoms: C_8  and  C_9 
REMARK    4  A    between atoms: C_9  and  C_11 
ROOT
ATOM      1  N   UNL d   1       2.855   5.142  -0.116  0.00  0.00    -0.327 N 
ATOM      2  C   UNL d   1       1.489   4.982   0.019  0.00  0.00     0.223 C 
ATOM      3  O   UNL d   1       0.670   5.907   0.031  0.00  0.00    -0.273 OA
ATOM      4  H   UNL d   1       3.423   4.311  -0.185  0.00  0.00     0.169 HD
ENDROOT
BRANCH   2   5
ATOM      5  C   UNL d   1       0.910   3.577   0.096  0.00  0.00     0.123 C 
BRANCH   5   6
ATOM      6  C   UNL d   1       1.818   2.361   0.091  0.00  0.00     0.138 C 
BRANCH   6   7
ATOM      7  N   UNL d   1       2.763   2.262   1.189  0.00  0.00    -0.355 N 
ATOM      8  C   UNL d   1       2.553   2.713   2.462  0.00  0.00     0.099 A 
ATOM      9  C   UNL d   1       3.720   2.557   3.181  0.00  0.00    -0.034 A 
ATOM     10  C   UNL d   1       3.953   2.980   4.585  0.00  0.00     0.050 C 
ATOM     11  C   UNL d   1       4.651   1.899   2.318  0.00  0.00    -0.002 A 
ATOM     12  C   UNL d   1       4.022   1.704   1.085  0.00  0.00     0.045 A 
ATOM     13  C   UNL d   1       5.976   1.445   2.483  0.00  0.00     0.014 A 
ATOM     14  C   UNL d   1       4.664   1.050   0.020  0.00  0.00     0.030 A 
ATOM     15  C   UNL d   1       5.973   0.603   0.212  0.00  0.00     0.002 A 
ATOM     16  C   UNL d   1       6.624   0.800   1.425  0.00  0.00     0.001 A 
ENDBRANCH   6   7
ENDBRANCH   5   6
ENDBRANCH   2   5
BRANCH   1  17
ATOM     17  C   UNL d   1       3.543   6.382  -0.271  0.00  0.00     0.043 A 
ATOM     18  C   UNL d   1       2.907   7.606  -0.006  0.00  0.00     0.072 A 
ATOM     19  C   UNL d   1       3.541   8.818  -0.258  0.00  0.00     0.118 A 
ATOM     20  F   UNL d   1       2.897   9.965  -0.003  0.00  0.00    -0.206 F 
ATOM     21  C   UNL d   1       4.823   8.858  -0.771  0.00  0.00     0.043 A 
ATOM     22  C   UNL d   1       5.499   7.662  -0.984  0.00  0.00     0.012 A 
ATOM     23  C   UNL d   1       4.884   6.413  -0.720  0.00  0.00    -0.035 A 
ATOM     24  C   UNL d   1       5.758   5.205  -0.938  0.00  0.00     0.050 C 
ENDBRANCH   1  17
TORSDOF 4
