REMARK  3 active torsions:
REMARK  status: ('A' for Active; 'I' for Inactive)
REMARK    1  A    between atoms: C_2  and  C_1 
REMARK       I    between atoms: N_3  and  C_2 
REMARK    2  A    between atoms: C_4  and  N_3 
REMARK    3  A    between atoms: S_13  and  C_6 
ROOT
ATOM      1  C   UNL d   1      -0.609  -1.824  -1.313  0.00  0.00     0.053 A 
ATOM      2  C   UNL d   1      -0.954  -2.008   0.032  0.00  0.00     0.054 A 
ATOM      3  C   UNL d   1      -0.577  -2.930  -2.188  0.00  0.00     0.027 A 
ATOM      4  C   UNL d   1      -0.830  -4.212  -1.676  0.00  0.00     0.022 A 
ATOM      5  C   UNL d   1      -1.222  -3.288   0.514  0.00  0.00     0.036 A 
ATOM      6  C   UNL d   1      -1.143  -4.392  -0.323  0.00  0.00     0.025 A 
ATOM      7 CL   UNL d   1      -1.692  -3.497   2.158  0.00  0.00    -0.084 Cl
ENDROOT
BRANCH   1   8
ATOM      8  N   UNL d   1      -0.399  -0.534  -1.823  0.00  0.00    -0.318 N 
ATOM      9  C   UNL d   1       0.343   0.505  -1.309  0.00  0.00     0.330 C 
ATOM     10  O   UNL d   1       0.327   1.563  -1.952  0.00  0.00    -0.263 OA
ATOM     11  H   UNL d   1      -0.670  -0.381  -2.791  0.00  0.00     0.169 HD
BRANCH   9  12
ATOM     12  C   UNL d   1       1.212   0.340  -0.039  0.00  0.00     0.472 C 
ATOM     13  F   UNL d   1       1.531  -0.949   0.262  0.00  0.00    -0.162 F 
ATOM     14  F   UNL d   1       0.608   0.858   1.066  0.00  0.00    -0.162 F 
ATOM     15  F   UNL d   1       2.409   0.983  -0.161  0.00  0.00    -0.162 F 
ENDBRANCH   9  12
ENDBRANCH   1   8
BRANCH   3  16
ATOM     16  S   UNL d   1      -0.251  -2.827  -3.953  0.00  0.00    -0.132 SA
ATOM     17  C   UNL d   1       1.298  -1.876  -4.012  0.00  0.00     0.095 C 
ENDBRANCH   3  16
TORSDOF 3
