REMARK  4 active torsions:
REMARK  status: ('A' for Active; 'I' for Inactive)
REMARK       I    between atoms: N_2  and  C_1 
REMARK    1  A    between atoms: C_5  and  C_1 
REMARK       I    between atoms: C_3  and  N_4 
REMARK    2  A    between atoms: C_6  and  C_3 
REMARK    3  A    between atoms: N_4  and  C_17 
REMARK    4  A    between atoms: C_7  and  C_8 
ROOT
ATOM      1  C   UNL d   1       0.888  -0.239  -0.195  0.00  0.00     0.253 C 
ATOM      2  N   UNL d   1       0.255   0.885  -0.729  0.00  0.00    -0.348 N 
ATOM      3  C   UNL d   1       0.758   1.476  -1.968  0.00  0.00     0.128 C 
ATOM      4  C   UNL d   1      -0.922   1.566  -0.197  0.00  0.00     0.128 C 
ATOM      5  O   UNL d   1       1.962  -0.654  -0.632  0.00  0.00    -0.267 OA
ATOM      6  C   UNL d   1      -1.675   2.074  -2.535  0.00  0.00     0.087 C 
ATOM      7  C   UNL d   1      -2.060   1.415  -1.201  0.00  0.00     0.045 C 
ATOM      8  C   UNL d   1      -0.338   1.493  -3.042  0.00  0.00     0.045 C 
ENDROOT
BRANCH   6   9
ATOM      9  N   UNL d   1      -1.600   3.527  -2.412  0.00  0.00    -0.352 N 
ATOM     10  C   UNL d   1      -2.684   4.305  -2.045  0.00  0.00     0.252 C 
ATOM     11  O   UNL d   1      -3.807   3.869  -1.810  0.00  0.00    -0.268 OA
ATOM     12  H   UNL d   1      -0.844   4.001  -2.887  0.00  0.00     0.163 HD
BRANCH  10  13
ATOM     13  C   UNL d   1      -2.416   5.762  -1.987  0.00  0.00     0.032 A 
ATOM     14  C   UNL d   1      -3.436   6.657  -2.302  0.00  0.00     0.017 A 
ATOM     15  C   UNL d   1      -3.165   8.028  -2.353  0.00  0.00     0.009 A 
ATOM     16  C   UNL d   1      -1.879   8.536  -2.079  0.00  0.00    -0.051 A 
ATOM     17  C   UNL d   1      -0.890   7.618  -1.687  0.00  0.00     0.009 A 
ATOM     18  C   UNL d   1      -1.153   6.247  -1.637  0.00  0.00     0.017 A 
BRANCH  16  19
ATOM     19  C   UNL d   1      -1.584  10.036  -2.261  0.00  0.00    -0.024 C 
ATOM     20  C   UNL d   1      -0.139  10.435  -1.885  0.00  0.00     0.019 C 
ATOM     21  C   UNL d   1      -1.788  10.404  -3.747  0.00  0.00     0.019 C 
ATOM     22  C   UNL d   1      -2.534  10.886  -1.391  0.00  0.00     0.019 C 
ENDBRANCH  16  19
ENDBRANCH  10  13
ENDBRANCH   6   9
BRANCH   1  23
ATOM     23  C   UNL d   1       0.287  -0.994   0.945  0.00  0.00     0.032 A 
ATOM     24  C   UNL d   1      -1.085  -1.256   1.044  0.00  0.00     0.018 A 
ATOM     25  C   UNL d   1      -1.606  -1.938   2.147  0.00  0.00     0.025 A 
ATOM     26  C   UNL d   1      -0.744  -2.433   3.121  0.00  0.00     0.034 A 
ATOM     27  C   UNL d   1       0.632  -2.257   2.996  0.00  0.00     0.025 A 
ATOM     28 CL   UNL d   1      -1.386  -3.283   4.471  0.00  0.00    -0.084 Cl
ATOM     29  C   UNL d   1       1.147  -1.536   1.912  0.00  0.00     0.018 A 
ENDBRANCH   1  23
TORSDOF 4
