REMARK  3 active torsions:
REMARK  status: ('A' for Active; 'I' for Inactive)
REMARK    1  A    between atoms: N_9  and  C_1 
REMARK    2  A    between atoms: C_6  and  C_14 
REMARK       I    between atoms: C_15  and  N_9 
REMARK    3  A    between atoms: O_22  and  C_15 
ROOT
ATOM      1  C   UNL d   1      -2.356  -0.063  -0.079  0.00  0.00     0.687 A 
ATOM      2  N   UNL d   1      -1.631   1.019  -0.216  0.00  0.00    -0.189 N 
ATOM      3  HN  UNL d   1      -1.971   1.976  -0.313  1.00  0.00     0.184 HD
ATOM      4  N   UNL d   1      -1.552  -1.178  -0.018  0.00  0.00    -0.189 N 
ATOM      5  C   UNL d   1      -0.329   0.611  -0.205  0.00  0.00     0.077 A 
ATOM      6  C   UNL d   1       2.069   0.759  -0.115  0.00  0.00    -0.005 C 
ATOM      7  C   UNL d   1      -0.241  -0.767  -0.062  0.00  0.00     0.076 A 
ATOM      8  C   UNL d   1       0.833   1.384  -0.303  0.00  0.00     0.046 C 
ATOM      9  C   UNL d   1       2.131  -0.644  -0.009  0.00  0.00     0.016 C 
ATOM     10  C   UNL d   1       0.976  -1.444   0.001  0.00  0.00     0.033 C 
ATOM     11  H   UNL d   1      -1.868  -2.131   0.075  0.00  0.00     0.184 HD
ENDROOT
BRANCH   6  12
ATOM     12  C   UNL d   1       3.350   1.539  -0.056  0.00  0.00     0.069 A 
ATOM     13  N   UNL d   1       4.381   0.975  -0.620  0.00  0.00    -0.296 N 
ATOM     14  N   UNL d   1       5.578   1.613  -0.604  0.00  0.00    -0.265 N 
ATOM     15  HN  UNL d   1       4.289   0.063  -1.068  1.00  0.00     0.187 HD
ATOM     16  C   UNL d   1       5.835   2.838  -0.048  0.00  0.00     0.271 A 
ATOM     17  H   UNL d   1       6.352   1.137  -1.056  0.00  0.00     0.190 HD
ATOM     18  C   UNL d   1       4.695   3.506   0.596  0.00  0.00     0.046 A 
ATOM     19  O   UNL d   1       6.950   3.348  -0.072  0.00  0.00    -0.266 OA
ATOM     20  C   UNL d   1       3.453   2.869   0.630  0.00  0.00     0.009 A 
ATOM     21  C   UNL d   1       4.883   4.765   1.189  0.00  0.00     0.018 A 
ATOM     22  C   UNL d   1       2.410   3.500   1.325  0.00  0.00     0.015 A 
ATOM     23  C   UNL d   1       2.582   4.775   1.879  0.00  0.00     0.001 A 
ATOM     24  C   UNL d   1       3.818   5.408   1.811  0.00  0.00     0.001 A 
ENDBRANCH   6  12
BRANCH   1  25
ATOM     25  N   UNL d   1      -3.720  -0.150  -0.006  0.00  0.00    -0.135 N 
ATOM     26  C   UNL d   1      -4.511   0.967  -0.013  0.00  0.00     0.378 C 
ATOM     27  O   UNL d   1      -4.180   2.142  -0.043  0.00  0.00    -0.238 OA
ATOM     28  H   UNL d   1      -4.193  -1.033   0.060  0.00  0.00     0.189 HD
BRANCH  26  29
ATOM     29  O   UNL d   1      -5.814   0.559   0.028  0.00  0.00    -0.308 OA
ATOM     30  C   UNL d   1      -6.744   1.645   0.010  0.00  0.00     0.215 C 
ENDBRANCH  26  29
ENDBRANCH   1  25
TORSDOF 3
