REMARK  3 active torsions:
REMARK  status: ('A' for Active; 'I' for Inactive)
REMARK    1  A    between atoms: C_13  and  N_4 
REMARK    2  A    between atoms: C_14  and  C_10 
REMARK    3  A    between atoms: N_17  and  C_11 
ROOT
ATOM      1  C   UNL d   1      -0.202  -0.670  -0.005  0.00  0.00     0.144 A 
ATOM      2  N   UNL d   1       0.930  -1.399   0.013  0.00  0.00    -0.326 N 
ATOM      3  HN  UNL d   1       0.940  -2.418  -0.016  1.00  0.00     0.169 HD
ATOM      4  N   UNL d   1      -1.522  -1.119  -0.058  0.00  0.00    -0.239 N 
ATOM      5  C   UNL d   1      -0.258   0.712   0.027  0.00  0.00     0.070 A 
ATOM      6  N   UNL d   1      -2.396  -0.067  -0.130  0.00  0.00    -0.302 N 
ATOM      7  HN  UNL d   1      -3.411  -0.104  -0.224  1.00  0.00     0.186 HD
ATOM      8  N   UNL d   1       2.097   0.698   0.134  0.00  0.00    -0.327 N 
ATOM      9  HN  UNL d   1       2.995   1.178   0.189  1.00  0.00     0.169 HD
ATOM     10  C   UNL d   1       2.048  -0.652   0.073  0.00  0.00     0.118 A 
ATOM     11  C   UNL d   1       0.950   1.403   0.120  0.00  0.00     0.116 A 
ATOM     12  C   UNL d   1      -1.624   1.017  -0.050  0.00  0.00     0.127 A 
ENDROOT
BRANCH  10  13
ATOM     13  C   UNL d   1       3.335  -1.379   0.040  0.00  0.00     0.011 A 
ATOM     14  C   UNL d   1       3.387  -2.779  -0.062  0.00  0.00     0.032 A 
ATOM     15  C   UNL d   1       4.616  -3.417  -0.110  0.00  0.00     0.088 A 
ATOM     16  N   UNL d   1       5.797  -2.771  -0.063  0.00  0.00    -0.375 N 
ATOM     17  C   UNL d   1       5.744  -1.428   0.038  0.00  0.00     0.088 A 
ATOM     18  HN  UNL d   1       6.685  -3.272  -0.102  1.00  0.00     0.164 HD
ATOM     19  C   UNL d   1       4.563  -0.704   0.093  0.00  0.00     0.032 A 
ENDBRANCH  10  13
BRANCH  11  20
ATOM     20  N   UNL d   1       1.050   2.782   0.191  0.00  0.00    -0.385 N 
ATOM     21  H   UNL d   1       1.992   3.100  -0.008  0.00  0.00     0.157 HD
ATOM     22  H   UNL d   1       0.297   3.318  -0.216  0.00  0.00     0.157 HD
ENDBRANCH  11  20
BRANCH   4  23
ATOM     23  C   UNL d   1      -2.021  -2.457  -0.035  0.00  0.00     0.058 A 
ATOM     24  C   UNL d   1      -1.174  -3.562   0.118  0.00  0.00     0.031 A 
ATOM     25  C   UNL d   1      -1.699  -4.859   0.154  0.00  0.00     0.002 A 
ATOM     26  C   UNL d   1      -3.071  -5.063   0.036  0.00  0.00     0.000 A 
ATOM     27  C   UNL d   1      -3.924  -3.973  -0.118  0.00  0.00     0.002 A 
ATOM     28  C   UNL d   1      -3.405  -2.676  -0.152  0.00  0.00     0.031 A 
ENDBRANCH   4  23
TORSDOF 3
