REMARK  4 active torsions:
REMARK  status: ('A' for Active; 'I' for Inactive)
REMARK    1  A    between atoms: C_5  and  C_1 
REMARK    2  A    between atoms: O_18  and  C_2 
REMARK    3  A    between atoms: O_19  and  C_6 
REMARK    4  A    between atoms: O_20  and  C_7 
ROOT
ATOM      1  C   UNL d   1       2.807   0.496  -0.390  0.00  0.00     0.142 C 
ATOM      2  S   UNL d   1       2.066  -1.112  -0.870  0.00  0.00    -0.144 SA
ATOM      3  S   UNL d   1       1.644   1.910  -0.302  0.00  0.00    -0.144 SA
ATOM      4  C   UNL d   1      -0.507   0.548   0.692  0.00  0.00    -0.041 A 
ATOM      5  C   UNL d   1      -0.320  -0.821   0.444  0.00  0.00    -0.041 A 
ATOM      6  C   UNL d   1      -1.760   1.128   0.431  0.00  0.00     0.015 A 
ATOM      7  C   UNL d   1      -1.399  -1.583  -0.034  0.00  0.00     0.015 A 
ATOM      8  C   UNL d   1      -2.833   0.370  -0.061  0.00  0.00    -0.056 A 
ATOM      9  C   UNL d   1      -2.654  -1.004  -0.287  0.00  0.00    -0.056 A 
ATOM     10  C   UNL d   1       1.034  -1.468   0.575  0.00  0.00     0.114 C 
ATOM     11  C   UNL d   1       0.634   1.433   1.119  0.00  0.00     0.114 C 
ATOM     12  C   UNL d   1      -4.136   1.056  -0.369  0.00  0.00     0.049 C 
ATOM     13  C   UNL d   1      -3.766  -1.863  -0.826  0.00  0.00     0.049 C 
ENDROOT
BRANCH   1  14
ATOM     14  C   UNL d   1       3.889   0.850  -1.401  0.00  0.00    -0.029 A 
ATOM     15  C   UNL d   1       3.580   1.026  -2.758  0.00  0.00     0.049 A 
ATOM     16  C   UNL d   1       4.553   1.369  -3.706  0.00  0.00     0.104 A 
ATOM     17  C   UNL d   1       5.902   1.514  -3.303  0.00  0.00     0.135 A 
ATOM     18  C   UNL d   1       6.219   1.348  -1.934  0.00  0.00     0.104 A 
ATOM     19  C   UNL d   1       5.214   1.027  -1.006  0.00  0.00     0.049 A 
BRANCH  16  20
ATOM     20  O   UNL d   1       4.206   1.510  -5.029  0.00  0.00    -0.353 OA
ATOM     21  C   UNL d   1       2.877   1.950  -5.307  0.00  0.00     0.210 C 
ENDBRANCH  16  20
BRANCH  17  22
ATOM     22  O   UNL d   1       6.951   1.823  -4.133  0.00  0.00    -0.351 OA
ATOM     23  C   UNL d   1       6.731   2.004  -5.522  0.00  0.00     0.210 C 
ENDBRANCH  17  22
BRANCH  18  24
ATOM     24  O   UNL d   1       7.430   1.472  -1.296  0.00  0.00    -0.353 OA
ATOM     25  C   UNL d   1       8.612   1.662  -2.048  0.00  0.00     0.210 C 
ENDBRANCH  18  24
ENDBRANCH   1  14
TORSDOF 4
