REMARK  4 active torsions:
REMARK  status: ('A' for Active; 'I' for Inactive)
REMARK    1  A    between atoms: C_10  and  C_2 
REMARK    2  A    between atoms: S_16  and  C_5 
REMARK    3  A    between atoms: C_8  and  C_11 
REMARK    4  A    between atoms: C_9  and  C_12 
ROOT
ATOM      1  C   UNL d   1      -0.784   2.435   0.046  0.00  0.00     0.011 A 
ATOM      2  C   UNL d   1      -0.631   4.739  -0.776  0.00  0.00     0.049 A 
ATOM      3  C   UNL d   1      -1.956   4.238   1.211  0.00  0.00     0.049 A 
ATOM      4  C   UNL d   1      -1.464   5.158   0.271  0.00  0.00     0.032 A 
ATOM      5  C   UNL d   1      -1.616   2.877   1.082  0.00  0.00     0.031 A 
ATOM      6  C   UNL d   1      -0.302   3.377  -0.875  0.00  0.00     0.031 A 
ENDROOT
BRANCH   1   7
ATOM      7  C   UNL d   1      -0.356   1.042  -0.076  0.00  0.00     0.132 A 
ATOM      8  N   UNL d   1      -1.012  -0.050   0.437  0.00  0.00    -0.320 N 
ATOM      9  C   UNL d   1      -0.244  -1.129   0.129  0.00  0.00     0.160 A 
ATOM     10  H   UNL d   1      -1.884  -0.067   0.939  0.00  0.00     0.169 HD
ATOM     11  N   UNL d   1       0.804  -0.756  -0.557  0.00  0.00    -0.278 N 
ATOM     12  N   UNL d   1       0.729   0.611  -0.699  0.00  0.00    -0.283 N 
ATOM     13  HN  UNL d   1       1.539  -1.363  -0.920  1.00  0.00     0.189 HD
ATOM     14  HN  UNL d   1       1.398   1.195  -1.201  1.00  0.00     0.188 HD
BRANCH   9  15
ATOM     15  S   UNL d   1      -0.695  -2.710   0.635  0.00  0.00    -0.097 SA
ATOM     16  C   UNL d   1       0.744  -3.649   0.068  0.00  0.00     0.099 C 
ENDBRANCH   9  15
ENDBRANCH   1   7
BRANCH   3  17
ATOM     17  C   UNL d   1      -2.818   4.691   2.368  0.00  0.00     0.417 C 
ATOM     18  F   UNL d   1      -3.031   6.035   2.398  0.00  0.00    -0.166 F 
ATOM     19  F   UNL d   1      -4.050   4.113   2.347  0.00  0.00    -0.166 F 
ATOM     20  F   UNL d   1      -2.273   4.368   3.572  0.00  0.00    -0.166 F 
ENDBRANCH   3  17
BRANCH   2  21
ATOM     21  C   UNL d   1      -0.071   5.720  -1.780  0.00  0.00     0.417 C 
ATOM     22  F   UNL d   1      -0.427   7.011  -1.527  0.00  0.00    -0.166 F 
ATOM     23  F   UNL d   1       1.289   5.709  -1.819  0.00  0.00    -0.166 F 
ATOM     24  F   UNL d   1      -0.489   5.461  -3.049  0.00  0.00    -0.166 F 
ENDBRANCH   2  21
TORSDOF 4
