REMARK  4 active torsions:
REMARK  status: ('A' for Active; 'I' for Inactive)
REMARK    1  A    between atoms: N_2  and  S_1 
REMARK    2  A    between atoms: C_4  and  S_1 
REMARK    3  A    between atoms: C_3  and  N_2 
REMARK    4  A    between atoms: N_14  and  C_11 
ROOT
ATOM      1  S   UNL d   1       1.057   0.091   0.084  0.00  0.00     0.246 S 
ATOM      2  O   UNL d   1       0.318  -0.506   1.176  0.00  0.00    -0.206 OA
ATOM      3  O   UNL d   1       2.498  -0.005   0.008  0.00  0.00    -0.206 OA
ENDROOT
BRANCH   1   4
ATOM      4  N   UNL d   1       0.571   1.725   0.046  0.00  0.00    -0.177 NA
ATOM      5  H   UNL d   1      -0.123   1.828   0.793  0.00  0.00     0.146 HD
BRANCH   4   6
ATOM      6  C   UNL d   1       1.662   2.663   0.195  0.00  0.00     0.083 A 
ATOM      7  C   UNL d   1       2.376   3.078  -0.932  0.00  0.00     0.140 A 
ATOM      8  F   UNL d   1       1.997   2.678  -2.156  0.00  0.00    -0.204 F 
ATOM      9  C   UNL d   1       3.481   3.920  -0.816  0.00  0.00     0.044 A 
ATOM     10  C   UNL d   1       3.904   4.336   0.446  0.00  0.00     0.005 A 
ATOM     11  C   UNL d   1       3.219   3.910   1.585  0.00  0.00     0.026 A 
ATOM     12  C   UNL d   1       2.105   3.075   1.460  0.00  0.00     0.059 A 
ATOM     13 CL   UNL d   1       1.282   2.582   2.897  0.00  0.00    -0.082 Cl
ENDBRANCH   4   6
ENDBRANCH   1   4
BRANCH   1  14
ATOM     14  C   UNL d   1       0.379  -0.542  -1.431  0.00  0.00     0.074 A 
ATOM     15  C   UNL d   1       1.161  -0.554  -2.587  0.00  0.00     0.026 A 
ATOM     16  C   UNL d   1       0.675  -1.172  -3.743  0.00  0.00     0.025 A 
ATOM     17  C   UNL d   1      -0.599  -1.750  -3.767  0.00  0.00     0.005 A 
ATOM     18  C   UNL d   1      -1.350  -1.772  -2.588  0.00  0.00     0.025 A 
ATOM     19  C   UNL d   1      -0.876  -1.158  -1.424  0.00  0.00     0.026 A 
BRANCH  17  20
ATOM     20  N   UNL d   1      -1.006  -2.507  -4.872  0.00  0.00    -0.303 NA
ATOM     21  H   UNL d   1      -2.010  -2.635  -4.941  0.00  0.00     0.124 HD
ATOM     22  H   UNL d   1      -0.591  -2.215  -5.751  0.00  0.00     0.124 HD
ENDBRANCH  17  20
ENDBRANCH   1  14
TORSDOF 4
