REMARK  1 active torsions:
REMARK  status: ('A' for Active; 'I' for Inactive)
REMARK    1  A    between atoms: C_8  and  C_4 
ROOT
ATOM      1  C   UNL d   1       1.321  -1.350   0.033  0.00  0.00     0.305 A 
ATOM      2  N   UNL d   1       1.183   1.448   0.029  0.00  0.00    -0.335 N 
ATOM      3  HN  UNL d   1       1.175   2.467   0.073  1.00  0.00     0.168 HD
ATOM      4  C   UNL d   1       2.286   0.782  -0.031  0.00  0.00     0.162 A 
ATOM      5  O   UNL d   1       2.420  -0.560  -0.040  0.00  0.00    -0.256 OA
ATOM      6  C   UNL d   1       0.017  -0.681   0.037  0.00  0.00     0.105 A 
ATOM      7  C   UNL d   1       0.002   0.707   0.031  0.00  0.00     0.053 A 
ATOM      8  O   UNL d   1       1.430  -2.567   0.072  0.00  0.00    -0.259 OA
ATOM      9  C   UNL d   1      -1.180  -1.395   0.022  0.00  0.00     0.135 A 
ATOM     10  F   UNL d   1      -1.196  -2.735   0.030  0.00  0.00    -0.205 F 
ATOM     11  C   UNL d   1      -1.224   1.378   0.001  0.00  0.00     0.031 A 
ATOM     12  C   UNL d   1      -2.425   0.665  -0.028  0.00  0.00     0.005 A 
ATOM     13  C   UNL d   1      -2.401  -0.728  -0.013  0.00  0.00     0.043 A 
ENDROOT
BRANCH   4  14
ATOM     14  C   UNL d   1       3.622   1.417  -0.073  0.00  0.00     0.017 A 
ATOM     15  C   UNL d   1       3.812   2.654   0.555  0.00  0.00     0.042 A 
ATOM     16  C   UNL d   1       5.070   3.259   0.518  0.00  0.00     0.073 A 
ATOM     17 CL   UNL d   1       5.307   4.767   1.315  0.00  0.00    -0.081 Cl
ATOM     18  C   UNL d   1       6.124   2.641  -0.154  0.00  0.00     0.138 A 
ATOM     19  C   UNL d   1       5.938   1.417  -0.791  0.00  0.00     0.045 A 
ATOM     20  F   UNL d   1       7.336   3.212  -0.203  0.00  0.00    -0.204 F 
ATOM     21  C   UNL d   1       4.687   0.801  -0.750  0.00  0.00     0.019 A 
ENDBRANCH   4  14
TORSDOF 1
