REMARK  8 active torsions:
REMARK  status: ('A' for Active; 'I' for Inactive)
REMARK    1  A    between atoms: N_2  and  C_1 
REMARK    2  A    between atoms: N_3  and  C_1 
REMARK    3  A    between atoms: C_5  and  N_2 
REMARK    4  A    between atoms: C_8  and  N_2 
REMARK    5  A    between atoms: C_4  and  N_3 
REMARK    6  A    between atoms: C_10  and  C_5 
REMARK    7  A    between atoms: C_23  and  C_10 
REMARK    8  A    between atoms: O_21  and  C_16 
ROOT
ATOM      1  N   UNL d   1       0.293  -0.605  -1.066  0.00  0.00    -0.320 N 
ENDROOT
BRANCH   1   2
ATOM      2  C   UNL d   1       0.682  -0.223   0.220  0.00  0.00     0.179 C 
ATOM      3  S   UNL d   1      -0.276   0.523   1.391  0.00  0.00    -0.040 SA
BRANCH   2   4
ATOM      4  N   UNL d   1       1.965  -0.400   0.655  0.00  0.00    -0.331 N 
ATOM      5  H   UNL d   1       2.188   0.216   1.434  0.00  0.00     0.168 HD
BRANCH   4   6
ATOM      6  C   UNL d   1       2.884  -1.471   0.536  0.00  0.00     0.057 A 
ATOM      7  C   UNL d   1       2.588  -2.675  -0.105  0.00  0.00     0.055 A 
ATOM      8  C   UNL d   1       3.546  -3.689  -0.172  0.00  0.00     0.036 A 
ATOM      9 CL   UNL d   1       3.183  -5.147  -1.010  0.00  0.00    -0.084 Cl
ATOM     10  C   UNL d   1       4.790  -3.543   0.440  0.00  0.00     0.026 A 
ATOM     11  C   UNL d   1       5.081  -2.368   1.133  0.00  0.00     0.028 A 
ATOM     12  C   UNL d   1       4.133  -1.342   1.179  0.00  0.00     0.060 A 
ATOM     13 CL   UNL d   1       4.533   0.085   2.077  0.00  0.00    -0.082 Cl
ENDBRANCH   4   6
ENDBRANCH   2   4
ENDBRANCH   1   2
BRANCH   1  14
ATOM     14  C   UNL d   1      -1.151  -0.731  -1.524  0.00  0.00     0.089 C 
ATOM     15  C   UNL d   1      -2.029   0.510  -1.306  0.00  0.00     0.033 C 
BRANCH  14  16
ATOM     16  C   UNL d   1      -1.791  -2.038  -1.016  0.00  0.00     0.029 C 
BRANCH  16  17
ATOM     17  C   UNL d   1      -3.175  -2.373  -1.618  0.00  0.00    -0.021 C 
ATOM     18  C   UNL d   1      -3.210  -2.318  -3.149  0.00  0.00     0.009 C 
ATOM     19  C   UNL d   1      -3.611  -3.769  -1.161  0.00  0.00     0.009 C 
ENDBRANCH  16  17
ENDBRANCH  14  16
ENDBRANCH   1  14
BRANCH   1  20
ATOM     20  C   UNL d   1       1.232  -0.708  -2.162  0.00  0.00     0.037 A 
ATOM     21  C   UNL d   1       1.079  -1.718  -3.131  0.00  0.00     0.032 A 
ATOM     22  C   UNL d   1       1.917  -1.802  -4.244  0.00  0.00     0.039 A 
ATOM     23  C   UNL d   1       2.929  -0.865  -4.423  0.00  0.00     0.068 A 
ATOM     24  C   UNL d   1       3.107   0.131  -3.457  0.00  0.00     0.039 A 
ATOM     25  C   UNL d   1       2.274   0.208  -2.331  0.00  0.00     0.032 A 
BRANCH  23  26
ATOM     26  O   UNL d   1       3.784  -0.809  -5.487  0.00  0.00    -0.356 OA
ATOM     27  C   UNL d   1       3.614  -1.799  -6.497  0.00  0.00     0.210 C 
ENDBRANCH  23  26
ENDBRANCH   1  20
TORSDOF 8
