REMARK  8 active torsions:
REMARK  status: ('A' for Active; 'I' for Inactive)
REMARK    1  A    between atoms: C_3  and  C_1 
REMARK       I    between atoms: C_2  and  N_10 
REMARK    2  A    between atoms: C_4  and  C_2 
REMARK    3  A    between atoms: N_10  and  C_22 
REMARK    4  A    between atoms: O_18  and  C_13 
REMARK    5  A    between atoms: C_21  and  C_14 
REMARK    6  A    between atoms: S_17  and  C_21 
REMARK    7  A    between atoms: C_24  and  S_17 
REMARK    8  A    between atoms: C_22  and  C_24 
ROOT
ATOM      1  C   UNL d   1      -1.227  -6.165  -3.230  0.00  0.00     0.133 C 
ENDROOT
BRANCH   1   2
ATOM      2  N   UNL d   1      -1.813  -7.412  -3.701  0.00  0.00    -0.356 N 
ATOM      3  C   UNL d   1      -1.123  -8.305  -4.486  0.00  0.00     0.251 C 
ATOM      4  O   UNL d   1       0.041  -8.113  -4.830  0.00  0.00    -0.268 OA
ATOM      5  H   UNL d   1      -2.822  -7.460  -3.643  0.00  0.00     0.162 HD
BRANCH   3   6
ATOM      6  C   UNL d   1      -1.838  -9.550  -4.912  0.00  0.00     0.032 A 
ATOM      7  C   UNL d   1      -3.118  -9.899  -4.456  0.00  0.00     0.020 A 
ATOM      8  C   UNL d   1      -3.710 -11.110  -4.845  0.00  0.00     0.038 A 
ATOM      9  C   UNL d   1      -3.028 -11.989  -5.685  0.00  0.00     0.068 A 
ATOM     10  C   UNL d   1      -1.768 -11.635  -6.166  0.00  0.00     0.038 A 
ATOM     11  C   UNL d   1      -1.172 -10.430  -5.776  0.00  0.00     0.020 A 
BRANCH   9  12
ATOM     12  O   UNL d   1      -3.513 -13.188  -6.128  0.00  0.00    -0.356 OA
ATOM     13  C   UNL d   1      -4.391 -13.863  -5.232  0.00  0.00     0.210 C 
ENDBRANCH   9  12
ENDBRANCH   3   6
ENDBRANCH   1   2
BRANCH   1  14
ATOM     14  C   UNL d   1      -1.600  -4.970  -4.114  0.00  0.00     0.093 C 
BRANCH  14  15
ATOM     15  S   UNL d   1      -3.420  -4.791  -4.142  0.00  0.00    -0.163 SA
BRANCH  15  16
ATOM     16  C   UNL d   1      -3.573  -3.343  -5.236  0.00  0.00     0.112 C 
BRANCH  16  17
ATOM     17  C   UNL d   1      -5.035  -3.037  -5.463  0.00  0.00    -0.048 A 
ATOM     18  C   UNL d   1      -5.736  -2.209  -4.571  0.00  0.00     0.024 A 
ATOM     19  C   UNL d   1      -7.114  -1.983  -4.726  0.00  0.00     0.048 A 
ATOM     20  C   UNL d   1      -7.787  -2.597  -5.792  0.00  0.00     0.016 A 
ATOM     21  C   UNL d   1      -7.100  -3.423  -6.682  0.00  0.00     0.001 A 
ATOM     22  C   UNL d   1      -5.733  -3.644  -6.516  0.00  0.00     0.008 A 
BRANCH  19  23
ATOM     23  C   UNL d   1      -7.875  -1.112  -3.758  0.00  0.00     0.417 C 
ATOM     24  F   UNL d   1      -7.099  -0.582  -2.771  0.00  0.00    -0.166 F 
ATOM     25  F   UNL d   1      -8.875  -1.785  -3.123  0.00  0.00    -0.166 F 
ATOM     26  F   UNL d   1      -8.471  -0.050  -4.370  0.00  0.00    -0.166 F 
ENDBRANCH  19  23
ENDBRANCH  16  17
ENDBRANCH  15  16
ENDBRANCH  14  15
ENDBRANCH   1  14
TORSDOF 8
