REMARK  2 active torsions:
REMARK  status: ('A' for Active; 'I' for Inactive)
REMARK    1  A    between atoms: S_3  and  C_1 
REMARK    2  A    between atoms: C_4  and  S_3 
ROOT
ATOM      1  C   UNL d   1      -0.978  -1.515   0.125  0.00  0.00     0.095 A 
ATOM      2  C   UNL d   1      -1.173  -0.803   1.308  0.00  0.00     0.065 A 
ATOM      3  N   UNL d   1      -1.009  -0.860  -1.056  0.00  0.00    -0.345 N 
ATOM      4  HN  UNL d   1      -0.872  -1.357  -1.936  1.00  0.00     0.167 HD
ATOM      5  S   UNL d   1      -1.194  -1.310   2.954  0.00  0.00    -0.097 SA
ATOM      6  C   UNL d   1      -1.396   0.570   1.215  0.00  0.00     0.053 A 
ATOM      7  C   UNL d   1      -1.497   0.270   3.522  0.00  0.00     0.053 A 
ATOM      8  C   UNL d   1      -1.580   1.178   2.492  0.00  0.00     0.038 A 
ATOM      9  N   UNL d   1      -1.426   1.233   0.033  0.00  0.00    -0.351 N 
ATOM     10  HN  UNL d   1      -1.590   2.237  -0.033  1.00  0.00     0.166 HD
ATOM     11  C   UNL d   1      -1.224   0.461  -1.037  0.00  0.00     0.181 A 
ENDROOT
BRANCH   1  12
ATOM     12  S   UNL d   1      -0.650  -3.256   0.103  0.00  0.00    -0.069 SA
BRANCH  12  13
ATOM     13  C   UNL d   1      -2.315  -3.914   0.013  0.00  0.00     0.030 A 
ATOM     14  C   UNL d   1      -3.080  -3.646  -1.133  0.00  0.00     0.044 A 
ATOM     15  C   UNL d   1      -4.372  -4.156  -1.258  0.00  0.00     0.035 A 
ATOM     16 CL   UNL d   1      -5.298  -3.804  -2.664  0.00  0.00    -0.084 Cl
ATOM     17  C   UNL d   1      -4.918  -4.951  -0.254  0.00  0.00     0.025 A 
ATOM     18  C   UNL d   1      -4.165  -5.235   0.886  0.00  0.00     0.027 A 
ATOM     19  C   UNL d   1      -2.869  -4.722   1.022  0.00  0.00     0.051 A 
ATOM     20 CL   UNL d   1      -2.011  -5.132   2.467  0.00  0.00    -0.083 Cl
ENDBRANCH  12  13
ENDBRANCH   1  12
TORSDOF 2
