REMARK  4 active torsions:
REMARK  status: ('A' for Active; 'I' for Inactive)
REMARK    1  A    between atoms: C_14  and  C_1 
REMARK    2  A    between atoms: N_18  and  C_2 
REMARK    3  A    between atoms: N_8  and  C_4 
REMARK    4  A    between atoms: C_10  and  N_19 
REMARK       I    between atoms: C_16  and  N_18 
REMARK       I    between atoms: N_19  and  C_16 
ROOT
ATOM      1  C   UNL d   1       1.878  -2.662  -0.478  0.00  0.00     0.325 C 
ATOM      2  N   UNL d   1       2.156  -3.918  -0.946  0.00  0.00    -0.304 N 
ATOM      3  N   UNL d   1       2.896  -1.946   0.125  0.00  0.00    -0.308 N 
ATOM      4  O   UNL d   1       0.739  -2.238  -0.659  0.00  0.00    -0.247 OA
ATOM      5  H   UNL d   1       1.296  -4.405  -1.192  0.00  0.00     0.171 HD
ATOM      6  H   UNL d   1       3.797  -2.175  -0.265  0.00  0.00     0.170 HD
ENDROOT
BRANCH   3   7
ATOM      7  C   UNL d   1       2.671  -0.552   0.371  0.00  0.00     0.045 A 
ATOM      8  C   UNL d   1       1.712  -0.080   1.302  0.00  0.00    -0.002 A 
ATOM      9  C   UNL d   1       1.389   1.305   1.293  0.00  0.00     0.118 A 
ATOM     10  C   UNL d   1       1.116  -1.031   2.317  0.00  0.00     0.053 C 
ATOM     11  C   UNL d   1       1.998   2.201   0.400  0.00  0.00    -0.009 A 
ATOM     12  C   UNL d   1       3.007   1.708  -0.453  0.00  0.00    -0.038 A 
ATOM     13  C   UNL d   1       1.708   3.665   0.101  0.00  0.00    -0.017 C 
ATOM     14  C   UNL d   1       3.366   0.357  -0.449  0.00  0.00     0.038 A 
ATOM     15  C   UNL d   1       3.503   2.766  -1.417  0.00  0.00    -0.019 C 
ATOM     16  C   UNL d   1       2.957   4.048  -0.745  0.00  0.00     0.027 C 
ATOM     17  C   UNL d   1       2.919   2.544  -2.821  0.00  0.00     0.020 C 
ATOM     18  C   UNL d   1       5.030   2.851  -1.538  0.00  0.00     0.020 C 
ATOM     19  C   UNL d   1       0.418   3.841  -0.720  0.00  0.00     0.020 C 
ATOM     20  C   UNL d   1       1.641   4.603   1.318  0.00  0.00     0.020 C 
BRANCH   9  21
ATOM     21  N   UNL d   1       0.382   1.799   2.208  0.00  0.00    -0.114 N 
ATOM     22  O   UNL d   1      -0.752   1.990   1.759  0.00  0.00    -0.532 OA
ATOM     23  O   UNL d   1       0.735   1.982   3.385  0.00  0.00    -0.532 OA
ENDBRANCH   9  21
ENDBRANCH   3   7
BRANCH   2  24
ATOM     24  C   UNL d   1       3.258  -4.717  -0.705  0.00  0.00     0.097 C 
ATOM     25  C   UNL d   1       4.333  -5.022  -1.609  0.00  0.00     0.096 C 
ATOM     26  N   UNL d   1       5.135  -5.950  -1.073  0.00  0.00    -0.258 N 
ATOM     27  O   UNL d   1       4.524  -6.379   0.076  0.00  0.00    -0.240 OA
ATOM     28  HN  UNL d   1       6.027  -6.275  -1.447  1.00  0.00     0.195 HD
ATOM     29  C   UNL d   1       3.348  -5.722   0.238  0.00  0.00     0.101 C 
ATOM     30  C   UNL d   1       2.469  -6.297   1.275  0.00  0.00     0.081 C 
BRANCH  25  31
ATOM     31  C   UNL d   1       4.513  -4.639  -3.014  0.00  0.00     0.017 A 
ATOM     32  C   UNL d   1       5.766  -4.315  -3.555  0.00  0.00     0.046 A 
ATOM     33 CL   UNL d   1       7.181  -4.085  -2.585  0.00  0.00    -0.083 Cl
ATOM     34  C   UNL d   1       5.917  -4.144  -4.939  0.00  0.00     0.025 A 
ATOM     35  C   UNL d   1       4.823  -4.281  -5.793  0.00  0.00     0.002 A 
ATOM     36  C   UNL d   1       3.570  -4.578  -5.268  0.00  0.00     0.001 A 
ATOM     37  C   UNL d   1       3.415  -4.760  -3.890  0.00  0.00     0.015 A 
ENDBRANCH  25  31
ENDBRANCH   2  24
TORSDOF 4
