REMARK  3 active torsions:
REMARK  status: ('A' for Active; 'I' for Inactive)
REMARK    1  A    between atoms: C_7  and  N_1 
REMARK    2  A    between atoms: S_11  and  C_2 
REMARK    3  A    between atoms: C_14  and  S_11 
ROOT
ATOM      1  C   UNL d   1       3.272  -0.312   2.628  0.00  0.00    -0.107 C 
ATOM      2  C   UNL d   1       2.972  -0.295   3.793  0.00  0.00     0.013 C 
ATOM      3  C   UNL d   1       3.652  -0.323   1.212  0.00  0.00     0.175 C 
ENDROOT
BRANCH   3   4
ATOM      4  S   UNL d   1       2.672  -1.495   0.244  0.00  0.00    -0.079 SA
BRANCH   4   5
ATOM      5  C   UNL d   1       1.119  -0.721   0.213  0.00  0.00     0.178 A 
ATOM      6  N   UNL d   1      -0.084  -1.369  -0.023  0.00  0.00    -0.219 N 
ATOM      7  N   UNL d   1      -1.000  -0.419  -0.340  0.00  0.00     0.001 NA
ATOM      8  N   UNL d   1      -0.397   0.748  -0.162  0.00  0.00    -0.006 NA
ATOM      9  N   UNL d   1       0.923   0.578   0.165  0.00  0.00    -0.264 N 
ATOM     10  HN  UNL d   1       1.612   1.310   0.337  1.00  0.00     0.186 HD
BRANCH   6  11
ATOM     11  C   UNL d   1      -0.434  -2.743   0.004  0.00  0.00     0.058 A 
ATOM     12  C   UNL d   1       0.261  -3.653   0.811  0.00  0.00     0.055 A 
ATOM     13  C   UNL d   1      -0.062  -5.008   0.765  0.00  0.00     0.036 A 
ATOM     14 CL   UNL d   1       0.803  -6.121   1.753  0.00  0.00    -0.084 Cl
ATOM     15  C   UNL d   1      -1.077  -5.468  -0.070  0.00  0.00     0.024 A 
ATOM     16  C   UNL d   1      -1.802  -4.560  -0.842  0.00  0.00     0.004 A 
ATOM     17  C   UNL d   1      -1.497  -3.197  -0.793  0.00  0.00     0.031 A 
ENDBRANCH   6  11
ENDBRANCH   4   5
ENDBRANCH   3   4
TORSDOF 3
