REMARK  3 active torsions:
REMARK  status: ('A' for Active; 'I' for Inactive)
REMARK    1  A    between atoms: C_3  and  C_1 
REMARK    2  A    between atoms: C_2  and  N_6 
REMARK       I    between atoms: N_6  and  C_3 
REMARK    3  A    between atoms: C_8  and  C_9 
ROOT
ATOM      1  C   UNL d   1       0.983  -0.061   0.069  0.00  0.00     0.113 C 
ATOM      2  C   UNL d   1       0.460  -1.223  -0.430  0.00  0.00     0.047 C 
ATOM      3  C   UNL d   1       0.146   0.976   0.648  0.00  0.00     0.105 C 
ATOM      4  N   UNL d   1      -0.481   1.806   1.165  0.00  0.00    -0.191 NA
ENDROOT
BRANCH   1   5
ATOM      5  C   UNL d   1       2.493   0.033  -0.026  0.00  0.00     0.267 C 
ATOM      6  N   UNL d   1       3.062   1.107   0.629  0.00  0.00    -0.307 N 
ATOM      7  H   UNL d   1       2.517   1.693   1.248  0.00  0.00     0.170 HD
ATOM      8  O   UNL d   1       3.123  -0.835  -0.627  0.00  0.00    -0.266 OA
BRANCH   6   9
ATOM      9  C   UNL d   1       4.402   1.465   0.511  0.00  0.00     0.124 A 
ATOM     10  N   UNL d   1       5.255   0.966  -0.383  0.00  0.00    -0.284 N 
ATOM     11  N   UNL d   1       6.400   1.632  -0.184  0.00  0.00    -0.306 N 
ATOM     12  HN  UNL d   1       5.074   0.235  -1.070  1.00  0.00     0.188 HD
ATOM     13  C   UNL d   1       7.532   1.388  -1.047  0.00  0.00     0.177 C 
ATOM     14  C   UNL d   1       6.326   2.541   0.827  0.00  0.00     0.113 A 
ATOM     15  C   UNL d   1       5.032   2.470   1.293  0.00  0.00     0.068 A 
ENDBRANCH   6   9
ENDBRANCH   1   5
BRANCH   2  16
ATOM     16  C   UNL d   1      -0.933  -1.491  -0.514  0.00  0.00     0.007 A 
ATOM     17  C   UNL d   1      -1.635  -2.589  -0.037  0.00  0.00     0.038 A 
ATOM     18  C   UNL d   1      -3.024  -2.497  -0.317  0.00  0.00     0.018 A 
ATOM     19 BR   UNL d   1      -4.248  -3.830   0.213  0.00  0.00    -0.051 Br
ATOM     20  C   UNL d   1      -3.367  -1.365  -1.007  0.00  0.00     0.069 A 
ATOM     21  S   UNL d   1      -1.990  -0.435  -1.385  0.00  0.00    -0.101 SA
ENDBRANCH   2  16
TORSDOF 3
