REMARK  1 active torsions:
REMARK  status: ('A' for Active; 'I' for Inactive)
REMARK    1  A    between atoms: C_9  and  C_6 
ROOT
ATOM      1  N   UNL d   1      -0.970   4.608   1.051  0.00  0.00    -0.298 N 
ATOM      2  C   UNL d   1      -2.267   4.732   1.477  0.00  0.00     0.179 A 
ATOM      3  C   UNL d   1      -2.100   2.728   0.482  0.00  0.00     0.104 A 
ATOM      4  C   UNL d   1      -0.766   3.404   0.429  0.00  0.00     0.274 A 
ATOM      5  N   UNL d   1      -2.950   3.582   1.129  0.00  0.00    -0.329 N 
ATOM      6  C   UNL d   1      -2.365   1.527  -0.032  0.00  0.00     0.046 C 
ATOM      7  S   UNL d   1      -2.903   6.032   2.266  0.00  0.00    -0.040 SA
ATOM      8  O   UNL d   1       0.263   2.979  -0.061  0.00  0.00    -0.266 OA
ATOM      9  H   UNL d   1      -0.251   5.302   1.168  0.00  0.00     0.171 HD
ATOM     10  H   UNL d   1      -3.926   3.399   1.323  0.00  0.00     0.168 HD
ENDROOT
BRANCH   6  11
ATOM     11  C   UNL d   1      -3.684   0.897  -0.008  0.00  0.00    -0.034 A 
ATOM     12  C   UNL d   1      -4.574   1.091  -1.069  0.00  0.00     0.012 A 
ATOM     13  C   UNL d   1      -5.818   0.456  -1.068  0.00  0.00     0.007 A 
ATOM     14  C   UNL d   1      -6.189  -0.377  -0.005  0.00  0.00    -0.062 A 
ATOM     15  C   UNL d   1      -5.303  -0.549   1.065  0.00  0.00     0.007 A 
ATOM     16  C   UNL d   1      -7.512  -1.084  -0.027  0.00  0.00     0.048 C 
ATOM     17  C   UNL d   1      -4.059   0.086   1.066  0.00  0.00     0.012 A 
ENDBRANCH   6  11
TORSDOF 1
