REMARK  7 active torsions:
REMARK  status: ('A' for Active; 'I' for Inactive)
REMARK    1  A    between atoms: C_5  and  C_1 
REMARK    2  A    between atoms: C_4  and  C_2 
REMARK    3  A    between atoms: O_7  and  C_2 
REMARK    4  A    between atoms: C_3  and  C_6 
REMARK    5  A    between atoms: O_15  and  C_4 
REMARK    6  A    between atoms: O_16  and  C_5 
REMARK    7  A    between atoms: C_9  and  O_7 
ROOT
ATOM      1  O   UNL d   1      -0.816  -0.542   1.187  0.00  0.00    -0.304 OA
ENDROOT
BRANCH   1   2
ATOM      2  C   UNL d   1       0.588  -0.567   1.206  0.00  0.00     0.156 C 
ATOM      3  C   UNL d   1       1.323   0.120   0.310  0.00  0.00     0.125 C 
BRANCH   3   4
ATOM      4  C   UNL d   1       2.761   0.018   0.048  0.00  0.00     0.285 C 
ATOM      5  O   UNL d   1       3.178  -0.067  -1.098  0.00  0.00    -0.260 OA
BRANCH   4   6
ATOM      6  O   UNL d   1       3.505   0.139   1.167  0.00  0.00    -0.323 OA
ATOM      7  C   UNL d   1       4.906   0.013   0.900  0.00  0.00     0.213 C 
ENDBRANCH   4   6
ENDBRANCH   3   4
BRANCH   2   8
ATOM      8  C   UNL d   1       1.202  -1.416   2.258  0.00  0.00     0.317 C 
ATOM      9  O   UNL d   1       2.164  -2.149   2.093  0.00  0.00    -0.257 OA
BRANCH   8  10
ATOM     10  O   UNL d   1       0.486  -1.266   3.403  0.00  0.00    -0.321 OA
ATOM     11  C   UNL d   1       0.925  -2.026   4.532  0.00  0.00     0.213 C 
ENDBRANCH   8  10
ENDBRANCH   2   8
ENDBRANCH   1   2
BRANCH   1  12
ATOM     12  C   UNL d   1      -1.447  -0.590  -0.041  0.00  0.00     0.077 A 
ATOM     13  C   UNL d   1      -0.937  -1.308  -1.131  0.00  0.00     0.053 A 
ATOM     14  C   UNL d   1      -1.496  -1.153  -2.406  0.00  0.00     0.050 A 
ATOM     15  C   UNL d   1      -2.651  -0.368  -2.544  0.00  0.00     0.016 A 
ATOM     16  C   UNL d   1      -3.219   0.261  -1.434  0.00  0.00     0.004 A 
ATOM     17  C   UNL d   1      -2.612   0.159  -0.182  0.00  0.00     0.037 A 
BRANCH  14  18
ATOM     18  C   UNL d   1      -0.831  -1.760  -3.618  0.00  0.00     0.417 C 
ATOM     19  F   UNL d   1       0.314  -2.438  -3.327  0.00  0.00    -0.166 F 
ATOM     20  F   UNL d   1      -1.633  -2.641  -4.273  0.00  0.00    -0.166 F 
ATOM     21  F   UNL d   1      -0.480  -0.816  -4.535  0.00  0.00    -0.166 F 
ENDBRANCH  14  18
ENDBRANCH   1  12
TORSDOF 7
