REMARK  5 active torsions:
REMARK  status: ('A' for Active; 'I' for Inactive)
REMARK    1  A    between atoms: C_2  and  S_1 
REMARK    2  A    between atoms: N_5  and  S_1 
REMARK    3  A    between atoms: N_3  and  C_11 
REMARK    4  A    between atoms: O_6  and  C_4 
REMARK    5  A    between atoms: C_13  and  O_6 
ROOT
ATOM      1  C   UNL d   1       0.592   1.604  -0.804  0.00  0.00     0.078 A 
ATOM      2  C   UNL d   1      -0.205   4.112  -1.757  0.00  0.00     0.119 A 
ATOM      3  C   UNL d   1       0.393   3.989  -0.489  0.00  0.00     0.071 A 
ATOM      4  C   UNL d   1      -0.460   2.946  -2.501  0.00  0.00     0.071 A 
ATOM      5  C   UNL d   1      -0.067   1.692  -2.029  0.00  0.00     0.051 A 
ATOM      6  C   UNL d   1       0.824   2.743  -0.033  0.00  0.00     0.051 A 
ATOM      7 CL   UNL d   1      -1.285   3.015  -4.019  0.00  0.00    -0.081 Cl
ATOM      8 CL   UNL d   1       0.575   5.310   0.615  0.00  0.00    -0.081 Cl
ENDROOT
BRANCH   2   9
ATOM      9  O   UNL d   1      -0.632   5.307  -2.302  0.00  0.00    -0.306 OA
BRANCH   9  10
ATOM     10  C   UNL d   1       0.228   6.386  -2.289  0.00  0.00     0.098 A 
ATOM     11  C   UNL d   1      -0.321   7.658  -2.067  0.00  0.00     0.070 A 
ATOM     12  C   UNL d   1       0.510   8.771  -1.926  0.00  0.00     0.062 A 
ATOM     13 CL   UNL d   1      -2.026   7.885  -1.916  0.00  0.00    -0.081 Cl
ATOM     14  C   UNL d   1       1.897   8.604  -2.018  0.00  0.00     0.104 A 
ATOM     15  C   UNL d   1       2.451   7.348  -2.301  0.00  0.00     0.039 A 
ATOM     16  C   UNL d   1       1.611   6.245  -2.465  0.00  0.00     0.041 A 
BRANCH  14  17
ATOM     17  N   UNL d   1       2.784   9.753  -1.805  0.00  0.00    -0.116 N 
ATOM     18  O   UNL d   1       2.260  10.865  -1.660  0.00  0.00    -0.532 OA
ATOM     19  O   UNL d   1       4.005   9.539  -1.778  0.00  0.00    -0.532 OA
ENDBRANCH  14  17
ENDBRANCH   9  10
ENDBRANCH   2   9
BRANCH   1  20
ATOM     20  S   UNL d   1       0.997   0.025  -0.108  0.00  0.00     0.243 S 
ATOM     21  O   UNL d   1       0.625  -0.998  -1.056  0.00  0.00    -0.206 OA
ATOM     22  O   UNL d   1       0.471   0.034   1.239  0.00  0.00    -0.206 OA
BRANCH  20  23
ATOM     23  N   UNL d   1       2.701   0.071  -0.016  0.00  0.00    -0.206 NA
ATOM     24  C   UNL d   1       3.436  -0.037  -1.304  0.00  0.00     0.107 C 
ATOM     25  C   UNL d   1       3.810  -1.504  -1.401  0.00  0.00     0.017 C 
ATOM     26  C   UNL d   1       4.152  -1.871   0.029  0.00  0.00     0.017 C 
ATOM     27  C   UNL d   1       3.280  -0.967   0.894  0.00  0.00     0.107 C 
ENDBRANCH  20  23
ENDBRANCH   1  20
TORSDOF 5
