REMARK  3 active torsions:
REMARK  status: ('A' for Active; 'I' for Inactive)
REMARK    1  A    between atoms: S_2  and  C_1 
REMARK    2  A    between atoms: C_3  and  S_2 
REMARK    3  A    between atoms: N_12  and  C_4 
ROOT
ATOM      1  C   UNL d   1       1.173  -1.183  -0.193  0.00  0.00     0.027 A 
ATOM      2  C   UNL d   1       1.537   0.176  -0.192  0.00  0.00     0.023 A 
ATOM      3  C   UNL d   1      -0.180  -1.539  -0.099  0.00  0.00     0.028 A 
ATOM      4  C   UNL d   1       0.525   1.144  -0.182  0.00  0.00     0.032 A 
ATOM      5  C   UNL d   1      -1.192  -0.564  -0.039  0.00  0.00    -0.055 A 
ATOM      6  C   UNL d   1      -0.834   0.795  -0.080  0.00  0.00    -0.054 A 
ATOM      7  C   UNL d   1      -1.838   1.915  -0.015  0.00  0.00     0.049 C 
ATOM      8  C   UNL d   1      -2.625  -1.010   0.053  0.00  0.00     0.049 C 
ENDROOT
BRANCH   1   9
ATOM      9  S   UNL d   1       2.405  -2.485  -0.162  0.00  0.00    -0.088 SA
BRANCH   9  10
ATOM     10  C   UNL d   1       2.614  -2.946  -1.884  0.00  0.00     0.011 A 
ATOM     11  C   UNL d   1       2.861  -4.282  -2.266  0.00  0.00    -0.044 A 
ATOM     12  C   UNL d   1       3.185  -4.565  -3.607  0.00  0.00     0.014 A 
ATOM     13  C   UNL d   1       2.857  -5.450  -1.313  0.00  0.00     0.049 C 
ATOM     14  C   UNL d   1       3.253  -3.556  -4.575  0.00  0.00    -0.061 A 
ATOM     15  C   UNL d   1       2.961  -2.247  -4.199  0.00  0.00     0.008 A 
ATOM     16  C   UNL d   1       3.671  -3.877  -5.979  0.00  0.00     0.048 C 
ATOM     17  C   UNL d   1       2.651  -1.950  -2.872  0.00  0.00     0.020 A 
ENDBRANCH   9  10
ENDBRANCH   1   9
BRANCH   2  18
ATOM     18  N   UNL d   1       2.864   0.589  -0.432  0.00  0.00    -0.302 NA
ATOM     19  H   UNL d   1       3.537  -0.131  -0.175  0.00  0.00     0.124 HD
ATOM     20  H   UNL d   1       3.090   1.498  -0.044  0.00  0.00     0.124 HD
ENDBRANCH   2  18
TORSDOF 3
