REMARK  1 active torsions:
REMARK  status: ('A' for Active; 'I' for Inactive)
REMARK    1  A    between atoms: C_7  and  C_3 
ROOT
ATOM      1  N   UNL d   1       2.451  -0.512   0.068  0.00  0.00    -0.307 N 
ATOM      2  HN  UNL d   1       3.369  -0.954   0.101  1.00  0.00     0.170 HD
ATOM      3  C   UNL d   1       2.367   0.785   0.028  0.00  0.00     0.128 A 
ATOM      4  N   UNL d   1       1.148   1.478  -0.003  0.00  0.00    -0.336 N 
ATOM      5  C   UNL d   1      -0.002  -0.653   0.038  0.00  0.00     0.060 A 
ATOM      6  C   UNL d   1       1.329  -1.292   0.067  0.00  0.00     0.259 A 
ATOM      7  C   UNL d   1      -0.058   0.747   0.020  0.00  0.00     0.051 A 
ATOM      8  C   UNL d   1      -1.337   1.334   0.015  0.00  0.00     0.032 A 
ATOM      9  C   UNL d   1      -1.161  -1.447   0.020  0.00  0.00     0.043 A 
ATOM     10  O   UNL d   1       1.382  -2.516   0.092  0.00  0.00    -0.267 OA
ATOM     11  C   UNL d   1      -2.405  -0.835  -0.010  0.00  0.00     0.035 A 
ATOM     12  C   UNL d   1       1.044   2.922  -0.186  0.00  0.00     0.158 C 
ATOM     13  C   UNL d   1      -2.499   0.552  -0.007  0.00  0.00     0.026 A 
ATOM     14 CL   UNL d   1      -3.835  -1.787  -0.051  0.00  0.00    -0.084 Cl
ENDROOT
BRANCH   3  15
ATOM     15  C   UNL d   1       3.683   1.449   0.023  0.00  0.00     0.050 A 
ATOM     16  C   UNL d   1       4.099   2.583   0.698  0.00  0.00     0.042 A 
ATOM     17  C   UNL d   1       5.416   2.962   0.336  0.00  0.00     0.018 A 
ATOM     18 BR   UNL d   1       6.219   4.533   0.999  0.00  0.00    -0.051 Br
ATOM     19  C   UNL d   1       6.014   2.087  -0.532  0.00  0.00     0.069 A 
ATOM     20  S   UNL d   1       4.958   0.809  -0.946  0.00  0.00    -0.097 SA
ENDBRANCH   3  15
TORSDOF 1
