REMARK  2 active torsions:
REMARK  status: ('A' for Active; 'I' for Inactive)
REMARK    1  A    between atoms: C_3  and  N_1 
REMARK    2  A    between atoms: C_7  and  C_2 
ROOT
ATOM      1  N   UNL d   1      -0.660  -1.187   0.186  0.00  0.00    -0.299 N 
ATOM      2  C   UNL d   1       0.736  -1.386  -0.173  0.00  0.00     0.190 C 
ATOM      3  S   UNL d   1       1.527   0.242  -0.119  0.00  0.00    -0.129 SA
ATOM      4  C   UNL d   1      -1.128   0.130   0.124  0.00  0.00     0.235 C 
ATOM      5  C   UNL d   1      -0.040   1.114  -0.239  0.00  0.00     0.179 C 
ATOM      6  O   UNL d   1      -2.294   0.490   0.268  0.00  0.00    -0.272 OA
ENDROOT
BRANCH   1   7
ATOM      7  C   UNL d   1      -1.537  -2.286   0.428  0.00  0.00     0.040 A 
ATOM      8  C   UNL d   1      -2.545  -2.184   1.395  0.00  0.00     0.055 A 
ATOM      9  C   UNL d   1      -3.362  -3.280   1.704  0.00  0.00     0.058 A 
ATOM     10 CL   UNL d   1      -4.528  -3.085   2.963  0.00  0.00    -0.082 Cl
ATOM     11  C   UNL d   1      -3.195  -4.487   1.020  0.00  0.00     0.055 A 
ATOM     12  C   UNL d   1      -2.208  -4.593   0.041  0.00  0.00     0.028 A 
ATOM     13 CL   UNL d   1      -4.166  -5.878   1.338  0.00  0.00    -0.083 Cl
ATOM     14  C   UNL d   1      -1.375  -3.503  -0.247  0.00  0.00     0.031 A 
ENDBRANCH   1   7
BRANCH   2  15
ATOM     15  C   UNL d   1       1.469  -2.382   0.697  0.00  0.00    -0.010 A 
ATOM     16  C   UNL d   1       2.173  -3.433   0.113  0.00  0.00     0.097 A 
ATOM     17  N   UNL d   1       2.775  -4.428   0.802  0.00  0.00    -0.375 N 
ATOM     18  C   UNL d   1       2.695  -4.369   2.148  0.00  0.00     0.087 A 
ATOM     19  HN  UNL d   1       3.265  -5.187   0.328  1.00  0.00     0.164 HD
ATOM     20  C   UNL d   1       2.054  -3.352   2.835  0.00  0.00     0.018 A 
ATOM     21  C   UNL d   1       1.437  -2.345   2.098  0.00  0.00     0.013 A 
ENDBRANCH   2  15
TORSDOF 2
