REMARK  5 active torsions:
REMARK  status: ('A' for Active; 'I' for Inactive)
REMARK    1  A    between atoms: N_8  and  C_3 
REMARK    2  A    between atoms: C_18  and  C_4 
REMARK       I    between atoms: C_10  and  N_9 
REMARK    3  A    between atoms: C_11  and  C_10 
REMARK    4  A    between atoms: C_13  and  C_12 
REMARK    5  A    between atoms: O_21  and  C_13 
ROOT
ATOM      1  N   UNL d   1      -5.930 -10.124  -3.126  0.00  0.00    -0.357 N 
ATOM      2  N   UNL d   1      -4.312  -8.857  -1.119  0.00  0.00    -0.346 N 
ATOM      3  C   UNL d   1      -3.048  -8.592  -0.657  0.00  0.00     0.243 C 
ATOM      4  C   UNL d   1      -5.224 -10.957  -2.127  0.00  0.00     0.145 C 
ATOM      5  C   UNL d   1      -5.256  -8.840  -3.410  0.00  0.00     0.145 C 
ATOM      6  C   UNL d   1      -4.927 -10.158  -0.842  0.00  0.00     0.146 C 
ATOM      7  C   UNL d   1      -5.044  -8.049  -2.104  0.00  0.00     0.146 C 
ATOM      8  O   UNL d   1      -2.322  -9.406  -0.092  0.00  0.00    -0.268 OA
ENDROOT
BRANCH   1   9
ATOM      9  C   UNL d   1      -6.507 -10.741  -4.205  0.00  0.00     0.165 A 
ATOM     10  N   UNL d   1      -6.585 -10.223  -5.415  0.00  0.00    -0.321 N 
ATOM     11  C   UNL d   1      -7.227 -11.111  -6.284  0.00  0.00     0.123 A 
ATOM     12  HN  UNL d   1      -6.227  -9.305  -5.679  1.00  0.00     0.169 HD
ATOM     13  N   UNL d   1      -7.684 -12.264  -5.782  0.00  0.00    -0.309 N 
ATOM     14  S   UNL d   1      -7.300 -12.284  -4.169  0.00  0.00     0.024 SA
ATOM     15  HN  UNL d   1      -8.176 -12.994  -6.295  1.00  0.00     0.176 HD
BRANCH  11  16
ATOM     16  C   UNL d   1      -7.365 -10.782  -7.708  0.00  0.00     0.009 A 
ATOM     17  C   UNL d   1      -7.012  -9.512  -8.188  0.00  0.00     0.015 A 
ATOM     18  C   UNL d   1      -7.120  -9.208  -9.549  0.00  0.00     0.001 A 
ATOM     19  C   UNL d   1      -7.581 -10.170 -10.446  0.00  0.00     0.000 A 
ATOM     20  C   UNL d   1      -7.941 -11.433  -9.984  0.00  0.00     0.001 A 
ATOM     21  C   UNL d   1      -7.837 -11.737  -8.624  0.00  0.00     0.015 A 
ENDBRANCH  11  16
ENDBRANCH   1   9
BRANCH   3  22
ATOM     22  C   UNL d   1      -2.534  -7.226  -0.865  0.00  0.00     0.081 C 
ATOM     23  C   UNL d   1      -1.369  -6.956  -1.469  0.00  0.00     0.086 C 
BRANCH  23  24
ATOM     24  C   UNL d   1      -0.401  -7.862  -2.114  0.00  0.00     0.165 C 
ATOM     25  O   UNL d   1       0.332  -7.440  -2.999  0.00  0.00    -0.647 OA
BRANCH  24  26
ATOM     26  O   UNL d   1      -0.350  -9.126  -1.676  0.00  0.00    -0.773 OA
ATOM     27  H   UNL d   1      -0.916  -9.343  -0.898  0.00  0.00     0.167 HD
ENDBRANCH  24  26
ENDBRANCH  23  24
ENDBRANCH   3  22
TORSDOF 5
