REMARK  4 active torsions:
REMARK  status: ('A' for Active; 'I' for Inactive)
REMARK    1  A    between atoms: N_5  and  C_1 
REMARK    2  A    between atoms: O_6  and  N_3 
REMARK    3  A    between atoms: O_7  and  N_5 
REMARK    4  A    between atoms: O_18  and  C_16 
ROOT
ATOM      1  C   UNL d   2       1.962  -1.262  -2.754  0.00  0.00     0.135 C 
ATOM      2  O   UNL d   2       0.908  -1.780  -2.429  0.00  0.00    -0.650 OA
ATOM      3  C   UNL d   2       3.148  -1.015  -1.873  0.00  0.00     0.125 C 
ENDROOT
BRANCH   1   4
ATOM      4  O   UNL d   2       2.145  -0.795  -3.999  0.00  0.00    -0.777 OA
ATOM      5  H   UNL d   2       1.298  -0.998  -4.451  0.00  0.00     0.167 HD
ENDBRANCH   1   4
TORSDOF 4
