REMARK  3 active torsions:
REMARK  status: ('A' for Active; 'I' for Inactive)
REMARK    1  A    between atoms: C_8  and  N_5 
REMARK    2  A    between atoms: C_17  and  C_7 
REMARK    3  A    between atoms: C_18  and  C_7 
ROOT
ATOM      1  C   UNL d   1      -0.490  -1.042  -0.231  0.00  0.00     0.146 C 
ATOM      2  S   UNL d   1       1.262  -1.139  -0.426  0.00  0.00    -0.057 SA
ATOM      3  N   UNL d   1      -0.862   0.250   0.030  0.00  0.00    -0.356 N 
ATOM      4  C   UNL d   1       1.448   0.583  -0.171  0.00  0.00     0.005 C 
ATOM      5  N   UNL d   1      -1.355  -2.003  -0.332  0.00  0.00    -0.334 N 
ATOM      6  HN  UNL d   1      -2.337  -1.799  -0.145  1.00  0.00     0.168 HD
ATOM      7  C   UNL d   1       0.101   1.304  -0.289  0.00  0.00     0.064 C 
ATOM      8  C   UNL d   1       2.645   1.092   0.155  0.00  0.00     0.029 C 
ATOM      9  H   UNL d   1      -1.850   0.438  -0.086  0.00  0.00     0.162 HD
ENDROOT
BRANCH   5  10
ATOM     10  C   UNL d   1      -0.995  -3.314  -0.690  0.00  0.00     0.073 A 
ATOM     11  C   UNL d   1      -1.636  -3.934  -1.776  0.00  0.00     0.145 A 
ATOM     12  C   UNL d   1      -1.318  -5.230  -2.174  0.00  0.00     0.086 A 
ATOM     13  F   UNL d   1      -2.585  -3.275  -2.461  0.00  0.00    -0.204 F 
ATOM     14  C   UNL d   1      -0.339  -5.922  -1.479  0.00  0.00     0.119 A 
ATOM     15  C   UNL d   1       0.292  -5.356  -0.378  0.00  0.00     0.044 A 
ATOM     16  F   UNL d   1      -0.002  -7.159  -1.867  0.00  0.00    -0.206 F 
ATOM     17  C   UNL d   1      -0.059  -4.068   0.035  0.00  0.00     0.036 A 
ENDBRANCH   5  10
BRANCH   7  18
ATOM     18  C   UNL d   1      -0.090   2.506   0.667  0.00  0.00     0.032 C 
ATOM     19  C   UNL d   1       0.051   2.201   2.158  0.00  0.00     0.008 C 
ENDBRANCH   7  18
BRANCH   7  20
ATOM     20  C   UNL d   1      -0.073   1.742  -1.774  0.00  0.00     0.032 C 
ATOM     21  C   UNL d   1      -1.424   2.352  -2.133  0.00  0.00     0.008 C 
ENDBRANCH   7  20
TORSDOF 3
