REMARK  3 active torsions:
REMARK  status: ('A' for Active; 'I' for Inactive)
REMARK    1  A    between atoms: C_9  and  C_7 
REMARK    2  A    between atoms: O_15  and  C_8 
REMARK    3  A    between atoms: O_16  and  C_12 
ROOT
ATOM      1  C   UNL d   1       0.753  -5.069  -1.200  0.00  0.00     0.102 A 
ATOM      2  C   UNL d   1       1.571  -3.111   0.008  0.00  0.00    -0.031 A 
ATOM      3  C   UNL d   1       0.963  -3.683  -1.117  0.00  0.00     0.051 A 
ATOM      4  C   UNL d   1       1.200  -5.886  -0.146  0.00  0.00     0.101 A 
ATOM      5  C   UNL d   1       1.810  -5.306   0.974  0.00  0.00     0.040 A 
ATOM      6  C   UNL d   1       1.996  -3.927   1.054  0.00  0.00     0.014 A 
ENDROOT
BRANCH   2   7
ATOM      7  C   UNL d   1       1.735  -1.661   0.106  0.00  0.00     0.047 C 
ATOM      8  C   UNL d   1       2.773  -0.963  -0.366  0.00  0.00     0.111 A 
ATOM      9  N   UNL d   1       2.904   0.394  -0.204  0.00  0.00    -0.335 N 
ATOM     10  C   UNL d   1       3.954  -1.508  -1.102  0.00  0.00     0.316 A 
ATOM     11  C   UNL d   1       4.049   0.634  -0.753  0.00  0.00     0.124 A 
ATOM     12  HN  UNL d   1       2.260   1.049   0.240  1.00  0.00     0.168 HD
ATOM     13  C   UNL d   1       4.716   1.956  -0.842  0.00  0.00     0.098 C 
ATOM     14  O   UNL d   1       4.723  -0.399  -1.296  0.00  0.00    -0.261 OA
ATOM     15  O   UNL d   1       4.207  -2.635  -1.466  0.00  0.00    -0.257 OA
ENDBRANCH   2   7
BRANCH   1  16
ATOM     16  O   UNL d   1       0.094  -5.668  -2.241  0.00  0.00    -0.353 OA
ATOM     17  C   UNL d   1      -0.422  -4.839  -3.274  0.00  0.00     0.210 C 
ENDBRANCH   1  16
BRANCH   4  18
ATOM     18  O   UNL d   1       1.058  -7.246  -0.031  0.00  0.00    -0.353 OA
ATOM     19  C   UNL d   1       1.095  -8.000  -1.236  0.00  0.00     0.210 C 
ENDBRANCH   4  18
TORSDOF 3
