REMARK  1 active torsions:
REMARK  status: ('A' for Active; 'I' for Inactive)
REMARK    1  A    between atoms: C_6  and  C_5 
ROOT
ATOM      1  N   UNL d   1      -3.064  -0.068  -0.131  0.00  0.00    -0.191 NA
ATOM      2  C   UNL d   1      -1.905  -0.054  -0.096  0.00  0.00     0.099 C 
ATOM      3  C   UNL d   1       2.364  -0.024   0.086  0.00  0.00    -0.026 A 
ATOM      4  C   UNL d   1       1.595   1.030   0.619  0.00  0.00     0.014 A 
ATOM      5  C   UNL d   1       1.661  -1.079  -0.526  0.00  0.00     0.014 A 
ATOM      6  C   UNL d   1      -0.473  -0.038  -0.044  0.00  0.00     0.044 A 
ATOM      7  C   UNL d   1       0.197   1.022   0.565  0.00  0.00     0.023 A 
ATOM      8  C   UNL d   1       0.262  -1.086  -0.598  0.00  0.00     0.023 A 
ENDROOT
BRANCH   3   9
ATOM      9  C   UNL d   1       3.845  -0.019   0.173  0.00  0.00    -0.026 A 
ATOM     10  C   UNL d   1       4.647  -0.609  -0.823  0.00  0.00     0.014 A 
ATOM     11  C   UNL d   1       6.045  -0.595  -0.744  0.00  0.00     0.023 A 
ATOM     12  C   UNL d   1       6.680   0.025   0.332  0.00  0.00     0.044 A 
ATOM     13  C   UNL d   1       8.111   0.063   0.404  0.00  0.00     0.099 C 
ATOM     14  C   UNL d   1       5.911   0.613   1.335  0.00  0.00     0.023 A 
ATOM     15  N   UNL d   1       9.269   0.100   0.461  0.00  0.00    -0.191 NA
ATOM     16  C   UNL d   1       4.514   0.581   1.257  0.00  0.00     0.014 A 
ENDBRANCH   3   9
TORSDOF 1
