REMARK  8 active torsions:
REMARK  status: ('A' for Active; 'I' for Inactive)
REMARK    1  A    between atoms: C_2  and  N_1 
REMARK       I    between atoms: C_3  and  N_1 
REMARK    2  A    between atoms: C_6  and  C_2 
REMARK    3  A    between atoms: C_7  and  C_2 
REMARK    4  A    between atoms: C_11  and  C_3 
REMARK    5  A    between atoms: C_4  and  C_12 
REMARK    6  A    between atoms: O_10  and  C_4 
REMARK    7  A    between atoms: S_9  and  C_11 
REMARK    8  A    between atoms: C_12  and  S_9 
ROOT
ATOM      1  C   UNL d   1       0.283   0.428   1.211  0.00  0.00     0.151 C 
ENDROOT
BRANCH   1   2
ATOM      2  N   UNL d   1       1.035  -0.048   0.055  0.00  0.00    -0.348 N 
ATOM      3  C   UNL d   1       2.276  -0.628   0.145  0.00  0.00     0.227 C 
ATOM      4  O   UNL d   1       2.904  -0.787   1.191  0.00  0.00    -0.273 OA
ATOM      5  H   UNL d   1       0.704   0.255  -0.852  0.00  0.00     0.163 HD
BRANCH   3   6
ATOM      6  C   UNL d   1       2.863  -1.064  -1.189  0.00  0.00     0.177 C 
BRANCH   6   7
ATOM      7  S   UNL d   1       3.935   0.234  -1.876  0.00  0.00    -0.149 SA
BRANCH   7   8
ATOM      8  C   UNL d   1       5.190   0.390  -0.559  0.00  0.00     0.184 C 
BRANCH   8   9
ATOM      9  C   UNL d   1       5.923  -0.906  -0.294  0.00  0.00     0.149 C 
ATOM     10  O   UNL d   1       6.885  -1.293  -0.941  0.00  0.00    -0.649 OA
BRANCH   9  11
ATOM     11  O   UNL d   1       5.402  -1.640   0.718  0.00  0.00    -0.776 OA
ATOM     12  H   UNL d   1       4.596  -1.257   1.142  0.00  0.00     0.167 HD
ENDBRANCH   9  11
ENDBRANCH   8   9
ENDBRANCH   7   8
ENDBRANCH   6   7
ENDBRANCH   3   6
ENDBRANCH   1   2
BRANCH   1  13
ATOM     13  C   UNL d   1       0.666   1.874   1.523  0.00  0.00    -0.031 A 
ATOM     14  C   UNL d   1       0.481   2.900   0.579  0.00  0.00     0.009 A 
ATOM     15  C   UNL d   1       0.693   4.235   0.930  0.00  0.00     0.001 A 
ATOM     16  C   UNL d   1       1.104   4.562   2.220  0.00  0.00     0.000 A 
ATOM     17  C   UNL d   1       1.321   3.554   3.158  0.00  0.00     0.001 A 
ATOM     18  C   UNL d   1       1.109   2.218   2.812  0.00  0.00     0.009 A 
ENDBRANCH   1  13
BRANCH   1  19
ATOM     19  C   UNL d   1      -1.228   0.228   1.007  0.00  0.00    -0.031 A 
ATOM     20  C   UNL d   1      -1.720  -0.852   0.251  0.00  0.00     0.009 A 
ATOM     21  C   UNL d   1      -3.094  -1.048   0.076  0.00  0.00     0.001 A 
ATOM     22  C   UNL d   1      -4.006  -0.180   0.670  0.00  0.00     0.000 A 
ATOM     23  C   UNL d   1      -3.547   0.875   1.450  0.00  0.00     0.001 A 
ATOM     24  C   UNL d   1      -2.174   1.069   1.626  0.00  0.00     0.009 A 
ENDBRANCH   1  19
TORSDOF 8
