REMARK  1 active torsions:
REMARK  status: ('A' for Active; 'I' for Inactive)
REMARK    1  A    between atoms: C_11  and  N_1 
ROOT
ATOM      1  N   UNL d   1      -2.405  -0.074  -0.232  0.00  0.00    -0.252 N 
ATOM      2  C   UNL d   1      -1.613  -1.193  -0.566  0.00  0.00     0.236 C 
ATOM      3  C   UNL d   1      -1.635   0.909   0.425  0.00  0.00     0.236 C 
ATOM      4  C   UNL d   1      -0.412  -1.004   0.293  0.00  0.00     0.100 C 
ATOM      5  C   UNL d   1      -0.231   0.505   0.126  0.00  0.00     0.100 C 
ATOM      6  C   UNL d   1       1.119   0.728   0.815  0.00  0.00     0.022 C 
ATOM      7  C   UNL d   1       1.019  -1.502   0.394  0.00  0.00     0.022 C 
ATOM      8  C   UNL d   1       2.105   0.423  -0.306  0.00  0.00    -0.025 C 
ATOM      9  C   UNL d   1       1.981  -0.886  -0.602  0.00  0.00    -0.025 C 
ATOM     10  C   UNL d   1       1.391  -0.577   1.593  0.00  0.00     0.018 C 
ATOM     11  O   UNL d   1      -1.845  -2.156  -1.274  0.00  0.00    -0.272 OA
ATOM     12  O   UNL d   1      -1.965   1.892   1.062  0.00  0.00    -0.272 OA
ENDROOT
BRANCH   1  13
ATOM     13  C   UNL d   1      -3.813  -0.000  -0.401  0.00  0.00     0.045 A 
ATOM     14  C   UNL d   1      -4.585  -1.164  -0.557  0.00  0.00     0.033 A 
ATOM     15  C   UNL d   1      -5.980  -1.097  -0.638  0.00  0.00     0.044 A 
ATOM     16  C   UNL d   1      -6.612   0.137  -0.596  0.00  0.00     0.116 A 
ATOM     17  C   UNL d   1      -5.875   1.305  -0.476  0.00  0.00     0.044 A 
ATOM     18  F   UNL d   1      -7.948   0.200  -0.667  0.00  0.00    -0.206 F 
ATOM     19  C   UNL d   1      -4.482   1.236  -0.371  0.00  0.00     0.033 A 
ENDBRANCH   1  13
TORSDOF 1
