REMARK  5 active torsions:
REMARK  status: ('A' for Active; 'I' for Inactive)
REMARK    1  A    between atoms: C_3  and  C_1 
REMARK    2  A    between atoms: C_2  and  C_4 
REMARK    3  A    between atoms: S_10  and  C_8 
REMARK    4  A    between atoms: C_22  and  S_10 
REMARK    5  A    between atoms: C_13  and  C_22 
ROOT
ATOM      1  C   UNL d   1       0.424  -0.303  -1.271  0.00  0.00     0.050 A 
ATOM      2  C   UNL d   1      -0.190  -1.834  -3.067  0.00  0.00     0.050 A 
ATOM      3  C   UNL d   1       0.386  -1.597  -1.809  0.00  0.00     0.032 A 
ATOM      4  C   UNL d   1      -0.126   0.757  -2.011  0.00  0.00     0.034 A 
ATOM      5  C   UNL d   1      -0.732  -0.754  -3.787  0.00  0.00     0.034 A 
ATOM      6  C   UNL d   1      -0.714   0.543  -3.264  0.00  0.00     0.002 A 
ENDROOT
BRANCH   6   7
ATOM      7  S   UNL d   1      -1.327   1.970  -4.144  0.00  0.00    -0.125 SA
BRANCH   7   8
ATOM      8  C   UNL d   1      -2.812   1.317  -4.984  0.00  0.00     0.118 C 
BRANCH   8   9
ATOM      9  C   UNL d   1      -3.550   2.421  -5.704  0.00  0.00    -0.046 A 
ATOM     10  C   UNL d   1      -3.186   2.785  -7.010  0.00  0.00     0.027 A 
ATOM     11  C   UNL d   1      -3.851   3.824  -7.664  0.00  0.00     0.012 A 
ATOM     12 BR   UNL d   1      -3.342   4.298  -9.422  0.00  0.00    -0.051 Br
ATOM     13  C   UNL d   1      -4.882   4.516  -7.034  0.00  0.00     0.038 A 
ATOM     14  C   UNL d   1      -5.242   4.162  -5.736  0.00  0.00     0.012 A 
ATOM     15  C   UNL d   1      -4.585   3.126  -5.069  0.00  0.00     0.027 A 
ATOM     16 BR   UNL d   1      -6.635   5.099  -4.866  0.00  0.00    -0.051 Br
ENDBRANCH   8   9
ENDBRANCH   7   8
ENDBRANCH   6   7
BRANCH   2  17
ATOM     17  C   UNL d   1      -0.228  -3.224  -3.660  0.00  0.00     0.417 C 
ATOM     18  F   UNL d   1       0.320  -4.175  -2.856  0.00  0.00    -0.166 F 
ATOM     19  F   UNL d   1      -1.500  -3.638  -3.917  0.00  0.00    -0.166 F 
ATOM     20  F   UNL d   1       0.438  -3.302  -4.844  0.00  0.00    -0.166 F 
ENDBRANCH   2  17
BRANCH   1  21
ATOM     21  C   UNL d   1       1.046  -0.032   0.079  0.00  0.00     0.417 C 
ATOM     22  F   UNL d   1       1.522  -1.152   0.690  0.00  0.00    -0.166 F 
ATOM     23  F   UNL d   1       0.164   0.525   0.953  0.00  0.00    -0.166 F 
ATOM     24  F   UNL d   1       2.098   0.829   0.005  0.00  0.00    -0.166 F 
ENDBRANCH   1  21
TORSDOF 5
