REMARK  2 active torsions:
REMARK  status: ('A' for Active; 'I' for Inactive)
REMARK    1  A    between atoms: C_14  and  N_5 
REMARK    2  A    between atoms: C_17  and  C_11 
ROOT
ATOM      1  C   UNL d   1      -2.481  -0.733   0.072  0.00  0.00     0.089 A 
ATOM      2  C   UNL d   1      -5.019  -0.361  -0.045  0.00  0.00     0.145 C 
ATOM      3  C   UNL d   1      -3.743  -1.186   0.013  0.00  0.00     0.038 C 
ATOM      4  C   UNL d   1      -6.146  -1.393   0.098  0.00  0.00     0.126 C 
ATOM      5  N   UNL d   1      -5.936  -0.789  -2.163  0.00  0.00    -0.251 N 
ATOM      6  C   UNL d   1      -5.185   0.129  -1.459  0.00  0.00     0.242 C 
ATOM      7  C   UNL d   1      -6.648  -1.595  -1.305  0.00  0.00     0.239 C 
ATOM      8  C   UNL d   1      -1.971   0.665   0.116  0.00  0.00     0.199 A 
ATOM      9  C   UNL d   1      -1.318  -1.657   0.093  0.00  0.00     0.199 A 
ATOM     10  N   UNL d   1      -4.115  -2.525   0.050  0.00  0.00    -0.381 N 
ATOM     11  C   UNL d   1      -5.480  -2.701   0.548  0.00  0.00     0.145 C 
ATOM     12  C   UNL d   1      -0.504   0.541   0.061  0.00  0.00     0.029 A 
ATOM     13  C   UNL d   1      -0.136  -0.803   0.050  0.00  0.00     0.029 A 
ATOM     14  O   UNL d   1      -7.540  -2.398  -1.558  0.00  0.00    -0.272 OA
ATOM     15  O   UNL d   1      -4.693   1.169  -1.879  0.00  0.00    -0.272 OA
ATOM     16  O   UNL d   1      -2.597   1.695   0.238  0.00  0.00    -0.286 OA
ATOM     17  O   UNL d   1      -1.314  -2.872   0.154  0.00  0.00    -0.286 OA
ATOM     18  C   UNL d   1       0.453   1.538   0.041  0.00  0.00     0.016 A 
ATOM     19  C   UNL d   1       1.186  -1.209   0.013  0.00  0.00     0.016 A 
ATOM     20  C   UNL d   1       1.799   1.149   0.006  0.00  0.00     0.001 A 
ATOM     21  C   UNL d   1       2.162  -0.212  -0.008  0.00  0.00     0.001 A 
ATOM     22  H   UNL d   1      -3.391  -3.165   0.394  0.00  0.00     0.160 HD
ENDROOT
BRANCH  11  23
ATOM     23  C   UNL d   1      -5.451  -2.894   2.058  0.00  0.00     0.032 A 
ATOM     24  N   UNL d   1      -5.563  -1.797   2.853  0.00  0.00    -0.367 N 
ATOM     25  C   UNL d   1      -5.430  -1.978   4.185  0.00  0.00     0.088 A 
ATOM     26  HN  UNL d   1      -5.740  -0.873   2.458  1.00  0.00     0.165 HD
ATOM     27  C   UNL d   1      -5.185  -3.205   4.776  0.00  0.00     0.017 A 
ATOM     28  C   UNL d   1      -5.071  -4.319   3.955  0.00  0.00     0.003 A 
ATOM     29  C   UNL d   1      -5.200  -4.165   2.578  0.00  0.00     0.027 A 
ENDBRANCH  11  23
BRANCH   5  30
ATOM     30  C   UNL d   1      -5.883  -0.941  -3.580  0.00  0.00     0.045 A 
ATOM     31  C   UNL d   1      -6.805  -1.729  -4.285  0.00  0.00     0.032 A 
ATOM     32  C   UNL d   1      -6.641  -1.992  -5.653  0.00  0.00     0.026 A 
ATOM     33  C   UNL d   1      -5.549  -1.472  -6.337  0.00  0.00     0.034 A 
ATOM     34  C   UNL d   1      -4.634  -0.669  -5.672  0.00  0.00     0.026 A 
ATOM     35 CL   UNL d   1      -5.316  -1.840  -8.000  0.00  0.00    -0.084 Cl
ATOM     36  C   UNL d   1      -4.806  -0.401  -4.310  0.00  0.00     0.032 A 
ENDBRANCH   5  30
TORSDOF 2
