REMARK  2 active torsions:
REMARK  status: ('A' for Active; 'I' for Inactive)
REMARK    1  A    between atoms: C_8  and  C_3 
REMARK    2  A    between atoms: C_10  and  C_7 
ROOT
ATOM      1  N   UNL d   1      -0.807   0.030  -0.007  0.00  0.00    -0.331 N 
ATOM      2  HN  UNL d   1      -1.792  -0.234  -0.001  1.00  0.00     0.168 HD
ATOM      3  C   UNL d   1      -0.287   1.216  -0.027  0.00  0.00     0.162 A 
ATOM      4  C   UNL d   1       0.296  -0.780   0.003  0.00  0.00     0.111 A 
ATOM      5  O   UNL d   1       1.064   1.310  -0.044  0.00  0.00    -0.256 OA
ATOM      6  C   UNL d   1       1.539   0.035  -0.021  0.00  0.00     0.316 A 
ATOM      7  C   UNL d   1       0.318  -2.118   0.031  0.00  0.00     0.047 C 
ATOM      8  O   UNL d   1       2.698  -0.325  -0.024  0.00  0.00    -0.257 OA
ENDROOT
BRANCH   7   9
ATOM      9  C   UNL d   1      -0.905  -2.919   0.008  0.00  0.00    -0.033 A 
ATOM     10  C   UNL d   1      -1.464  -3.287  -1.221  0.00  0.00     0.030 A 
ATOM     11  C   UNL d   1      -2.644  -4.028  -1.251  0.00  0.00     0.011 A 
ATOM     12 BR   UNL d   1      -3.398  -4.515  -2.915  0.00  0.00    -0.051 Br
ATOM     13  C   UNL d   1      -3.275  -4.405  -0.067  0.00  0.00     0.019 A 
ATOM     14  C   UNL d   1      -2.722  -4.036   1.159  0.00  0.00     0.002 A 
ATOM     15  C   UNL d   1      -1.539  -3.293   1.198  0.00  0.00     0.011 A 
ENDBRANCH   7   9
BRANCH   3  16
ATOM     16  C   UNL d   1      -1.018   2.491  -0.004  0.00  0.00     0.015 A 
ATOM     17  C   UNL d   1      -2.416   2.463   0.081  0.00  0.00     0.016 A 
ATOM     18  C   UNL d   1      -3.136   3.656   0.160  0.00  0.00     0.001 A 
ATOM     19  C   UNL d   1      -2.463   4.877   0.150  0.00  0.00     0.000 A 
ATOM     20  C   UNL d   1      -1.072   4.910   0.049  0.00  0.00     0.001 A 
ATOM     21  C   UNL d   1      -0.347   3.719  -0.030  0.00  0.00     0.016 A 
ENDBRANCH   3  16
TORSDOF 2
