REMARK  8 active torsions:
REMARK  status: ('A' for Active; 'I' for Inactive)
REMARK    1  A    between atoms: C_8  and  C_1 
REMARK    2  A    between atoms: O_9  and  C_2 
REMARK       I    between atoms: C_3  and  N_6 
REMARK    3  A    between atoms: C_5  and  C_3 
REMARK    4  A    between atoms: C_4  and  C_11 
REMARK    5  A    between atoms: N_6  and  C_7 
REMARK    6  A    between atoms: O_24  and  C_8 
REMARK    7  A    between atoms: C_12  and  O_9 
REMARK    8  A    between atoms: O_26  and  C_17 
ROOT
ATOM      1  C   UNL d   1       1.863   3.497   0.766  0.00  0.00     0.070 C 
ATOM      2  C   UNL d   1       2.474   5.781   0.114  0.00  0.00     0.050 C 
ATOM      3  C   UNL d   1       2.421   3.019  -0.430  0.00  0.00     0.102 C 
ATOM      4  C   UNL d   1       1.883   4.882   1.017  0.00  0.00     0.048 C 
ATOM      5  C   UNL d   1       3.153   5.271  -0.994  0.00  0.00     0.019 C 
ATOM      6  C   UNL d   1       3.141   3.904  -1.252  0.00  0.00     0.040 C 
ENDROOT
BRANCH   1   7
ATOM      7  N   UNL d   1       1.237   2.629   1.708  0.00  0.00    -0.320 N 
ATOM      8  C   UNL d   1       1.438   2.780   3.088  0.00  0.00     0.259 C 
ATOM      9  O   UNL d   1       2.290   3.541   3.542  0.00  0.00    -0.267 OA
ATOM     10  H   UNL d   1       0.907   1.745   1.349  0.00  0.00     0.169 HD
BRANCH   8  11
ATOM     11  C   UNL d   1       0.638   1.939   4.037  0.00  0.00     0.065 A 
ATOM     12  C   UNL d   1       0.393   2.337   5.372  0.00  0.00     0.084 A 
ATOM     13  C   UNL d   1      -0.244   1.453   6.266  0.00  0.00     0.038 A 
ATOM     14  C   UNL d   1      -0.644   0.184   5.855  0.00  0.00     0.003 A 
ATOM     15  C   UNL d   1      -0.414  -0.215   4.544  0.00  0.00     0.001 A 
ATOM     16  C   UNL d   1       0.213   0.654   3.642  0.00  0.00     0.020 A 
BRANCH  12  17
ATOM     17  O   UNL d   1       0.862   3.469   5.991  0.00  0.00    -0.355 OA
ATOM     18  C   UNL d   1       0.398   4.710   5.470  0.00  0.00     0.210 C 
ENDBRANCH  12  17
ENDBRANCH   8  11
ENDBRANCH   1   7
BRANCH   3  19
ATOM     19  O   UNL d   1       2.348   1.674  -0.746  0.00  0.00    -0.307 OA
BRANCH  19  20
ATOM     20  C   UNL d   1       2.445   1.272  -2.052  0.00  0.00     0.099 A 
ATOM     21  C   UNL d   1       3.323   0.285  -2.457  0.00  0.00     0.114 A 
ATOM     22  S   UNL d   1       3.190  -0.004  -4.151  0.00  0.00    -0.093 SA
ATOM     23  C   UNL d   1       2.056   1.255  -4.351  0.00  0.00     0.053 A 
ATOM     24  C   UNL d   1       1.707   1.825  -3.146  0.00  0.00     0.046 A 
BRANCH  21  25
ATOM     25  C   UNL d   1       4.346  -0.443  -1.731  0.00  0.00     0.302 C 
ATOM     26  O   UNL d   1       4.830  -1.523  -2.033  0.00  0.00    -0.259 OA
BRANCH  25  27
ATOM     27  O   UNL d   1       4.783   0.326  -0.690  0.00  0.00    -0.322 OA
ATOM     28  C   UNL d   1       5.970  -0.153  -0.056  0.00  0.00     0.213 C 
ENDBRANCH  25  27
ENDBRANCH  21  25
ENDBRANCH  19  20
ENDBRANCH   3  19
BRANCH   2  29
ATOM     29  C   UNL d   1       2.360   7.274   0.285  0.00  0.00     0.417 C 
ATOM     30  F   UNL d   1       1.585   7.654   1.337  0.00  0.00    -0.166 F 
ATOM     31  F   UNL d   1       3.564   7.883   0.454  0.00  0.00    -0.166 F 
ATOM     32  F   UNL d   1       1.800   7.862  -0.813  0.00  0.00    -0.166 F 
ENDBRANCH   2  29
TORSDOF 8
