REMARK  5 active torsions:
REMARK  status: ('A' for Active; 'I' for Inactive)
REMARK    1  A    between atoms: C_5  and  C_1 
REMARK    2  A    between atoms: N_9  and  C_2 
REMARK       I    between atoms: C_8  and  N_9 
REMARK       I    between atoms: N_12  and  C_8 
REMARK    3  A    between atoms: C_18  and  N_12 
REMARK    4  A    between atoms: O_17  and  C_13 
REMARK    5  A    between atoms: C_20  and  O_17 
ROOT
ATOM      1  C   UNL d   1       1.629  -2.644  -0.140  0.00  0.00     0.325 C 
ATOM      2  N   UNL d   1       0.348  -2.277  -0.330  0.00  0.00    -0.304 N 
ATOM      3  N   UNL d   1       2.678  -1.833   0.136  0.00  0.00    -0.307 N 
ATOM      4  O   UNL d   1       1.875  -3.852  -0.208  0.00  0.00    -0.247 OA
ATOM      5  H   UNL d   1      -0.230  -3.116  -0.334  0.00  0.00     0.171 HD
ATOM      6  H   UNL d   1       3.474  -2.412   0.397  0.00  0.00     0.170 HD
ENDROOT
BRANCH   2   7
ATOM      7  C   UNL d   1      -0.379  -1.139  -0.006  0.00  0.00     0.097 C 
ATOM      8  C   UNL d   1      -0.933  -0.636   1.222  0.00  0.00     0.097 C 
ATOM      9  N   UNL d   1      -1.672   0.460   0.964  0.00  0.00    -0.258 N 
ATOM     10  O   UNL d   1      -1.673   0.636  -0.394  0.00  0.00    -0.240 OA
ATOM     11  HN  UNL d   1      -2.142   1.048   1.652  1.00  0.00     0.195 HD
ATOM     12  C   UNL d   1      -0.977  -0.365  -0.979  0.00  0.00     0.101 C 
ATOM     13  C   UNL d   1      -0.990  -0.369  -2.454  0.00  0.00     0.081 C 
BRANCH   8  14
ATOM     14  C   UNL d   1      -0.942  -1.163   2.594  0.00  0.00     0.038 A 
ATOM     15  C   UNL d   1      -0.746  -0.318   3.712  0.00  0.00     0.048 A 
ATOM     16 CL   UNL d   1      -0.266   1.339   3.587  0.00  0.00    -0.083 Cl
ATOM     17  C   UNL d   1      -0.943  -0.781   5.020  0.00  0.00     0.025 A 
ATOM     18  C   UNL d   1      -1.319  -2.094   5.255  0.00  0.00     0.003 A 
ATOM     19  C   UNL d   1      -1.502  -2.950   4.174  0.00  0.00     0.025 A 
ATOM     20  C   UNL d   1      -1.332  -2.490   2.857  0.00  0.00     0.048 A 
ATOM     21 CL   UNL d   1      -1.743  -3.634   1.619  0.00  0.00    -0.083 Cl
ENDBRANCH   8  14
ENDBRANCH   2   7
BRANCH   3  22
ATOM     22  C   UNL d   1       2.804  -0.472   0.388  0.00  0.00     0.051 C 
ATOM     23  C   UNL d   1       2.021   0.516  -0.167  0.00  0.00     0.119 C 
ATOM     24  N   UNL d   1       1.889   1.757   0.345  0.00  0.00    -0.344 N 
ATOM     25  C   UNL d   1       2.657   2.064   1.403  0.00  0.00     0.148 C 
ATOM     26  HN  UNL d   1       1.236   2.432  -0.054  1.00  0.00     0.167 HD
ATOM     27  C   UNL d   1       3.669   1.227   1.853  0.00  0.00     0.059 C 
ATOM     28  C   UNL d   1       3.760  -0.057   1.314  0.00  0.00     0.035 C 
BRANCH  25  29
ATOM     29  O   UNL d   1       2.434   3.208   2.164  0.00  0.00    -0.294 OA
BRANCH  29  30
ATOM     30  C   UNL d   1       1.395   4.067   1.882  0.00  0.00     0.077 A 
ATOM     31  C   UNL d   1       0.972   4.413   0.598  0.00  0.00     0.039 A 
ATOM     32  C   UNL d   1       0.007   5.406   0.413  0.00  0.00     0.026 A 
ATOM     33  C   UNL d   1      -0.518   6.078   1.512  0.00  0.00     0.034 A 
ATOM     34  C   UNL d   1      -0.117   5.738   2.801  0.00  0.00     0.026 A 
ATOM     35 CL   UNL d   1      -1.640   7.360   1.270  0.00  0.00    -0.084 Cl
ATOM     36  C   UNL d   1       0.837   4.730   2.984  0.00  0.00     0.039 A 
ENDBRANCH  29  30
ENDBRANCH  25  29
ENDBRANCH   3  22
TORSDOF 5
