REMARK  10 active torsions:
REMARK  status: ('A' for Active; 'I' for Inactive)
REMARK    1  A    between atoms: C_3  and  C_1 
REMARK    2  A    between atoms: C_4  and  C_1 
REMARK    3  A    between atoms: N_5  and  C_2 
REMARK    4  A    between atoms: O_17  and  C_3 
REMARK    5  A    between atoms: O_16  and  C_4 
REMARK    6  A    between atoms: C_8  and  N_5 
REMARK    7  A    between atoms: C_6  and  C_7 
REMARK    8  A    between atoms: O_18  and  C_6 
REMARK    9  A    between atoms: C_21  and  O_16 
REMARK   10  A    between atoms: C_20  and  O_17 
ROOT
ATOM      1  N   UNL d   1       0.976  -0.469   2.255  0.00  0.00    -0.364 N 
ATOM      2  H   UNL d   1       1.994  -0.386   2.305  0.00  0.00     0.165 HD
ENDROOT
BRANCH   1   3
ATOM      3  C   UNL d   1       0.444  -0.305   0.994  0.00  0.00     0.112 C 
ATOM      4  C   UNL d   1       1.112  -0.106  -0.163  0.00  0.00     0.129 C 
BRANCH   4   5
ATOM      5  C   UNL d   1       0.379   0.207  -1.419  0.00  0.00     0.300 C 
ATOM      6  O   UNL d   1       0.863   0.823  -2.358  0.00  0.00    -0.259 OA
BRANCH   5   7
ATOM      7  O   UNL d   1      -0.929  -0.162  -1.336  0.00  0.00    -0.318 OA
BRANCH   7   8
ATOM      8  C   UNL d   1      -1.820   0.549  -2.211  0.00  0.00     0.174 C 
ATOM      9  C   UNL d   1      -2.255   1.819  -1.499  0.00  0.00     0.034 C 
ENDBRANCH   7   8
ENDBRANCH   5   7
ENDBRANCH   4   5
BRANCH   4  10
ATOM     10  C   UNL d   1       2.590  -0.009  -0.090  0.00  0.00     0.300 C 
ATOM     11  O   UNL d   1       3.209   0.192   0.946  0.00  0.00    -0.259 OA
BRANCH  10  12
ATOM     12  O   UNL d   1       3.155  -0.131  -1.314  0.00  0.00    -0.318 OA
BRANCH  12  13
ATOM     13  C   UNL d   1       4.452   0.468  -1.435  0.00  0.00     0.174 C 
ATOM     14  C   UNL d   1       4.256   1.940  -1.755  0.00  0.00     0.034 C 
ENDBRANCH  12  13
ENDBRANCH  10  12
ENDBRANCH   4  10
ENDBRANCH   1   3
BRANCH   1  15
ATOM     15  C   UNL d   1       0.327  -0.714   3.475  0.00  0.00     0.038 A 
ATOM     16  C   UNL d   1      -0.896  -1.408   3.515  0.00  0.00     0.047 A 
ATOM     17  C   UNL d   1      -1.559  -1.647   4.727  0.00  0.00     0.041 A 
ATOM     18  C   UNL d   1      -1.011  -1.163   5.916  0.00  0.00     0.018 A 
ATOM     19  C   UNL d   1       0.185  -0.446   5.892  0.00  0.00     0.010 A 
ATOM     20  C   UNL d   1       0.859  -0.209   4.683  0.00  0.00    -0.035 A 
ATOM     21  C   UNL d   1       2.124   0.610   4.757  0.00  0.00     0.050 C 
BRANCH  17  22
ATOM     22  C   UNL d   1      -2.831  -2.412   4.803  0.00  0.00     0.293 C 
ATOM     23  O   UNL d   1      -3.423  -2.632   5.847  0.00  0.00    -0.259 OA
BRANCH  22  24
ATOM     24  O   UNL d   1      -3.226  -2.818   3.569  0.00  0.00    -0.323 OA
ATOM     25  C   UNL d   1      -4.445  -3.562   3.567  0.00  0.00     0.213 C 
ENDBRANCH  22  24
ENDBRANCH  17  22
ENDBRANCH   1  15
TORSDOF 10
