REMARK  4 active torsions:
REMARK  status: ('A' for Active; 'I' for Inactive)
REMARK    1  A    between atoms: C_3  and  C_1 
REMARK    2  A    between atoms: C_4  and  C_2 
REMARK    3  A    between atoms: C_5  and  C_8 
REMARK    4  A    between atoms: C_6  and  C_7 
ROOT
ATOM      1  C   UNL d   1       0.930  -0.066  -0.081  0.00  0.00     0.000 C 
ATOM      2  C   UNL d   1       0.234   0.437  -1.112  0.00  0.00     0.000 C 
ENDROOT
BRANCH   1   3
ATOM      3  C   UNL d   1       2.371  -0.198  -0.092  0.00  0.00     0.001 C 
ATOM      4  C   UNL d   1       3.066  -0.689   0.945  0.00  0.00     0.012 C 
BRANCH   4   5
ATOM      5  C   UNL d   1       4.534  -0.694   0.956  0.00  0.00    -0.030 A 
ATOM      6  C   UNL d   1       5.308  -1.814   0.604  0.00  0.00    -0.052 A 
ATOM      7  C   UNL d   1       4.706  -3.134   0.208  0.00  0.00     0.049 C 
ATOM      8  C   UNL d   1       6.710  -1.721   0.685  0.00  0.00     0.007 A 
ATOM      9  C   UNL d   1       7.331  -0.535   1.080  0.00  0.00     0.001 A 
ATOM     10  C   UNL d   1       6.562   0.574   1.410  0.00  0.00     0.001 A 
ATOM     11  C   UNL d   1       5.172   0.494   1.349  0.00  0.00     0.012 A 
ENDBRANCH   4   5
ENDBRANCH   1   3
BRANCH   2  12
ATOM     12  C   UNL d   1      -1.206   0.578  -1.093  0.00  0.00     0.001 C 
ATOM     13  C   UNL d   1      -1.906   1.074  -2.125  0.00  0.00     0.012 C 
BRANCH  13  14
ATOM     14  C   UNL d   1      -3.375   1.104  -2.110  0.00  0.00    -0.030 A 
ATOM     15  C   UNL d   1      -4.120   2.243  -1.748  0.00  0.00    -0.052 A 
ATOM     16  C   UNL d   1      -3.482   3.552  -1.373  0.00  0.00     0.049 C 
ATOM     17  C   UNL d   1      -5.523   2.177  -1.799  0.00  0.00     0.007 A 
ATOM     18  C   UNL d   1      -6.178   1.002  -2.171  0.00  0.00     0.001 A 
ATOM     19  C   UNL d   1      -5.437  -0.125  -2.509  0.00  0.00     0.001 A 
ATOM     20  C   UNL d   1      -4.045  -0.072  -2.479  0.00  0.00     0.012 A 
ENDBRANCH  13  14
ENDBRANCH   2  12
TORSDOF 4
