REMARK  7 active torsions:
REMARK  status: ('A' for Active; 'I' for Inactive)
REMARK    1  A    between atoms: C_12  and  N_1 
REMARK    2  A    between atoms: S_8  and  C_2 
REMARK    3  A    between atoms: C_13  and  C_3 
REMARK    4  A    between atoms: C_10  and  S_8 
REMARK    5  A    between atoms: N_9  and  C_11 
REMARK    6  A    between atoms: C_14  and  C_12 
REMARK    7  A    between atoms: C_20  and  C_21 
ROOT
ATOM      1  N   UNL d   1      -0.193  -1.145  -0.056  0.00  0.00    -0.304 N 
ATOM      2  C   UNL d   1       0.987  -0.450   0.283  0.00  0.00     0.169 C 
ATOM      3  C   UNL d   1      -1.201  -0.154  -0.065  0.00  0.00     0.135 C 
ATOM      4  N   UNL d   1      -0.598   1.018   0.065  0.00  0.00    -0.283 N 
ATOM      5  HN  UNL d   1      -1.065   1.924   0.017  1.00  0.00     0.188 HD
ATOM      6  N   UNL d   1       0.740   0.838   0.272  0.00  0.00    -0.278 N 
ATOM      7  HN  UNL d   1       1.429   1.579   0.397  1.00  0.00     0.189 HD
ENDROOT
BRANCH   2   8
ATOM      8  S   UNL d   1       2.613  -1.087   0.447  0.00  0.00    -0.032 SA
BRANCH   8   9
ATOM      9  C   UNL d   1       3.444  -0.145   1.796  0.00  0.00     0.110 A 
ATOM     10  C   UNL d   1       4.481   0.819   1.712  0.00  0.00     0.136 A 
ATOM     11  C   UNL d   1       5.251   1.146   2.866  0.00  0.00     0.040 A 
ATOM     12  C   UNL d   1       5.017   0.513   4.074  0.00  0.00     0.020 A 
ATOM     13  C   UNL d   1       3.988  -0.406   4.092  0.00  0.00     0.089 A 
ATOM     14  N   UNL d   1       3.213  -0.734   3.015  0.00  0.00    -0.358 N 
ATOM     15  HN  UNL d   1       2.462  -1.416   3.117  1.00  0.00     0.166 HD
BRANCH  10  16
ATOM     16  N   UNL d   1       4.898   1.487   0.481  0.00  0.00    -0.113 N 
ATOM     17  O   UNL d   1       4.313   1.211  -0.569  0.00  0.00    -0.532 OA
ATOM     18  O   UNL d   1       5.832   2.293   0.545  0.00  0.00    -0.532 OA
ENDBRANCH  10  16
ENDBRANCH   8   9
ENDBRANCH   2   8
BRANCH   1  19
ATOM     19  C   UNL d   1      -0.430  -2.598  -0.121  0.00  0.00     0.198 C 
BRANCH  19  20
ATOM     20  C   UNL d   1      -0.728  -3.163  -1.494  0.00  0.00     0.070 C 
ATOM     21  O   UNL d   1      -1.798  -4.034  -1.576  0.00  0.00    -0.325 OA
ATOM     22  C   UNL d   1      -2.030  -4.305  -2.888  0.00  0.00     0.142 C 
ATOM     23  C   UNL d   1      -1.095  -3.647  -3.662  0.00  0.00     0.027 C 
ATOM     24  C   UNL d   1      -0.203  -3.010  -2.764  0.00  0.00     0.036 C 
ENDBRANCH  19  20
ENDBRANCH   1  19
BRANCH   3  25
ATOM     25  C   UNL d   1      -2.686  -0.256  -0.150  0.00  0.00     0.009 A 
ATOM     26  C   UNL d   1      -3.493   0.751   0.415  0.00  0.00     0.016 A 
ATOM     27  C   UNL d   1      -4.904   0.732   0.320  0.00  0.00     0.009 A 
ATOM     28  C   UNL d   1      -5.582  -0.299  -0.344  0.00  0.00    -0.051 A 
ATOM     29  C   UNL d   1      -4.776  -1.282  -0.928  0.00  0.00     0.009 A 
ATOM     30  C   UNL d   1      -3.375  -1.249  -0.834  0.00  0.00     0.016 A 
BRANCH  28  31
ATOM     31  C   UNL d   1      -7.120  -0.360  -0.412  0.00  0.00    -0.024 C 
ATOM     32  C   UNL d   1      -7.647  -1.610  -1.162  0.00  0.00     0.019 C 
ATOM     33  C   UNL d   1      -7.692  -0.413   1.020  0.00  0.00     0.019 C 
ATOM     34  C   UNL d   1      -7.703   0.873  -1.133  0.00  0.00     0.019 C 
ENDBRANCH  28  31
ENDBRANCH   3  25
TORSDOF 7
