REMARK  3 active torsions:
REMARK  status: ('A' for Active; 'I' for Inactive)
REMARK    1  A    between atoms: C_9  and  C_1 
REMARK    2  A    between atoms: C_2  and  N_8 
REMARK    3  A    between atoms: N_8  and  N_3 
ROOT
ATOM      1  N   UNL d   1      -0.965   3.167  -0.488  0.00  0.00    -0.309 N 
ATOM      2  HN  UNL d   1      -1.824   2.810  -0.907  1.00  0.00     0.186 HD
ATOM      3  C   UNL d   1      -0.079   2.380   0.030  0.00  0.00     0.123 C 
ENDROOT
BRANCH   1   4
ATOM      4  N   UNL d   1      -0.686   4.501  -0.443  0.00  0.00    -0.277 N 
ATOM      5  H   UNL d   1       0.147   4.848   0.022  0.00  0.00     0.189 HD
BRANCH   4   6
ATOM      6  C   UNL d   1      -1.555   5.404  -0.996  0.00  0.00     0.184 C 
ATOM      7  S   UNL d   1      -1.302   7.041  -0.941  0.00  0.00    -0.040 SA
ATOM      8  N   UNL d   1      -2.638   4.860  -1.603  0.00  0.00    -0.375 N 
ATOM      9  H   UNL d   1      -2.742   3.854  -1.522  0.00  0.00     0.158 HD
ATOM     10  H   UNL d   1      -3.368   5.427  -2.006  0.00  0.00     0.158 HD
ENDBRANCH   4   6
ENDBRANCH   1   4
BRANCH   3  11
ATOM     11  C   UNL d   1      -0.282   0.918   0.035  0.00  0.00     0.041 A 
ATOM     12  C   UNL d   1       0.800   0.032   0.038  0.00  0.00     0.048 A 
ATOM     13 CL   UNL d   1       2.444   0.565   0.028  0.00  0.00    -0.083 Cl
ATOM     14  C   UNL d   1       0.574  -1.351   0.017  0.00  0.00     0.025 A 
ATOM     15  C   UNL d   1      -0.728  -1.856   0.001  0.00  0.00     0.005 A 
ATOM     16  C   UNL d   1      -1.806  -0.977   0.008  0.00  0.00     0.043 A 
ATOM     17  C   UNL d   1      -1.581   0.399   0.023  0.00  0.00     0.129 A 
ATOM     18  F   UNL d   1      -2.656   1.200   0.054  0.00  0.00    -0.205 F 
ENDBRANCH   3  11
TORSDOF 3
