REMARK  7 active torsions:
REMARK  status: ('A' for Active; 'I' for Inactive)
REMARK    1  A    between atoms: C_2  and  C_1 
REMARK    2  A    between atoms: N_3  and  C_1 
REMARK    3  A    between atoms: N_4  and  C_1 
REMARK    4  A    between atoms: C_5  and  C_1 
REMARK    5  A    between atoms: C_6  and  N_3 
REMARK       I    between atoms: C_8  and  N_4 
REMARK    6  A    between atoms: O_18  and  C_5 
REMARK    7  A    between atoms: C_22  and  O_18 
ROOT
ATOM      1  C   UNL d   1       0.939  -0.164  -0.022  0.00  0.00     0.296 C 
ENDROOT
BRANCH   1   2
ATOM      2  C   UNL d   1       0.378  -1.594  -0.312  0.00  0.00     0.442 C 
ATOM      3  F   UNL d   1      -0.619  -1.951   0.534  0.00  0.00    -0.166 F 
ATOM      4  F   UNL d   1      -0.118  -1.694  -1.575  0.00  0.00    -0.166 F 
ATOM      5  F   UNL d   1       1.331  -2.557  -0.207  0.00  0.00    -0.166 F 
ENDBRANCH   1   2
BRANCH   1   6
ATOM      6  N   UNL d   1       0.718   0.361   1.343  0.00  0.00    -0.345 N 
ATOM      7  H   UNL d   1      -0.219   0.759   1.444  0.00  0.00     0.163 HD
BRANCH   6   8
ATOM      8  C   UNL d   1       1.163  -0.213   2.531  0.00  0.00     0.069 A 
ATOM      9  C   UNL d   1       0.876   0.449   3.744  0.00  0.00     0.145 A 
ATOM     10  C   UNL d   1       1.379   0.025   4.971  0.00  0.00     0.086 A 
ATOM     11  F   UNL d   1       0.107   1.551   3.720  0.00  0.00    -0.204 F 
ATOM     12  C   UNL d   1       2.191  -1.094   5.004  0.00  0.00     0.119 A 
ATOM     13  C   UNL d   1       2.500  -1.778   3.842  0.00  0.00     0.044 A 
ATOM     14  F   UNL d   1       2.697  -1.513   6.171  0.00  0.00    -0.206 F 
ATOM     15  C   UNL d   1       2.000  -1.333   2.611  0.00  0.00     0.035 A 
ENDBRANCH   6   8
ENDBRANCH   1   6
BRANCH   1  16
ATOM     16  N   UNL d   1       0.392   0.899  -0.899  0.00  0.00    -0.319 N 
ATOM     17  C   UNL d   1      -0.949   1.105  -1.050  0.00  0.00     0.216 C 
ATOM     18  O   UNL d   1      -1.780   0.552  -0.344  0.00  0.00    -0.274 OA
ATOM     19  C   UNL d   1      -1.319   2.053  -2.159  0.00  0.00     0.117 C 
ATOM     20  H   UNL d   1       1.002   1.229  -1.637  0.00  0.00     0.165 HD
ENDBRANCH   1  16
BRANCH   1  21
ATOM     21  C   UNL d   1       2.451  -0.180  -0.389  0.00  0.00     0.318 C 
ATOM     22  O   UNL d   1       3.381   0.137   0.346  0.00  0.00    -0.260 OA
BRANCH  21  23
ATOM     23  O   UNL d   1       2.619  -0.464  -1.721  0.00  0.00    -0.318 OA
BRANCH  23  24
ATOM     24  C   UNL d   1       3.941  -0.226  -2.232  0.00  0.00     0.174 C 
ATOM     25  C   UNL d   1       3.994   1.200  -2.747  0.00  0.00     0.034 C 
ENDBRANCH  23  24
ENDBRANCH  21  23
ENDBRANCH   1  21
TORSDOF 7
