REMARK  4 active torsions:
REMARK  status: ('A' for Active; 'I' for Inactive)
REMARK    1  A    between atoms: C_8  and  C_1 
REMARK    2  A    between atoms: C_9  and  N_3 
REMARK    3  A    between atoms: C_12  and  C_4 
REMARK    4  A    between atoms: C_7  and  C_10 
REMARK       I    between atoms: N_17  and  C_8 
ROOT
ATOM      1  C   UNL d   1      -0.106  -1.294   0.107  0.00  0.00     0.143 C 
ATOM      2  N   UNL d   1      -0.330   0.871   0.308  0.00  0.00    -0.014 NA
ATOM      3  N   UNL d   1       0.972   0.604   0.052  0.00  0.00    -0.237 N 
ATOM      4  C   UNL d   1       1.190  -0.779   0.040  0.00  0.00     0.098 C 
ATOM      5  N   UNL d   1      -1.004  -0.264   0.234  0.00  0.00    -0.276 N 
ATOM      6  HN  UNL d   1      -2.019  -0.358   0.267  1.00  0.00     0.184 HD
ENDROOT
BRANCH   3   7
ATOM      7  C   UNL d   1       1.865   1.680  -0.196  0.00  0.00     0.056 A 
ATOM      8  C   UNL d   1       1.684   2.896   0.485  0.00  0.00     0.047 A 
ATOM      9  C   UNL d   1       2.590   3.954   0.303  0.00  0.00     0.050 A 
ATOM     10  C   UNL d   1       3.649   3.793  -0.606  0.00  0.00     0.016 A 
ATOM     11  C   UNL d   1       3.802   2.606  -1.316  0.00  0.00     0.003 A 
ATOM     12  C   UNL d   1       2.916   1.548  -1.114  0.00  0.00     0.031 A 
BRANCH   9  13
ATOM     13  C   UNL d   1       2.462   5.241   1.081  0.00  0.00     0.417 C 
ATOM     14  F   UNL d   1       1.452   5.231   1.994  0.00  0.00    -0.166 F 
ATOM     15  F   UNL d   1       3.594   5.539   1.782  0.00  0.00    -0.166 F 
ATOM     16  F   UNL d   1       2.230   6.314   0.275  0.00  0.00    -0.166 F 
ENDBRANCH   9  13
ENDBRANCH   3   7
BRANCH   4  17
ATOM     17  C   UNL d   1       2.502  -1.443   0.008  0.00  0.00    -0.005 A 
ATOM     18  C   UNL d   1       3.595  -0.928   0.728  0.00  0.00     0.014 A 
ATOM     19  C   UNL d   1       4.860  -1.517   0.645  0.00  0.00     0.001 A 
ATOM     20  C   UNL d   1       5.043  -2.669  -0.111  0.00  0.00     0.000 A 
ATOM     21  C   UNL d   1       3.963  -3.226  -0.789  0.00  0.00     0.001 A 
ATOM     22  C   UNL d   1       2.709  -2.607  -0.744  0.00  0.00     0.014 A 
ENDBRANCH   4  17
BRANCH   1  23
ATOM     23  C   UNL d   1      -0.557  -2.677   0.086  0.00  0.00     0.269 C 
ATOM     24  O   UNL d   1       0.118  -3.646   0.423  0.00  0.00    -0.266 OA
ATOM     25  N   UNL d   1      -1.830  -2.850  -0.380  0.00  0.00    -0.365 N 
ATOM     26  H   UNL d   1      -2.391  -2.065  -0.679  0.00  0.00     0.159 HD
ATOM     27  H   UNL d   1      -2.196  -3.788  -0.443  0.00  0.00     0.159 HD
ENDBRANCH   1  23
TORSDOF 4
