REMARK  6 active torsions:
REMARK  status: ('A' for Active; 'I' for Inactive)
REMARK    1  A    between atoms: C_4  and  N_1 
REMARK    2  A    between atoms: C_5  and  C_4 
REMARK    3  A    between atoms: C_8  and  C_5 
REMARK    4  A    between atoms: C_9  and  C_5 
REMARK    5  A    between atoms: N_6  and  C_9 
REMARK    6  A    between atoms: N_7  and  C_8 
ROOT
ATOM      1  C   UNL d   1       3.873   0.021   0.034  0.00  0.00     0.130 C 
ENDROOT
BRANCH   1   2
ATOM      2  C   UNL d   1       2.353   0.021   0.034  0.00  0.00    -0.069 C 
BRANCH   2   3
ATOM      3  N   UNL d   1       1.092   0.021   0.034  0.00  0.00    -0.369 N 
ATOM      4  HN2 UNL d   1       2.112   0.021   0.034  1.00  0.00     0.165 HD
ATOM      5  HN1 UNL d   1       0.072   0.021   0.034  1.00  0.00     0.165 HD
ENDBRANCH   2   3
ENDBRANCH   1   2
BRANCH   1   6
ATOM      6  C   UNL d   1       4.401  -0.116   1.488  0.00  0.00     0.292 C 
BRANCH   6   7
ATOM      7  N   UNL d   1       3.842   0.879   2.422  0.00  0.00     0.093 N 
ATOM      8  C   UNL d   1       4.268   2.277   2.203  0.00  0.00     0.298 C 
ATOM      9  C   UNL d   1       5.641   2.633   2.800  0.00  0.00     0.198 C 
ATOM     10  O   UNL d   1       5.712   2.302   4.189  0.00  0.00    -0.388 OA
ATOM     11  C   UNL d   1       5.437   0.911   4.390  0.00  0.00     0.198 C 
ATOM     12  C   UNL d   1       4.052   0.532   3.843  0.00  0.00     0.298 C 
ENDBRANCH   6   7
ENDBRANCH   1   6
BRANCH   1  13
ATOM     13  C   UNL d   1       4.426  -1.063  -0.905  0.00  0.00     0.292 C 
BRANCH  13  14
ATOM     14  N   UNL d   1       4.022  -0.907  -2.319  0.00  0.00     0.093 N 
ATOM     15  C   UNL d   1       4.505  -2.030  -3.155  0.00  0.00     0.298 C 
ATOM     16  C   UNL d   1       6.010  -1.964  -3.476  0.00  0.00     0.198 C 
ATOM     17  O   UNL d   1       6.381  -0.709  -4.061  0.00  0.00    -0.388 OA
ATOM     18  C   UNL d   1       5.982   0.389  -3.233  0.00  0.00     0.198 C 
ATOM     19  C   UNL d   1       4.471   0.349  -2.961  0.00  0.00     0.298 C 
ENDBRANCH  13  14
ENDBRANCH   1  13
TORSDOF 6
