REMARK  2 active torsions:
REMARK  status: ('A' for Active; 'I' for Inactive)
REMARK    1  A    between atoms: O_13  and  C_10 
REMARK    2  A    between atoms: C_14  and  O_13 
ROOT
ATOM      1  C   UNL d   1       0.373   0.783  -0.015  0.00  0.00     0.092 A 
ATOM      2  C   UNL d   1      -0.539  -1.506  -0.007  0.00  0.00    -0.043 A 
ATOM      3  O   UNL d   1      -0.935   1.307  -0.017  0.00  0.00    -0.275 OA
ATOM      4  C   UNL d   1      -2.035   0.474  -0.007  0.00  0.00     0.288 A 
ATOM      5  C   UNL d   1       0.615  -0.594  -0.003  0.00  0.00     0.004 A 
ATOM      6  C   UNL d   1      -1.770  -0.971  -0.008  0.00  0.00     0.090 A 
ATOM      7  C   UNL d   1       1.397   1.734  -0.022  0.00  0.00     0.075 A 
ATOM      8  C   UNL d   1       1.954  -0.999   0.010  0.00  0.00     0.017 A 
ATOM      9  O   UNL d   1      -3.184   0.901  -0.003  0.00  0.00    -0.260 OA
ATOM     10  C   UNL d   1       2.723   1.314  -0.016  0.00  0.00     0.071 A 
ATOM     11  C   UNL d   1       2.994  -0.055   0.003  0.00  0.00     0.038 A 
ATOM     12  C   UNL d   1      -0.396  -3.000  -0.017  0.00  0.00     0.049 C 
ENDROOT
BRANCH  10  13
ATOM     13  O   UNL d   1       3.821   2.131  -0.028  0.00  0.00    -0.351 OA
BRANCH  13  14
ATOM     14  C   UNL d   1       3.564   3.536  -0.059  0.00  0.00     0.171 C 
ATOM     15  C   UNL d   1       4.889   4.274  -0.080  0.00  0.00     0.034 C 
ENDBRANCH  13  14
ENDBRANCH  10  13
TORSDOF 2
