REMARK  7 active torsions:
REMARK  status: ('A' for Active; 'I' for Inactive)
REMARK    1  A    between atoms: N_3  and  C_1 
REMARK    2  A    between atoms: N_7  and  C_1 
REMARK    3  A    between atoms: C_6  and  N_3 
REMARK    4  A    between atoms: C_13  and  N_7 
REMARK    5  A    between atoms: C_10  and  C_13 
REMARK    6  A    between atoms: C_15  and  C_10 
REMARK    7  A    between atoms: O_11  and  C_15 
ROOT
ATOM      1  N   UNL d   1      -3.512  -4.186  -1.108  0.00  0.00    -0.191 NA
ATOM      2  C   UNL d   1      -3.080  -3.396  -0.374  0.00  0.00     0.099 C 
ATOM      3  C   UNL d   1      -0.720  -1.005   1.258  0.00  0.00     0.035 A 
ATOM      4  C   UNL d   1      -2.547  -2.435   0.544  0.00  0.00     0.046 A 
ATOM      5  C   UNL d   1      -1.260  -1.924   0.352  0.00  0.00     0.052 A 
ATOM      6  C   UNL d   1      -2.752  -1.123   2.567  0.00  0.00     0.004 A 
ATOM      7  C   UNL d   1      -1.454  -0.639   2.389  0.00  0.00     0.029 A 
ATOM      8  C   UNL d   1      -3.300  -2.018   1.646  0.00  0.00     0.023 A 
ENDROOT
BRANCH   3   9
ATOM      9  N   UNL d   1       0.583  -0.496   1.085  0.00  0.00    -0.333 N 
ATOM     10  H   UNL d   1       1.056  -0.150   1.914  0.00  0.00     0.168 HD
BRANCH   9  11
ATOM     11  C   UNL d   1       1.148  -0.071  -0.095  0.00  0.00     0.172 C 
ATOM     12  S   UNL d   1       0.354   0.431  -1.479  0.00  0.00    -0.041 SA
BRANCH  11  13
ATOM     13  N   UNL d   1       2.513  -0.001  -0.100  0.00  0.00    -0.367 N 
ATOM     14  H   UNL d   1       2.885   0.330  -0.984  0.00  0.00     0.161 HD
BRANCH  13  15
ATOM     15  C   UNL d   1       3.410  -0.804   0.715  0.00  0.00     0.124 C 
BRANCH  15  16
ATOM     16  C   UNL d   1       4.378   0.047   1.526  0.00  0.00     0.046 C 
BRANCH  16  17
ATOM     17  C   UNL d   1       3.686   0.907   2.578  0.00  0.00     0.168 C 
BRANCH  17  18
ATOM     18  O   UNL d   1       2.842   0.087   3.387  0.00  0.00    -0.396 OA
ATOM     19  C   UNL d   1       2.199   0.841   4.406  0.00  0.00     0.201 C 
ENDBRANCH  17  18
ENDBRANCH  16  17
ENDBRANCH  15  16
ENDBRANCH  13  15
ENDBRANCH  11  13
ENDBRANCH   9  11
ENDBRANCH   3   9
TORSDOF 7
