REMARK  4 active torsions:
REMARK  status: ('A' for Active; 'I' for Inactive)
REMARK    1  A    between atoms: C_4  and  C_9 
REMARK    2  A    between atoms: C_5  and  C_8 
REMARK    3  A    between atoms: C_19  and  C_6 
REMARK    4  A    between atoms: C_20  and  C_7 
ROOT
ATOM      1  C   UNL d   1      -0.213   2.081  -0.208  0.00  0.00    -0.006 A 
ATOM      2  C   UNL d   1       1.206   0.178   0.036  0.00  0.00    -0.006 A 
ATOM      3  C   UNL d   1       1.186   1.657   0.045  0.00  0.00     0.184 A 
ATOM      4  C   UNL d   1      -0.630   3.343  -0.387  0.00  0.00     0.022 C 
ATOM      5  C   UNL d   1       2.377  -0.464   0.110  0.00  0.00     0.022 C 
ATOM      6  C   UNL d   1      -0.184  -0.354  -0.098  0.00  0.00     0.047 A 
ATOM      7  C   UNL d   1      -1.091   0.867  -0.278  0.00  0.00     0.047 A 
ATOM      8  O   UNL d   1       2.154   2.370   0.232  0.00  0.00    -0.287 OA
ENDROOT
BRANCH   4   9
ATOM      9  C   UNL d   1       0.230   4.528  -0.392  0.00  0.00    -0.036 A 
ATOM     10  C   UNL d   1       0.845   4.939  -1.579  0.00  0.00     0.012 A 
ATOM     11  C   UNL d   1       1.638   6.090  -1.601  0.00  0.00     0.017 A 
ATOM     12  C   UNL d   1       1.827   6.846  -0.435  0.00  0.00     0.048 A 
ATOM     13  C   UNL d   1       1.234   6.408   0.760  0.00  0.00     0.017 A 
ATOM     14  C   UNL d   1       0.441   5.257   0.781  0.00  0.00     0.012 A 
BRANCH  12  15
ATOM     15  C   UNL d   1       2.636   8.119  -0.454  0.00  0.00     0.417 C 
ATOM     16  F   UNL d   1       3.136   8.432  -1.683  0.00  0.00    -0.166 F 
ATOM     17  F   UNL d   1       1.902   9.201  -0.069  0.00  0.00    -0.166 F 
ATOM     18  F   UNL d   1       3.708   8.079   0.386  0.00  0.00    -0.166 F 
ENDBRANCH  12  15
ENDBRANCH   4   9
BRANCH   5  19
ATOM     19  C   UNL d   1       2.522  -1.914   0.070  0.00  0.00    -0.036 A 
ATOM     20  C   UNL d   1       2.697  -2.565  -1.155  0.00  0.00     0.012 A 
ATOM     21  C   UNL d   1       2.893  -3.947  -1.191  0.00  0.00     0.017 A 
ATOM     22  C   UNL d   1       2.915  -4.696  -0.003  0.00  0.00     0.048 A 
ATOM     23  C   UNL d   1       2.723  -4.035   1.219  0.00  0.00     0.017 A 
ATOM     24  C   UNL d   1       2.528  -2.652   1.255  0.00  0.00     0.012 A 
BRANCH  22  25
ATOM     25  C   UNL d   1       3.155  -6.184  -0.058  0.00  0.00     0.417 C 
ATOM     26  F   UNL d   1       3.170  -6.780   1.167  0.00  0.00    -0.166 F 
ATOM     27  F   UNL d   1       2.202  -6.838  -0.779  0.00  0.00    -0.166 F 
ATOM     28  F   UNL d   1       4.345  -6.499  -0.640  0.00  0.00    -0.166 F 
ENDBRANCH  22  25
ENDBRANCH   5  19
TORSDOF 4
