REMARK  6 active torsions:
REMARK  status: ('A' for Active; 'I' for Inactive)
REMARK    1  A    between atoms: S_13  and  C_2 
REMARK    2  A    between atoms: C_8  and  C_17 
REMARK       I    between atoms: N_16  and  C_8 
REMARK    3  A    between atoms: O_19  and  C_9 
REMARK    4  A    between atoms: O_20  and  C_10 
REMARK    5  A    between atoms: C_17  and  S_13 
REMARK    6  A    between atoms: N_18  and  N_16 
ROOT
ATOM      1  C   UNL d   1       0.123   0.749   0.056  0.00  0.00     0.027 A 
ATOM      2  C   UNL d   1      -1.133   1.390   0.073  0.00  0.00     0.083 A 
ATOM      3  C   UNL d   1       0.071  -0.638   0.023  0.00  0.00     0.049 A 
ATOM      4  C   UNL d   1       1.400   1.367   0.063  0.00  0.00     0.056 A 
ATOM      5  C   UNL d   1       1.276  -1.328   0.002  0.00  0.00     0.070 A 
ATOM      6  N   UNL d   1      -2.307   0.726   0.048  0.00  0.00    -0.346 N 
ATOM      7  HN  UNL d   1      -3.206   1.208   0.050  1.00  0.00     0.167 HD
ATOM      8  C   UNL d   1       2.630   0.663   0.035  0.00  0.00     0.102 A 
ATOM      9  C   UNL d   1       2.565  -0.727   0.006  0.00  0.00     0.103 A 
ATOM     10  N   UNL d   1      -1.082  -1.319   0.006  0.00  0.00    -0.351 N 
ATOM     11  HN  UNL d   1      -1.097  -2.339  -0.015  1.00  0.00     0.166 HD
ATOM     12  C   UNL d   1      -2.214  -0.606   0.018  0.00  0.00     0.181 A 
ENDROOT
BRANCH   2  13
ATOM     13  S   UNL d   1      -1.260   3.183   0.051  0.00  0.00    -0.102 SA
BRANCH  13  14
ATOM     14  C   UNL d   1      -2.916   3.420   0.759  0.00  0.00     0.184 C 
BRANCH  14  15
ATOM     15  C   UNL d   1      -3.021   2.922   2.192  0.00  0.00     0.241 C 
ATOM     16  O   UNL d   1      -2.083   2.852   2.987  0.00  0.00    -0.271 OA
ATOM     17  N   UNL d   1      -4.327   2.590   2.557  0.00  0.00    -0.293 N 
ATOM     18  H   UNL d   1      -5.109   2.831   1.952  0.00  0.00     0.183 HD
BRANCH  17  19
ATOM     19  N   UNL d   1      -4.596   2.211   3.891  0.00  0.00    -0.247 NA
ATOM     20  H   UNL d   1      -3.737   2.399   4.431  0.00  0.00     0.143 HD
ATOM     21  H   UNL d   1      -4.675   1.190   3.916  0.00  0.00     0.143 HD
ENDBRANCH  17  19
ENDBRANCH  14  15
ENDBRANCH  13  14
ENDBRANCH   2  13
BRANCH   8  22
ATOM     22  O   UNL d   1       3.611   1.599   0.034  0.00  0.00    -0.353 OA
ATOM     23  C   UNL d   1       4.996   1.381   0.040  0.00  0.00     0.210 C 
ENDBRANCH   8  22
BRANCH   9  24
ATOM     24  O   UNL d   1       3.471  -1.738  -0.034  0.00  0.00    -0.353 OA
ATOM     25  C   UNL d   1       4.865  -1.590   0.009  0.00  0.00     0.210 C 
ENDBRANCH   9  24
TORSDOF 6
