REMARK  4 active torsions:
REMARK  status: ('A' for Active; 'I' for Inactive)
REMARK    1  A    between atoms: C_8  and  C_3 
REMARK    2  A    between atoms: C_11  and  C_4 
REMARK    3  A    between atoms: N_5  and  C_10 
REMARK    4  A    between atoms: N_16  and  C_15 
ROOT
ATOM      1  N   UNL d   1       1.277   0.195  -0.010  0.00  0.00    -0.318 N 
ATOM      2  HN  UNL d   1       2.285   0.350  -0.026  1.00  0.00     0.169 HD
ATOM      3  C   UNL d   1       0.623  -0.948   0.011  0.00  0.00     0.184 A 
ATOM      4  C   UNL d   1       0.266   1.128  -0.006  0.00  0.00     0.138 A 
ATOM      5  N   UNL d   1      -0.967   0.598  -0.008  0.00  0.00    -0.242 N 
ATOM      6  HN  UNL d   1      -1.863   1.085  -0.017  1.00  0.00     0.196 HD
ATOM      7  O   UNL d   1      -0.733  -0.778   0.006  0.00  0.00    -0.217 OA
ENDROOT
BRANCH   3   8
ATOM      8  C   UNL d   1       1.138  -2.317   0.009  0.00  0.00     0.038 A 
ATOM      9  C   UNL d   1       2.527  -2.567   0.119  0.00  0.00     0.020 A 
ATOM     10  C   UNL d   1       2.984  -3.893   0.132  0.00  0.00     0.024 A 
ATOM     11  C   UNL d   1       2.102  -4.961  -0.035  0.00  0.00     0.002 A 
ATOM     12  C   UNL d   1       0.741  -4.719  -0.174  0.00  0.00     0.001 A 
ATOM     13  C   UNL d   1       0.261  -3.408  -0.146  0.00  0.00     0.018 A 
BRANCH   9  14
ATOM     14  N   UNL d   1       3.450  -1.554   0.448  0.00  0.00    -0.302 NA
ATOM     15  H   UNL d   1       3.125  -0.619   0.189  0.00  0.00     0.124 HD
ATOM     16  H   UNL d   1       4.400  -1.732   0.143  0.00  0.00     0.124 HD
ENDBRANCH   9  14
ENDBRANCH   3   8
BRANCH   4  17
ATOM     17  C   UNL d   1       0.552   2.558   0.001  0.00  0.00     0.012 A 
ATOM     18  C   UNL d   1       1.883   3.002  -0.006  0.00  0.00     0.051 A 
ATOM     19  C   UNL d   1       2.165   4.375   0.008  0.00  0.00     0.103 A 
ATOM     20  C   UNL d   1       1.128   5.315   0.032  0.00  0.00     0.036 A 
ATOM     21  C   UNL d   1      -0.195   4.876   0.039  0.00  0.00     0.003 A 
ATOM     22  C   UNL d   1      -0.481   3.508   0.023  0.00  0.00     0.015 A 
BRANCH  19  23
ATOM     23  N   UNL d   1       3.561   4.828  -0.002  0.00  0.00    -0.116 N 
ATOM     24  O   UNL d   1       4.449   3.963  -0.042  0.00  0.00    -0.532 OA
ATOM     25  O   UNL d   1       3.771   6.048   0.026  0.00  0.00    -0.532 OA
ENDBRANCH  19  23
ENDBRANCH   4  17
TORSDOF 4
