REMARK  8 active torsions:
REMARK  status: ('A' for Active; 'I' for Inactive)
REMARK    1  A    between atoms: O_6  and  N_1 
REMARK    2  A    between atoms: C_9  and  C_3 
REMARK    3  A    between atoms: N_19  and  C_3 
REMARK    4  A    between atoms: C_4  and  O_6 
REMARK    5  A    between atoms: C_5  and  C_4 
REMARK    6  A    between atoms: C_10  and  S_14 
REMARK    7  A    between atoms: S_14  and  C_22 
REMARK    8  A    between atoms: C_22  and  C_21 
ROOT
ATOM      1  N   UNL d   1      -0.948  -0.875   0.431  0.00  0.00    -0.246 N 
ATOM      2  HN  UNL d   1      -1.527  -1.496   0.997  1.00  0.00     0.196 HD
ATOM      3  C   UNL d   1       0.322  -0.687   0.636  0.00  0.00     0.109 C 
ENDROOT
BRANCH   3   4
ATOM      4  C   UNL d   1       0.970  -1.389   1.798  0.00  0.00     0.004 A 
ATOM      5  C   UNL d   1       2.088  -0.821   2.434  0.00  0.00     0.022 A 
ATOM      6  C   UNL d   1       2.696  -1.459   3.530  0.00  0.00    -0.048 A 
ATOM      7  C   UNL d   1       2.163  -2.679   3.977  0.00  0.00     0.008 A 
ATOM      8  C   UNL d   1       1.058  -3.251   3.342  0.00  0.00     0.002 A 
ATOM      9  C   UNL d   1       0.456  -2.606   2.260  0.00  0.00     0.015 A 
BRANCH   6  10
ATOM     10  C   UNL d   1       3.872  -0.820   4.245  0.00  0.00     0.119 C 
BRANCH  10  11
ATOM     11  S   UNL d   1       5.391  -1.820   4.091  0.00  0.00    -0.108 SA
BRANCH  11  12
ATOM     12  C   UNL d   1       6.487  -0.943   5.197  0.00  0.00     0.069 A 
ATOM     13  N   UNL d   1       6.104   0.259   5.683  0.00  0.00    -0.361 N 
ATOM     14  C   UNL d   1       6.965   0.889   6.517  0.00  0.00     0.089 A 
ATOM     15  HN  UNL d   1       5.206   0.673   5.434  1.00  0.00     0.165 HD
ATOM     16  C   UNL d   1       8.197   0.378   6.893  0.00  0.00     0.017 A 
ATOM     17  C   UNL d   1       8.575  -0.854   6.378  0.00  0.00     0.004 A 
ATOM     18  C   UNL d   1       7.711  -1.525   5.515  0.00  0.00     0.037 A 
ENDBRANCH  11  12
ENDBRANCH  10  11
ENDBRANCH   6  10
ENDBRANCH   3   4
BRANCH   3  19
ATOM     19  N   UNL d   1       1.110   0.109  -0.166  0.00  0.00    -0.286 NA
ATOM     20  H   UNL d   1       0.673   0.300  -1.060  0.00  0.00     0.125 HD
ATOM     21  H   UNL d   1       2.068  -0.209  -0.269  0.00  0.00     0.125 HD
ENDBRANCH   3  19
BRANCH   1  22
ATOM     22  O   UNL d   1      -1.440  -0.123  -0.665  0.00  0.00    -0.193 OA
BRANCH  22  23
ATOM     23  C   UNL d   1      -2.786  -0.342  -0.790  0.00  0.00     0.315 C 
ATOM     24  O   UNL d   1      -3.477  -1.110  -0.129  0.00  0.00    -0.257 OA
BRANCH  23  25
ATOM     25  C   UNL d   1      -3.388   0.483  -1.881  0.00  0.00     0.043 A 
ATOM     26  C   UNL d   1      -2.663   1.397  -2.655  0.00  0.00     0.043 A 
ATOM     27  C   UNL d   1      -3.307   2.136  -3.662  0.00  0.00     0.056 A 
ATOM     28 CL   UNL d   1      -2.347   3.241  -4.582  0.00  0.00    -0.083 Cl
ATOM     29  C   UNL d   1      -4.678   1.970  -3.898  0.00  0.00     0.055 A 
ATOM     30  C   UNL d   1      -5.404   1.063  -3.128  0.00  0.00     0.026 A 
ATOM     31 CL   UNL d   1      -5.528   2.850  -5.118  0.00  0.00    -0.083 Cl
ATOM     32  C   UNL d   1      -4.763   0.326  -2.128  0.00  0.00     0.019 A 
ENDBRANCH  23  25
ENDBRANCH  22  23
ENDBRANCH   1  22
TORSDOF 8
