REMARK  4 active torsions:
REMARK  status: ('A' for Active; 'I' for Inactive)
REMARK    1  A    between atoms: C_3  and  C_1 
REMARK    2  A    between atoms: N_2  and  C_7 
REMARK    3  A    between atoms: O_14  and  C_3 
REMARK    4  A    between atoms: C_11  and  C_4 
ROOT
ATOM      1  C   UNL d   1       1.262   1.244   1.337  0.00  0.00     0.120 C 
ATOM      2  C   UNL d   1       0.382   0.903   0.374  0.00  0.00     0.040 C 
ATOM      3  C   UNL d   1       0.862   1.703   2.622  0.00  0.00     0.105 C 
ATOM      4  N   UNL d   1       0.516   2.072   3.666  0.00  0.00    -0.191 NA
ENDROOT
BRANCH   1   5
ATOM      5  C   UNL d   1       2.708   1.141   1.006  0.00  0.00     0.303 C 
ATOM      6  O   UNL d   1       3.139   0.764  -0.074  0.00  0.00    -0.258 OA
BRANCH   5   7
ATOM      7  O   UNL d   1       3.472   1.536   2.056  0.00  0.00    -0.322 OA
ATOM      8  C   UNL d   1       4.881   1.497   1.816  0.00  0.00     0.213 C 
ENDBRANCH   5   7
ENDBRANCH   1   5
BRANCH   2   9
ATOM      9  C   UNL d   1      -1.078   0.988   0.496  0.00  0.00    -0.035 A 
ATOM     10  C   UNL d   1      -1.740   2.153   0.089  0.00  0.00     0.014 A 
ATOM     11  C   UNL d   1      -3.132   2.243   0.174  0.00  0.00     0.037 A 
ATOM     12  C   UNL d   1      -3.865   1.156   0.668  0.00  0.00     0.102 A 
ATOM     13  C   UNL d   1      -3.212  -0.010   1.087  0.00  0.00     0.037 A 
ATOM     14  C   UNL d   1      -1.817  -0.090   1.002  0.00  0.00     0.014 A 
BRANCH  12  15
ATOM     15  N   UNL d   1      -5.331   1.237   0.736  0.00  0.00    -0.116 N 
ATOM     16  O   UNL d   1      -5.869   2.285   0.349  0.00  0.00    -0.532 OA
ATOM     17  O   UNL d   1      -5.944   0.250   1.167  0.00  0.00    -0.532 OA
ENDBRANCH  12  15
ENDBRANCH   2   9
TORSDOF 4
