REMARK  1 active torsions:
REMARK  status: ('A' for Active; 'I' for Inactive)
REMARK    1  A    between atoms: C_5  and  C_3 
ROOT
ATOM      1  N   UNL d   1       2.195  -0.268   0.224  0.00  0.00    -0.331 N 
ATOM      2  C   UNL d   1       1.330   0.780   0.050  0.00  0.00     0.255 C 
ATOM      3  C   UNL d   1       1.872  -1.601  -0.196  0.00  0.00     0.226 C 
ATOM      4  N   UNL d   1       0.499  -1.892   0.129  0.00  0.00    -0.364 N 
ATOM      5  C   UNL d   1      -0.106   0.446  -0.018  0.00  0.00     0.058 A 
ATOM      6  C   UNL d   1      -0.463  -0.902   0.092  0.00  0.00     0.045 A 
ATOM      7  O   UNL d   1       1.733   1.934   0.004  0.00  0.00    -0.268 OA
ATOM      8  C   UNL d   1      -1.071   1.454  -0.095  0.00  0.00     0.019 A 
ATOM      9  C   UNL d   1      -1.823  -1.226   0.088  0.00  0.00     0.030 A 
ATOM     10  C   UNL d   1      -2.422   1.116  -0.077  0.00  0.00     0.001 A 
ATOM     11  C   UNL d   1      -2.797  -0.224   0.010  0.00  0.00     0.002 A 
ATOM     12  H   UNL d   1       3.166   0.010   0.182  0.00  0.00     0.165 HD
ATOM     13  H   UNL d   1       0.276  -2.803   0.504  0.00  0.00     0.162 HD
ENDROOT
BRANCH   3  14
ATOM     14  C   UNL d   1       2.849  -2.535   0.469  0.00  0.00     0.026 A 
ATOM     15  C   UNL d   1       3.073  -2.723   1.824  0.00  0.00     0.038 A 
ATOM     16  C   UNL d   1       4.053  -3.715   2.064  0.00  0.00     0.018 A 
ATOM     17 BR   UNL d   1       4.566  -4.210   3.809  0.00  0.00    -0.051 Br
ATOM     18  C   UNL d   1       4.566  -4.260   0.915  0.00  0.00     0.069 A 
ATOM     19  S   UNL d   1       3.850  -3.564  -0.476  0.00  0.00    -0.101 SA
ENDBRANCH   3  14
TORSDOF 1
