REMARK  2 active torsions:
REMARK  status: ('A' for Active; 'I' for Inactive)
REMARK    1  A    between atoms: C_5  and  N_1 
REMARK    2  A    between atoms: C_7  and  C_5 
ROOT
ATOM      1  N   UNL d   1       0.440  -0.943  -0.091  0.00  0.00    -0.302 N 
ATOM      2  C   UNL d   1       0.431  -0.326  -1.323  0.00  0.00     0.143 A 
ATOM      3  C   UNL d   1       0.506  -0.122   1.018  0.00  0.00     0.235 A 
ATOM      4  S   UNL d   1       0.576   1.412  -1.138  0.00  0.00    -0.091 SA
ATOM      5  S   UNL d   1       0.300  -1.028  -2.832  0.00  0.00    -0.052 SA
ATOM      6  C   UNL d   1       0.621   1.333   0.657  0.00  0.00     0.185 A 
ATOM      7  O   UNL d   1       0.462  -0.500   2.186  0.00  0.00    -0.272 OA
ENDROOT
BRANCH   1   8
ATOM      8  C   UNL d   1       0.283  -2.382   0.105  0.00  0.00     0.138 C 
BRANCH   8   9
ATOM      9  C   UNL d   1       1.556  -3.179   0.011  0.00  0.00     0.004 A 
ATOM     10  C   UNL d   1       2.708  -2.930   0.956  0.00  0.00     0.007 A 
ATOM     11  C   UNL d   1       2.877  -2.662  -0.514  0.00  0.00     0.007 A 
ENDBRANCH   8   9
ENDBRANCH   1   8
TORSDOF 2
