REMARK  8 active torsions:
REMARK  status: ('A' for Active; 'I' for Inactive)
REMARK    1  A    between atoms: O_4  and  C_2 
REMARK    2  A    between atoms: C_3  and  C_10 
REMARK    3  A    between atoms: O_13  and  C_3 
REMARK    4  A    between atoms: C_11  and  O_4 
REMARK    5  A    between atoms: C_14  and  C_8 
REMARK    6  A    between atoms: C_10  and  C_14 
REMARK    7  A    between atoms: C_15  and  C_11 
REMARK    8  A    between atoms: C_16  and  O_13 
ROOT
ATOM      1  C   UNL d   1       0.848  -0.090  -0.076  0.00  0.00     0.040 A 
ATOM      2  C   UNL d   1       1.514   1.143  -0.120  0.00  0.00     0.085 A 
ATOM      3  C   UNL d   1       1.567  -1.291   0.016  0.00  0.00     0.028 A 
ATOM      4  C   UNL d   1       2.911   1.152  -0.021  0.00  0.00     0.039 A 
ATOM      5  C   UNL d   1       2.964  -1.274   0.083  0.00  0.00    -0.056 A 
ATOM      6  I   UNL d   1      -1.245  -0.226  -0.165  0.00  0.00    -0.042 I 
ATOM      7  C   UNL d   1       3.627  -0.042   0.070  0.00  0.00     0.010 A 
ENDROOT
BRANCH   2   8
ATOM      8  O   UNL d   1       0.756   2.281  -0.251  0.00  0.00    -0.345 OA
BRANCH   8   9
ATOM      9  C   UNL d   1       1.450   3.450  -0.692  0.00  0.00     0.214 C 
BRANCH   9  10
ATOM     10  C   UNL d   1       0.507   4.530  -1.171  0.00  0.00    -0.034 A 
ATOM     11  C   UNL d   1       0.974   5.854  -1.240  0.00  0.00     0.009 A 
ATOM     12  C   UNL d   1       0.164   6.869  -1.750  0.00  0.00     0.001 A 
ATOM     13  C   UNL d   1      -1.119   6.574  -2.203  0.00  0.00     0.000 A 
ATOM     14  C   UNL d   1      -1.593   5.264  -2.144  0.00  0.00     0.001 A 
ATOM     15  C   UNL d   1      -0.783   4.246  -1.636  0.00  0.00     0.009 A 
ENDBRANCH   9  10
ENDBRANCH   8   9
ENDBRANCH   2   8
BRANCH   5  16
ATOM     16  C   UNL d   1       3.756  -2.554   0.132  0.00  0.00     0.048 C 
BRANCH  16  17
ATOM     17  C   UNL d   1       4.052  -3.081  -1.270  0.00  0.00     0.116 C 
BRANCH  17  18
ATOM     18  C   UNL d   1       5.038  -4.218  -1.214  0.00  0.00     0.259 C 
ATOM     19  O   UNL d   1       5.502  -4.701  -0.192  0.00  0.00    -0.265 OA
BRANCH  18  20
ATOM     20  O   UNL d   1       5.378  -4.583  -2.482  0.00  0.00    -0.322 OA
BRANCH  20  21
ATOM     21  C   UNL d   1       6.494  -5.479  -2.587  0.00  0.00     0.174 C 
ATOM     22  C   UNL d   1       7.770  -4.659  -2.650  0.00  0.00     0.034 C 
ENDBRANCH  20  21
ENDBRANCH  18  20
ENDBRANCH  17  18
ENDBRANCH  16  17
ENDBRANCH   5  16
TORSDOF 8
