REMARK  3 active torsions:
REMARK  status: ('A' for Active; 'I' for Inactive)
REMARK    1  A    between atoms: C_2  and  S_1 
REMARK    2  A    between atoms: C_6  and  S_1 
REMARK    3  A    between atoms: N_4  and  C_3 
ROOT
ATOM      1  C   UNL d   1       0.548  -1.651  -0.176  0.00  0.00     0.097 A 
ATOM      2  C   UNL d   1      -0.761  -2.145  -0.167  0.00  0.00     0.126 A 
ATOM      3  C   UNL d   1      -1.021  -3.514  -0.328  0.00  0.00     0.061 A 
ATOM      4  C   UNL d   1       1.606  -2.542  -0.409  0.00  0.00     0.028 A 
ATOM      5  C   UNL d   1       0.044  -4.386  -0.534  0.00  0.00     0.036 A 
ATOM      6  C   UNL d   1       1.352  -3.907  -0.586  0.00  0.00     0.025 A 
ATOM      7 CL   UNL d   1      -0.256  -6.068  -0.730  0.00  0.00    -0.084 Cl
ENDROOT
BRANCH   1   8
ATOM      8  S   UNL d   1       0.915   0.081  -0.030  0.00  0.00     0.209 S 
ATOM      9  O   UNL d   1      -0.015   0.745  -0.922  0.00  0.00    -0.217 OA
ATOM     10  O   UNL d   1       2.347   0.228  -0.223  0.00  0.00    -0.217 OA
BRANCH   8  11
ATOM     11  C   UNL d   1       0.602   0.649   1.623  0.00  0.00     0.064 A 
ATOM     12  C   UNL d   1       0.712  -0.223   2.711  0.00  0.00     0.025 A 
ATOM     13  C   UNL d   1       0.341   0.222   3.982  0.00  0.00     0.025 A 
ATOM     14  C   UNL d   1      -0.115   1.530   4.159  0.00  0.00     0.034 A 
ATOM     15  C   UNL d   1      -0.194   2.407   3.077  0.00  0.00     0.025 A 
ATOM     16 CL   UNL d   1      -0.594   2.061   5.724  0.00  0.00    -0.084 Cl
ATOM     17  C   UNL d   1       0.162   1.966   1.802  0.00  0.00     0.025 A 
ENDBRANCH   8  11
ENDBRANCH   1   8
BRANCH   2  18
ATOM     18  N   UNL d   1      -1.913  -1.285   0.026  0.00  0.00    -0.114 N 
ATOM     19  O   UNL d   1      -1.972  -0.664   1.092  0.00  0.00    -0.532 OA
ATOM     20  O   UNL d   1      -2.786  -1.310  -0.851  0.00  0.00    -0.532 OA
ENDBRANCH   2  18
TORSDOF 3
