REMARK  5 active torsions:
REMARK  status: ('A' for Active; 'I' for Inactive)
REMARK    1  A    between atoms: N_6  and  C_1 
REMARK    2  A    between atoms: S_2  and  N_6 
REMARK    3  A    between atoms: C_10  and  S_2 
REMARK    4  A    between atoms: C_11  and  N_3 
REMARK    5  A    between atoms: C_9  and  C_8 
ROOT
ATOM      1  C   UNL d   1      -0.470  -1.160  -0.203  0.00  0.00     0.119 C 
ATOM      2  N   UNL d   1       0.843  -0.786   0.066  0.00  0.00    -0.244 N 
ATOM      3  N   UNL d   1       0.917   0.549   0.334  0.00  0.00    -0.291 N 
ATOM      4  HN  UNL d   1       1.715   1.067   0.701  1.00  0.00     0.187 HD
ATOM      5  C   UNL d   1      -1.186   0.001  -0.344  0.00  0.00     0.077 C 
ATOM      6  C   UNL d   1      -0.290   1.030   0.007  0.00  0.00     0.069 C 
ENDROOT
BRANCH   1   7
ATOM      7  N   UNL d   1      -1.099  -2.455  -0.231  0.00  0.00    -0.165 NA
ATOM      8  H   UNL d   1      -0.544  -3.225  -0.607  0.00  0.00     0.147 HD
BRANCH   7   9
ATOM      9  S   UNL d   1      -1.511  -3.017   1.346  0.00  0.00     0.247 S 
ATOM     10  O   UNL d   1      -1.972  -4.377   1.172  0.00  0.00    -0.205 OA
ATOM     11  O   UNL d   1      -0.409  -2.716   2.236  0.00  0.00    -0.205 OA
BRANCH   9  12
ATOM     12  C   UNL d   1      -2.905  -2.019   1.796  0.00  0.00     0.077 A 
ATOM     13  C   UNL d   1      -4.168  -2.333   1.291  0.00  0.00     0.067 A 
ATOM     14  C   UNL d   1      -5.253  -1.558   1.684  0.00  0.00     0.117 A 
ATOM     15  F   UNL d   1      -6.471  -1.844   1.206  0.00  0.00    -0.206 F 
ATOM     16  C   UNL d   1      -5.100  -0.492   2.567  0.00  0.00     0.042 A 
ATOM     17  C   UNL d   1      -3.837  -0.191   3.078  0.00  0.00     0.005 A 
ATOM     18  C   UNL d   1      -2.735  -0.960   2.697  0.00  0.00     0.025 A 
ENDBRANCH   9  12
ENDBRANCH   7   9
ENDBRANCH   1   7
BRANCH   2  19
ATOM     19  C   UNL d   1       2.014  -1.590   0.071  0.00  0.00     0.058 A 
ATOM     20  C   UNL d   1       2.107  -2.729  -0.741  0.00  0.00     0.033 A 
ATOM     21  C   UNL d   1       3.276  -3.497  -0.741  0.00  0.00     0.020 A 
ATOM     22  C   UNL d   1       4.348  -3.132   0.072  0.00  0.00     0.006 A 
ATOM     23  C   UNL d   1       4.270  -1.992   0.872  0.00  0.00     0.020 A 
ATOM     24  I   UNL d   1       6.080  -4.281   0.068  0.00  0.00    -0.045 I 
ATOM     25  C   UNL d   1       3.110  -1.211   0.860  0.00  0.00     0.033 A 
ENDBRANCH   2  19
BRANCH   6  26
ATOM     26  C   UNL d   1      -0.632   2.491   0.059  0.00  0.00     0.033 A 
ATOM     27  S   UNL d   1      -2.160   3.125  -0.382  0.00  0.00    -0.100 SA
ATOM     28  C   UNL d   1      -1.674   4.724  -0.027  0.00  0.00     0.050 A 
ATOM     29  C   UNL d   1      -0.374   4.779   0.422  0.00  0.00     0.008 A 
ATOM     30  C   UNL d   1       0.233   3.486   0.466  0.00  0.00     0.021 A 
ENDBRANCH   6  26
TORSDOF 5
