REMARK  4 active torsions:
REMARK  status: ('A' for Active; 'I' for Inactive)
REMARK    1  A    between atoms: C_4  and  N_1 
REMARK    2  A    between atoms: C_15  and  C_2 
REMARK    3  A    between atoms: C_7  and  C_9 
REMARK    4  A    between atoms: C_8  and  C_10 
ROOT
ATOM      1  C   UNL d   1       2.134  -1.374  -0.064  0.00  0.00     0.056 A 
ATOM      2  C   UNL d   1       3.507  -3.008  -1.236  0.00  0.00     0.050 A 
ATOM      3  C   UNL d   1       4.393  -1.829   0.721  0.00  0.00     0.050 A 
ATOM      4  C   UNL d   1       2.301  -2.304  -1.099  0.00  0.00     0.047 A 
ATOM      5  C   UNL d   1       3.192  -1.109   0.818  0.00  0.00     0.047 A 
ATOM      6  C   UNL d   1       4.538  -2.775  -0.310  0.00  0.00     0.032 A 
ENDROOT
BRANCH   1   7
ATOM      7  N   UNL d   1       0.900  -0.692   0.108  0.00  0.00    -0.238 N 
ATOM      8  C   UNL d   1      -0.401  -1.101  -0.181  0.00  0.00     0.081 C 
ATOM      9  C   UNL d   1      -1.130   0.064  -0.017  0.00  0.00     0.137 C 
ATOM     10  N   UNL d   1      -0.335   1.061   0.457  0.00  0.00    -0.293 N 
ATOM     11  N   UNL d   1       0.884   0.568   0.609  0.00  0.00    -0.015 NA
ATOM     12  HN  UNL d   1      -0.626   2.017   0.659  1.00  0.00     0.183 HD
BRANCH   8  13
ATOM     13  C   UNL d   1      -0.869  -2.463  -0.451  0.00  0.00    -0.006 A 
ATOM     14  C   UNL d   1      -0.328  -3.566   0.231  0.00  0.00     0.014 A 
ATOM     15  C   UNL d   1      -0.769  -4.864  -0.036  0.00  0.00     0.001 A 
ATOM     16  C   UNL d   1      -1.790  -5.074  -0.957  0.00  0.00     0.000 A 
ATOM     17  C   UNL d   1      -2.368  -3.989  -1.611  0.00  0.00     0.001 A 
ATOM     18  C   UNL d   1      -1.909  -2.690  -1.362  0.00  0.00     0.014 A 
ENDBRANCH   8  13
ENDBRANCH   1   7
BRANCH   2  19
ATOM     19  C   UNL d   1       3.703  -4.003  -2.357  0.00  0.00     0.417 C 
ATOM     20  F   UNL d   1       2.633  -4.103  -3.193  0.00  0.00    -0.166 F 
ATOM     21  F   UNL d   1       4.766  -3.689  -3.147  0.00  0.00    -0.166 F 
ATOM     22  F   UNL d   1       3.937  -5.262  -1.895  0.00  0.00    -0.166 F 
ENDBRANCH   2  19
BRANCH   3  23
ATOM     23  C   UNL d   1       5.513  -1.622   1.716  0.00  0.00     0.417 C 
ATOM     24  F   UNL d   1       5.240  -0.676   2.658  0.00  0.00    -0.166 F 
ATOM     25  F   UNL d   1       5.803  -2.760   2.404  0.00  0.00    -0.166 F 
ATOM     26  F   UNL d   1       6.673  -1.238   1.119  0.00  0.00    -0.166 F 
ENDBRANCH   3  23
TORSDOF 4
