REMARK  2 active torsions:
REMARK  status: ('A' for Active; 'I' for Inactive)
REMARK       I    between atoms: N_2  and  C_1 
REMARK    1  A    between atoms: C_3  and  C_1 
REMARK    2  A    between atoms: C_4  and  C_5 
ROOT
ATOM      1  C   UNL d   1       0.153   0.365  -1.156  0.00  0.00     0.032 A 
ATOM      2  C   UNL d   1      -1.278   1.530  -3.299  0.00  0.00    -0.051 A 
ATOM      3  C   UNL d   1       0.430  -0.013  -2.469  0.00  0.00     0.017 A 
ATOM      4  C   UNL d   1      -0.899   1.242  -0.899  0.00  0.00     0.017 A 
ATOM      5  C   UNL d   1      -0.257   0.587  -3.526  0.00  0.00     0.009 A 
ATOM      6  C   UNL d   1      -1.607   1.817  -1.962  0.00  0.00     0.009 A 
ENDROOT
BRANCH   1   7
ATOM      7  C   UNL d   1       0.948  -0.149  -0.013  0.00  0.00     0.253 C 
ATOM      8  N   UNL d   1       2.340  -0.105  -0.078  0.00  0.00    -0.344 N 
ATOM      9  C   UNL d   1       3.126  -0.740   0.981  0.00  0.00     0.152 C 
ATOM     10  C   UNL d   1       3.150   0.530  -1.125  0.00  0.00     0.152 C 
ATOM     11  C   UNL d   1       4.211   0.209   1.502  0.00  0.00     0.187 C 
ATOM     12  O   UNL d   1       5.036   0.690   0.429  0.00  0.00    -0.388 OA
ATOM     13  C   UNL d   1       4.244   1.415  -0.520  0.00  0.00     0.187 C 
ATOM     14  O   UNL d   1       0.337  -0.566   0.966  0.00  0.00    -0.267 OA
ENDBRANCH   1   7
BRANCH   2  15
ATOM     15  C   UNL d   1      -1.970   2.219  -4.489  0.00  0.00    -0.024 C 
ATOM     16  C   UNL d   1      -3.110   3.175  -4.072  0.00  0.00     0.019 C 
ATOM     17  C   UNL d   1      -0.931   3.056  -5.268  0.00  0.00     0.019 C 
ATOM     18  C   UNL d   1      -2.580   1.163  -5.435  0.00  0.00     0.019 C 
ENDBRANCH   2  15
TORSDOF 2
