REMARK  7 active torsions:
REMARK  status: ('A' for Active; 'I' for Inactive)
REMARK    1  A    between atoms: N_6  and  C_1 
REMARK    2  A    between atoms: C_2  and  N_6 
REMARK    3  A    between atoms: N_8  and  C_2 
REMARK    4  A    between atoms: N_5  and  C_3 
REMARK    5  A    between atoms: C_4  and  C_9 
REMARK    6  A    between atoms: N_10  and  N_5 
REMARK    7  A    between atoms: C_7  and  N_8 
REMARK       I    between atoms: C_14  and  N_10 
ROOT
ATOM      1  C   UNL d   1       1.907  -0.381   0.462  0.00  0.00     0.058 C 
ATOM      2  C   UNL d   1       1.048  -1.400  -0.026  0.00  0.00     0.056 C 
ATOM      3  C   UNL d   1       0.178   1.308   0.146  0.00  0.00     0.050 C 
ATOM      4  C   UNL d   1       1.487   0.958   0.494  0.00  0.00     0.047 C 
ATOM      5  C   UNL d   1      -0.294  -1.046  -0.251  0.00  0.00     0.028 C 
ATOM      6  C   UNL d   1      -0.723   0.285  -0.168  0.00  0.00     0.018 C 
ENDROOT
BRANCH   1   7
ATOM      7  N   UNL d   1       3.132  -0.765   1.064  0.00  0.00    -0.332 N 
ATOM      8  H   UNL d   1       3.221  -1.756   1.268  0.00  0.00     0.168 HD
BRANCH   7   9
ATOM      9  C   UNL d   1       4.198   0.021   1.352  0.00  0.00     0.176 C 
ATOM     10  S   UNL d   1       4.978   0.977   0.212  0.00  0.00    -0.041 SA
BRANCH   9  11
ATOM     11  N   UNL d   1       4.717   0.016   2.607  0.00  0.00    -0.332 N 
ATOM     12  H   UNL d   1       5.533   0.617   2.676  0.00  0.00     0.168 HD
BRANCH  11  13
ATOM     13  C   UNL d   1       4.282  -0.485   3.860  0.00  0.00     0.057 A 
ATOM     14  C   UNL d   1       3.164  -1.304   4.054  0.00  0.00     0.055 A 
ATOM     15  C   UNL d   1       2.816  -1.728   5.345  0.00  0.00     0.036 A 
ATOM     16 CL   UNL d   1       1.452  -2.752   5.567  0.00  0.00    -0.084 Cl
ATOM     17  C   UNL d   1       3.557  -1.332   6.458  0.00  0.00     0.026 A 
ATOM     18  C   UNL d   1       4.661  -0.506   6.286  0.00  0.00     0.028 A 
ATOM     19  C   UNL d   1       5.023  -0.094   4.999  0.00  0.00     0.060 A 
ATOM     20 CL   UNL d   1       6.398   0.949   4.850  0.00  0.00    -0.082 Cl
ENDBRANCH  11  13
ENDBRANCH   9  11
ENDBRANCH   7   9
ENDBRANCH   1   7
BRANCH   2  21
ATOM     21  N   UNL d   1       1.551  -2.712  -0.278  0.00  0.00    -0.196 NA
ATOM     22  C   UNL d   1       2.765  -2.753  -1.127  0.00  0.00     0.143 C 
BRANCH  21  23
ATOM     23  N   UNL d   1       0.590  -3.696  -0.624  0.00  0.00    -0.285 N 
ATOM     24  C   UNL d   1       0.950  -5.035  -0.510  0.00  0.00     0.228 C 
ATOM     25  O   UNL d   1       1.994  -5.453  -0.021  0.00  0.00    -0.273 OA
ATOM     26  C   UNL d   1      -0.085  -5.954  -1.101  0.00  0.00     0.118 C 
ATOM     27  H   UNL d   1      -0.051  -3.435  -1.367  0.00  0.00     0.184 HD
ENDBRANCH  21  23
ENDBRANCH   2  21
BRANCH   3  28
ATOM     28  C   UNL d   1      -0.272   2.747   0.180  0.00  0.00     0.417 C 
ATOM     29  F   UNL d   1       0.755   3.640   0.131  0.00  0.00    -0.166 F 
ATOM     30  F   UNL d   1      -1.089   3.064  -0.864  0.00  0.00    -0.166 F 
ATOM     31  F   UNL d   1      -0.974   3.044   1.307  0.00  0.00    -0.166 F 
ENDBRANCH   3  28
TORSDOF 7
