REMARK  4 active torsions:
REMARK  status: ('A' for Active; 'I' for Inactive)
REMARK       I    between atoms: N_2  and  C_1 
REMARK    1  A    between atoms: C_5  and  C_1 
REMARK    2  A    between atoms: C_6  and  N_2 
REMARK    3  A    between atoms: S_4  and  C_5 
REMARK    4  A    between atoms: C_13  and  S_4 
ROOT
ATOM      1  C   UNL d   1       1.207   0.065  -0.170  0.00  0.00     0.231 C 
ATOM      2  N   UNL d   1       0.489  -1.030  -0.622  0.00  0.00    -0.327 N 
ATOM      3  O   UNL d   1       0.730   1.136   0.199  0.00  0.00    -0.272 OA
ATOM      4  H   UNL d   1       1.036  -1.859  -0.835  0.00  0.00     0.169 HD
ENDROOT
BRANCH   2   5
ATOM      5  C   UNL d   1      -0.896  -1.093  -0.878  0.00  0.00     0.034 A 
ATOM      6  C   UNL d   1      -1.761  -0.003  -0.748  0.00  0.00     0.031 A 
ATOM      7  C   UNL d   1      -3.121  -0.123  -1.052  0.00  0.00     0.021 A 
ATOM      8  C   UNL d   1      -3.627  -1.344  -1.486  0.00  0.00     0.011 A 
ATOM      9  C   UNL d   1      -2.786  -2.445  -1.613  0.00  0.00     0.021 A 
ATOM     10 BR   UNL d   1      -5.462  -1.501  -1.909  0.00  0.00    -0.051 Br
ATOM     11  C   UNL d   1      -1.423  -2.318  -1.312  0.00  0.00     0.031 A 
ENDBRANCH   2   5
BRANCH   1  12
ATOM     12  C   UNL d   1       2.707  -0.162  -0.066  0.00  0.00     0.177 C 
BRANCH  12  13
ATOM     13  S   UNL d   1       3.431  -1.060  -1.478  0.00  0.00    -0.156 SA
BRANCH  13  14
ATOM     14  C   UNL d   1       2.897  -0.021  -2.901  0.00  0.00     0.039 C 
ATOM     15  C   UNL d   1       3.322   1.439  -2.784  0.00  0.00     0.021 C 
ATOM     16  C   UNL d   1       3.498  -0.638  -4.166  0.00  0.00     0.021 C 
ENDBRANCH  13  14
ENDBRANCH  12  13
ENDBRANCH   1  12
TORSDOF 4
