REMARK  7 active torsions:
REMARK  status: ('A' for Active; 'I' for Inactive)
REMARK    1  A    between atoms: O_6  and  C_1 
REMARK    2  A    between atoms: C_3  and  C_2 
REMARK       I    between atoms: N_5  and  C_3 
REMARK    3  A    between atoms: C_4  and  N_9 
REMARK    4  A    between atoms: N_10  and  C_4 
REMARK    5  A    between atoms: N_9  and  N_5 
REMARK    6  A    between atoms: C_20  and  O_6 
REMARK    7  A    between atoms: C_14  and  N_10 
ROOT
ATOM      1  C   UNL d   1       0.403   3.084   0.324  0.00  0.00     0.274 C 
ATOM      2  N   UNL d   1      -0.355   3.850  -0.545  0.00  0.00    -0.264 N 
ATOM      3  O   UNL d   1       1.142   3.554   1.187  0.00  0.00    -0.266 OA
ATOM      4  H   UNL d   1      -0.843   3.446  -1.339  0.00  0.00     0.190 HD
ENDROOT
BRANCH   1   5
ATOM      5  C   UNL d   1       0.340   1.620   0.144  0.00  0.00     0.085 A 
ATOM      6  C   UNL d   1      -0.849   0.905   0.218  0.00  0.00     0.164 A 
ATOM      7  N   UNL d   1      -0.890  -0.454   0.176  0.00  0.00    -0.346 N 
ATOM      8  C   UNL d   1       0.275  -1.115   0.026  0.00  0.00     0.090 A 
ATOM      9  HN  UNL d   1      -1.774  -0.956   0.255  1.00  0.00     0.167 HD
ATOM     10  C   UNL d   1       1.499  -0.484  -0.093  0.00  0.00     0.018 A 
ATOM     11  C   UNL d   1       1.532   0.907  -0.021  0.00  0.00     0.023 A 
BRANCH   6  12
ATOM     12  O   UNL d   1      -2.037   1.614   0.366  0.00  0.00    -0.293 OA
BRANCH  12  13
ATOM     13  C   UNL d   1      -3.219   0.916   0.261  0.00  0.00     0.077 A 
ATOM     14  C   UNL d   1      -4.160   1.100   1.275  0.00  0.00     0.037 A 
ATOM     15  C   UNL d   1      -5.375   0.415   1.228  0.00  0.00     0.003 A 
ATOM     16  C   UNL d   1      -5.654  -0.443   0.164  0.00  0.00     0.000 A 
ATOM     17  C   UNL d   1      -4.730  -0.598  -0.869  0.00  0.00     0.003 A 
ATOM     18  C   UNL d   1      -3.522   0.099  -0.833  0.00  0.00     0.037 A 
ENDBRANCH  12  13
ENDBRANCH   6  12
ENDBRANCH   1   5
BRANCH   2  19
ATOM     19  N   UNL d   1      -0.180   5.258  -0.553  0.00  0.00    -0.273 N 
ATOM     20  H   UNL d   1      -0.312   5.681   0.365  0.00  0.00     0.189 HD
BRANCH  19  21
ATOM     21  C   UNL d   1       0.821   5.833  -1.299  0.00  0.00     0.191 C 
ATOM     22  S   UNL d   1       1.937   5.001  -2.241  0.00  0.00    -0.039 SA
BRANCH  21  23
ATOM     23  N   UNL d   1       0.924   7.197  -1.311  0.00  0.00    -0.332 N 
ATOM     24  H   UNL d   1       1.790   7.486  -1.758  0.00  0.00     0.168 HD
BRANCH  23  25
ATOM     25  C   UNL d   1      -0.006   8.239  -1.099  0.00  0.00     0.036 A 
ATOM     26  C   UNL d   1      -1.337   8.073  -0.719  0.00  0.00     0.055 A 
ATOM     27  C   UNL d   1      -2.202   9.181  -0.649  0.00  0.00     0.058 A 
ATOM     28 CL   UNL d   1      -3.840   8.889  -0.170  0.00  0.00    -0.082 Cl
ATOM     29  C   UNL d   1      -1.745  10.466  -0.973  0.00  0.00     0.055 A 
ATOM     30  C   UNL d   1      -0.413  10.636  -1.344  0.00  0.00     0.028 A 
ATOM     31 CL   UNL d   1      -2.767  11.854  -0.961  0.00  0.00    -0.083 Cl
ATOM     32  C   UNL d   1       0.448   9.534  -1.397  0.00  0.00     0.031 A 
ENDBRANCH  23  25
ENDBRANCH  21  23
ENDBRANCH  19  21
ENDBRANCH   2  19
TORSDOF 7
