REMARK  2 active torsions:
REMARK  status: ('A' for Active; 'I' for Inactive)
REMARK    1  A    between atoms: C_4  and  C_1 
REMARK    2  A    between atoms: C_2  and  C_3 
ROOT
ATOM      1  C   UNL d   1       0.272   0.247   0.390  0.00  0.00     0.077 A 
ATOM      2  C   UNL d   1      -0.895   0.400  -0.588  0.00  0.00     0.032 A 
ATOM      3  C   UNL d   1      -0.056   1.593  -0.275  0.00  0.00     0.032 A 
ATOM      4  C   UNL d   1       1.458  -0.413  -0.136  0.00  0.00     0.074 C 
ATOM      5  N   UNL d   1       2.392  -0.951  -0.566  0.00  0.00    -0.196 NA
ENDROOT
BRANCH   1   6
ATOM      6  C   UNL d   1      -0.071   0.114   1.889  0.00  0.00    -0.027 A 
ATOM      7  C   UNL d   1      -0.776  -1.000   2.431  0.00  0.00    -0.027 A 
ATOM      8  C   UNL d   1      -1.120  -0.967   3.804  0.00  0.00     0.009 A 
ATOM      9  C   UNL d   1      -0.739   0.080   4.642  0.00  0.00     0.001 A 
ATOM     10  C   UNL d   1       0.008   1.127   4.130  0.00  0.00     0.001 A 
ATOM     11  C   UNL d   1       0.336   1.139   2.776  0.00  0.00     0.009 A 
BRANCH   7  12
ATOM     12  C   UNL d   1      -1.206  -2.221   1.591  0.00  0.00     0.077 A 
ATOM     13  C   UNL d   1      -0.112  -3.101   0.985  0.00  0.00     0.032 A 
ATOM     14  C   UNL d   1      -0.864  -3.602   2.171  0.00  0.00     0.032 A 
ATOM     15  C   UNL d   1      -2.454  -2.166   0.845  0.00  0.00     0.074 C 
ATOM     16  N   UNL d   1      -3.440  -2.119   0.232  0.00  0.00    -0.196 NA
ENDBRANCH   7  12
ENDBRANCH   1   6
TORSDOF 2
