REMARK  3 active torsions:
REMARK  status: ('A' for Active; 'I' for Inactive)
REMARK    1  A    between atoms: C_2  and  S_1 
REMARK    2  A    between atoms: N_3  and  S_1 
REMARK    3  A    between atoms: C_4  and  N_3 
ROOT
ATOM      1  S   UNL d   1       1.082  -0.014   0.155  0.00  0.00     0.253 S 
ATOM      2  O   UNL d   1       1.356  -0.662  -1.108  0.00  0.00    -0.205 OA
ATOM      3  O   UNL d   1       0.162   1.105   0.218  0.00  0.00    -0.205 OA
ENDROOT
BRANCH   1   4
ATOM      4  C   UNL d   1       2.637   0.613   0.715  0.00  0.00     0.117 A 
ATOM      5  S   UNL d   1       2.647   1.354   2.260  0.00  0.00    -0.065 SA
ATOM      6  C   UNL d   1       4.282   1.760   2.107  0.00  0.00     0.075 A 
ATOM      7 CL   UNL d   1       5.066   2.630   3.363  0.00  0.00    -0.076 Cl
ATOM      8  C   UNL d   1       4.847   1.335   0.933  0.00  0.00     0.033 A 
ATOM      9  C   UNL d   1       3.888   0.659   0.122  0.00  0.00     0.034 A 
ENDBRANCH   1   4
BRANCH   1  10
ATOM     10  N   UNL d   1       0.488  -1.159   1.246  0.00  0.00    -0.164 NA
ATOM     11  H   UNL d   1      -0.525  -1.061   1.249  0.00  0.00     0.147 HD
BRANCH  10  12
ATOM     12  C   UNL d   1       0.940  -2.463   1.094  0.00  0.00     0.117 A 
ATOM     13  N   UNL d   1       2.157  -2.864   1.472  0.00  0.00    -0.249 N 
ATOM     14  O   UNL d   1       2.204  -4.223   1.193  0.00  0.00    -0.241 OA
ATOM     15  HN  UNL d   1       2.896  -2.291   1.880  1.00  0.00     0.196 HD
ATOM     16  C   UNL d   1       1.020  -4.611   0.642  0.00  0.00     0.075 A 
ATOM     17  C   UNL d   1       0.181  -3.528   0.575  0.00  0.00     0.079 A 
ATOM     18  C   UNL d   1       0.901  -6.026   0.250  0.00  0.00     0.079 C 
ENDBRANCH  10  12
ENDBRANCH   1  10
TORSDOF 3
