REMARK  0 active torsions:
REMARK  status: ('A' for Active; 'I' for Inactive)
ROOT
ATOM      1  C   UNL d   1      -0.201  -0.637  -0.001  0.00  0.00     0.149 A 
ATOM      2  N   UNL d   1       1.060  -1.204  -0.003  0.00  0.00    -0.287 N 
ATOM      3  N   UNL d   1       1.970   1.011   0.001  0.00  0.00    -0.270 N 
ATOM      4  C   UNL d   1      -0.373   0.747   0.001  0.00  0.00     0.110 A 
ATOM      5  C   UNL d   1       2.183  -0.379  -0.002  0.00  0.00     0.332 A 
ATOM      6  C   UNL d   1       0.729   1.656   0.003  0.00  0.00     0.267 A 
ATOM      7  N   UNL d   1      -1.372  -1.278  -0.002  0.00  0.00    -0.243 N 
ATOM      8  HN  UNL d   1      -1.525  -2.286  -0.003  1.00  0.00     0.196 HD
ATOM      9  C   UNL d   1      -1.731   0.942   0.001  0.00  0.00     0.092 A 
ATOM     10  O   UNL d   1      -2.338  -0.281  -0.000  0.00  0.00    -0.240 OA
ATOM     11  O   UNL d   1       3.323  -0.851  -0.003  0.00  0.00    -0.246 OA
ATOM     12  O   UNL d   1       0.572   2.872   0.004  0.00  0.00    -0.267 OA
ATOM     13  C   UNL d   1       1.264  -2.640  -0.006  0.00  0.00     0.163 C 
ATOM     14  C   UNL d   1       3.164   1.836   0.003  0.00  0.00     0.164 C 
ATOM     15  C   UNL d   1      -2.630   2.109   0.002  0.00  0.00     0.080 C 
ENDROOT
TORSDOF 0
