REMARK  4 active torsions:
REMARK  status: ('A' for Active; 'I' for Inactive)
REMARK    1  A    between atoms: C_2  and  S_1 
REMARK    2  A    between atoms: N_4  and  S_1 
REMARK    3  A    between atoms: C_3  and  N_10 
REMARK    4  A    between atoms: C_27  and  C_12 
ROOT
ATOM      1  N   UNL d   1       0.632   1.026   0.930  0.00  0.00    -0.203 NA
ATOM      2  N   UNL d   1       1.333   3.800   0.604  0.00  0.00    -0.363 N 
ATOM      3  C   UNL d   1      -0.296   2.019   0.278  0.00  0.00     0.127 C 
ATOM      4  C   UNL d   1       1.622   1.734   1.838  0.00  0.00     0.127 C 
ATOM      5  C   UNL d   1       2.362   2.895   1.130  0.00  0.00     0.140 C 
ATOM      6  C   UNL d   1       0.482   3.166  -0.412  0.00  0.00     0.140 C 
ENDROOT
BRANCH   2   7
ATOM      7  C   UNL d   1       1.546   5.166   0.568  0.00  0.00     0.127 A 
ATOM      8  N   UNL d   1       2.816   5.633   0.535  0.00  0.00    -0.339 N 
ATOM      9  C   UNL d   1       3.002   6.977   0.526  0.00  0.00     0.060 A 
ATOM     10  HN  UNL d   1       3.610   4.993   0.516  1.00  0.00     0.167 HD
ATOM     11  C   UNL d   1       4.282   7.524   0.482  0.00  0.00     0.032 A 
ATOM     12  C   UNL d   1       1.905   7.868   0.567  0.00  0.00     0.059 A 
ATOM     13  C   UNL d   1       4.495   8.908   0.482  0.00  0.00     0.002 A 
ATOM     14  C   UNL d   1       3.408   9.770   0.527  0.00  0.00     0.002 A 
ATOM     15  C   UNL d   1       2.121   9.240   0.566  0.00  0.00     0.032 A 
ATOM     16  N   UNL d   1       0.647   7.424   0.620  0.00  0.00    -0.355 N 
ATOM     17  C   UNL d   1       0.469   6.079   0.651  0.00  0.00     0.053 A 
ATOM     18  HN  UNL d   1      -0.144   8.067   0.637  1.00  0.00     0.166 HD
BRANCH  17  19
ATOM     19  C   UNL d   1      -0.959   5.612   0.797  0.00  0.00     0.056 C 
ATOM     20  C   UNL d   1      -1.859   6.516   1.621  0.00  0.00     0.011 C 
ENDBRANCH  17  19
ENDBRANCH   2   7
BRANCH   1  21
ATOM     21  S   UNL d   1       1.319  -0.123  -0.129  0.00  0.00     0.245 S 
ATOM     22  O   UNL d   1       1.461   0.509  -1.415  0.00  0.00    -0.206 OA
ATOM     23  O   UNL d   1       2.428  -0.746   0.563  0.00  0.00    -0.206 OA
BRANCH  21  24
ATOM     24  C   UNL d   1       0.085  -1.386  -0.307  0.00  0.00     0.098 A 
ATOM     25  C   UNL d   1      -1.073  -1.382   0.483  0.00  0.00     0.052 A 
ATOM     26  C   UNL d   1      -2.021  -2.401   0.336  0.00  0.00     0.057 A 
ATOM     27 CL   UNL d   1      -3.438  -2.332   1.323  0.00  0.00    -0.083 Cl
ATOM     28  C   UNL d   1      -1.806  -3.430  -0.587  0.00  0.00     0.057 A 
ATOM     29  C   UNL d   1      -0.647  -3.433  -1.366  0.00  0.00     0.051 A 
ATOM     30 CL   UNL d   1      -2.923  -4.728  -0.811  0.00  0.00    -0.082 Cl
ATOM     31  C   UNL d   1       0.300  -2.414  -1.232  0.00  0.00     0.058 A 
ATOM     32 CL   UNL d   1       1.700  -2.530  -2.236  0.00  0.00    -0.083 Cl
ENDBRANCH  21  24
ENDBRANCH   1  21
TORSDOF 4
