REMARK  2 active torsions:
REMARK  status: ('A' for Active; 'I' for Inactive)
REMARK    1  A    between atoms: N_7  and  C_4 
REMARK    2  A    between atoms: C_9  and  N_7 
ROOT
ATOM      1  C   UNL d   1      -2.363  -0.745   0.266  0.00  0.00     0.098 A 
ATOM      2  C   UNL d   1      -1.232  -1.704   0.254  0.00  0.00     0.199 A 
ATOM      3  C   UNL d   1      -1.816   0.632   0.345  0.00  0.00     0.199 A 
ATOM      4  C   UNL d   1      -3.663  -1.014   0.086  0.00  0.00     0.112 C 
ATOM      5  C   UNL d   1      -0.024  -0.874   0.215  0.00  0.00     0.029 A 
ATOM      6  C   UNL d   1      -0.358   0.477   0.278  0.00  0.00     0.029 A 
ATOM      7  C   UNL d   1      -4.131  -2.371   0.002  0.00  0.00     0.113 C 
ATOM      8  N   UNL d   1      -4.537  -3.457  -0.084  0.00  0.00    -0.190 NA
ATOM      9  O   UNL d   1      -2.440   1.669   0.436  0.00  0.00    -0.286 OA
ATOM     10  O   UNL d   1      -1.262  -2.913   0.229  0.00  0.00    -0.286 OA
ATOM     11  C   UNL d   1       1.286  -1.295   0.077  0.00  0.00     0.016 A 
ATOM     12  C   UNL d   1       0.608   1.465   0.226  0.00  0.00     0.016 A 
ATOM     13  C   UNL d   1       1.939   1.056   0.091  0.00  0.00     0.001 A 
ATOM     14  C   UNL d   1       2.274  -0.310   0.012  0.00  0.00     0.001 A 
ENDROOT
BRANCH   4  15
ATOM     15  N   UNL d   1      -4.676  -0.064  -0.058  0.00  0.00    -0.249 NA
ATOM     16  H   UNL d   1      -4.389   0.870   0.263  0.00  0.00     0.134 HD
BRANCH  15  17
ATOM     17  C   UNL d   1      -5.399   0.112  -1.281  0.00  0.00     0.030 A 
ATOM     18  C   UNL d   1      -6.571   0.890  -1.314  0.00  0.00     0.033 A 
ATOM     19  C   UNL d   1      -7.310   1.029  -2.497  0.00  0.00     0.027 A 
ATOM     20 BR   UNL d   1      -7.221   1.760   0.246  0.00  0.00    -0.049 Br
ATOM     21  C   UNL d   1      -6.884   0.411  -3.678  0.00  0.00    -0.061 A 
ATOM     22  C   UNL d   1      -5.696  -0.321  -3.667  0.00  0.00     0.008 A 
ATOM     23  C   UNL d   1      -7.719   0.492  -4.921  0.00  0.00     0.048 C 
ATOM     24  C   UNL d   1      -4.964  -0.466  -2.486  0.00  0.00     0.026 A 
ENDBRANCH  15  17
ENDBRANCH   4  15
TORSDOF 2
