REMARK  5 active torsions:
REMARK  status: ('A' for Active; 'I' for Inactive)
REMARK    1  A    between atoms: N_4  and  C_1 
REMARK    2  A    between atoms: N_7  and  C_1 
REMARK       I    between atoms: C_2  and  N_6 
REMARK    3  A    between atoms: C_5  and  C_2 
REMARK    4  A    between atoms: C_3  and  N_4 
REMARK    5  A    between atoms: N_6  and  N_7 
ROOT
ATOM      1  N   UNL d   1       2.122  -0.295  -0.885  0.00  0.00    -0.273 N 
ATOM      2  H   UNL d   1       2.416  -1.266  -1.006  0.00  0.00     0.189 HD
ENDROOT
BRANCH   1   3
ATOM      3  N   UNL d   1       3.051   0.684  -1.264  0.00  0.00    -0.264 N 
ATOM      4  C   UNL d   1       4.205   0.250  -1.891  0.00  0.00     0.271 C 
ATOM      5  O   UNL d   1       4.348  -0.913  -2.265  0.00  0.00    -0.266 OA
ATOM      6  H   UNL d   1       2.963   1.577  -0.793  0.00  0.00     0.190 HD
BRANCH   4   7
ATOM      7  C   UNL d   1       5.303   1.234  -2.079  0.00  0.00     0.049 A 
ATOM      8  C   UNL d   1       6.459   0.805  -2.726  0.00  0.00     0.104 A 
ATOM      9  N   UNL d   1       7.534   1.595  -2.974  0.00  0.00    -0.374 N 
ATOM     10  C   UNL d   1       7.455   2.875  -2.558  0.00  0.00     0.087 A 
ATOM     11  HN  UNL d   1       8.361   1.238  -3.452  1.00  0.00     0.164 HD
ATOM     12  C   UNL d   1       6.356   3.398  -1.896  0.00  0.00     0.018 A 
ATOM     13  C   UNL d   1       5.263   2.564  -1.652  0.00  0.00     0.020 A 
ENDBRANCH   4   7
ENDBRANCH   1   3
BRANCH   1  14
ATOM     14  C   UNL d   1       0.964   0.017  -0.221  0.00  0.00     0.191 C 
ATOM     15  S   UNL d   1       0.225   1.520  -0.262  0.00  0.00    -0.039 SA
BRANCH  14  16
ATOM     16  N   UNL d   1       0.375  -0.996   0.488  0.00  0.00    -0.331 N 
ATOM     17  H   UNL d   1      -0.615  -0.855   0.659  0.00  0.00     0.168 HD
BRANCH  16  18
ATOM     18  C   UNL d   1       0.969  -2.128   1.093  0.00  0.00     0.046 A 
ATOM     19  C   UNL d   1       2.269  -2.108   1.650  0.00  0.00    -0.035 A 
ATOM     20  C   UNL d   1       2.819  -3.290   2.174  0.00  0.00     0.009 A 
ATOM     21  C   UNL d   1       3.124  -0.875   1.820  0.00  0.00     0.050 C 
ATOM     22  C   UNL d   1       2.074  -4.460   2.242  0.00  0.00     0.001 A 
ATOM     23  C   UNL d   1       0.763  -4.460   1.794  0.00  0.00     0.009 A 
ATOM     24  C   UNL d   1       0.190  -3.305   1.220  0.00  0.00    -0.035 A 
ATOM     25  C   UNL d   1      -1.238  -3.445   0.749  0.00  0.00     0.050 C 
ENDBRANCH  16  18
ENDBRANCH  14  16
ENDBRANCH   1  14
TORSDOF 5
