REMARK  5 active torsions:
REMARK  status: ('A' for Active; 'I' for Inactive)
REMARK    1  A    between atoms: N_3  and  S_1 
REMARK    2  A    between atoms: C_4  and  S_1 
REMARK    3  A    between atoms: C_2  and  C_5 
REMARK    4  A    between atoms: C_8  and  N_3 
REMARK    5  A    between atoms: N_16  and  C_15 
ROOT
ATOM      1  S   UNL d   1       0.991  -0.068  -0.021  0.00  0.00     0.263 S 
ATOM      2  O   UNL d   1       2.235   0.629   0.221  0.00  0.00    -0.200 OA
ATOM      3  O   UNL d   1       0.938  -1.513  -0.092  0.00  0.00    -0.200 OA
ENDROOT
BRANCH   1   4
ATOM      4  N   UNL d   1       0.301   0.494  -1.464  0.00  0.00    -0.281 N 
ATOM      5  H   UNL d   1       0.357  -0.226  -2.184  0.00  0.00     0.179 HD
BRANCH   4   6
ATOM      6  C   UNL d   1       0.583   1.834  -1.846  0.00  0.00     0.043 A 
ATOM      7  C   UNL d   1       1.654   2.086  -2.704  0.00  0.00     0.046 A 
ATOM      8  C   UNL d   1       2.006   3.405  -3.026  0.00  0.00     0.050 A 
ATOM      9  C   UNL d   1       1.262   4.461  -2.476  0.00  0.00     0.016 A 
ATOM     10  C   UNL d   1       0.193   4.204  -1.616  0.00  0.00     0.003 A 
ATOM     11  C   UNL d   1      -0.142   2.888  -1.295  0.00  0.00     0.030 A 
BRANCH   8  12
ATOM     12  C   UNL d   1       3.175   3.696  -3.933  0.00  0.00     0.417 C 
ATOM     13  F   UNL d   1       3.803   2.577  -4.390  0.00  0.00    -0.166 F 
ATOM     14  F   UNL d   1       2.808   4.394  -5.043  0.00  0.00    -0.166 F 
ATOM     15  F   UNL d   1       4.136   4.443  -3.323  0.00  0.00    -0.166 F 
ENDBRANCH   8  12
ENDBRANCH   4   6
ENDBRANCH   1   4
BRANCH   1  16
ATOM     16  C   UNL d   1      -0.205   0.440   1.185  0.00  0.00     0.080 A 
ATOM     17  C   UNL d   1      -1.480  -0.126   1.153  0.00  0.00     0.027 A 
ATOM     18  C   UNL d   1      -2.440   0.292   2.076  0.00  0.00     0.025 A 
ATOM     19  C   UNL d   1      -2.147   1.295   3.006  0.00  0.00     0.005 A 
ATOM     20  C   UNL d   1      -0.840   1.789   3.077  0.00  0.00     0.025 A 
ATOM     21  C   UNL d   1       0.131   1.382   2.158  0.00  0.00     0.027 A 
BRANCH  19  22
ATOM     22  N   UNL d   1      -3.080   1.627   3.994  0.00  0.00    -0.303 NA
ATOM     23  H   UNL d   1      -2.928   2.537   4.417  0.00  0.00     0.124 HD
ATOM     24  H   UNL d   1      -4.045   1.491   3.712  0.00  0.00     0.124 HD
ENDBRANCH  19  22
ENDBRANCH   1  16
TORSDOF 5
