REMARK  4 active torsions:
REMARK  status: ('A' for Active; 'I' for Inactive)
REMARK    1  A    between atoms: C_9  and  N_6 
REMARK    2  A    between atoms: C_10  and  C_9 
REMARK       I    between atoms: N_13  and  C_10 
REMARK    3  A    between atoms: N_11  and  N_13 
REMARK    4  A    between atoms: C_18  and  C_14 
ROOT
ATOM      1  C   UNL d   1       1.967   0.827   0.681  0.00  0.00     0.272 C 
ENDROOT
BRANCH   1   2
ATOM      2  N   UNL d   1       0.819  -0.009   0.409  0.00  0.00    -0.194 N 
ATOM      3  N   UNL d   1       0.854  -1.357   0.521  0.00  0.00    -0.115 N 
ATOM      4  C   UNL d   1      -0.412  -1.660   0.191  0.00  0.00     0.709 A 
ATOM      5  HN  UNL d   1       1.625  -1.972   0.782  1.00  0.00     0.207 HD
ATOM      6  N   UNL d   1      -1.174  -0.533  -0.018  0.00  0.00    -0.113 N 
ATOM      7  N   UNL d   1      -0.942  -2.903   0.041  0.00  0.00    -0.215 N 
ATOM      8  N   UNL d   1      -0.386   0.517   0.153  0.00  0.00     0.011 NA
ATOM      9  HN  UNL d   1      -2.164  -0.510  -0.259  1.00  0.00     0.203 HD
ATOM     10  C   UNL d   1      -0.331  -4.008   0.784  0.00  0.00     0.141 C 
ATOM     11  C   UNL d   1      -2.389  -3.004  -0.170  0.00  0.00     0.141 C 
ATOM     12  C   UNL d   1      -0.694  -5.356   0.158  0.00  0.00     0.020 C 
ATOM     13  C   UNL d   1      -2.199  -5.508  -0.028  0.00  0.00     0.003 C 
ATOM     14  C   UNL d   1      -2.748  -4.335  -0.829  0.00  0.00     0.020 C 
ENDBRANCH   1   2
BRANCH   1  15
ATOM     15  C   UNL d   1       3.203   0.439  -0.089  0.00  0.00     0.257 C 
ATOM     16  N   UNL d   1       3.442  -0.924  -0.196  0.00  0.00    -0.269 N 
ATOM     17  H   UNL d   1       2.705  -1.582   0.076  0.00  0.00     0.190 HD
ATOM     18  O   UNL d   1       3.969   1.310  -0.513  0.00  0.00    -0.270 OA
BRANCH  16  19
ATOM     19  N   UNL d   1       4.434  -1.359  -1.020  0.00  0.00    -0.307 N 
ATOM     20  C   UNL d   1       4.421  -2.628  -1.288  0.00  0.00     0.136 C 
ATOM     21  HN  UNL d   1       5.140  -0.730  -1.401  1.00  0.00     0.186 HD
BRANCH  20  22
ATOM     22  C   UNL d   1       5.348  -3.221  -2.270  0.00  0.00     0.049 A 
ATOM     23  N   UNL d   1       5.079  -4.509  -2.596  0.00  0.00    -0.365 N 
ATOM     24  C   UNL d   1       5.831  -5.043  -3.581  0.00  0.00     0.088 A 
ATOM     25  HN  UNL d   1       4.349  -5.044  -2.124  1.00  0.00     0.165 HD
ATOM     26  C   UNL d   1       6.837  -4.356  -4.246  0.00  0.00     0.017 A 
ATOM     27  C   UNL d   1       7.103  -3.042  -3.871  0.00  0.00     0.004 A 
ATOM     28  C   UNL d   1       6.346  -2.457  -2.863  0.00  0.00     0.031 A 
ENDBRANCH  20  22
ENDBRANCH  16  19
ENDBRANCH   1  15
TORSDOF 4
