REMARK  8 active torsions:
REMARK  status: ('A' for Active; 'I' for Inactive)
REMARK    1  A    between atoms: C_4  and  C_1 
REMARK    2  A    between atoms: S_3  and  C_2 
REMARK    3  A    between atoms: C_6  and  S_3 
REMARK    4  A    between atoms: O_16  and  C_4 
REMARK    5  A    between atoms: C_5  and  C_6 
REMARK    6  A    between atoms: C_7  and  C_5 
REMARK    7  A    between atoms: C_9  and  C_6 
REMARK    8  A    between atoms: C_8  and  C_7 
ROOT
ATOM      1  C   UNL d   1       2.714  -3.062   1.217  0.00  0.00     0.092 C 
ENDROOT
BRANCH   1   2
ATOM      2  C   UNL d   1       3.532  -2.200   2.197  0.00  0.00     0.104 C 
BRANCH   2   3
ATOM      3  C   UNL d   1       2.941  -1.552   3.437  0.00  0.00     0.161 C 
ATOM      4  O   UNL d   1       2.798  -0.326   3.472  0.00  0.00    -0.292 OA
BRANCH   3   5
ATOM      5  C   UNL d   1       2.748  -2.323   4.700  0.00  0.00     0.010 A 
ATOM      6  C   UNL d   1       2.284  -3.641   4.734  0.00  0.00     0.018 A 
ATOM      7  C   UNL d   1       2.022  -4.271   5.956  0.00  0.00     0.043 A 
ATOM      8  C   UNL d   1       2.269  -3.599   7.144  0.00  0.00     0.116 A 
ATOM      9  C   UNL d   1       2.780  -2.308   7.137  0.00  0.00     0.043 A 
ATOM     10  F   UNL d   1       2.008  -4.204   8.310  0.00  0.00    -0.206 F 
ATOM     11  C   UNL d   1       3.009  -1.667   5.916  0.00  0.00     0.018 A 
ENDBRANCH   3   5
ENDBRANCH   2   3
ENDBRANCH   1   2
BRANCH   1  12
ATOM     12  S   UNL d   1       0.918  -3.304   1.556  0.00  0.00    -0.119 SA
BRANCH  12  13
ATOM     13  C   UNL d   1       0.122  -2.211   0.388  0.00  0.00     0.018 A 
ATOM     14  C   UNL d   1      -0.890  -1.317   0.777  0.00  0.00     0.054 A 
ATOM     15  C   UNL d   1      -1.569  -0.544  -0.181  0.00  0.00     0.020 A 
ATOM     16  C   UNL d   1      -1.257  -0.673  -1.532  0.00  0.00     0.001 A 
ATOM     17  C   UNL d   1      -0.272  -1.571  -1.932  0.00  0.00     0.001 A 
ATOM     18  C   UNL d   1       0.405  -2.341  -0.981  0.00  0.00     0.019 A 
BRANCH  14  19
ATOM     19  C   UNL d   1      -1.280  -1.147   2.199  0.00  0.00     0.177 C 
ATOM     20  O   UNL d   1      -0.515  -0.828   3.082  0.00  0.00    -0.646 OA
BRANCH  19  21
ATOM     21  O   UNL d   1      -2.598  -1.384   2.389  0.00  0.00    -0.773 OA
ATOM     22  H   UNL d   1      -3.064  -1.738   1.607  0.00  0.00     0.167 HD
ENDBRANCH  19  21
ENDBRANCH  14  19
ENDBRANCH  12  13
ENDBRANCH   1  12
BRANCH   1  23
ATOM     23  C   UNL d   1       3.454  -4.378   0.917  0.00  0.00    -0.043 A 
ATOM     24  C   UNL d   1       3.094  -5.626   1.459  0.00  0.00     0.011 A 
ATOM     25  C   UNL d   1       3.806  -6.785   1.130  0.00  0.00     0.043 A 
ATOM     26  C   UNL d   1       4.893  -6.706   0.271  0.00  0.00     0.116 A 
ATOM     27  C   UNL d   1       5.292  -5.487  -0.257  0.00  0.00     0.043 A 
ATOM     28  F   UNL d   1       5.563  -7.819  -0.054  0.00  0.00    -0.206 F 
ATOM     29  C   UNL d   1       4.579  -4.330   0.067  0.00  0.00     0.011 A 
ENDBRANCH   1  23
TORSDOF 8
