REMARK  5 active torsions:
REMARK  status: ('A' for Active; 'I' for Inactive)
REMARK    1  A    between atoms: C_7  and  C_1 
REMARK    2  A    between atoms: C_2  and  N_8 
REMARK    3  A    between atoms: N_13  and  C_2 
REMARK    4  A    between atoms: N_8  and  N_3 
REMARK    5  A    between atoms: O_15  and  C_6 
ROOT
ATOM      1  C   UNL d   1      -0.078   2.026  -0.002  0.00  0.00     0.017 A 
ATOM      2  C   UNL d   1      -0.779  -0.262  -0.350  0.00  0.00     0.069 A 
ATOM      3  C   UNL d   1      -1.058   1.109  -0.390  0.00  0.00     0.099 A 
ATOM      4  C   UNL d   1       0.472  -0.722   0.061  0.00  0.00     0.050 A 
ATOM      5  C   UNL d   1       1.174   1.566   0.429  0.00  0.00     0.039 A 
ATOM      6  C   UNL d   1       1.441   0.198   0.451  0.00  0.00     0.036 A 
ATOM      7 CL   UNL d   1      -1.977  -1.409  -0.831  0.00  0.00    -0.081 Cl
ATOM      8 CL   UNL d   1       2.996  -0.360   0.934  0.00  0.00    -0.084 Cl
ENDROOT
BRANCH   1   9
ATOM      9  C   UNL d   1      -0.309   3.483  -0.134  0.00  0.00     0.121 C 
ATOM     10  N   UNL d   1       0.502   4.333   0.417  0.00  0.00    -0.307 N 
ATOM     11  HN  UNL d   1       1.237   4.024   1.054  1.00  0.00     0.186 HD
BRANCH  10  12
ATOM     12  N   UNL d   1       0.338   5.676   0.112  0.00  0.00    -0.272 N 
ATOM     13  C   UNL d   1       1.602   6.374  -0.122  0.00  0.00     0.180 C 
BRANCH  12  14
ATOM     14  C   UNL d   1      -0.907   6.338   0.089  0.00  0.00     0.188 C 
ATOM     15  S   UNL d   1      -1.215   7.711  -0.829  0.00  0.00    -0.039 SA
BRANCH  14  16
ATOM     16  N   UNL d   1      -1.835   5.744   0.926  0.00  0.00    -0.370 N 
ATOM     17  C   UNL d   1      -3.167   6.207   1.257  0.00  0.00     0.148 C 
ATOM     18  H   UNL d   1      -1.434   5.014   1.505  0.00  0.00     0.161 HD
ENDBRANCH  14  16
ENDBRANCH  12  14
ENDBRANCH  10  12
ENDBRANCH   1   9
BRANCH   3  19
ATOM     19  O   UNL d   1      -2.285   1.562  -0.801  0.00  0.00    -0.358 OA
ATOM     20  H   UNL d   1      -2.831   0.783  -1.026  0.00  0.00     0.217 HD
ENDBRANCH   3  19
TORSDOF 5
