REMARK  5 active torsions:
REMARK  status: ('A' for Active; 'I' for Inactive)
REMARK    1  A    between atoms: N_9  and  S_1 
REMARK    2  A    between atoms: C_10  and  S_1 
REMARK    3  A    between atoms: C_6  and  C_2 
REMARK    4  A    between atoms: N_5  and  C_13 
REMARK    5  A    between atoms: C_19  and  N_9 
ROOT
ATOM      1  C   UNL d   1       1.611  -5.003  -1.948  0.00  0.00     0.056 A 
ATOM      2  C   UNL d   1       0.929  -2.717  -0.482  0.00  0.00     0.042 A 
ATOM      3  C   UNL d   1       0.293  -4.817  -1.509  0.00  0.00     0.034 A 
ATOM      4  C   UNL d   1       2.572  -4.014  -1.685  0.00  0.00     0.034 A 
ATOM      5  C   UNL d   1      -0.035  -3.682  -0.759  0.00  0.00     0.032 A 
ATOM      6  C   UNL d   1       2.228  -2.865  -0.968  0.00  0.00     0.032 A 
ENDROOT
BRANCH   2   7
ATOM      7  N   UNL d   1       0.606  -1.637   0.385  0.00  0.00    -0.281 N 
ATOM      8  H   UNL d   1       0.926  -0.712   0.110  0.00  0.00     0.179 HD
BRANCH   7   9
ATOM      9  S   UNL d   1       0.789  -1.882   2.055  0.00  0.00     0.263 S 
ATOM     10  O   UNL d   1       0.141  -3.119   2.438  0.00  0.00    -0.200 OA
ATOM     11  O   UNL d   1       0.444  -0.626   2.688  0.00  0.00    -0.200 OA
BRANCH   9  12
ATOM     12  C   UNL d   1       2.550  -2.095   2.239  0.00  0.00     0.079 A 
ATOM     13  C   UNL d   1       3.361  -0.974   2.435  0.00  0.00     0.026 A 
ATOM     14  C   UNL d   1       4.743  -1.131   2.530  0.00  0.00     0.008 A 
ATOM     15  C   UNL d   1       5.323  -2.405   2.438  0.00  0.00    -0.062 A 
ATOM     16  C   UNL d   1       4.495  -3.525   2.280  0.00  0.00     0.008 A 
ATOM     17  C   UNL d   1       6.815  -2.552   2.510  0.00  0.00     0.048 C 
ATOM     18  C   UNL d   1       3.108  -3.376   2.195  0.00  0.00     0.026 A 
ENDBRANCH   9  12
ENDBRANCH   7   9
ENDBRANCH   2   7
BRANCH   1  19
ATOM     19  N   UNL d   1       2.007  -6.204  -2.602  0.00  0.00    -0.267 N 
ATOM     20  N   UNL d   1       3.315  -6.438  -2.883  0.00  0.00    -0.290 N 
ATOM     21  C   UNL d   1       3.365  -7.702  -3.342  0.00  0.00     0.134 A 
ATOM     22  HN  UNL d   1       4.095  -5.791  -2.771  1.00  0.00     0.187 HD
ATOM     23  C   UNL d   1       2.065  -8.254  -3.434  0.00  0.00     0.055 A 
ATOM     24  C   UNL d   1       1.222  -7.274  -2.970  0.00  0.00     0.119 A 
BRANCH  21  25
ATOM     25  C   UNL d   1       4.653  -8.405  -3.680  0.00  0.00     0.434 C 
ATOM     26  F   UNL d   1       5.755  -7.621  -3.552  0.00  0.00    -0.165 F 
ATOM     27  F   UNL d   1       4.851  -9.488  -2.879  0.00  0.00    -0.165 F 
ATOM     28  F   UNL d   1       4.651  -8.872  -4.959  0.00  0.00    -0.165 F 
ENDBRANCH  21  25
ENDBRANCH   1  19
TORSDOF 5
