REMARK  6 active torsions:
REMARK  status: ('A' for Active; 'I' for Inactive)
REMARK    1  A    between atoms: C_6  and  C_1 
REMARK    2  A    between atoms: N_3  and  C_2 
REMARK       I    between atoms: C_4  and  N_3 
REMARK    3  A    between atoms: C_10  and  C_4 
REMARK    4  A    between atoms: O_15  and  C_6 
REMARK    5  A    between atoms: O_17  and  C_8 
REMARK    6  A    between atoms: O_18  and  C_9 
ROOT
ATOM      1  C   UNL d   1       1.199  -0.047  -0.028  0.00  0.00     0.067 C 
ATOM      2  C   UNL d   1       0.544  -1.282  -0.186  0.00  0.00     0.054 C 
ATOM      3  C   UNL d   1       0.515   1.164  -0.201  0.00  0.00     0.060 C 
ATOM      4  C   UNL d   1      -0.859  -1.259  -0.302  0.00  0.00     0.070 C 
ATOM      5  C   UNL d   1      -0.870   1.167  -0.316  0.00  0.00     0.102 C 
ATOM      6  C   UNL d   1      -1.576  -0.045  -0.326  0.00  0.00     0.103 C 
ENDROOT
BRANCH   2   7
ATOM      7  N   UNL d   1       1.185  -2.561  -0.163  0.00  0.00    -0.322 N 
ATOM      8  C   UNL d   1       2.527  -2.793  -0.479  0.00  0.00     0.256 C 
ATOM      9  O   UNL d   1       3.265  -1.947  -0.959  0.00  0.00    -0.267 OA
ATOM     10  H   UNL d   1       0.575  -3.365  -0.164  0.00  0.00     0.169 HD
BRANCH   8  11
ATOM     11  C   UNL d   1       3.082  -4.176  -0.235  0.00  0.00     0.032 A 
ATOM     12  C   UNL d   1       2.336  -5.232   0.307  0.00  0.00     0.018 A 
ATOM     13  C   UNL d   1       2.947  -6.460   0.598  0.00  0.00     0.025 A 
ATOM     14  C   UNL d   1       4.308  -6.647   0.351  0.00  0.00     0.034 A 
ATOM     15  C   UNL d   1       5.058  -5.622  -0.216  0.00  0.00     0.025 A 
ATOM     16 CL   UNL d   1       5.059  -8.135   0.771  0.00  0.00    -0.084 Cl
ATOM     17  C   UNL d   1       4.444  -4.394  -0.509  0.00  0.00     0.018 A 
ENDBRANCH   8  11
ENDBRANCH   2   7
BRANCH   1  18
ATOM     18  C   UNL d   1       2.467   0.094   0.720  0.00  0.00     0.178 C 
ATOM     19  O   UNL d   1       3.375   0.851   0.415  0.00  0.00    -0.646 OA
BRANCH  18  20
ATOM     20  O   UNL d   1       2.371  -0.513   1.928  0.00  0.00    -0.773 OA
ATOM     21  H   UNL d   1       1.511  -0.954   2.082  0.00  0.00     0.167 HD
ENDBRANCH  18  20
ENDBRANCH   1  18
BRANCH   6  22
ATOM     22  O   UNL d   1      -2.940   0.039  -0.399  0.00  0.00    -0.353 OA
ATOM     23  C   UNL d   1      -3.698  -1.098  -0.010  0.00  0.00     0.210 C 
ENDBRANCH   6  22
BRANCH   5  24
ATOM     24  O   UNL d   1      -1.429   2.417  -0.403  0.00  0.00    -0.353 OA
ATOM     25  C   UNL d   1      -2.473   2.669   0.535  0.00  0.00     0.210 C 
ENDBRANCH   5  24
TORSDOF 6
