REMARK  3 active torsions:
REMARK  status: ('A' for Active; 'I' for Inactive)
REMARK    1  A    between atoms: C_6  and  C_1 
REMARK    2  A    between atoms: C_14  and  C_3 
REMARK    3  A    between atoms: C_8  and  C_11 
ROOT
ATOM      1  C   UNL d   1       1.473   2.451  -0.007  0.00  0.00     0.041 A 
ATOM      2  C   UNL d   1       2.759   2.535  -0.587  0.00  0.00     0.049 A 
ATOM      3  C   UNL d   1       0.943   3.649   0.526  0.00  0.00     0.049 A 
ATOM      4  C   UNL d   1       2.942   4.916  -0.064  0.00  0.00     0.051 A 
ATOM      5  C   UNL d   1       1.661   4.858   0.488  0.00  0.00     0.041 A 
ATOM      6  C   UNL d   1       3.484   3.741  -0.591  0.00  0.00     0.041 A 
ATOM      7 CL   UNL d   1       3.544   1.224  -1.409  0.00  0.00    -0.083 Cl
ATOM      8 CL   UNL d   1      -0.607   3.748   1.304  0.00  0.00    -0.083 Cl
ENDROOT
BRANCH   1   9
ATOM      9  C   UNL d   1       0.665   1.208   0.013  0.00  0.00     0.088 C 
ATOM     10  S   UNL d   1       1.327  -0.323   0.440  0.00  0.00    -0.066 SA
ATOM     11  C   UNL d   1      -0.169  -1.085   0.111  0.00  0.00     0.074 C 
ATOM     12  C   UNL d   1      -1.137  -0.114  -0.070  0.00  0.00     0.027 C 
ATOM     13  N   UNL d   1      -0.631   1.172  -0.211  0.00  0.00    -0.352 N 
ATOM     14  C   UNL d   1      -2.607  -0.308  -0.169  0.00  0.00     0.070 C 
ATOM     15  HN  UNL d   1      -1.194   1.986  -0.457  1.00  0.00     0.166 HD
BRANCH  11  16
ATOM     16  C   UNL d   1      -0.339  -2.529   0.115  0.00  0.00     0.164 C 
ATOM     17  O   UNL d   1      -1.431  -3.063   0.331  0.00  0.00    -0.292 OA
ATOM     18  C   UNL d   1       0.845  -3.414  -0.207  0.00  0.00     0.097 C 
ENDBRANCH  11  16
ENDBRANCH   1   9
BRANCH   4  19
ATOM     19  C   UNL d   1       3.730   6.201  -0.098  0.00  0.00     0.417 C 
ATOM     20  F   UNL d   1       3.024   7.283   0.327  0.00  0.00    -0.166 F 
ATOM     21  F   UNL d   1       4.840   6.142   0.687  0.00  0.00    -0.166 F 
ATOM     22  F   UNL d   1       4.169   6.505  -1.349  0.00  0.00    -0.166 F 
ENDBRANCH   4  19
TORSDOF 3
