REMARK  9 active torsions:
REMARK  status: ('A' for Active; 'I' for Inactive)
REMARK    1  A    between atoms: C7_7  and  C1_1 
REMARK    2  A    between atoms: C6_6  and  O1_8 
REMARK       I    between atoms: N_18  and  C6_6 
REMARK    3  A    between atoms: O1_8  and  C7_7 
REMARK    4  A    between atoms: C_21  and  N_18 
REMARK    5  A    between atoms: C_19  and  O_20 
REMARK    6  A    between atoms: O_20  and  C_22 
REMARK    7  A    between atoms: C_22  and  C_21 
REMARK    8  A    between atoms: C_24  and  C_21 
REMARK    9  A    between atoms: O_23  and  C_24 
ROOT
ATOM      1  O1  <1> d   1      -1.047   3.351   1.546  0.00  0.00    -0.303 OA
ENDROOT
BRANCH   1   2
ATOM      2  C6  <1> d   1      -1.342   4.460   2.254  0.00  0.00     0.361 C 
ATOM      3  N   UNK d   1      -0.498   4.522   3.313  0.00  0.00    -0.328 N 
ATOM      4  H   UNK d   1       0.166   3.764   3.412  0.00  0.00     0.165 HD
ATOM      5  O2  <1> d   1      -2.200   5.277   1.969  0.00  0.00    -0.239 OA
BRANCH   3   6
ATOM      6  C   UNK d   1      -0.639   5.462   4.417  0.00  0.00     0.134 C 
BRANCH   6   7
ATOM      7  C   UNK d   1      -1.665   4.899   5.411  0.00  0.00     0.196 C 
BRANCH   7   8
ATOM      8  O   UNK d   1      -1.858   5.768   6.528  0.00  0.00    -0.379 OA
BRANCH   8   9
ATOM      9  C   UNK d   1      -2.804   5.316   7.514  0.00  0.00     0.050 C 
ATOM     10  C   UNK d   1      -2.424   3.946   8.095  0.00  0.00     0.045 C 
ATOM     11  C   UNK d   1      -2.748   6.351   8.648  0.00  0.00     0.045 C 
ATOM     12  C   UNK d   1      -4.232   5.290   6.950  0.00  0.00     0.045 C 
ENDBRANCH   8   9
ENDBRANCH   7   8
ENDBRANCH   6   7
BRANCH   6  13
ATOM     13  C   UNK d   1       0.730   5.710   5.067  0.00  0.00     0.191 C 
BRANCH  13  14
ATOM     14  O   UNK d   1       1.328   4.473   5.468  0.00  0.00    -0.399 OA
ATOM     15  H   UNK d   1       2.141   4.705   5.952  0.00  0.00     0.209 HD
ENDBRANCH  13  14
ENDBRANCH   6  13
ENDBRANCH   3   6
ENDBRANCH   1   2
BRANCH   1  16
ATOM     16  C7  <1> d   1      -1.218   3.445   0.117  0.00  0.00     0.194 C 
BRANCH  16  17
ATOM     17  C1  <1> d   1       0.152   3.698  -0.534  0.00  0.00     0.078 A 
ATOM     18  C4  <1> d   1       1.179   2.665  -0.065  0.00  0.00    -0.036 A 
ATOM     19  C2  <1> d   1       2.204   3.295   0.677  0.00  0.00    -0.018 A 
ATOM     20  C13 <1> d   1       1.125   1.284  -0.196  0.00  0.00     0.009 A 
ATOM     21  C12 <1> d   1       3.143   2.541   1.352  0.00  0.00     0.013 A 
ATOM     22  C3  <1> d   1       1.988   4.731   0.644  0.00  0.00    -0.018 A 
ATOM     23  C22 <1> d   1       3.072   1.146   1.257  0.00  0.00     0.001 A 
ATOM     24  C21 <1> d   1       2.082   0.525   0.477  0.00  0.00     0.001 A 
ATOM     25  C5  <1> d   1       0.793   4.999  -0.061  0.00  0.00    -0.036 A 
ATOM     26  C11 <1> d   1       2.721   5.765   1.201  0.00  0.00     0.013 A 
ATOM     27  C14 <1> d   1       0.306   6.292  -0.190  0.00  0.00     0.009 A 
ATOM     28  C20 <1> d   1       1.037   7.331   0.386  0.00  0.00     0.001 A 
ATOM     29  C19 <1> d   1       2.239   7.073   1.065  0.00  0.00     0.001 A 
ENDBRANCH  16  17
ENDBRANCH   1  16
TORSDOF 9
