REMARK  1 active torsions:
REMARK  status: ('A' for Active; 'I' for Inactive)
REMARK       I    between atoms: N_2  and  C_1 
REMARK       I    between atoms: N_4  and  C_1 
REMARK       I    between atoms: C_3  and  N_2 
REMARK       I    between atoms: N_13  and  C_3 
REMARK    1  A    between atoms: C_11  and  N_4 
ROOT
ATOM      1  C   UNL d   1       1.048   1.027  -1.796  0.00  0.00     0.678 C 
ATOM      2  N   UNL d   1       2.320   1.236  -1.329  0.00  0.00    -0.167 N 
ATOM      3  C   UNL d   1       2.871   1.519  -0.123  0.00  0.00     0.163 C 
ATOM      4  N   UNL d   1       0.123   0.731  -0.830  0.00  0.00    -0.192 N 
ATOM      5  N   UNL d   1       0.802   1.123  -3.062  0.00  0.00    -0.234 N 
ATOM      6  HN  UNL d   1      -0.115   0.963  -3.479  1.00  0.00     0.174 HD
ATOM      7  N   UNL d   1       2.269   1.794   0.981  0.00  0.00    -0.376 N 
ATOM      8  HN  UNL d   1       2.721   1.934   1.885  1.00  0.00     0.158 HD
ATOM      9  N   UNL d   1       4.223   1.547  -0.144  0.00  0.00    -0.274 NA
ATOM     10  H   UNL d   1       2.986   1.410  -2.068  0.00  0.00     0.187 HD
ATOM     11  H   UNL d   1       0.486   0.248  -0.018  0.00  0.00     0.184 HD
ATOM     12  H   UNL d   1       1.632   1.376  -3.592  0.00  0.00     0.174 HD
ATOM     13  H   UNL d   1       1.263   1.847   0.802  0.00  0.00     0.158 HD
ATOM     14  H   UNL d   1       4.661   0.721  -0.534  0.00  0.00     0.127 HD
ATOM     15  H   UNL d   1       4.574   1.714   0.798  0.00  0.00     0.127 HD
ENDROOT
BRANCH   4  16
ATOM     16  C   UNL d   1      -1.285   0.721  -0.907  0.00  0.00     0.049 A 
ATOM     17  C   UNL d   1      -2.015   0.706   0.298  0.00  0.00     0.038 A 
ATOM     18  C   UNL d   1      -3.421   0.813   0.329  0.00  0.00    -0.043 A 
ATOM     19  C   UNL d   1      -4.131   0.822   1.654  0.00  0.00     0.049 C 
ATOM     20  C   UNL d   1      -4.108   0.922  -0.886  0.00  0.00     0.017 A 
ATOM     21  C   UNL d   1      -3.404   0.952  -2.088  0.00  0.00     0.022 A 
ATOM     22 BR   UNL d   1      -6.001   1.049  -0.971  0.00  0.00    -0.051 Br
ATOM     23  C   UNL d   1      -2.008   0.872  -2.092  0.00  0.00     0.031 A 
ENDBRANCH   4  16
TORSDOF 1
