REMARK  3 active torsions:
REMARK  status: ('A' for Active; 'I' for Inactive)
REMARK    1  A    between atoms: N_9  and  C_3 
REMARK    2  A    between atoms: N_15  and  C_6 
REMARK    3  A    between atoms: C_10  and  N_9 
ROOT
ATOM      1  N   UNL d   1      -0.049  -1.216   0.025  0.00  0.00    -0.166 N 
ATOM      2  HN  UNL d   1      -0.468  -2.147   0.010  1.00  0.00     0.187 HD
ATOM      3  C   UNL d   1      -0.797  -0.116   0.048  0.00  0.00     0.685 A 
ATOM      4  N   UNL d   1      -0.289   1.112   0.039  0.00  0.00    -0.188 N 
ATOM      5  HN  UNL d   1      -0.873   1.949   0.038  1.00  0.00     0.185 HD
ATOM      6  C   UNL d   1       1.259  -1.046   0.022  0.00  0.00     0.170 A 
ATOM      7  N   UNL d   1       1.868   0.125   0.013  0.00  0.00    -0.328 N 
ATOM      8  HN  UNL d   1       2.883   0.224  -0.008  1.00  0.00     0.169 HD
ATOM      9  C   UNL d   1       1.040   1.163   0.033  0.00  0.00     0.200 A 
ENDROOT
BRANCH   3  10
ATOM     10  N   UNL d   1      -2.188  -0.215   0.031  0.00  0.00    -0.190 N 
ATOM     11  H   UNL d   1      -2.614   0.679  -0.172  0.00  0.00     0.184 HD
BRANCH  10  12
ATOM     12  C   UNL d   1      -3.029  -1.340   0.020  0.00  0.00     0.066 A 
ATOM     13  C   UNL d   1      -4.305  -1.285  -0.578  0.00  0.00     0.041 A 
ATOM     14  C   UNL d   1      -5.109  -2.424  -0.681  0.00  0.00     0.063 A 
ATOM     15 BR   UNL d   1      -4.981   0.342  -1.294  0.00  0.00    -0.049 Br
ATOM     16  C   UNL d   1      -4.646  -3.631  -0.179  0.00  0.00     0.117 A 
ATOM     17  C   UNL d   1      -3.408  -3.718   0.437  0.00  0.00     0.044 A 
ATOM     18  F   UNL d   1      -5.403  -4.730  -0.292  0.00  0.00    -0.206 F 
ATOM     19  C   UNL d   1      -2.610  -2.578   0.537  0.00  0.00     0.034 A 
ENDBRANCH  10  12
ENDBRANCH   3  10
BRANCH   6  20
ATOM     20  N   UNL d   1       2.037  -2.186  -0.020  0.00  0.00    -0.273 NA
ATOM     21  H   UNL d   1       1.507  -2.949  -0.420  0.00  0.00     0.127 HD
ATOM     22  H   UNL d   1       2.935  -1.984  -0.435  0.00  0.00     0.127 HD
ENDBRANCH   6  20
TORSDOF 3
