REMARK  16 active torsions:
REMARK  status: ('A' for Active; 'I' for Inactive)
REMARK    1  A    between atoms: C_5  and  S_1 
REMARK    2  A    between atoms: N_9  and  S_1 
REMARK    3  A    between atoms: S_2  and  C_6 
REMARK    4  A    between atoms: N_10  and  S_2 
REMARK    5  A    between atoms: C_22  and  N_9 
REMARK    6  A    between atoms: C_23  and  N_9 
REMARK    7  A    between atoms: C_24  and  N_10 
REMARK    8  A    between atoms: C_25  and  N_10 
REMARK    9  A    between atoms: C_30  and  C_22 
REMARK   10  A    between atoms: C_31  and  C_23 
REMARK   11  A    between atoms: C_32  and  C_24 
REMARK   12  A    between atoms: C_33  and  C_25 
REMARK   13  A    between atoms: O_26  and  C_30 
REMARK   14  A    between atoms: O_27  and  C_31 
REMARK   15  A    between atoms: O_28  and  C_32 
REMARK   16  A    between atoms: O_29  and  C_33 
ROOT
ATOM      1  C   UNL d   1       0.532   3.893  -1.396  0.00  0.00    -0.041 A 
ATOM      2  C   UNL d   1       0.272   5.994  -2.428  0.00  0.00    -0.041 A 
ATOM      3  C   UNL d   1       0.451   1.539  -1.032  0.00  0.00     0.075 A 
ATOM      4  C   UNL d   1      -0.490   7.700  -3.915  0.00  0.00     0.075 A 
ATOM      5  C   UNL d   1      -0.269   3.743  -2.548  0.00  0.00    -0.019 A 
ATOM      6  C   UNL d   1      -0.454   5.035  -3.163  0.00  0.00    -0.019 A 
ATOM      7  C   UNL d   1       0.939   5.345  -1.230  0.00  0.00     0.078 A 
ATOM      8  C   UNL d   1       0.881   2.805  -0.613  0.00  0.00     0.033 A 
ATOM      9  C   UNL d   1       0.285   7.325  -2.806  0.00  0.00     0.033 A 
ATOM     10  C   UNL d   1      -1.216   5.400  -4.258  0.00  0.00     0.014 A 
ATOM     11  C   UNL d   1      -0.711   2.499  -2.953  0.00  0.00     0.014 A 
ATOM     12  C   UNL d   1      -0.314   1.389  -2.207  0.00  0.00     0.026 A 
ATOM     13  C   UNL d   1      -1.270   6.751  -4.603  0.00  0.00     0.026 A 
ENDROOT
BRANCH   3  14
ATOM     14  S   UNL d   1       1.064   0.090  -0.188  0.00  0.00     0.243 S 
ATOM     15  O   UNL d   1       1.994   0.564   0.817  0.00  0.00    -0.206 OA
ATOM     16  O   UNL d   1       1.525  -0.831  -1.206  0.00  0.00    -0.206 OA
BRANCH  14  17
ATOM     17  N   UNL d   1      -0.286  -0.595   0.601  0.00  0.00    -0.202 NA
BRANCH  17  18
ATOM     18  C   UNL d   1      -1.490  -0.980  -0.218  0.00  0.00     0.133 C 
BRANCH  18  19
ATOM     19  C   UNL d   1      -1.236  -1.997  -1.342  0.00  0.00     0.179 C 
BRANCH  19  20
ATOM     20  O   UNL d   1      -0.843  -3.264  -0.828  0.00  0.00    -0.400 OA
ATOM     21  H   UNL d   1      -0.377  -3.722  -1.552  0.00  0.00     0.209 HD
ENDBRANCH  19  20
ENDBRANCH  18  19
ENDBRANCH  17  18
BRANCH  17  22
ATOM     22  C   UNL d   1       0.046  -1.681   1.596  0.00  0.00     0.133 C 
BRANCH  22  23
ATOM     23  C   UNL d   1       0.730  -1.178   2.872  0.00  0.00     0.179 C 
BRANCH  23  24
ATOM     24  O   UNL d   1      -0.081  -0.228   3.557  0.00  0.00    -0.400 OA
ATOM     25  H   UNL d   1       0.507   0.239   4.175  0.00  0.00     0.209 HD
ENDBRANCH  23  24
ENDBRANCH  22  23
ENDBRANCH  17  22
ENDBRANCH  14  17
ENDBRANCH   3  14
BRANCH   4  26
ATOM     26  S   UNL d   1      -0.636   9.437  -4.305  0.00  0.00     0.243 S 
ATOM     27  O   UNL d   1      -2.046   9.723  -4.496  0.00  0.00    -0.206 OA
ATOM     28  O   UNL d   1       0.122  10.135  -3.297  0.00  0.00    -0.206 OA
BRANCH  26  29
ATOM     29  N   UNL d   1       0.163   9.662  -5.846  0.00  0.00    -0.202 NA
BRANCH  29  30
ATOM     30  C   UNL d   1      -0.626   9.033  -6.977  0.00  0.00     0.133 C 
BRANCH  30  31
ATOM     31  C   UNL d   1       0.001   9.115  -8.370  0.00  0.00     0.179 C 
BRANCH  31  32
ATOM     32  O   UNL d   1      -0.817   8.374  -9.278  0.00  0.00    -0.400 OA
ATOM     33  H   UNL d   1      -0.414   8.450 -10.160  0.00  0.00     0.209 HD
ENDBRANCH  31  32
ENDBRANCH  30  31
ENDBRANCH  29  30
BRANCH  29  34
ATOM     34  C   UNL d   1       0.427  11.123  -6.135  0.00  0.00     0.133 C 
BRANCH  34  35
ATOM     35  C   UNL d   1       1.449  11.789  -5.210  0.00  0.00     0.179 C 
BRANCH  35  36
ATOM     36  O   UNL d   1       1.809  13.065  -5.745  0.00  0.00    -0.400 OA
ATOM     37  H   UNL d   1       2.316  13.519  -5.049  0.00  0.00     0.209 HD
ENDBRANCH  35  36
ENDBRANCH  34  35
ENDBRANCH  29  34
ENDBRANCH  26  29
ENDBRANCH   4  26
TORSDOF 16
