REMARK  10 active torsions:
REMARK  status: ('A' for Active; 'I' for Inactive)
REMARK    1  A    between atoms: S_9  and  C_3 
REMARK    2  A    between atoms: S_10  and  C_4 
REMARK    3  A    between atoms: C_17  and  S_9 
REMARK    4  A    between atoms: C_18  and  S_10 
REMARK    5  A    between atoms: C_11  and  C_17 
REMARK    6  A    between atoms: C_13  and  C_11 
REMARK    7  A    between atoms: C_12  and  C_18 
REMARK    8  A    between atoms: C_14  and  C_12 
REMARK    9  A    between atoms: C_29  and  C_15 
REMARK   10  A    between atoms: C_30  and  C_16 
ROOT
ATOM      1  N   UNL d   1      -2.224   0.659   0.064  0.00  0.00    -0.331 N 
ATOM      2  HN  UNL d   1      -3.107   1.170   0.042  1.00  0.00     0.168 HD
ATOM      3  C   UNL d   1      -1.041   1.290  -0.071  0.00  0.00     0.084 A 
ATOM      4  C   UNL d   1      -2.188  -0.664   0.227  0.00  0.00     0.146 A 
ATOM      5  N   UNL d   1      -1.075  -1.405   0.213  0.00  0.00    -0.336 N 
ATOM      6  HN  UNL d   1      -1.116  -2.420   0.298  1.00  0.00     0.168 HD
ATOM      7  C   UNL d   1       0.194   0.623  -0.039  0.00  0.00     0.024 A 
ATOM      8  C   UNL d   1       0.093  -0.768   0.085  0.00  0.00     0.047 A 
ATOM      9  C   UNL d   1       1.484   1.219  -0.104  0.00  0.00     0.016 A 
ATOM     10  C   UNL d   1       1.259  -1.527   0.095  0.00  0.00     0.030 A 
ATOM     11  C   UNL d   1       2.638   0.439  -0.058  0.00  0.00     0.001 A 
ATOM     12  C   UNL d   1       2.524  -0.941   0.027  0.00  0.00     0.002 A 
ENDROOT
BRANCH   3  13
ATOM     13  S   UNL d   1      -1.157   3.064  -0.344  0.00  0.00    -0.103 SA
BRANCH  13  14
ATOM     14  C   UNL d   1      -2.817   3.385   0.336  0.00  0.00     0.164 C 
BRANCH  14  15
ATOM     15  C   UNL d   1      -3.283   4.818   0.132  0.00  0.00     0.169 C 
ATOM     16  O   UNL d   1      -2.643   5.670  -0.479  0.00  0.00    -0.291 OA
BRANCH  15  17
ATOM     17  C   UNL d   1      -4.630   5.186   0.683  0.00  0.00     0.011 A 
ATOM     18  C   UNL d   1      -5.440   4.276   1.368  0.00  0.00     0.016 A 
ATOM     19  C   UNL d   1      -6.713   4.659   1.821  0.00  0.00     0.013 A 
ATOM     20  C   UNL d   1      -7.215   5.958   1.621  0.00  0.00    -0.026 A 
ATOM     21  C   UNL d   1      -6.370   6.866   0.958  0.00  0.00     0.013 A 
ATOM     22  C   UNL d   1      -5.104   6.487   0.487  0.00  0.00     0.016 A 
BRANCH  20  23
ATOM     23  C   UNL d   1      -8.582   6.339   2.061  0.00  0.00    -0.026 A 
ATOM     24  C   UNL d   1      -9.350   7.279   1.345  0.00  0.00     0.012 A 
ATOM     25  C   UNL d   1     -10.650   7.619   1.735  0.00  0.00     0.001 A 
ATOM     26  C   UNL d   1     -11.223   7.017   2.849  0.00  0.00     0.000 A 
ATOM     27  C   UNL d   1     -10.492   6.087   3.580  0.00  0.00     0.001 A 
ATOM     28  C   UNL d   1      -9.185   5.761   3.195  0.00  0.00     0.012 A 
ENDBRANCH  20  23
ENDBRANCH  15  17
ENDBRANCH  14  15
ENDBRANCH  13  14
ENDBRANCH   3  13
BRANCH   4  29
ATOM     29  S   UNL d   1      -3.704  -1.512   0.587  0.00  0.00    -0.086 SA
BRANCH  29  30
ATOM     30  C   UNL d   1      -4.877  -0.401  -0.235  0.00  0.00     0.166 C 
BRANCH  30  31
ATOM     31  C   UNL d   1      -6.302  -0.830   0.048  0.00  0.00     0.169 C 
ATOM     32  O   UNL d   1      -6.922  -0.415   1.026  0.00  0.00    -0.291 OA
BRANCH  31  33
ATOM     33  C   UNL d   1      -6.995  -1.711  -0.936  0.00  0.00     0.011 A 
ATOM     34  C   UNL d   1      -6.303  -2.635  -1.717  0.00  0.00     0.016 A 
ATOM     35  C   UNL d   1      -6.985  -3.392  -2.677  0.00  0.00     0.013 A 
ATOM     36  C   UNL d   1      -8.371  -3.258  -2.882  0.00  0.00    -0.026 A 
ATOM     37  C   UNL d   1      -9.053  -2.351  -2.050  0.00  0.00     0.013 A 
ATOM     38  C   UNL d   1      -8.378  -1.585  -1.090  0.00  0.00     0.016 A 
BRANCH  36  39
ATOM     39  C   UNL d   1      -9.067  -4.023  -3.947  0.00  0.00    -0.026 A 
ATOM     40  C   UNL d   1     -10.161  -3.480  -4.646  0.00  0.00     0.012 A 
ATOM     41  C   UNL d   1     -10.796  -4.183  -5.676  0.00  0.00     0.001 A 
ATOM     42  C   UNL d   1     -10.342  -5.446  -6.042  0.00  0.00     0.000 A 
ATOM     43  C   UNL d   1      -9.265  -6.010  -5.369  0.00  0.00     0.001 A 
ATOM     44  C   UNL d   1      -8.642  -5.310  -4.329  0.00  0.00     0.012 A 
ENDBRANCH  36  39
ENDBRANCH  31  33
ENDBRANCH  30  31
ENDBRANCH  29  30
ENDBRANCH   4  29
TORSDOF 10
