REMARK  4 active torsions:
REMARK  status: ('A' for Active; 'I' for Inactive)
REMARK    1  A    between atoms: C_8  and  N_1 
REMARK    2  A    between atoms: C_7  and  C_4 
REMARK    3  A    between atoms: C_10  and  C_5 
REMARK    4  A    between atoms: O_11  and  C_9 
ROOT
ATOM      1  N   UNL d   1       0.080  -1.132  -0.157  0.00  0.00    -0.283 N 
ATOM      2  N   UNL d   1       1.068  -0.195  -0.300  0.00  0.00    -0.301 N 
ATOM      3  HN  UNL d   1       2.069  -0.380  -0.368  1.00  0.00     0.187 HD
ATOM      4  C   UNL d   1      -1.269  -0.546  -0.068  0.00  0.00     0.149 A 
ATOM      5  C   UNL d   1       0.500   0.973  -0.335  0.00  0.00     0.038 A 
ATOM      6  C   UNL d   1      -1.002   0.956  -0.246  0.00  0.00     0.091 A 
ENDROOT
BRANCH   4   7
ATOM      7  C   UNL d   1      -1.965  -0.861   1.251  0.00  0.00     0.000 A 
ATOM      8  C   UNL d   1      -3.216  -1.490   1.409  0.00  0.00     0.076 A 
ATOM      9  C   UNL d   1      -3.651  -1.823   2.709  0.00  0.00     0.037 A 
ATOM     10  C   UNL d   1      -2.899  -1.538   3.845  0.00  0.00     0.003 A 
ATOM     11  C   UNL d   1      -1.683  -0.896   3.706  0.00  0.00     0.001 A 
ATOM     12  C   UNL d   1      -1.227  -0.564   2.432  0.00  0.00     0.012 A 
BRANCH   8  13
ATOM     13  O   UNL d   1      -4.136  -1.931   0.503  0.00  0.00    -0.355 OA
ATOM     14  C   UNL d   1      -4.083  -1.647  -0.878  0.00  0.00     0.210 C 
ENDBRANCH   8  13
ENDBRANCH   4   7
BRANCH   1  15
ATOM     15  C   UNL d   1       0.375  -2.496  -0.159  0.00  0.00     0.051 A 
ATOM     16  C   UNL d   1       1.698  -2.955  -0.269  0.00  0.00     0.031 A 
ATOM     17  C   UNL d   1       2.017  -4.319  -0.227  0.00  0.00     0.002 A 
ATOM     18  C   UNL d   1       1.015  -5.270  -0.071  0.00  0.00     0.000 A 
ATOM     19  C   UNL d   1      -0.305  -4.852   0.028  0.00  0.00     0.002 A 
ATOM     20  C   UNL d   1      -0.612  -3.489  -0.031  0.00  0.00     0.031 A 
ENDBRANCH   1  15
BRANCH   5  21
ATOM     21  C   UNL d   1       1.258   2.247  -0.464  0.00  0.00    -0.012 A 
ATOM     22  C   UNL d   1       2.657   2.214  -0.516  0.00  0.00     0.013 A 
ATOM     23  C   UNL d   1       3.390   3.399  -0.643  0.00  0.00     0.001 A 
ATOM     24  C   UNL d   1       2.726   4.623  -0.716  0.00  0.00     0.000 A 
ATOM     25  C   UNL d   1       1.335   4.664  -0.662  0.00  0.00     0.001 A 
ATOM     26  C   UNL d   1       0.601   3.481  -0.535  0.00  0.00     0.013 A 
ENDBRANCH   5  21
TORSDOF 4
