REMARK  6 active torsions:
REMARK  status: ('A' for Active; 'I' for Inactive)
REMARK    1  A    between atoms: C_2  and  C_1 
REMARK    2  A    between atoms: C_5  and  C_2 
REMARK    3  A    between atoms: C_3  and  C_4 
REMARK       I    between atoms: N_7  and  C_3 
REMARK    4  A    between atoms: C_6  and  C_19 
REMARK    5  A    between atoms: C_20  and  N_7 
REMARK    6  A    between atoms: C_8  and  C_9 
ROOT
ATOM      1  C   UNL d   1      -4.763  -6.092  -1.860  0.00  0.00     0.245 C 
ATOM      2  N   UNL d   1      -4.638  -6.860  -2.998  0.00  0.00    -0.324 N 
ATOM      3  O   UNL d   1      -3.966  -5.253  -1.454  0.00  0.00    -0.268 OA
ATOM      4  H   UNL d   1      -5.438  -7.400  -3.300  0.00  0.00     0.169 HD
ENDROOT
BRANCH   1   5
ATOM      5  C   UNL d   1      -6.018  -6.367  -1.103  0.00  0.00     0.075 C 
ATOM      6  C   UNL d   1      -6.266  -5.643   0.004  0.00  0.00     0.017 C 
BRANCH   6   7
ATOM      7  C   UNL d   1      -7.394  -5.834   0.926  0.00  0.00    -0.036 A 
ATOM      8  C   UNL d   1      -7.245  -5.410   2.254  0.00  0.00     0.012 A 
ATOM      9  C   UNL d   1      -8.287  -5.560   3.174  0.00  0.00     0.016 A 
ATOM     10  C   UNL d   1      -9.503  -6.135   2.783  0.00  0.00     0.019 A 
ATOM     11  C   UNL d   1      -9.673  -6.516   1.448  0.00  0.00     0.016 A 
ATOM     12  C   UNL d   1      -8.624  -6.370   0.530  0.00  0.00     0.012 A 
BRANCH  10  13
ATOM     13  C   UNL d   1     -10.569  -6.279   3.814  0.00  0.00     0.265 C 
ATOM     14  O   UNL d   1     -10.569  -5.478   4.753  0.00  0.00    -0.282 OA
BRANCH  13  15
ATOM     15  C   UNL d   1     -11.588  -7.404   3.688  0.00  0.00     0.456 C 
ATOM     16  F   UNL d   1     -11.344  -8.288   2.680  0.00  0.00    -0.163 F 
ATOM     17  F   UNL d   1     -12.846  -6.928   3.471  0.00  0.00    -0.163 F 
ATOM     18  F   UNL d   1     -11.655  -8.157   4.822  0.00  0.00    -0.163 F 
ENDBRANCH  13  15
ENDBRANCH  10  13
ENDBRANCH   6   7
ENDBRANCH   1   5
BRANCH   2  19
ATOM     19  C   UNL d   1      -3.472  -6.989  -3.788  0.00  0.00     0.035 A 
ATOM     20  C   UNL d   1      -2.228  -6.495  -3.403  0.00  0.00     0.030 A 
ATOM     21  C   UNL d   1      -1.087  -6.741  -4.177  0.00  0.00     0.010 A 
ATOM     22  C   UNL d   1      -1.149  -7.483  -5.367  0.00  0.00    -0.051 A 
ATOM     23  C   UNL d   1      -2.417  -7.932  -5.769  0.00  0.00     0.010 A 
ATOM     24  C   UNL d   1      -3.560  -7.698  -4.987  0.00  0.00     0.030 A 
BRANCH  22  25
ATOM     25  C   UNL d   1       0.143  -7.802  -6.140  0.00  0.00    -0.024 C 
ATOM     26  C   UNL d   1      -0.095  -8.633  -7.420  0.00  0.00     0.019 C 
ATOM     27  C   UNL d   1       0.856  -6.498  -6.559  0.00  0.00     0.019 C 
ATOM     28  C   UNL d   1       1.096  -8.619  -5.237  0.00  0.00     0.019 C 
ENDBRANCH  22  25
ENDBRANCH   2  19
TORSDOF 6
