REMARK  5 active torsions:
REMARK  status: ('A' for Active; 'I' for Inactive)
REMARK    1  A    between atoms: S_8  and  C_1 
REMARK    2  A    between atoms: C_7  and  C_16 
REMARK       I    between atoms: N_9  and  C_7 
REMARK    3  A    between atoms: C_16  and  S_8 
REMARK    4  A    between atoms: C_17  and  N_9 
REMARK    5  A    between atoms: C_10  and  C_11 
ROOT
ATOM      1  C   UNL d   1      -6.107  -1.530   0.196  0.00  0.00     0.231 C 
ATOM      2  N   UNL d   1      -6.750  -0.321  -0.025  0.00  0.00    -0.327 N 
ATOM      3  O   UNL d   1      -6.651  -2.605   0.439  0.00  0.00    -0.272 OA
ATOM      4  H   UNL d   1      -6.174   0.442  -0.377  0.00  0.00     0.169 HD
ENDROOT
BRANCH   1   5
ATOM      5  C   UNL d   1      -4.595  -1.443   0.117  0.00  0.00     0.186 C 
BRANCH   5   6
ATOM      6  S   UNL d   1      -4.045  -1.798  -1.567  0.00  0.00    -0.077 SA
BRANCH   6   7
ATOM      7  C   UNL d   1      -4.229  -0.239  -2.311  0.00  0.00     0.188 A 
ATOM      8  N   UNL d   1      -4.462   0.875  -1.635  0.00  0.00    -0.329 N 
ATOM      9  C   UNL d   1      -4.365   1.857  -2.592  0.00  0.00     0.068 A 
ATOM     10  HN  UNL d   1      -4.666   0.979  -0.641  1.00  0.00     0.168 HD
ATOM     11  C   UNL d   1      -4.421   3.252  -2.494  0.00  0.00     0.032 A 
ATOM     12  C   UNL d   1      -4.158   1.281  -3.834  0.00  0.00     0.105 A 
ATOM     13  C   UNL d   1      -4.262   4.003  -3.671  0.00  0.00     0.002 A 
ATOM     14  C   UNL d   1      -4.075   3.378  -4.911  0.00  0.00     0.003 A 
ATOM     15  C   UNL d   1      -4.026   1.984  -5.024  0.00  0.00     0.040 A 
ATOM     16  O   UNL d   1      -4.082  -0.066  -3.660  0.00  0.00    -0.285 OA
ENDBRANCH   6   7
ENDBRANCH   5   6
ENDBRANCH   1   5
BRANCH   2  17
ATOM     17  C   UNL d   1      -8.131  -0.062   0.124  0.00  0.00     0.034 A 
ATOM     18  C   UNL d   1      -9.039  -0.994   0.633  0.00  0.00     0.030 A 
ATOM     19  C   UNL d   1     -10.387  -0.661   0.802  0.00  0.00     0.017 A 
ATOM     20  C   UNL d   1     -10.845   0.616   0.478  0.00  0.00     0.009 A 
ATOM     21  C   UNL d   1      -9.953   1.548  -0.059  0.00  0.00     0.017 A 
ATOM     22  C   UNL d   1      -8.601   1.208  -0.232  0.00  0.00     0.030 A 
BRANCH  20  23
ATOM     23  C   UNL d   1     -12.278   0.926   0.727  0.00  0.00     0.155 C 
ATOM     24  O   UNL d   1     -13.114   0.026   0.659  0.00  0.00    -0.293 OA
ATOM     25  C   UNL d   1     -12.675   2.326   1.116  0.00  0.00     0.096 C 
ENDBRANCH  20  23
ENDBRANCH   2  17
TORSDOF 5
