REMARK  4 active torsions:
REMARK  status: ('A' for Active; 'I' for Inactive)
REMARK    1  A    between atoms: C_8  and  N_2 
REMARK    2  A    between atoms: C_7  and  C_13 
REMARK    3  A    between atoms: O_19  and  C_7 
REMARK    4  A    between atoms: C_20  and  O_19 
ROOT
ATOM      1  C   UNL d   1      -1.382  -2.020   1.234  0.00  0.00     0.045 A 
ATOM      2  C   UNL d   1      -2.767  -3.794   2.982  0.00  0.00     0.039 A 
ATOM      3  C   UNL d   1      -0.809  -2.470   2.439  0.00  0.00     0.031 A 
ATOM      4  C   UNL d   1      -2.645  -2.544   0.905  0.00  0.00     0.031 A 
ATOM      5  C   UNL d   1      -1.493  -3.331   3.308  0.00  0.00     0.020 A 
ATOM      6  C   UNL d   1      -3.336  -3.405   1.768  0.00  0.00     0.020 A 
ENDROOT
BRANCH   1   7
ATOM      7  N   UNL d   1      -0.651  -1.165   0.316  0.00  0.00    -0.251 N 
ATOM      8  C   UNL d   1       0.523  -0.550   0.740  0.00  0.00     0.245 C 
ATOM      9  C   UNL d   1       1.588  -0.458  -0.300  0.00  0.00     0.244 C 
ATOM     10  O   UNL d   1       0.747  -0.150   1.882  0.00  0.00    -0.272 OA
ATOM     11  S   UNL d   1       0.974   0.454  -1.657  0.00  0.00     0.161 S 
ATOM     12  C   UNL d   1      -0.536  -0.358  -1.996  0.00  0.00     0.244 C 
ATOM     13  O   UNL d   1       1.860   0.209  -2.780  0.00  0.00    -0.227 OA
ATOM     14  O   UNL d   1       0.684   1.804  -1.221  0.00  0.00    -0.227 OA
ATOM     15  C   UNL d   1      -1.327  -0.552  -0.741  0.00  0.00     0.245 C 
ATOM     16  O   UNL d   1      -2.517  -0.238  -0.736  0.00  0.00    -0.272 OA
ENDBRANCH   1   7
BRANCH   2  17
ATOM     17  C   UNL d   1      -3.430  -4.752   3.903  0.00  0.00     0.293 C 
ATOM     18  O   UNL d   1      -2.909  -5.183   4.919  0.00  0.00    -0.259 OA
BRANCH  17  19
ATOM     19  O   UNL d   1      -4.620  -5.136   3.382  0.00  0.00    -0.318 OA
BRANCH  19  20
ATOM     20  C   UNL d   1      -5.176  -6.336   3.933  0.00  0.00     0.174 C 
ATOM     21  C   UNL d   1      -4.590  -7.514   3.177  0.00  0.00     0.034 C 
ENDBRANCH  19  20
ENDBRANCH  17  19
ENDBRANCH   2  17
TORSDOF 4
