REMARK  4 active torsions:
REMARK  status: ('A' for Active; 'I' for Inactive)
REMARK    1  A    between atoms: N_3  and  C_1 
REMARK    2  A    between atoms: N_4  and  C_2 
REMARK    3  A    between atoms: C_17  and  C_5 
REMARK    4  A    between atoms: C_6  and  C_18 
ROOT
ATOM      1  C   UNL d   1       2.319   0.881  -1.797  0.00  0.00    -0.023 A 
ATOM      2  C   UNL d   1       2.229   1.323  -4.609  0.00  0.00    -0.023 A 
ATOM      3  C   UNL d   1       1.231   0.579  -3.970  0.00  0.00     0.011 A 
ATOM      4  C   UNL d   1       3.241   1.883  -3.815  0.00  0.00     0.011 A 
ATOM      5  C   UNL d   1       1.273   0.369  -2.587  0.00  0.00     0.011 A 
ATOM      6  C   UNL d   1       3.286   1.668  -2.437  0.00  0.00     0.011 A 
ENDROOT
BRANCH   1   7
ATOM      7  C   UNL d   1       2.357   0.613  -0.284  0.00  0.00     0.218 C 
ATOM      8  C   UNL d   1       3.732   0.566   0.314  0.00  0.00     0.115 C 
ATOM      9  C   UNL d   1       4.447  -0.553   0.484  0.00  0.00     0.049 C 
ATOM     10  C   UNL d   1       3.790  -1.783   0.050  0.00  0.00    -0.001 A 
ATOM     11  C   UNL d   1       2.405  -1.771  -0.173  0.00  0.00     0.080 A 
ATOM     12  C   UNL d   1       4.503  -2.968  -0.129  0.00  0.00     0.014 A 
ATOM     13  C   UNL d   1       1.735  -2.930  -0.554  0.00  0.00     0.037 A 
ATOM     14  O   UNL d   1       1.647  -0.636  -0.008  0.00  0.00    -0.334 OA
ATOM     15  C   UNL d   1       2.456  -4.107  -0.752  0.00  0.00     0.003 A 
ATOM     16  C   UNL d   1       3.836  -4.124  -0.540  0.00  0.00     0.001 A 
BRANCH   8  17
ATOM     17  N   UNL d   1       4.306   1.825   0.733  0.00  0.00    -0.117 N 
ATOM     18  O   UNL d   1       5.541   1.921   0.745  0.00  0.00    -0.532 OA
ATOM     19  O   UNL d   1       3.526   2.739   1.021  0.00  0.00    -0.532 OA
ENDBRANCH   8  17
ENDBRANCH   1   7
BRANCH   2  20
ATOM     20  C   UNL d   1       2.150   1.561  -6.116  0.00  0.00     0.218 C 
ATOM     21  C   UNL d   1       3.478   1.674  -6.796  0.00  0.00     0.115 C 
ATOM     22  C   UNL d   1       4.077   2.840  -7.080  0.00  0.00     0.049 C 
ATOM     23  C   UNL d   1       3.348   4.037  -6.664  0.00  0.00    -0.001 A 
ATOM     24  C   UNL d   1       1.990   3.933  -6.328  0.00  0.00     0.080 A 
ATOM     25  C   UNL d   1       3.977   5.282  -6.582  0.00  0.00     0.014 A 
ATOM     26  O   UNL d   1       1.318   2.736  -6.329  0.00  0.00    -0.334 OA
ATOM     27  C   UNL d   1       1.254   5.061  -5.973  0.00  0.00     0.037 A 
ATOM     28  C   UNL d   1       1.887   6.299  -5.893  0.00  0.00     0.003 A 
ATOM     29  C   UNL d   1       3.248   6.406  -6.184  0.00  0.00     0.001 A 
BRANCH  21  30
ATOM     30  N   UNL d   1       4.145   0.431  -7.126  0.00  0.00    -0.117 N 
ATOM     31  O   UNL d   1       3.551  -0.622  -6.873  0.00  0.00    -0.532 OA
ATOM     32  O   UNL d   1       5.268   0.494  -7.645  0.00  0.00    -0.532 OA
ENDBRANCH  21  30
ENDBRANCH   2  20
TORSDOF 4
