REMARK  3 active torsions:
REMARK  status: ('A' for Active; 'I' for Inactive)
REMARK    1  A    between atoms: C_5  and  N_1 
REMARK    2  A    between atoms: C_2  and  C_5 
REMARK    3  A    between atoms: C_15  and  C_9 
ROOT
ATOM      1  N   UNL d   1      -0.051  -0.926  -0.082  0.00  0.00    -0.284 N 
ATOM      2  C   UNL d   1       1.195  -0.315  -0.196  0.00  0.00     0.227 C 
ATOM      3  C   UNL d   1      -1.212  -0.292   0.344  0.00  0.00     0.227 C 
ATOM      4  C   UNL d   1      -0.032   1.876  -0.241  0.00  0.00     0.036 C 
ATOM      5  C   UNL d   1      -1.186   1.211   0.493  0.00  0.00     0.113 C 
ATOM      6  C   UNL d   1       1.264   1.161   0.099  0.00  0.00     0.113 C 
ATOM      7  O   UNL d   1      -2.223  -0.904   0.698  0.00  0.00    -0.273 OA
ATOM      8  O   UNL d   1       2.236  -0.934  -0.408  0.00  0.00    -0.273 OA
ENDROOT
BRANCH   1   9
ATOM      9  C   UNL d   1      -0.074  -2.384  -0.158  0.00  0.00     0.174 C 
BRANCH   9  10
ATOM     10  C   UNL d   1      -0.183  -2.885  -1.576  0.00  0.00    -0.022 A 
ATOM     11  C   UNL d   1       0.906  -3.080  -2.406  0.00  0.00     0.060 A 
ATOM     12  S   UNL d   1       0.501  -3.827  -3.880  0.00  0.00    -0.101 SA
ATOM     13  C   UNL d   1      -1.159  -3.939  -3.447  0.00  0.00     0.015 A 
ATOM     14  C   UNL d   1      -1.408  -3.342  -2.207  0.00  0.00    -0.011 A 
ATOM     15  C   UNL d   1      -2.184  -4.550  -4.199  0.00  0.00     0.019 A 
ATOM     16  C   UNL d   1      -2.750  -3.328  -1.747  0.00  0.00     0.013 A 
ATOM     17  C   UNL d   1      -3.772  -3.925  -2.493  0.00  0.00     0.001 A 
ATOM     18  C   UNL d   1      -3.487  -4.544  -3.700  0.00  0.00     0.001 A 
ENDBRANCH   9  10
ENDBRANCH   1   9
BRANCH   4  19
ATOM     19  C   UNL d   1       0.062   3.356   0.106  0.00  0.00    -0.053 A 
ATOM     20  C   UNL d   1       0.276   3.784   1.429  0.00  0.00     0.007 A 
ATOM     21  C   UNL d   1       0.366   5.142   1.740  0.00  0.00     0.001 A 
ATOM     22  C   UNL d   1       0.246   6.094   0.733  0.00  0.00     0.000 A 
ATOM     23  C   UNL d   1       0.037   5.688  -0.584  0.00  0.00     0.001 A 
ATOM     24  C   UNL d   1      -0.054   4.328  -0.897  0.00  0.00     0.007 A 
ENDBRANCH   4  19
TORSDOF 3
