REMARK  3 active torsions:
REMARK  status: ('A' for Active; 'I' for Inactive)
REMARK    1  A    between atoms: C_3  and  C_1 
REMARK       I    between atoms: N_7  and  C_3 
REMARK    2  A    between atoms: C_12  and  N_7 
REMARK    3  A    between atoms: O_22  and  C_19 
ROOT
ATOM      1  C   UNL d   1      -3.799  -0.094  -0.225  0.00  0.00     0.272 C 
ATOM      2  N   UNL d   1      -4.468  -1.303  -0.282  0.00  0.00    -0.322 N 
ATOM      3  O   UNL d   1      -4.331   1.010  -0.183  0.00  0.00    -0.266 OA
ATOM      4  H   UNL d   1      -3.912  -2.136  -0.157  0.00  0.00     0.169 HD
ENDROOT
BRANCH   1   5
ATOM      5  C   UNL d   1      -2.353  -0.201  -0.197  0.00  0.00     0.102 A 
ATOM      6  N   UNL d   1      -1.573   0.925  -0.030  0.00  0.00    -0.351 N 
ATOM      7  C   UNL d   1      -0.238   0.609  -0.027  0.00  0.00     0.043 A 
ATOM      8  H   UNL d   1      -1.958   1.855   0.083  0.00  0.00     0.166 HD
ATOM      9  C   UNL d   1       0.887   1.426   0.123  0.00  0.00     0.033 A 
ATOM     10  C   UNL d   1      -0.148  -0.767  -0.214  0.00  0.00    -0.004 A 
ATOM     11  C   UNL d   1       2.145   0.809   0.102  0.00  0.00     0.039 A 
ATOM     12  C   UNL d   1       2.272  -0.570  -0.070  0.00  0.00     0.069 A 
ATOM     13  C   UNL d   1       1.127  -1.361  -0.241  0.00  0.00     0.050 A 
ATOM     14  C   UNL d   1      -1.477  -1.262  -0.342  0.00  0.00     0.049 A 
BRANCH  12  15
ATOM     15  O   UNL d   1       3.446  -1.273  -0.091  0.00  0.00    -0.356 OA
ATOM     16  C   UNL d   1       4.642  -0.539   0.135  0.00  0.00     0.210 C 
ENDBRANCH  12  15
ENDBRANCH   1   5
BRANCH   2  17
ATOM     17  C   UNL d   1      -5.848  -1.498  -0.505  0.00  0.00     0.037 A 
ATOM     18  C   UNL d   1      -6.726  -0.460  -0.833  0.00  0.00     0.069 A 
ATOM     19  C   UNL d   1      -8.038  -0.778  -1.116  0.00  0.00     0.107 A 
ATOM     20  O   UNL d   1      -9.002   0.106  -1.490  0.00  0.00    -0.323 OA
ATOM     21  C   UNL d   1      -8.501  -2.070  -1.067  0.00  0.00     0.105 A 
ATOM     22  C   UNL d   1     -10.109  -0.786  -1.726  0.00  0.00     0.352 A 
ATOM     23  O   UNL d   1      -9.815  -2.162  -1.404  0.00  0.00    -0.323 OA
ATOM     24  C   UNL d   1      -7.678  -3.116  -0.721  0.00  0.00     0.042 A 
ATOM     25  C   UNL d   1      -6.335  -2.823  -0.444  0.00  0.00     0.032 A 
ENDBRANCH   2  17
TORSDOF 3
