REMARK  2 active torsions:
REMARK  status: ('A' for Active; 'I' for Inactive)
REMARK    1  A    between atoms: C_13  and  C_3 
REMARK    2  A    between atoms: C_14  and  C_12 
REMARK       I    between atoms: N_16  and  C_13 
ROOT
ATOM      1  N   UNL d   1      -0.245  -0.694   0.022  0.00  0.00    -0.240 N 
ATOM      2  C   UNL d   1      -0.170   0.688  -0.003  0.00  0.00     0.143 A 
ATOM      3  C   UNL d   1       2.085  -0.756  -0.002  0.00  0.00     0.140 A 
ATOM      4  N   UNL d   1      -1.538  -1.116   0.050  0.00  0.00    -0.291 N 
ATOM      5  HN  UNL d   1      -1.872  -2.079   0.097  1.00  0.00     0.187 HD
ATOM      6  C   UNL d   1       0.928  -1.460   0.016  0.00  0.00     0.066 A 
ATOM      7  N   UNL d   1       2.091   0.637  -0.011  0.00  0.00    -0.292 N 
ATOM      8  HN  UNL d   1       2.987   1.125  -0.018  1.00  0.00     0.187 HD
ATOM      9  C   UNL d   1      -1.461   1.152  -0.021  0.00  0.00     0.083 A 
ATOM     10  N   UNL d   1       1.033   1.316  -0.011  0.00  0.00    -0.283 N 
ATOM     11  HN  UNL d   1       1.079   2.335  -0.018  1.00  0.00     0.188 HD
ATOM     12  C   UNL d   1      -2.283  -0.000   0.002  0.00  0.00     0.062 A 
ATOM     13  C   UNL d   1       0.735  -2.949   0.024  0.00  0.00     0.073 C 
ENDROOT
BRANCH  12  14
ATOM     14  C   UNL d   1      -3.748  -0.038  -0.011  0.00  0.00    -0.008 A 
ATOM     15  C   UNL d   1      -4.445  -1.088   0.602  0.00  0.00     0.014 A 
ATOM     16  C   UNL d   1      -5.843  -1.099   0.618  0.00  0.00     0.001 A 
ATOM     17  C   UNL d   1      -6.559  -0.067   0.013  0.00  0.00     0.000 A 
ATOM     18  C   UNL d   1      -5.878   0.975  -0.613  0.00  0.00     0.001 A 
ATOM     19  C   UNL d   1      -4.481   0.990  -0.625  0.00  0.00     0.014 A 
ENDBRANCH  12  14
BRANCH   3  20
ATOM     20  C   UNL d   1       3.450  -1.398  -0.017  0.00  0.00     0.269 C 
ATOM     21  O   UNL d   1       3.672  -2.600  -0.017  0.00  0.00    -0.266 OA
ATOM     22  N   UNL d   1       4.494  -0.515  -0.035  0.00  0.00    -0.365 N 
ATOM     23  H   UNL d   1       4.349   0.486  -0.038  0.00  0.00     0.159 HD
ATOM     24  H   UNL d   1       5.435  -0.883  -0.048  0.00  0.00     0.159 HD
ENDBRANCH   3  20
TORSDOF 2
