REMARK  4 active torsions:
REMARK  status: ('A' for Active; 'I' for Inactive)
REMARK    1  A    between atoms: N_15  and  C_26 
REMARK    2  A    between atoms: C_25  and  N_16 
REMARK    3  A    between atoms: C_32  and  C_25 
REMARK    4  A    between atoms: C_26  and  C_31 
ROOT
ATOM      1  C   UNL d   1      -6.976  -0.889  -1.369  0.00  0.00    -0.030 A 
ATOM      2  C   UNL d   1      -4.838   0.729  -0.478  0.00  0.00    -0.030 A 
ATOM      3  C   UNL d   1      -5.604   1.103  -1.593  0.00  0.00     0.009 A 
ATOM      4  C   UNL d   1      -5.189  -0.435   0.217  0.00  0.00     0.009 A 
ATOM      5  C   UNL d   1      -6.670   0.309  -2.026  0.00  0.00     0.009 A 
ATOM      6  C   UNL d   1      -6.230  -1.248  -0.238  0.00  0.00     0.009 A 
ENDROOT
BRANCH   1   7
ATOM      7  C   UNL d   1      -8.055  -1.809  -1.903  0.00  0.00     0.313 C 
BRANCH   7   8
ATOM      8  N   UNL d   1      -9.098  -2.133  -0.921  0.00  0.00     0.114 NA
ATOM      9  C   UNL d   1      -9.897  -0.949  -0.554  0.00  0.00     0.323 C 
ATOM     10  C   UNL d   1     -11.290  -1.218  -0.033  0.00  0.00     0.082 A 
ATOM     11  C   UNL d   1     -11.999  -0.051   0.530  0.00  0.00     0.263 A 
ATOM     12  C   UNL d   1     -11.889  -2.421  -0.090  0.00  0.00     0.121 A 
ATOM     13  N   UNL d   1     -13.244  -0.294   1.062  0.00  0.00    -0.270 N 
ATOM     14  O   UNL d   1     -11.472   1.060   0.491  0.00  0.00    -0.267 OA
ATOM     15  C   UNL d   1     -13.976   0.802   1.665  0.00  0.00     0.164 C 
ATOM     16  C   UNL d   1     -13.883  -1.521   1.002  0.00  0.00     0.332 A 
ATOM     17  N   UNL d   1     -13.179  -2.563   0.396  0.00  0.00    -0.289 N 
ATOM     18  O   UNL d   1     -15.024  -1.676   1.448  0.00  0.00    -0.246 OA
ATOM     19  C   UNL d   1     -13.902  -3.823   0.326  0.00  0.00     0.163 C 
ATOM     20  N   UNL d   1     -11.163  -3.448  -0.654  0.00  0.00    -0.350 N 
ATOM     21  C   UNL d   1      -9.964  -3.191  -1.417  0.00  0.00     0.397 C 
ATOM     22  H   UNL d   1     -11.597  -4.347  -0.784  0.00  0.00     0.162 HD
ENDBRANCH   7   8
ENDBRANCH   1   7
BRANCH   2  23
ATOM     23  C   UNL d   1      -3.613   1.522  -0.074  0.00  0.00     0.313 C 
BRANCH  23  24
ATOM     24  N   UNL d   1      -3.845   2.609   0.883  0.00  0.00     0.110 N 
ATOM     25  C   UNL d   1      -4.703   3.658   0.352  0.00  0.00     0.369 C 
ATOM     26  N   UNL d   1      -4.841   4.855   1.162  0.00  0.00    -0.252 NA
ATOM     27  C   UNL d   1      -3.787   5.280   1.961  0.00  0.00     0.101 A 
ATOM     28  H   UNL d   1      -5.714   4.859   1.679  0.00  0.00     0.130 HD
ATOM     29  C   UNL d   1      -2.668   4.537   1.983  0.00  0.00     0.077 A 
ATOM     30  N   UNL d   1      -3.856   6.436   2.717  0.00  0.00    -0.293 N 
ATOM     31  C   UNL d   1      -1.488   4.987   2.743  0.00  0.00     0.262 A 
ATOM     32  C   UNL d   1      -2.548   3.225   1.254  0.00  0.00     0.322 C 
ATOM     33  O   UNL d   1      -0.449   4.331   2.713  0.00  0.00    -0.267 OA
ATOM     34  N   UNL d   1      -1.625   6.168   3.443  0.00  0.00    -0.270 N 
ATOM     35  C   UNL d   1      -2.789   6.917   3.479  0.00  0.00     0.332 A 
ATOM     36  C   UNL d   1      -0.461   6.644   4.166  0.00  0.00     0.164 C 
ATOM     37  O   UNL d   1      -2.882   7.953   4.134  0.00  0.00    -0.246 OA
ATOM     38  C   UNL d   1      -5.048   7.269   2.715  0.00  0.00     0.162 C 
ENDBRANCH  23  24
ENDBRANCH   2  23
TORSDOF 4
