REMARK  6 active torsions:
REMARK  status: ('A' for Active; 'I' for Inactive)
REMARK    1  A    between atoms: C_8  and  N_1 
REMARK    2  A    between atoms: C_10  and  C_4 
REMARK    3  A    between atoms: N_6  and  C_7 
REMARK    4  A    between atoms: S_12  and  C_9 
REMARK    5  A    between atoms: C_17  and  C_10 
REMARK    6  A    between atoms: C_20  and  S_12 
ROOT
ATOM      1  C   UNL d   1      -5.093  -1.454   1.118  0.00  0.00     0.120 A 
ATOM      2  C   UNL d   1      -6.126  -1.362   0.176  0.00  0.00     0.038 A 
ATOM      3  C   UNL d   1      -3.993  -0.587   1.110  0.00  0.00     0.049 A 
ATOM      4  C   UNL d   1      -3.887   0.371   0.100  0.00  0.00    -0.032 A 
ATOM      5  C   UNL d   1      -6.012  -0.376  -0.815  0.00  0.00     0.022 A 
ATOM      6  C   UNL d   1      -4.897   0.473  -0.863  0.00  0.00     0.013 A 
ENDROOT
BRANCH   4   7
ATOM      7  C   UNL d   1      -2.645   1.138  -0.030  0.00  0.00     0.036 C 
BRANCH   7   8
ATOM      8  C   UNL d   1      -1.576   0.668  -0.690  0.00  0.00     0.077 A 
ATOM      9  C   UNL d   1      -1.493  -0.632  -1.420  0.00  0.00     0.271 A 
ATOM     10  N   UNL d   1      -0.204  -0.840  -1.885  0.00  0.00    -0.260 N 
ATOM     11  O   UNL d   1      -2.446  -1.389  -1.570  0.00  0.00    -0.266 OA
ATOM     12  C   UNL d   1       0.701   0.193  -1.704  0.00  0.00     0.153 A 
ATOM     13  S   UNL d   1      -0.062   1.482  -0.765  0.00  0.00    -0.054 SA
ATOM     14  S   UNL d   1       2.240   0.374  -2.333  0.00  0.00    -0.052 SA
BRANCH  10  15
ATOM     15  C   UNL d   1       0.086  -2.070  -2.542  0.00  0.00     0.066 A 
ATOM     16  C   UNL d   1       1.010  -2.998  -2.032  0.00  0.00     0.061 A 
ATOM     17 CL   UNL d   1       1.829  -2.756  -0.526  0.00  0.00    -0.082 Cl
ATOM     18  C   UNL d   1       1.193  -4.231  -2.668  0.00  0.00     0.026 A 
ATOM     19  C   UNL d   1       0.443  -4.560  -3.798  0.00  0.00     0.002 A 
ATOM     20  C   UNL d   1      -0.496  -3.660  -4.295  0.00  0.00     0.002 A 
ATOM     21  C   UNL d   1      -0.675  -2.425  -3.671  0.00  0.00     0.032 A 
ENDBRANCH  10  15
ENDBRANCH   7   8
ENDBRANCH   4   7
BRANCH   1  22
ATOM     22  N   UNL d   1      -5.072  -2.521   2.096  0.00  0.00    -0.114 N 
ATOM     23  O   UNL d   1      -4.906  -3.673   1.676  0.00  0.00    -0.532 OA
ATOM     24  O   UNL d   1      -5.143  -2.187   3.289  0.00  0.00    -0.532 OA
ENDBRANCH   1  22
BRANCH   2  25
ATOM     25  S   UNL d   1      -7.621  -2.329   0.233  0.00  0.00    -0.088 SA
BRANCH  25  26
ATOM     26  C   UNL d   1      -7.349  -3.702  -0.877  0.00  0.00     0.005 A 
ATOM     27  C   UNL d   1      -6.126  -4.008  -1.484  0.00  0.00     0.020 A 
ATOM     28  C   UNL d   1      -6.008  -5.122  -2.325  0.00  0.00     0.025 A 
ATOM     29  C   UNL d   1      -7.112  -5.936  -2.563  0.00  0.00     0.034 A 
ATOM     30  C   UNL d   1      -8.335  -5.649  -1.966  0.00  0.00     0.025 A 
ATOM     31 CL   UNL d   1      -6.964  -7.303  -3.597  0.00  0.00    -0.084 Cl
ATOM     32  C   UNL d   1      -8.450  -4.537  -1.126  0.00  0.00     0.020 A 
ENDBRANCH  25  26
ENDBRANCH   2  25
TORSDOF 6
