REMARK  6 active torsions:
REMARK  status: ('A' for Active; 'I' for Inactive)
REMARK    1  A    between atoms: C_4  and  C_1 
REMARK    2  A    between atoms: C_5  and  C_1 
REMARK    3  A    between atoms: N_6  and  N_2 
REMARK    4  A    between atoms: O_10  and  C_4 
REMARK    5  A    between atoms: C_9  and  N_6 
REMARK    6  A    between atoms: C_17  and  O_10 
ROOT
ATOM      1  C   UNL d   1       0.968   0.011   0.005  0.00  0.00     0.169 C 
ATOM      2  N   UNL d   1       0.259  -0.659  -0.867  0.00  0.00    -0.292 N 
ATOM      3  HN  UNL d   1      -0.751  -0.530  -0.932  1.00  0.00     0.187 HD
ENDROOT
BRANCH   2   4
ATOM      4  N   UNL d   1       0.909  -1.534  -1.686  0.00  0.00    -0.300 N 
ATOM      5  H   UNL d   1       1.800  -1.944  -1.375  0.00  0.00     0.187 HD
BRANCH   4   6
ATOM      6  C   UNL d   1       0.147  -2.393  -2.510  0.00  0.00     0.048 A 
ATOM      7  C   UNL d   1       0.804  -3.362  -3.287  0.00  0.00     0.037 A 
ATOM      8  C   UNL d   1       0.105  -4.159  -4.210  0.00  0.00    -0.060 A 
ATOM      9  C   UNL d   1       0.814  -5.182  -5.046  0.00  0.00     0.048 C 
ATOM     10  C   UNL d   1      -1.271  -3.965  -4.368  0.00  0.00     0.007 A 
ATOM     11  C   UNL d   1      -1.937  -3.007  -3.607  0.00  0.00     0.003 A 
ATOM     12  C   UNL d   1      -1.231  -2.226  -2.690  0.00  0.00     0.031 A 
ENDBRANCH   4   6
ENDBRANCH   2   4
BRANCH   1  13
ATOM     13  C   UNL d   1       0.197   0.908   0.963  0.00  0.00     0.315 C 
ATOM     14  O   UNL d   1       0.652   1.965   1.375  0.00  0.00    -0.257 OA
BRANCH  13  15
ATOM     15  O   UNL d   1      -0.941   0.316   1.370  0.00  0.00    -0.317 OA
BRANCH  15  16
ATOM     16  C   UNL d   1      -1.488   0.834   2.589  0.00  0.00     0.175 C 
ATOM     17  C   UNL d   1      -0.892   0.021   3.725  0.00  0.00     0.034 C 
ENDBRANCH  15  16
ENDBRANCH  13  15
ENDBRANCH   1  13
BRANCH   1  18
ATOM     18  C   UNL d   1       2.479  -0.134   0.120  0.00  0.00     0.179 C 
ATOM     19  O   UNL d   1       2.989  -1.244  -0.076  0.00  0.00    -0.291 OA
ATOM     20  C   UNL d   1       3.330   1.062   0.431  0.00  0.00     0.099 C 
ENDBRANCH   1  18
TORSDOF 6
