REMARK  4 active torsions:
REMARK  status: ('A' for Active; 'I' for Inactive)
REMARK    1  A    between atoms: N_7  and  C_1 
REMARK       I    between atoms: C_10  and  N_2 
REMARK    2  A    between atoms: C_12  and  C_6 
REMARK    3  A    between atoms: N_8  and  N_7 
REMARK       I    between atoms: C_11  and  N_7 
REMARK    4  A    between atoms: C_18  and  C_13 
ROOT
ATOM      1  C   UNL d   1       0.183  -1.060   0.227  0.00  0.00     0.186 A 
ATOM      2  N   UNL d   1       1.342   0.779  -0.215  0.00  0.00    -0.240 N 
ATOM      3  S   UNL d   1      -1.033   0.133   0.630  0.00  0.00    -0.058 SA
ATOM      4  N   UNL d   1       1.342  -0.599  -0.140  0.00  0.00    -0.272 N 
ATOM      5  HN  UNL d   1       2.152  -1.184  -0.347  1.00  0.00     0.189 HD
ATOM      6  C   UNL d   1       0.118   1.462   0.191  0.00  0.00     0.213 A 
ATOM      7  C   UNL d   1       2.515   1.480  -0.439  0.00  0.00     0.235 C 
ATOM      8  O   UNL d   1       2.589   2.708  -0.361  0.00  0.00    -0.272 OA
ATOM      9  C   UNL d   1       3.752   0.662  -0.726  0.00  0.00     0.119 C 
ENDROOT
BRANCH   1  10
ATOM     10  N   UNL d   1      -0.087  -2.426   0.383  0.00  0.00    -0.200 N 
ATOM     11  C   UNL d   1      -1.338  -2.971   0.044  0.00  0.00     0.240 C 
ATOM     12  O   UNL d   1      -2.292  -2.326  -0.399  0.00  0.00    -0.272 OA
ATOM     13  C   UNL d   1      -1.514  -4.467   0.203  0.00  0.00     0.119 C 
BRANCH  10  14
ATOM     14  N   UNL d   1       0.948  -3.348   0.595  0.00  0.00    -0.300 N 
ATOM     15  C   UNL d   1       1.989  -2.987   1.283  0.00  0.00     0.119 C 
ATOM     16  HN  UNL d   1       0.884  -4.291   0.214  1.00  0.00     0.186 HD
BRANCH  15  17
ATOM     17  C   UNL d   1       3.100  -3.929   1.560  0.00  0.00    -0.019 A 
ATOM     18  C   UNL d   1       3.035  -5.262   1.130  0.00  0.00     0.016 A 
ATOM     19  C   UNL d   1       4.082  -6.140   1.423  0.00  0.00     0.043 A 
ATOM     20  C   UNL d   1       5.186  -5.683   2.135  0.00  0.00     0.116 A 
ATOM     21  C   UNL d   1       5.261  -4.363   2.566  0.00  0.00     0.043 A 
ATOM     22  F   UNL d   1       6.186  -6.527   2.415  0.00  0.00    -0.206 F 
ATOM     23  C   UNL d   1       4.217  -3.478   2.279  0.00  0.00     0.016 A 
ENDBRANCH  15  17
ENDBRANCH  10  14
ENDBRANCH   1  10
BRANCH   6  24
ATOM     24  C   UNL d   1      -0.448   2.405  -0.857  0.00  0.00    -0.023 A 
ATOM     25  C   UNL d   1      -0.637   3.763  -0.532  0.00  0.00     0.013 A 
ATOM     26  C   UNL d   1      -1.072   4.676  -1.496  0.00  0.00     0.043 A 
ATOM     27  C   UNL d   1      -1.331   4.236  -2.785  0.00  0.00     0.116 A 
ATOM     28  C   UNL d   1      -1.187   2.897  -3.126  0.00  0.00     0.043 A 
ATOM     29  F   UNL d   1      -1.719   5.116  -3.717  0.00  0.00    -0.206 F 
ATOM     30  C   UNL d   1      -0.747   1.981  -2.165  0.00  0.00     0.013 A 
ENDBRANCH   6  24
TORSDOF 4
