REMARK  6 active torsions:
REMARK  status: ('A' for Active; 'I' for Inactive)
REMARK    1  A    between atoms: N_4  and  S_1 
REMARK    2  A    between atoms: C_7  and  S_1 
REMARK    3  A    between atoms: S_2  and  C_8 
REMARK    4  A    between atoms: C_3  and  S_2 
REMARK    5  A    between atoms: C_5  and  C_10 
REMARK    6  A    between atoms: C_6  and  C_9 
ROOT
ATOM      1  S   UNL d   1       1.047  -5.037  -2.199  0.00  0.00     0.206 S 
ATOM      2  O   UNL d   1       0.916  -5.568  -3.544  0.00  0.00    -0.217 OA
ATOM      3  O   UNL d   1       2.338  -5.054  -1.534  0.00  0.00    -0.217 OA
ENDROOT
BRANCH   1   4
ATOM      4  C   UNL d   1       0.508  -3.344  -2.245  0.00  0.00     0.065 A 
ATOM      5  C   UNL d   1       1.022  -2.438  -1.313  0.00  0.00     0.048 A 
ATOM      6  C   UNL d   1       0.667  -1.091  -1.415  0.00  0.00     0.076 A 
ATOM      7  C   UNL d   1      -0.201  -0.648  -2.419  0.00  0.00     0.025 A 
ATOM      8  C   UNL d   1      -0.693  -1.559  -3.355  0.00  0.00     0.003 A 
ATOM      9  C   UNL d   1      -0.329  -2.906  -3.279  0.00  0.00     0.024 A 
BRANCH   6  10
ATOM     10  S   UNL d   1       1.313   0.082  -0.249  0.00  0.00     0.243 S 
ATOM     11  O   UNL d   1       0.175   0.758   0.328  0.00  0.00    -0.206 OA
ATOM     12  O   UNL d   1       2.278  -0.602   0.582  0.00  0.00    -0.206 OA
BRANCH  10  13
ATOM     13  N   UNL d   1       2.155   1.188  -1.235  0.00  0.00    -0.202 NA
ATOM     14  C   UNL d   1       3.393   0.694  -1.920  0.00  0.00     0.134 C 
ATOM     15  C   UNL d   1       4.631   0.750  -1.009  0.00  0.00     0.183 C 
ATOM     16  O   UNL d   1       4.804   2.040  -0.405  0.00  0.00    -0.389 OA
ATOM     17  C   UNL d   1       3.639   2.410   0.347  0.00  0.00     0.183 C 
ATOM     18  C   UNL d   1       2.430   2.508  -0.583  0.00  0.00     0.134 C 
ENDBRANCH  10  13
ENDBRANCH   6  10
ENDBRANCH   1   4
BRANCH   1  19
ATOM     19  C   UNL d   1      -0.086  -5.956  -1.169  0.00  0.00     0.065 A 
ATOM     20  C   UNL d   1      -1.225  -6.526  -1.749  0.00  0.00     0.040 A 
ATOM     21  C   UNL d   1      -2.059  -7.363  -0.992  0.00  0.00     0.050 A 
ATOM     22  C   UNL d   1      -1.719  -7.630   0.347  0.00  0.00     0.032 A 
ATOM     23  C   UNL d   1      -0.555  -7.090   0.927  0.00  0.00     0.050 A 
ATOM     24  C   UNL d   1       0.251  -6.233   0.161  0.00  0.00     0.040 A 
BRANCH  21  25
ATOM     25  C   UNL d   1      -3.280  -8.011  -1.608  0.00  0.00     0.417 C 
ATOM     26  F   UNL d   1      -3.433  -7.725  -2.930  0.00  0.00    -0.166 F 
ATOM     27  F   UNL d   1      -3.249  -9.367  -1.517  0.00  0.00    -0.166 F 
ATOM     28  F   UNL d   1      -4.434  -7.617  -1.004  0.00  0.00    -0.166 F 
ENDBRANCH  21  25
BRANCH  23  29
ATOM     29  C   UNL d   1      -0.155  -7.494   2.331  0.00  0.00     0.417 C 
ATOM     30  F   UNL d   1       1.026  -6.954   2.735  0.00  0.00    -0.166 F 
ATOM     31  F   UNL d   1      -1.077  -7.128   3.261  0.00  0.00    -0.166 F 
ATOM     32  F   UNL d   1      -0.012  -8.843   2.451  0.00  0.00    -0.166 F 
ENDBRANCH  23  29
ENDBRANCH   1  19
TORSDOF 6
