REMARK  3 active torsions:
REMARK  status: ('A' for Active; 'I' for Inactive)
REMARK    1  A    between atoms: C_7  and  C_1 
REMARK    2  A    between atoms: C_10  and  C_4 
REMARK    3  A    between atoms: N_9  and  C_11 
ROOT
ATOM      1  C   UNL d   1       0.289  -0.949  -0.550  0.00  0.00     0.188 A 
ATOM      2  N   UNL d   1       0.740   0.222  -0.933  0.00  0.00    -0.318 N 
ATOM      3  HN  UNL d   1       1.313   0.448  -1.746  1.00  0.00     0.169 HD
ATOM      4  C   UNL d   1       0.250   1.073   0.035  0.00  0.00     0.138 A 
ATOM      5  N   UNL d   1      -0.470   0.455   0.985  0.00  0.00    -0.242 N 
ATOM      6  HN  UNL d   1      -0.926   0.869   1.799  1.00  0.00     0.196 HD
ATOM      7  O   UNL d   1      -0.448  -0.884   0.599  0.00  0.00    -0.217 OA
ENDROOT
BRANCH   4   8
ATOM      8  C   UNL d   1       0.512   2.508   0.004  0.00  0.00     0.012 A 
ATOM      9  C   UNL d   1       1.223   3.065  -1.074  0.00  0.00     0.045 A 
ATOM     10  C   UNL d   1       1.497   4.441  -1.131  0.00  0.00     0.039 A 
ATOM     11  C   UNL d   1       1.057   5.259  -0.081  0.00  0.00     0.030 A 
ATOM     12  C   UNL d   1       0.345   4.714   0.991  0.00  0.00     0.003 A 
ATOM     13  C   UNL d   1       0.070   3.347   1.032  0.00  0.00     0.015 A 
BRANCH  10  14
ATOM     14  N   UNL d   1       2.201   4.996  -2.247  0.00  0.00    -0.333 N 
ATOM     15  C   UNL d   1       2.584   6.317  -2.410  0.00  0.00     0.096 A 
ATOM     16  C   UNL d   1       3.214   6.467  -3.626  0.00  0.00     0.019 A 
ATOM     17  C   UNL d   1       3.236   5.203  -4.242  0.00  0.00     0.019 A 
ATOM     18  C   UNL d   1       2.621   4.320  -3.381  0.00  0.00     0.096 A 
ENDBRANCH  10  14
ENDBRANCH   4   8
BRANCH   1  19
ATOM     19  C   UNL d   1       0.485  -2.261  -1.132  0.00  0.00     0.094 A 
ATOM     20  C   UNL d   1       1.649  -2.556  -1.848  0.00  0.00     0.134 A 
ATOM     21  F   UNL d   1       2.616  -1.637  -1.989  0.00  0.00    -0.205 F 
ATOM     22  C   UNL d   1       1.856  -3.812  -2.419  0.00  0.00     0.043 A 
ATOM     23  C   UNL d   1       0.887  -4.805  -2.289  0.00  0.00     0.006 A 
ATOM     24  C   UNL d   1      -0.284  -4.530  -1.586  0.00  0.00     0.043 A 
ATOM     25  C   UNL d   1      -0.475  -3.270  -1.016  0.00  0.00     0.134 A 
ATOM     26  F   UNL d   1      -1.626  -3.045  -0.366  0.00  0.00    -0.205 F 
ENDBRANCH   1  19
TORSDOF 3
