REMARK  7 active torsions:
REMARK  status: ('A' for Active; 'I' for Inactive)
REMARK    1  A    between atoms: C_2  and  S_1 
REMARK    2  A    between atoms: N_15  and  S_1 
REMARK    3  A    between atoms: C_5  and  C_10 
REMARK    4  A    between atoms: C_25  and  C_6 
REMARK    5  A    between atoms: C_13  and  C_22 
REMARK    6  A    between atoms: C_14  and  C_26 
REMARK    7  A    between atoms: C_22  and  N_15 
ROOT
ATOM      1  C   UNL d   1       0.944  -1.327   2.250  0.00  0.00     0.191 C 
ENDROOT
BRANCH   1   2
ATOM      2  C   UNL d   1       0.451  -1.234   3.651  0.00  0.00     0.162 A 
ATOM      3  N   UNL d   1       1.106  -1.146   4.787  0.00  0.00    -0.322 N 
ATOM      4  C   UNL d   1       0.089  -1.113   5.720  0.00  0.00     0.137 A 
ATOM      5  HN  UNL d   1       2.113  -1.110   4.941  1.00  0.00     0.169 HD
ATOM      6  N   UNL d   1      -1.140  -1.193   5.181  0.00  0.00    -0.242 N 
ATOM      7  O   UNL d   1      -0.903  -1.275   3.815  0.00  0.00    -0.221 OA
ATOM      8  HN  UNL d   1      -2.039  -1.194   5.663  1.00  0.00     0.196 HD
BRANCH   4   9
ATOM      9  C   UNL d   1       0.337  -0.984   7.154  0.00  0.00     0.010 A 
ATOM     10  C   UNL d   1       1.646  -0.877   7.644  0.00  0.00     0.016 A 
ATOM     11  C   UNL d   1       1.885  -0.705   9.013  0.00  0.00     0.017 A 
ATOM     12  C   UNL d   1       0.819  -0.640   9.921  0.00  0.00     0.048 A 
ATOM     13  C   UNL d   1      -0.490  -0.771   9.435  0.00  0.00     0.017 A 
ATOM     14  C   UNL d   1      -0.727  -0.943   8.067  0.00  0.00     0.016 A 
BRANCH  12  15
ATOM     15  C   UNL d   1       1.053  -0.417  11.396  0.00  0.00     0.417 C 
ATOM     16  F   UNL d   1       2.369  -0.308  11.729  0.00  0.00    -0.166 F 
ATOM     17  F   UNL d   1       0.459   0.721  11.849  0.00  0.00    -0.166 F 
ATOM     18  F   UNL d   1       0.557  -1.428  12.162  0.00  0.00    -0.166 F 
ENDBRANCH  12  15
ENDBRANCH   4   9
ENDBRANCH   1   2
BRANCH   1  19
ATOM     19  N   UNL d   1       0.448  -0.185   1.463  0.00  0.00    -0.208 NA
ATOM     20  H   UNL d   1      -0.539   0.046   1.581  0.00  0.00     0.140 HD
BRANCH  19  21
ATOM     21  S   UNL d   1       0.903  -0.159  -0.155  0.00  0.00     0.248 S 
ATOM     22  O   UNL d   1       0.326   1.028  -0.744  0.00  0.00    -0.205 OA
ATOM     23  O   UNL d   1       2.314  -0.457  -0.227  0.00  0.00    -0.205 OA
BRANCH  21  24
ATOM     24  C   UNL d   1       0.111  -1.526  -0.974  0.00  0.00     0.116 A 
ATOM     25  S   UNL d   1      -1.602  -1.573  -0.942  0.00  0.00    -0.075 SA
ATOM     26  C   UNL d   1      -1.645  -3.038  -1.819  0.00  0.00     0.033 A 
ATOM     27  C   UNL d   1      -0.377  -3.497  -2.108  0.00  0.00     0.023 A 
ATOM     28  C   UNL d   1       0.635  -2.608  -1.653  0.00  0.00     0.034 A 
BRANCH  26  29
ATOM     29  C   UNL d   1      -2.873  -3.780  -2.260  0.00  0.00     0.056 A 
ATOM     30  N   UNL d   1      -2.748  -5.024  -2.860  0.00  0.00    -0.353 N 
ATOM     31  C   UNL d   1      -3.931  -5.492  -3.189  0.00  0.00     0.047 A 
ATOM     32  HN  UNL d   1      -1.864  -5.506  -3.023  1.00  0.00     0.166 HD
ATOM     33  C   UNL d   1      -4.153  -6.807  -3.850  0.00  0.00     0.076 C 
ATOM     34  S   UNL d   1      -5.257  -4.465  -2.818  0.00  0.00    -0.087 SA
ATOM     35  C   UNL d   1      -4.168  -3.321  -2.142  0.00  0.00     0.082 A 
ENDBRANCH  26  29
ENDBRANCH  21  24
ENDBRANCH  19  21
ENDBRANCH   1  19
TORSDOF 7
