REMARK  1 active torsions:
REMARK  status: ('A' for Active; 'I' for Inactive)
REMARK    1  A    between atoms: C_2  and  N_1 
ROOT
ATOM      1  C   UNL d   1       2.125  -1.529  -0.055  0.00  0.00     0.112 A 
ATOM      2  N   UNL d   1       3.221  -1.122   0.635  0.00  0.00    -0.352 N 
ATOM      3  HN  UNL d   1       3.227  -0.237   1.143  1.00  0.00     0.166 HD
ATOM      4  C   UNL d   1       2.113  -2.717  -0.788  0.00  0.00     0.056 A 
ATOM      5  C   UNL d   1       3.246  -3.540  -0.780  0.00  0.00    -0.057 A 
ATOM      6  C   UNL d   1       4.302  -1.930   0.625  0.00  0.00     0.090 A 
ATOM      7  C   UNL d   1       4.360  -3.133  -0.052  0.00  0.00     0.024 A 
ATOM      8  C   UNL d   1       3.271  -4.832  -1.541  0.00  0.00     0.048 C 
ENDROOT
BRANCH   1   9
ATOM      9  N   UNL d   1       0.956  -0.692  -0.030  0.00  0.00    -0.306 N 
ATOM     10  C   UNL d   1       0.952   0.706   0.024  0.00  0.00     0.014 A 
ATOM     11  C   UNL d   1      -0.360   1.141  -0.003  0.00  0.00     0.027 A 
ATOM     12  C   UNL d   1       2.163   1.579   0.033  0.00  0.00     0.068 C 
ATOM     13  C   UNL d   1      -1.189   0.013  -0.057  0.00  0.00     0.027 A 
ATOM     14  C   UNL d   1      -0.384  -1.111  -0.028  0.00  0.00     0.014 A 
ATOM     15  C   UNL d   1      -0.859  -2.520   0.095  0.00  0.00     0.068 C 
ENDBRANCH   1   9
TORSDOF 1
