REMARK  3 active torsions:
REMARK  status: ('A' for Active; 'I' for Inactive)
REMARK    1  A    between atoms: C_7  and  C_4 
REMARK    2  A    between atoms: C_8  and  C_5 
REMARK    3  A    between atoms: O_10  and  C_6 
ROOT
ATOM      1  N   UNL d   1       0.576   1.226  -0.183  0.00  0.00     0.103 N 
ATOM      2  C   UNL d   1      -1.595  -0.122  -0.418  0.00  0.00     0.049 C 
ATOM      3  C   UNL d   1       0.671  -1.279  -0.067  0.00  0.00     0.049 C 
ATOM      4  C   UNL d   1       1.238   0.064   0.457  0.00  0.00     0.262 C 
ATOM      5  C   UNL d   1      -0.898   1.218  -0.013  0.00  0.00     0.262 C 
ATOM      6  C   UNL d   1      -0.853  -1.393   0.077  0.00  0.00     0.130 C 
ATOM      7  C   UNL d   1       0.991   1.382  -1.583  0.00  0.00     0.311 C 
ATOM      8  C   UNL d   1      -3.055  -0.142   0.075  0.00  0.00     0.015 C 
ATOM      9  C   UNL d   1       1.442  -2.494   0.462  0.00  0.00     0.015 C 
ENDROOT
BRANCH   4  10
ATOM     10  C   UNL d   1       1.407   0.224   1.979  0.00  0.00    -0.025 A 
ATOM     11  C   UNL d   1       2.700   0.410   2.505  0.00  0.00     0.009 A 
ATOM     12  C   UNL d   1       2.916   0.565   3.881  0.00  0.00     0.001 A 
ATOM     13  C   UNL d   1       1.840   0.543   4.764  0.00  0.00     0.000 A 
ATOM     14  C   UNL d   1       0.558   0.369   4.275  0.00  0.00     0.001 A 
ATOM     15  C   UNL d   1       0.349   0.208   2.902  0.00  0.00     0.009 A 
ENDBRANCH   4  10
BRANCH   6  16
ATOM     16  O   UNL d   1      -1.270  -1.751   1.390  0.00  0.00    -0.395 OA
ATOM     17  H   UNL d   1      -0.657  -2.409   1.758  0.00  0.00     0.210 HD
ENDBRANCH   6  16
BRANCH   5  18
ATOM     18  C   UNL d   1      -1.532   2.496  -0.593  0.00  0.00    -0.025 A 
ATOM     19  C   UNL d   1      -1.414   3.695   0.135  0.00  0.00     0.009 A 
ATOM     20  C   UNL d   1      -1.982   4.881  -0.334  0.00  0.00     0.001 A 
ATOM     21  C   UNL d   1      -2.669   4.892  -1.544  0.00  0.00     0.000 A 
ATOM     22  C   UNL d   1      -2.773   3.723  -2.293  0.00  0.00     0.001 A 
ATOM     23  C   UNL d   1      -2.201   2.536  -1.827  0.00  0.00     0.009 A 
ENDBRANCH   5  18
TORSDOF 3
