REMARK  7 active torsions:
REMARK  status: ('A' for Active; 'I' for Inactive)
REMARK    1  A    between atoms: C_2  and  C_1 
REMARK       I    between atoms: N_5  and  C_1 
REMARK    2  A    between atoms: C_8  and  C_3 
REMARK    3  A    between atoms: C_12  and  N_5 
REMARK    4  A    between atoms: C_6  and  C_8 
REMARK    5  A    between atoms: C_7  and  C_6 
REMARK    6  A    between atoms: O_16  and  C_7 
REMARK    7  A    between atoms: O_19  and  C_17 
ROOT
ATOM      1  C   UNL d   1       0.114   0.683   1.212  0.00  0.00     0.044 A 
ATOM      2  C   UNL d   1       0.663   1.985   1.053  0.00  0.00    -0.040 A 
ATOM      3  C   UNL d   1      -0.994   0.483   2.072  0.00  0.00    -0.045 A 
ATOM      4  C   UNL d   1       0.154   3.030   1.852  0.00  0.00     0.015 A 
ATOM      5  C   UNL d   1      -1.458   1.555   2.854  0.00  0.00     0.014 A 
ATOM      6  C   UNL d   1      -0.887   2.823   2.763  0.00  0.00    -0.061 A 
ATOM      7  C   UNL d   1      -1.733  -0.822   2.216  0.00  0.00     0.049 C 
ATOM      8  C   UNL d   1      -1.380   3.953   3.621  0.00  0.00     0.048 C 
ENDROOT
BRANCH   1   9
ATOM      9  C   UNL d   1       0.677  -0.459   0.433  0.00  0.00     0.257 C 
ATOM     10  N   UNL d   1       0.965  -1.613   1.140  0.00  0.00    -0.323 N 
ATOM     11  H   UNL d   1       0.767  -1.613   2.132  0.00  0.00     0.169 HD
ATOM     12  O   UNL d   1       0.824  -0.305  -0.774  0.00  0.00    -0.267 OA
BRANCH  10  13
ATOM     13  C   UNL d   1       1.403  -2.842   0.587  0.00  0.00     0.037 A 
ATOM     14  C   UNL d   1       1.838  -2.982  -0.738  0.00  0.00     0.066 A 
ATOM     15  C   UNL d   1       2.242  -4.224  -1.238  0.00  0.00     0.070 A 
ATOM     16  C   UNL d   1       2.203  -5.340  -0.404  0.00  0.00     0.037 A 
ATOM     17  C   UNL d   1       1.775  -5.217   0.918  0.00  0.00     0.005 A 
ATOM     18  C   UNL d   1       1.385  -3.970   1.413  0.00  0.00     0.029 A 
BRANCH  15  19
ATOM     19  O   UNL d   1       2.691  -4.467  -2.509  0.00  0.00    -0.356 OA
ATOM     20  C   UNL d   1       2.740  -3.353  -3.396  0.00  0.00     0.210 C 
ENDBRANCH  15  19
ENDBRANCH  10  13
ENDBRANCH   1   9
BRANCH   2  21
ATOM     21  C   UNL d   1       1.845   2.314   0.145  0.00  0.00     0.059 C 
BRANCH  21  22
ATOM     22  C   UNL d   1       1.609   2.938  -1.265  0.00  0.00     0.042 C 
ATOM     23  C   UNL d   1       3.011   3.171  -1.887  0.00  0.00     0.026 C 
ATOM     24  C   UNL d   1       0.846   2.055  -2.266  0.00  0.00     0.026 C 
BRANCH  22  25
ATOM     25  C   UNL d   1       0.917   4.300  -1.165  0.00  0.00     0.148 C 
ATOM     26  O   UNL d   1       1.494   5.375  -1.261  0.00  0.00    -0.649 OA
BRANCH  25  27
ATOM     27  O   UNL d   1      -0.415   4.248  -0.941  0.00  0.00    -0.776 OA
ATOM     28  H   UNL d   1      -0.769   3.348  -0.804  0.00  0.00     0.167 HD
ENDBRANCH  25  27
ENDBRANCH  22  25
ENDBRANCH  21  22
ENDBRANCH   2  21
TORSDOF 7
