REMARK  5 active torsions:
REMARK  status: ('A' for Active; 'I' for Inactive)
REMARK    1  A    between atoms: C_4  and  C_1 
REMARK    2  A    between atoms: O_12  and  C_8 
REMARK    3  A    between atoms: C_16  and  O_12 
REMARK    4  A    between atoms: O_13  and  C_15 
REMARK    5  A    between atoms: C_15  and  C_16 
ROOT
ATOM      1  C   UNL d   1       0.185  -2.509  -0.021  0.00  0.00     0.015 A 
ATOM      2  C   UNL d   1      -0.486  -3.205  -1.034  0.00  0.00     0.018 A 
ATOM      3  C   UNL d   1       0.875  -3.223   0.956  0.00  0.00     0.018 A 
ATOM      4  C   UNL d   1       0.245  -5.320  -0.079  0.00  0.00     0.068 A 
ATOM      5  C   UNL d   1       0.905  -4.614   0.929  0.00  0.00     0.038 A 
ATOM      6  C   UNL d   1      -0.453  -4.608  -1.060  0.00  0.00     0.038 A 
ENDROOT
BRANCH   1   7
ATOM      7  C   UNL d   1       0.175  -1.036   0.022  0.00  0.00     0.148 C 
ATOM      8  N   UNL d   1      -0.427  -0.236  -0.798  0.00  0.00    -0.368 N 
ATOM      9  C   UNL d   1      -0.065   1.100  -0.303  0.00  0.00     0.148 C 
ATOM     10  HN  UNL d   1      -1.013  -0.476  -1.597  1.00  0.00     0.161 HD
ATOM     11  C   UNL d   1       0.705   0.876   0.980  0.00  0.00     0.197 C 
ATOM     12  O   UNL d   1       0.893  -0.524   1.050  0.00  0.00    -0.334 OA
ENDBRANCH   1   7
BRANCH   4  13
ATOM     13  O   UNL d   1       0.230  -6.690  -0.186  0.00  0.00    -0.349 OA
BRANCH  13  14
ATOM     14  C   UNL d   1       0.973  -7.373   0.828  0.00  0.00     0.201 C 
BRANCH  14  15
ATOM     15  C   UNL d   1       0.925  -8.881   0.640  0.00  0.00     0.190 C 
BRANCH  15  16
ATOM     16  O   UNL d   1       1.678  -9.493   1.685  0.00  0.00    -0.399 OA
ATOM     17  H   UNL d   1       1.635 -10.455   1.548  0.00  0.00     0.209 HD
ENDBRANCH  15  16
ENDBRANCH  14  15
ENDBRANCH  13  14
ENDBRANCH   4  13
TORSDOF 5
