REMARK  1 active torsions:
REMARK  status: ('A' for Active; 'I' for Inactive)
REMARK    1  A    between atoms: C_6  and  N_1 
ROOT
ATOM      1  N   UNL d   1      -2.433  -0.753   0.119  0.00  0.00    -0.244 N 
ATOM      2  C   UNL d   1      -1.391  -1.460   0.681  0.00  0.00     0.267 A 
ATOM      3  C   UNL d   1      -1.965   0.405  -0.471  0.00  0.00     0.266 A 
ATOM      4  C   UNL d   1      -0.191  -0.691   0.459  0.00  0.00     0.064 A 
ATOM      5  C   UNL d   1      -0.522   0.451  -0.224  0.00  0.00     0.051 A 
ATOM      6  O   UNL d   1      -1.334  -2.546   1.232  0.00  0.00    -0.267 OA
ATOM      7  O   UNL d   1      -2.533   1.291  -1.082  0.00  0.00    -0.267 OA
ATOM      8  N   UNL d   1       2.087  -0.071   0.482  0.00  0.00    -0.374 N 
ATOM      9  HN  UNL d   1       3.059  -0.255   0.730  1.00  0.00     0.164 HD
ATOM     10  C   UNL d   1       1.108  -0.948   0.796  0.00  0.00     0.105 A 
ATOM     11  C   UNL d   1       0.435   1.383  -0.562  0.00  0.00     0.035 A 
ATOM     12  C   UNL d   1       1.732   1.068  -0.178  0.00  0.00     0.088 A 
ENDROOT
BRANCH   1  13
ATOM     13  C   UNL d   1      -3.773  -1.231   0.080  0.00  0.00     0.046 A 
ATOM     14  C   UNL d   1      -4.198  -2.213   0.989  0.00  0.00     0.037 A 
ATOM     15  C   UNL d   1      -5.458  -2.825   0.906  0.00  0.00    -0.054 A 
ATOM     16  C   UNL d   1      -5.806  -3.902   1.897  0.00  0.00     0.049 C 
ATOM     17  C   UNL d   1      -6.333  -2.447  -0.123  0.00  0.00    -0.056 A 
ATOM     18  C   UNL d   1      -5.952  -1.411  -0.989  0.00  0.00     0.009 A 
ATOM     19  C   UNL d   1      -7.644  -3.154  -0.327  0.00  0.00     0.049 C 
ATOM     20  C   UNL d   1      -4.694  -0.800  -0.880  0.00  0.00     0.031 A 
ENDBRANCH   1  13
TORSDOF 1
