REMARK  5 active torsions:
REMARK  status: ('A' for Active; 'I' for Inactive)
REMARK    1  A    between atoms: C_8  and  C_1 
REMARK    2  A    between atoms: O_9  and  N_5 
REMARK    3  A    between atoms: C_7  and  O_9 
REMARK    4  A    between atoms: C_11  and  C_7 
REMARK    5  A    between atoms: C_12  and  C_13 
ROOT
ATOM      1  N   UNL d   1       6.224  -2.162   0.425  0.00  0.00    -0.261 N 
ATOM      2  HN  UNL d   1       6.617  -2.195  -0.516  1.00  0.00     0.194 HD
ATOM      3  C   UNL d   1       6.463  -1.201   1.268  0.00  0.00     0.040 C 
ATOM      4  C   UNL d   1       5.759  -1.057   2.604  0.00  0.00     0.071 C 
ENDROOT
BRANCH   1   5
ATOM      5  O   UNL d   1       5.370  -3.150   0.943  0.00  0.00    -0.195 OA
BRANCH   5   6
ATOM      6  C   UNL d   1       4.631  -3.687  -0.074  0.00  0.00     0.315 C 
ATOM      7  O   UNL d   1       4.030  -3.065  -0.935  0.00  0.00    -0.257 OA
BRANCH   6   8
ATOM      8  C   UNL d   1       4.636  -5.175   0.020  0.00  0.00     0.041 A 
ATOM      9  C   UNL d   1       3.828  -5.909  -0.851  0.00  0.00     0.018 A 
ATOM     10  C   UNL d   1       3.841  -7.312  -0.821  0.00  0.00     0.009 A 
ATOM     11  C   UNL d   1       4.659  -8.020   0.082  0.00  0.00    -0.051 A 
ATOM     12  C   UNL d   1       5.479  -7.262   0.933  0.00  0.00     0.009 A 
ATOM     13  C   UNL d   1       5.471  -5.862   0.907  0.00  0.00     0.018 A 
BRANCH  11  14
ATOM     14  C   UNL d   1       4.618  -9.560   0.137  0.00  0.00    -0.024 C 
ATOM     15  C   UNL d   1       5.559 -10.161   1.207  0.00  0.00     0.019 C 
ATOM     16  C   UNL d   1       3.185 -10.022   0.480  0.00  0.00     0.019 C 
ATOM     17  C   UNL d   1       5.028 -10.169  -1.221  0.00  0.00     0.019 C 
ENDBRANCH  11  14
ENDBRANCH   6   8
ENDBRANCH   5   6
ENDBRANCH   1   5
BRANCH   3  18
ATOM     18  C   UNL d   1       7.484  -0.208   0.878  0.00  0.00     0.006 A 
ATOM     19  C   UNL d   1       7.803   0.871   1.686  0.00  0.00     0.064 A 
ATOM     20  S   UNL d   1       9.025   1.867   1.054  0.00  0.00    -0.100 SA
ATOM     21  C   UNL d   1       9.195   0.888  -0.345  0.00  0.00     0.016 A 
ATOM     22  C   UNL d   1       8.312  -0.199  -0.329  0.00  0.00    -0.006 A 
ATOM     23  C   UNL d   1      10.099   1.108  -1.406  0.00  0.00     0.019 A 
ATOM     24  C   UNL d   1       8.371  -1.083  -1.442  0.00  0.00     0.014 A 
ATOM     25  C   UNL d   1       9.267  -0.870  -2.497  0.00  0.00     0.001 A 
ATOM     26  C   UNL d   1      10.123   0.218  -2.478  0.00  0.00     0.001 A 
ENDBRANCH   3  18
TORSDOF 5
