REMARK  4 active torsions:
REMARK  status: ('A' for Active; 'I' for Inactive)
REMARK    1  A    between atoms: C_3  and  C_1 
REMARK       I    between atoms: N_6  and  C_1 
REMARK    2  A    between atoms: N_2  and  C_10 
REMARK    3  A    between atoms: N_8  and  C_4 
REMARK    4  A    between atoms: C_5  and  N_9 
ROOT
ATOM      1  C   UNL d   1       0.848   0.013  -0.359  0.00  0.00     0.257 C 
ATOM      2  N   UNL d   1       0.530   1.080   0.511  0.00  0.00    -0.345 N 
ATOM      3  N   UNL d   1      -0.790   3.366   1.648  0.00  0.00    -0.376 N 
ATOM      4  O   UNL d   1       0.223  -1.046  -0.369  0.00  0.00    -0.267 OA
ATOM      5  C   UNL d   1       1.099   2.439   0.364  0.00  0.00     0.146 C 
ATOM      6  C   UNL d   1      -0.800   0.974   1.138  0.00  0.00     0.146 C 
ATOM      7  C   UNL d   1       0.664   3.479   1.422  0.00  0.00     0.143 C 
ATOM      8  C   UNL d   1      -1.131   2.043   2.196  0.00  0.00     0.143 C 
ENDROOT
BRANCH   3   9
ATOM      9  C   UNL d   1      -1.525   4.504   1.957  0.00  0.00     0.058 A 
ATOM     10  C   UNL d   1      -1.637   5.621   1.085  0.00  0.00     0.067 A 
ATOM     11  C   UNL d   1      -2.360   6.775   1.457  0.00  0.00     0.068 A 
ATOM     12  C   UNL d   1      -3.022   6.821   2.690  0.00  0.00     0.105 A 
ATOM     13  C   UNL d   1      -2.942   5.740   3.559  0.00  0.00     0.038 A 
ATOM     14  C   UNL d   1      -2.197   4.606   3.195  0.00  0.00     0.034 A 
BRANCH  10  15
ATOM     15  N   UNL d   1      -1.137   5.619  -0.248  0.00  0.00    -0.331 N 
ATOM     16  C   UNL d   1      -0.607   6.713  -0.911  0.00  0.00     0.097 A 
ATOM     17  C   UNL d   1      -0.288   6.351  -2.200  0.00  0.00     0.019 A 
ATOM     18  C   UNL d   1      -0.669   5.005  -2.357  0.00  0.00     0.019 A 
ATOM     19  C   UNL d   1      -1.183   4.578  -1.152  0.00  0.00     0.097 A 
ENDBRANCH  10  15
BRANCH  12  20
ATOM     20  N   UNL d   1      -3.825   8.001   3.025  0.00  0.00    -0.116 N 
ATOM     21  O   UNL d   1      -3.872   8.928   2.207  0.00  0.00    -0.532 OA
ATOM     22  O   UNL d   1      -4.415   7.995   4.117  0.00  0.00    -0.532 OA
ENDBRANCH  12  20
ENDBRANCH   3   9
BRANCH   1  23
ATOM     23  C   UNL d   1       1.965   0.148  -1.319  0.00  0.00     0.075 C 
ATOM     24  C   UNL d   1       3.117  -0.638  -1.186  0.00  0.00     0.051 C 
ATOM     25 CL   UNL d   1       3.278  -1.871   0.014  0.00  0.00    -0.083 Cl
ATOM     26  C   UNL d   1       4.196  -0.460  -2.064  0.00  0.00     0.025 C 
ATOM     27  C   UNL d   1       4.148   0.522  -3.052  0.00  0.00     0.003 C 
ATOM     28  C   UNL d   1       2.975   1.246  -3.240  0.00  0.00     0.025 C 
ATOM     29  C   UNL d   1       1.864   1.001  -2.426  0.00  0.00     0.051 C 
ATOM     30 CL   UNL d   1       0.358   1.666  -2.947  0.00  0.00    -0.083 Cl
ENDBRANCH   1  23
TORSDOF 4
