REMARK  6 active torsions:
REMARK  status: ('A' for Active; 'I' for Inactive)
REMARK    1  A    between atoms: N_2  and  C_1 
REMARK    2  A    between atoms: C_3  and  C_1 
REMARK    3  A    between atoms: C_4  and  C_1 
REMARK    4  A    between atoms: N_6  and  C_1 
REMARK       I    between atoms: C_5  and  N_2 
REMARK    5  A    between atoms: C_10  and  C_5 
REMARK    6  A    between atoms: C_7  and  N_6 
ROOT
ATOM      1  C   UNL d   1       0.752   0.015   0.056  0.00  0.00     0.291 C 
ENDROOT
BRANCH   1   2
ATOM      2  N   UNL d   1       0.608  -1.196  -0.800  0.00  0.00    -0.320 N 
ATOM      3  C   UNL d   1       1.202  -1.359  -2.021  0.00  0.00     0.254 C 
ATOM      4  O   UNL d   1       1.781  -0.423  -2.550  0.00  0.00    -0.268 OA
ATOM      5  H   UNL d   1       0.332  -2.003  -0.248  0.00  0.00     0.165 HD
BRANCH   3   6
ATOM      6  C   UNL d   1       1.084  -2.722  -2.692  0.00  0.00     0.037 A 
ATOM      7  C   UNL d   1       1.395  -2.922  -4.065  0.00  0.00    -0.046 A 
ATOM      8  C   UNL d   1       1.977  -1.879  -4.983  0.00  0.00     0.049 C 
ATOM      9  C   UNL d   1       1.133  -4.178  -4.655  0.00  0.00     0.007 A 
ATOM     10  C   UNL d   1       0.626  -5.240  -3.914  0.00  0.00     0.001 A 
ATOM     11  C   UNL d   1       0.387  -5.074  -2.561  0.00  0.00     0.001 A 
ATOM     12  C   UNL d   1       0.611  -3.830  -1.956  0.00  0.00     0.017 A 
ENDBRANCH   3   6
ENDBRANCH   1   2
BRANCH   1  13
ATOM     13  C   UNL d   1      -0.388   0.056   1.138  0.00  0.00     0.435 C 
ATOM     14  F   UNL d   1      -0.811  -1.188   1.484  0.00  0.00    -0.167 F 
ATOM     15  F   UNL d   1       0.012   0.677   2.277  0.00  0.00    -0.167 F 
ATOM     16  F   UNL d   1      -1.510   0.691   0.716  0.00  0.00    -0.167 F 
ENDBRANCH   1  13
BRANCH   1  17
ATOM     17  C   UNL d   1       0.571   1.393  -0.688  0.00  0.00     0.435 C 
ATOM     18  F   UNL d   1      -0.201   1.320  -1.789  0.00  0.00    -0.167 F 
ATOM     19  F   UNL d   1       0.020   2.345   0.118  0.00  0.00    -0.167 F 
ATOM     20  F   UNL d   1       1.774   1.925  -1.048  0.00  0.00    -0.167 F 
ENDBRANCH   1  17
BRANCH   1  21
ATOM     21  N   UNL d   1       2.156  -0.077   0.604  0.00  0.00    -0.237 NA
ATOM     22  H   UNL d   1       2.535   0.858   0.767  0.00  0.00     0.132 HD
BRANCH  21  23
ATOM     23  C   UNL d   1       2.397  -0.908   1.688  0.00  0.00     0.082 A 
ATOM     24  N   UNL d   1       1.571  -1.942   1.906  0.00  0.00    -0.351 N 
ATOM     25  C   UNL d   1       1.793  -2.738   2.981  0.00  0.00     0.006 A 
ATOM     26  HN  UNL d   1       0.791  -2.127   1.275  1.00  0.00     0.167 HD
ATOM     27  C   UNL d   1       0.836  -3.870   3.193  0.00  0.00     0.068 C 
ATOM     28  C   UNL d   1       2.858  -2.541   3.848  0.00  0.00     0.024 A 
ATOM     29  C   UNL d   1       3.742  -1.504   3.585  0.00  0.00     0.005 A 
ATOM     30  C   UNL d   1       3.521  -0.692   2.477  0.00  0.00     0.042 A 
ENDBRANCH  21  23
ENDBRANCH   1  21
TORSDOF 6
