REMARK  2 active torsions:
REMARK  status: ('A' for Active; 'I' for Inactive)
REMARK       I    between atoms: C_4  and  N_1 
REMARK    1  A    between atoms: C_9  and  C_4 
REMARK    2  A    between atoms: C_11  and  C_12 
ROOT
ATOM      1  N   UNL d   1       1.715  -1.205  -0.650  0.00  0.00    -0.245 N 
ATOM      2  C   UNL d   1       2.609  -0.181  -1.009  0.00  0.00     0.230 A 
ATOM      3  C   UNL d   1       0.455  -0.735  -1.041  0.00  0.00     0.081 A 
ATOM      4  C   UNL d   1       2.086  -2.439  -0.106  0.00  0.00     0.265 C 
ATOM      5  O   UNL d   1       1.986   0.875  -1.669  0.00  0.00    -0.282 OA
ATOM      6  C   UNL d   1       0.668   0.467  -1.690  0.00  0.00     0.106 A 
ATOM      7  C   UNL d   1      -0.835  -1.213  -0.898  0.00  0.00     0.057 A 
ATOM      8  S   UNL d   1       4.255  -0.018  -0.820  0.00  0.00    -0.032 SA
ATOM      9  O   UNL d   1       3.152  -2.626   0.491  0.00  0.00    -0.267 OA
ATOM     10  C   UNL d   1      -0.341   1.180  -2.311  0.00  0.00     0.041 A 
ATOM     11  C   UNL d   1      -1.869  -0.540  -1.562  0.00  0.00     0.036 A 
ATOM     12  C   UNL d   1      -1.627   0.644  -2.273  0.00  0.00     0.026 A 
ATOM     13 CL   UNL d   1      -3.458  -1.201  -1.536  0.00  0.00    -0.084 Cl
ENDROOT
BRANCH   4  14
ATOM     14  C   UNL d   1       1.174  -3.617  -0.141  0.00  0.00     0.033 C 
ATOM     15  C   UNL d   1       0.380  -3.945  -1.239  0.00  0.00     0.017 C 
ATOM     16  C   UNL d   1      -0.613  -4.926  -1.107  0.00  0.00     0.009 C 
ATOM     17  C   UNL d   1      -0.769  -5.663   0.084  0.00  0.00    -0.051 C 
ATOM     18  C   UNL d   1       0.175  -5.447   1.099  0.00  0.00     0.009 C 
ATOM     19  C   UNL d   1       1.126  -4.430   0.993  0.00  0.00     0.017 C 
BRANCH  17  20
ATOM     20  C   UNL d   1      -1.968  -6.611   0.271  0.00  0.00    -0.024 C 
ATOM     21  C   UNL d   1      -1.939  -7.389   1.607  0.00  0.00     0.019 C 
ATOM     22  C   UNL d   1      -3.268  -5.774   0.263  0.00  0.00     0.019 C 
ATOM     23  C   UNL d   1      -2.027  -7.649  -0.866  0.00  0.00     0.019 C 
ENDBRANCH  17  20
ENDBRANCH   4  14
TORSDOF 2
