REMARK  2 active torsions:
REMARK  status: ('A' for Active; 'I' for Inactive)
REMARK    1  A    between atoms: C_9  and  C_3 
REMARK    2  A    between atoms: O_21  and  C_16 
ROOT
ATOM      1  C   UNL d   1      -0.737   0.351  -0.001  0.00  0.00     0.050 C 
ATOM      2  C   UNL d   1      -1.373  -0.834  -0.013  0.00  0.00    -0.025 C 
ATOM      3  C   UNL d   1      -2.875  -0.900  -0.120  0.00  0.00     0.148 C 
ATOM      4  N   UNL d   1      -1.492   1.501  -0.061  0.00  0.00    -0.332 N 
ATOM      5  C   UNL d   1      -2.848   1.540   0.060  0.00  0.00     0.173 C 
ATOM      6  N   UNL d   1      -3.472   0.356   0.288  0.00  0.00    -0.354 N 
ATOM      7  C   UNL d   1       0.742   0.424   0.040  0.00  0.00    -0.003 A 
ATOM      8  C   UNL d   1       1.502  -0.758   0.019  0.00  0.00    -0.043 A 
ATOM      9  C   UNL d   1      -0.664  -2.157   0.046  0.00  0.00     0.043 C 
ATOM     10  C   UNL d   1       1.434   1.647   0.092  0.00  0.00     0.017 A 
ATOM     11  S   UNL d   1      -3.696   2.963  -0.050  0.00  0.00    -0.041 SA
ATOM     12  C   UNL d   1       0.863  -2.119  -0.042  0.00  0.00     0.044 C 
ATOM     13  C   UNL d   1       2.909  -0.692   0.025  0.00  0.00     0.044 A 
ATOM     14  C   UNL d   1       3.579   0.529   0.056  0.00  0.00     0.068 A 
ATOM     15  C   UNL d   1       2.834   1.701   0.093  0.00  0.00     0.037 A 
ATOM     16  H   UNL d   1      -1.047   2.400  -0.181  0.00  0.00     0.168 HD
ATOM     17  H   UNL d   1      -4.482   0.400   0.311  0.00  0.00     0.163 HD
ENDROOT
BRANCH   3  18
ATOM     18  C   UNL d   1      -3.366  -1.244  -1.523  0.00  0.00    -0.030 A 
ATOM     19  C   UNL d   1      -3.058  -0.413  -2.617  0.00  0.00     0.028 A 
ATOM     20  C   UNL d   1      -3.624  -0.647  -3.865  0.00  0.00     0.011 A 
ATOM     21 BR   UNL d   1      -3.274   0.549  -5.285  0.00  0.00    -0.051 Br
ATOM     22  C   UNL d   1      -4.473  -1.732  -4.059  0.00  0.00     0.019 A 
ATOM     23  C   UNL d   1      -4.751  -2.591  -2.997  0.00  0.00     0.002 A 
ATOM     24  C   UNL d   1      -4.208  -2.346  -1.736  0.00  0.00     0.009 A 
ENDBRANCH   3  18
BRANCH  14  25
ATOM     25  O   UNL d   1       4.942   0.441   0.043  0.00  0.00    -0.356 OA
ATOM     26  C   UNL d   1       5.660   1.669   0.067  0.00  0.00     0.210 C 
ENDBRANCH  14  25
TORSDOF 2
