REMARK  5 active torsions:
REMARK  status: ('A' for Active; 'I' for Inactive)
REMARK    1  A    between atoms: C_6  and  C_1 
REMARK    2  A    between atoms: O_14  and  C_2 
REMARK    3  A    between atoms: C_9  and  C_6 
REMARK    4  A    between atoms: C_7  and  C_10 
REMARK    5  A    between atoms: C_12  and  C_9 
ROOT
ATOM      1  C   UNL d   1       1.769  -0.807  -0.166  0.00  0.00     0.059 C 
ATOM      2  C   UNL d   1       1.468   0.507  -0.189  0.00  0.00     0.091 C 
ATOM      3  C   UNL d   1       0.672  -1.790  -0.439  0.00  0.00     0.297 C 
ATOM      4  O   UNL d   1      -0.492  -1.329  -1.030  0.00  0.00    -0.274 OA
ATOM      5  C   UNL d   1       0.119   0.964  -0.542  0.00  0.00     0.032 A 
ATOM      6  C   UNL d   1      -0.796   0.036  -1.019  0.00  0.00     0.092 A 
ATOM      7  O   UNL d   1       0.826  -2.985  -0.205  0.00  0.00    -0.259 OA
ATOM      8  C   UNL d   1      -0.283   2.304  -0.461  0.00  0.00     0.017 A 
ATOM      9  C   UNL d   1      -2.063   0.410  -1.467  0.00  0.00     0.038 A 
ATOM     10  C   UNL d   1      -1.560   2.693  -0.879  0.00  0.00     0.001 A 
ATOM     11  C   UNL d   1      -2.443   1.748  -1.399  0.00  0.00     0.003 A 
ENDROOT
BRANCH   1  12
ATOM     12  C   UNL d   1       3.080  -1.538   0.081  0.00  0.00     0.131 C 
BRANCH  12  13
ATOM     13  C   UNL d   1       4.358  -0.737   0.278  0.00  0.00     0.164 C 
ATOM     14  O   UNL d   1       4.369   0.371   0.809  0.00  0.00    -0.292 OA
BRANCH  13  15
ATOM     15  C   UNL d   1       5.664  -1.325  -0.118  0.00  0.00     0.010 A 
ATOM     16  C   UNL d   1       6.688  -0.442  -0.489  0.00  0.00     0.016 A 
ATOM     17  C   UNL d   1       7.973  -0.921  -0.745  0.00  0.00     0.017 A 
ATOM     18  C   UNL d   1       8.258  -2.288  -0.620  0.00  0.00     0.048 A 
ATOM     19  C   UNL d   1       7.217  -3.172  -0.288  0.00  0.00     0.017 A 
ATOM     20  C   UNL d   1       5.923  -2.695  -0.039  0.00  0.00     0.016 A 
BRANCH  18  21
ATOM     21  C   UNL d   1       9.678  -2.773  -0.805  0.00  0.00     0.417 C 
ATOM     22  F   UNL d   1       9.829  -4.109  -0.595  0.00  0.00    -0.166 F 
ATOM     23  F   UNL d   1      10.154  -2.532  -2.057  0.00  0.00    -0.166 F 
ATOM     24  F   UNL d   1      10.545  -2.161   0.049  0.00  0.00    -0.166 F 
ENDBRANCH  18  21
ENDBRANCH  13  15
ENDBRANCH  12  13
ENDBRANCH   1  12
BRANCH   2  25
ATOM     25  O   UNL d   1       2.336   1.546   0.054  0.00  0.00    -0.359 OA
ATOM     26  H   UNL d   1       3.163   1.222   0.466  0.00  0.00     0.217 HD
ENDBRANCH   2  25
TORSDOF 5
