REMARK  4 active torsions:
REMARK  status: ('A' for Active; 'I' for Inactive)
REMARK    1  A    between atoms: N_11  and  C_3 
REMARK    2  A    between atoms: C_9  and  C_4 
REMARK    3  A    between atoms: O_15  and  C_5 
REMARK    4  A    between atoms: C_8  and  C_9 
ROOT
ATOM      1  N   UNL d   1      -0.742   1.159  -0.169  0.00  0.00    -0.170 N 
ATOM      2  HN  UNL d   1      -1.214   2.054  -0.294  1.00  0.00     0.186 HD
ATOM      3  C   UNL d   1      -1.435   0.031   0.003  0.00  0.00     0.682 A 
ATOM      4  C   UNL d   1       1.313  -0.100  -0.041  0.00  0.00     0.020 A 
ATOM      5  C   UNL d   1       0.597   1.075  -0.173  0.00  0.00     0.163 A 
ATOM      6  N   UNL d   1      -0.833  -1.157   0.139  0.00  0.00    -0.195 N 
ATOM      7  HN  UNL d   1      -1.388  -2.006   0.250  1.00  0.00     0.184 HD
ATOM      8  C   UNL d   1       0.517  -1.223   0.127  0.00  0.00     0.033 A 
ATOM      9  C   UNL d   1       1.064  -2.613   0.274  0.00  0.00     0.069 C 
ENDROOT
BRANCH   4  10
ATOM     10  C   UNL d   1       2.818  -0.146  -0.072  0.00  0.00     0.088 C 
BRANCH  10  11
ATOM     11  C   UNL d   1       3.519   0.299   1.200  0.00  0.00     0.007 A 
ATOM     12  C   UNL d   1       3.061  -0.117   2.460  0.00  0.00     0.124 A 
ATOM     13  F   UNL d   1       2.005  -0.932   2.567  0.00  0.00    -0.205 F 
ATOM     14  C   UNL d   1       3.674   0.281   3.647  0.00  0.00     0.043 A 
ATOM     15  C   UNL d   1       4.797   1.095   3.605  0.00  0.00     0.005 A 
ATOM     16  C   UNL d   1       5.310   1.485   2.370  0.00  0.00     0.024 A 
ATOM     17  C   UNL d   1       4.686   1.084   1.180  0.00  0.00     0.043 A 
ATOM     18 CL   UNL d   1       5.426   1.596  -0.296  0.00  0.00    -0.084 Cl
ENDBRANCH  10  11
ENDBRANCH   4  10
BRANCH   5  19
ATOM     19  O   UNL d   1       1.202   2.287  -0.339  0.00  0.00    -0.345 OA
ATOM     20  H   UNL d   1       2.067   2.264   0.092  0.00  0.00     0.219 HD
ENDBRANCH   5  19
BRANCH   3  21
ATOM     21  N   UNL d   1      -2.802   0.082   0.064  0.00  0.00    -0.213 N 
ATOM     22  C   UNL d   1      -3.607  -1.123   0.239  0.00  0.00     0.167 C 
ATOM     23  C   UNL d   1      -4.577  -1.270  -0.942  0.00  0.00     0.188 C 
ATOM     24  O   UNL d   1      -5.369  -0.083  -1.127  0.00  0.00    -0.388 OA
ATOM     25  C   UNL d   1      -4.518   1.050  -1.385  0.00  0.00     0.188 C 
ATOM     26  C   UNL d   1      -3.542   1.305  -0.225  0.00  0.00     0.167 C 
ENDBRANCH   3  21
TORSDOF 4
