REMARK  6 active torsions:
REMARK  status: ('A' for Active; 'I' for Inactive)
REMARK    1  A    between atoms: C_7  and  S_1 
REMARK    2  A    between atoms: C_14  and  S_1 
REMARK    3  A    between atoms: C_11  and  C_4 
REMARK    4  A    between atoms: C_5  and  C_7 
REMARK    5  A    between atoms: C_6  and  C_10 
REMARK    6  A    between atoms: C_17  and  C_14 
ROOT
ATOM      1  S   UNL d   1       0.935  -0.145  -0.158  0.00  0.00     0.154 S 
ATOM      2  O   UNL d   1       2.365   0.108  -0.220  0.00  0.00    -0.227 OA
ATOM      3  O   UNL d   1       0.178  -0.311  -1.388  0.00  0.00    -0.227 OA
ENDROOT
BRANCH   1   4
ATOM      4  C   UNL d   1       0.163   1.203   0.712  0.00  0.00     0.205 C 
BRANCH   4   5
ATOM      5  C   UNL d   1       0.770   1.363   2.058  0.00  0.00     0.065 A 
ATOM      6  N   UNL d   1       0.293   0.814   3.158  0.00  0.00    -0.352 N 
ATOM      7  C   UNL d   1       1.015   1.251   4.265  0.00  0.00     0.049 A 
ATOM      8  HN  UNL d   1      -0.492   0.164   3.193  1.00  0.00     0.166 HD
ATOM      9  C   UNL d   1       2.075   2.085   3.965  0.00  0.00     0.081 A 
ATOM     10  S   UNL d   1       2.127   2.397   2.284  0.00  0.00    -0.085 SA
BRANCH   7  11
ATOM     11  C   UNL d   1       0.685   0.820   5.621  0.00  0.00    -0.006 A 
ATOM     12  C   UNL d   1       0.073  -0.422   5.824  0.00  0.00     0.056 A 
ATOM     13  C   UNL d   1      -0.204  -0.856   7.118  0.00  0.00     0.117 A 
ATOM     14  F   UNL d   1      -0.770  -2.057   7.300  0.00  0.00    -0.206 F 
ATOM     15  C   UNL d   1       0.102  -0.072   8.224  0.00  0.00     0.042 A 
ATOM     16  C   UNL d   1       0.685   1.177   8.036  0.00  0.00     0.004 A 
ATOM     17  C   UNL d   1       0.971   1.622   6.740  0.00  0.00     0.014 A 
ENDBRANCH   7  11
ENDBRANCH   4   5
ENDBRANCH   1   4
BRANCH   1  18
ATOM     18  C   UNL d   1       0.637  -1.577   0.878  0.00  0.00     0.179 C 
BRANCH  18  19
ATOM     19  C   UNL d   1       1.204  -2.810   0.213  0.00  0.00    -0.043 A 
ATOM     20  C   UNL d   1       2.542  -3.183   0.425  0.00  0.00     0.024 A 
ATOM     21  C   UNL d   1       3.075  -4.341  -0.167  0.00  0.00     0.048 A 
ATOM     22  C   UNL d   1       2.244  -5.136  -0.969  0.00  0.00     0.016 A 
ATOM     23  C   UNL d   1       0.921  -4.764  -1.203  0.00  0.00     0.001 A 
ATOM     24  C   UNL d   1       0.407  -3.603  -0.623  0.00  0.00     0.008 A 
BRANCH  21  25
ATOM     25  C   UNL d   1       4.516  -4.738   0.039  0.00  0.00     0.417 C 
ATOM     26  F   UNL d   1       5.229  -3.851   0.788  0.00  0.00    -0.166 F 
ATOM     27  F   UNL d   1       4.639  -5.939   0.672  0.00  0.00    -0.166 F 
ATOM     28  F   UNL d   1       5.197  -4.867  -1.135  0.00  0.00    -0.166 F 
ENDBRANCH  21  25
ENDBRANCH  18  19
ENDBRANCH   1  18
TORSDOF 6
