REMARK  6 active torsions:
REMARK  status: ('A' for Active; 'I' for Inactive)
REMARK       I    between atoms: N_3  and  C_1 
REMARK    1  A    between atoms: C_12  and  C_1 
REMARK    2  A    between atoms: C_2  and  N_3 
REMARK    3  A    between atoms: C_4  and  C_14 
REMARK    4  A    between atoms: O_17  and  C_4 
REMARK    5  A    between atoms: C_5  and  C_12 
REMARK    6  A    between atoms: C_14  and  C_5 
ROOT
ATOM      1  C   UNL d   1       0.793  -0.124   0.725  0.00  0.00     0.222 C 
ATOM      2  N   UNL d   1      -0.167  -0.584  -0.158  0.00  0.00    -0.327 N 
ATOM      3  O   UNL d   1       0.558   0.266   1.868  0.00  0.00    -0.273 OA
ATOM      4  H   UNL d   1       0.157  -1.081  -0.982  0.00  0.00     0.169 HD
ENDROOT
BRANCH   1   5
ATOM      5  C   UNL d   1       2.208  -0.078   0.155  0.00  0.00     0.112 C 
BRANCH   5   6
ATOM      6  C   UNL d   1       3.354  -0.417   1.158  0.00  0.00    -0.030 C 
ATOM      7  C   UNL d   1       4.708  -0.251   0.429  0.00  0.00     0.016 C 
ATOM      8  C   UNL d   1       3.399   0.559   2.360  0.00  0.00     0.016 C 
BRANCH   6   9
ATOM      9  C   UNL d   1       3.204  -1.842   1.750  0.00  0.00     0.119 C 
BRANCH   9  10
ATOM     10  C   UNL d   1       3.170  -2.995   0.770  0.00  0.00     0.140 C 
ATOM     11  O   UNL d   1       3.319  -2.915  -0.436  0.00  0.00    -0.650 OA
BRANCH  10  12
ATOM     12  O   UNL d   1       2.932  -4.174   1.392  0.00  0.00    -0.776 OA
ATOM     13  H   UNL d   1       2.820  -4.095   2.358  0.00  0.00     0.167 HD
ENDBRANCH  10  12
ENDBRANCH   9  10
ENDBRANCH   6   9
ENDBRANCH   5   6
ENDBRANCH   1   5
BRANCH   2  14
ATOM     14  C   UNL d   1      -1.573  -0.485   0.015  0.00  0.00     0.037 A 
ATOM     15  C   UNL d   1      -2.169   0.292   1.016  0.00  0.00     0.053 A 
ATOM     16  C   UNL d   1      -3.558   0.416   1.091  0.00  0.00     0.037 A 
ATOM     17 CL   UNL d   1      -4.260   1.394   2.323  0.00  0.00    -0.084 Cl
ATOM     18  C   UNL d   1      -4.379  -0.228   0.176  0.00  0.00     0.048 A 
ATOM     19  C   UNL d   1      -3.794  -1.015  -0.811  0.00  0.00     0.037 A 
ATOM     20  C   UNL d   1      -2.403  -1.148  -0.897  0.00  0.00     0.053 A 
ATOM     21 CL   UNL d   1      -4.802  -1.825  -1.949  0.00  0.00    -0.084 Cl
ENDBRANCH   2  14
TORSDOF 6
