REMARK  1 active torsions:
REMARK  status: ('A' for Active; 'I' for Inactive)
REMARK    1  A    between atoms: C_6  and  N_1 
ROOT
ATOM      1  N   UNL d   1      -2.289  -0.038  -0.304  0.00  0.00    -0.252 N 
ATOM      2  C   UNL d   1      -1.494   1.087  -0.276  0.00  0.00     0.236 C 
ATOM      3  C   UNL d   1      -1.579  -1.149   0.094  0.00  0.00     0.236 C 
ATOM      4  C   UNL d   1      -0.296   0.793   0.601  0.00  0.00     0.096 C 
ATOM      5  C   UNL d   1      -0.274  -0.717   0.725  0.00  0.00     0.096 C 
ATOM      6  C   UNL d   1       0.975   1.514   0.176  0.00  0.00     0.049 C 
ATOM      7  C   UNL d   1       0.928  -1.478   0.167  0.00  0.00     0.049 C 
ATOM      8  C   UNL d   1       2.062   0.679  -0.439  0.00  0.00    -0.081 C 
ATOM      9  C   UNL d   1       2.043  -0.668  -0.439  0.00  0.00    -0.081 C 
ATOM     10  O   UNL d   1      -1.893  -2.327  -0.032  0.00  0.00    -0.272 OA
ATOM     11  O   UNL d   1      -1.718   2.197  -0.740  0.00  0.00    -0.272 OA
ATOM     12  C   UNL d   1       3.221   1.467  -1.001  0.00  0.00     0.043 C 
ATOM     13  C   UNL d   1       3.187  -1.480  -0.998  0.00  0.00     0.043 C 
ENDROOT
BRANCH   1  14
ATOM     14  C   UNL d   1      -3.673  -0.055  -0.668  0.00  0.00     0.048 A 
ATOM     15  C   UNL d   1      -4.523  -1.049  -0.155  0.00  0.00     0.070 A 
ATOM     16  C   UNL d   1      -5.886  -0.959  -0.384  0.00  0.00     0.107 A 
ATOM     17  O   UNL d   1      -6.831  -1.797   0.120  0.00  0.00    -0.323 OA
ATOM     18  C   UNL d   1      -6.425   0.049  -1.137  0.00  0.00     0.105 A 
ATOM     19  C   UNL d   1      -8.034  -1.166  -0.366  0.00  0.00     0.352 A 
ATOM     20  O   UNL d   1      -7.779  -0.033  -1.222  0.00  0.00    -0.323 OA
ATOM     21  C   UNL d   1      -5.635   1.024  -1.700  0.00  0.00     0.042 A 
ATOM     22  C   UNL d   1      -4.254   0.972  -1.449  0.00  0.00     0.033 A 
ENDBRANCH   1  14
TORSDOF 1
