REMARK  3 active torsions:
REMARK  status: ('A' for Active; 'I' for Inactive)
REMARK    1  A    between atoms: C_2  and  C_1 
REMARK       I    between atoms: N_3  and  C_2 
REMARK       I    between atoms: C_5  and  N_6 
REMARK    2  A    between atoms: C_13  and  C_5 
REMARK    3  A    between atoms: N_6  and  C_14 
ROOT
ATOM      1  C   UNL d   1      -2.649  -2.343  -0.018  0.00  0.00     0.255 C 
ATOM      2  N   UNL d   1      -2.452  -3.728  -0.056  0.00  0.00    -0.348 N 
ATOM      3  O   UNL d   1      -2.246  -1.664   0.929  0.00  0.00    -0.267 OA
ATOM      4  C   UNL d   1      -1.870  -4.415   1.096  0.00  0.00     0.128 C 
ATOM      5  C   UNL d   1      -2.981  -4.665  -1.061  0.00  0.00     0.128 C 
ATOM      6  C   UNL d   1      -3.618  -6.257   0.761  0.00  0.00     0.087 C 
ATOM      7  C   UNL d   1      -4.139  -5.439  -0.427  0.00  0.00     0.045 C 
ATOM      8  C   UNL d   1      -2.897  -5.340   1.765  0.00  0.00     0.045 C 
ENDROOT
BRANCH   1   9
ATOM      9  C   UNL d   1      -3.387  -1.636  -1.126  0.00  0.00     0.053 C 
ATOM     10  C   UNL d   1      -2.989  -0.408  -1.649  0.00  0.00     0.051 C 
ATOM     11  C   UNL d   1      -3.707   0.185  -2.715  0.00  0.00     0.048 C 
ATOM     12 CL   UNL d   1      -1.634   0.500  -1.065  0.00  0.00    -0.083 Cl
ATOM     13  C   UNL d   1      -4.784  -0.484  -3.289  0.00  0.00     0.035 C 
ATOM     14  C   UNL d   1      -5.202  -1.696  -2.772  0.00  0.00     0.025 C 
ATOM     15 CL   UNL d   1      -5.635   0.200  -4.616  0.00  0.00    -0.084 Cl
ATOM     16  C   UNL d   1      -4.553  -2.215  -1.652  0.00  0.00     0.020 C 
ENDBRANCH   1   9
BRANCH   6  17
ATOM     17  N   UNL d   1      -2.754  -7.343   0.310  0.00  0.00    -0.352 N 
ATOM     18  C   UNL d   1      -3.288  -8.533  -0.146  0.00  0.00     0.252 C 
ATOM     19  O   UNL d   1      -4.491  -8.766  -0.154  0.00  0.00    -0.268 OA
ATOM     20  H   UNL d   1      -1.800  -7.122   0.061  0.00  0.00     0.163 HD
BRANCH  18  21
ATOM     21  C   UNL d   1      -2.325  -9.546  -0.666  0.00  0.00     0.032 A 
ATOM     22  C   UNL d   1      -0.974  -9.560  -0.294  0.00  0.00     0.017 A 
ATOM     23  C   UNL d   1      -0.133 -10.577  -0.755  0.00  0.00     0.001 A 
ATOM     24  C   UNL d   1      -0.636 -11.582  -1.581  0.00  0.00     0.000 A 
ATOM     25  C   UNL d   1      -1.977 -11.569  -1.961  0.00  0.00     0.001 A 
ATOM     26  C   UNL d   1      -2.819 -10.553  -1.507  0.00  0.00     0.017 A 
ENDBRANCH  18  21
ENDBRANCH   6  17
TORSDOF 3
