REMARK  3 active torsions:
REMARK  status: ('A' for Active; 'I' for Inactive)
REMARK    1  A    between atoms: C_2  and  C_6 
REMARK    2  A    between atoms: C_5  and  C_2 
REMARK    3  A    between atoms: C_6  and  C_7 
ROOT
ATOM      1  N   UNL d   1       5.584   0.271   2.157  0.00  0.00    -0.197 NA
ATOM      2  C   UNL d   1       5.563   0.506   1.020  0.00  0.00     0.059 C 
ATOM      3  C   UNL d   1       5.516   0.769  -0.426  0.00  0.00     0.136 C 
ENDROOT
BRANCH   3   4
ATOM      4  C   UNL d   1       4.127   1.254  -0.872  0.00  0.00     0.069 C 
ATOM      5  C   UNL d   1       4.094   1.405  -2.393  0.00  0.00     0.019 C 
BRANCH   4   6
ATOM      6  C   UNL d   1       3.795   2.603  -0.235  0.00  0.00     0.164 C 
ATOM      7  O   UNL d   1       4.691   3.369   0.120  0.00  0.00    -0.292 OA
BRANCH   6   8
ATOM      8  C   UNL d   1       2.367   3.030  -0.088  0.00  0.00     0.010 A 
ATOM      9  C   UNL d   1       1.291   2.270  -0.567  0.00  0.00     0.015 A 
ATOM     10  C   UNL d   1      -0.018   2.747  -0.449  0.00  0.00     0.001 A 
ATOM     11  C   UNL d   1      -0.264   3.978   0.154  0.00  0.00     0.000 A 
ATOM     12  C   UNL d   1       0.797   4.733   0.652  0.00  0.00     0.001 A 
ATOM     13  C   UNL d   1       2.106   4.261   0.532  0.00  0.00     0.015 A 
ENDBRANCH   6   8
ENDBRANCH   4   6
ENDBRANCH   3   4
TORSDOF 3
