REMARK  5 active torsions:
REMARK  status: ('A' for Active; 'I' for Inactive)
REMARK       I    between atoms: C_4  and  N_5 
REMARK    1  A    between atoms: C_21  and  C_4 
REMARK    2  A    between atoms: N_5  and  C_6 
REMARK    3  A    between atoms: S_13  and  C_21 
REMARK    4  A    between atoms: C_22  and  S_13 
REMARK    5  A    between atoms: C_16  and  C_22 
ROOT
ATOM      1  C   UNL d   1      -4.249   2.445   0.012  0.00  0.00     0.231 C 
ATOM      2  N   UNL d   1      -4.479   1.462  -0.935  0.00  0.00    -0.326 N 
ATOM      3  O   UNL d   1      -3.315   2.476   0.813  0.00  0.00    -0.272 OA
ATOM      4  H   UNL d   1      -5.366   1.537  -1.424  0.00  0.00     0.169 HD
ENDROOT
BRANCH   1   5
ATOM      5  C   UNL d   1      -5.258   3.587  -0.036  0.00  0.00     0.177 C 
BRANCH   5   6
ATOM      6  S   UNL d   1      -6.960   2.936  -0.019  0.00  0.00    -0.155 SA
BRANCH   6   7
ATOM      7  C   UNL d   1      -7.866   4.503   0.179  0.00  0.00     0.112 C 
BRANCH   7   8
ATOM      8  C   UNL d   1      -9.343   4.224   0.318  0.00  0.00    -0.047 A 
ATOM      9  C   UNL d   1     -10.139   4.032  -0.822  0.00  0.00     0.033 A 
ATOM     10  C   UNL d   1     -11.490   3.687  -0.700  0.00  0.00     0.056 A 
ATOM     11 CL   UNL d   1     -12.389   3.442  -2.156  0.00  0.00    -0.083 Cl
ATOM     12  C   UNL d   1     -12.058   3.535   0.568  0.00  0.00     0.055 A 
ATOM     13  C   UNL d   1     -11.274   3.733   1.708  0.00  0.00     0.026 A 
ATOM     14 CL   UNL d   1     -13.712   3.090   0.796  0.00  0.00    -0.083 Cl
ATOM     15  C   UNL d   1      -9.924   4.072   1.585  0.00  0.00     0.010 A 
ENDBRANCH   7   8
ENDBRANCH   6   7
ENDBRANCH   5   6
ENDBRANCH   1   5
BRANCH   2  16
ATOM     16  C   UNL d   1      -3.751   0.271  -1.127  0.00  0.00     0.036 A 
ATOM     17  C   UNL d   1      -2.521   0.006  -0.515  0.00  0.00     0.056 A 
ATOM     18  C   UNL d   1      -1.886  -1.222  -0.717  0.00  0.00     0.074 A 
ATOM     19  C   UNL d   1      -2.473  -2.185  -1.533  0.00  0.00     0.138 A 
ATOM     20 CL   UNL d   1      -0.379  -1.535   0.057  0.00  0.00    -0.081 Cl
ATOM     21  C   UNL d   1      -3.683  -1.927  -2.167  0.00  0.00     0.046 A 
ATOM     22  F   UNL d   1      -1.887  -3.376  -1.724  0.00  0.00    -0.204 F 
ATOM     23  C   UNL d   1      -4.317  -0.698  -1.969  0.00  0.00     0.032 A 
ENDBRANCH   2  16
TORSDOF 5
