REMARK  3 active torsions:
REMARK  status: ('A' for Active; 'I' for Inactive)
REMARK    1  A    between atoms: N_2  and  C_1 
REMARK    2  A    between atoms: C_14  and  C_9 
REMARK    3  A    between atoms: C_15  and  C_14 
ROOT
ATOM      1  C   UNL d   1       0.030  -0.362  -0.013  0.00  0.00     0.073 A 
ATOM      2  C   UNL d   1       1.215   0.400  -0.084  0.00  0.00     0.040 A 
ATOM      3  C   UNL d   1      -1.200   0.330   0.049  0.00  0.00     0.040 A 
ATOM      4  C   UNL d   1       1.163   1.806  -0.078  0.00  0.00     0.028 A 
ATOM      5  C   UNL d   1      -1.231   1.736   0.015  0.00  0.00     0.028 A 
ATOM      6  C   UNL d   1      -0.055   2.487  -0.031  0.00  0.00    -0.055 A 
ATOM      7 BR   UNL d   1      -2.900  -0.480   0.362  0.00  0.00    -0.049 Br
ATOM      8 BR   UNL d   1       2.964  -0.309  -0.375  0.00  0.00    -0.049 Br
ENDROOT
BRANCH   1   9
ATOM      9  N   UNL d   1       0.070  -1.788  -0.016  0.00  0.00    -0.330 N 
ATOM     10  C   UNL d   1       0.937  -2.592   0.703  0.00  0.00     0.097 A 
ATOM     11  C   UNL d   1       0.683  -3.915   0.416  0.00  0.00     0.019 A 
ATOM     12  C   UNL d   1      -0.399  -3.947  -0.486  0.00  0.00     0.019 A 
ATOM     13  C   UNL d   1      -0.744  -2.636  -0.744  0.00  0.00     0.097 A 
ENDBRANCH   1   9
BRANCH   6  14
ATOM     14  C   UNL d   1      -0.089   3.997  -0.060  0.00  0.00     0.038 C 
BRANCH  14  15
ATOM     15  C   UNL d   1      -0.815   4.647   1.124  0.00  0.00     0.000 C 
ATOM     16  C   UNL d   1      -0.165   4.344   2.466  0.00  0.00     0.005 C 
ENDBRANCH  14  15
ENDBRANCH   6  14
TORSDOF 3
