REMARK  7 active torsions:
REMARK  status: ('A' for Active; 'I' for Inactive)
REMARK    1  A    between atoms: N_2  and  S_1 
REMARK    2  A    between atoms: C_5  and  S_1 
REMARK    3  A    between atoms: C_6  and  N_2 
REMARK    4  A    between atoms: N_3  and  C_10 
REMARK    5  A    between atoms: O_7  and  C_4 
REMARK    6  A    between atoms: C_19  and  C_6 
REMARK    7  A    between atoms: C_14  and  O_7 
ROOT
ATOM      1  C   UNL d   1      -0.406  -1.756  -4.048  0.00  0.00     0.119 A 
ATOM      2  C   UNL d   1       0.356  -0.808  -1.525  0.00  0.00     0.083 A 
ATOM      3  C   UNL d   1      -0.774  -0.466  -3.635  0.00  0.00     0.071 A 
ATOM      4  C   UNL d   1       0.270  -2.590  -3.145  0.00  0.00     0.071 A 
ATOM      5  C   UNL d   1       0.640  -2.124  -1.883  0.00  0.00     0.052 A 
ATOM      6  C   UNL d   1      -0.359   0.022  -2.392  0.00  0.00     0.052 A 
ATOM      7 CL   UNL d   1       0.679  -4.220  -3.550  0.00  0.00    -0.081 Cl
ATOM      8 CL   UNL d   1      -1.780   0.575  -4.581  0.00  0.00    -0.081 Cl
ENDROOT
BRANCH   2   9
ATOM      9  S   UNL d   1       0.889  -0.118   0.024  0.00  0.00     0.264 S 
ATOM     10  O   UNL d   1       1.776   0.978  -0.291  0.00  0.00    -0.200 OA
ATOM     11  O   UNL d   1      -0.295   0.034   0.838  0.00  0.00    -0.200 OA
BRANCH   9  12
ATOM     12  N   UNL d   1       1.792  -1.327   0.733  0.00  0.00    -0.265 N 
ATOM     13  H   UNL d   1       1.247  -1.824   1.432  0.00  0.00     0.180 HD
BRANCH  12  14
ATOM     14  C   UNL d   1       3.062  -1.766   0.337  0.00  0.00     0.118 C 
ATOM     15  N   UNL d   1       3.815  -1.072  -0.437  0.00  0.00    -0.384 N 
ATOM     16  H   UNL d   1       3.404  -0.141  -0.602  0.00  0.00     0.157 HD
ATOM     17  HN  UNL d   1       4.697  -1.397  -0.834  1.00  0.00     0.157 HD
BRANCH  14  18
ATOM     18  C   UNL d   1       3.468  -3.118   0.802  0.00  0.00     0.008 A 
ATOM     19  C   UNL d   1       4.314  -3.865  -0.033  0.00  0.00     0.017 A 
ATOM     20  C   UNL d   1       4.696  -5.161   0.321  0.00  0.00     0.025 A 
ATOM     21  C   UNL d   1       4.237  -5.712   1.514  0.00  0.00     0.034 A 
ATOM     22  C   UNL d   1       3.391  -4.983   2.349  0.00  0.00     0.025 A 
ATOM     23 CL   UNL d   1       4.724  -7.299   1.965  0.00  0.00    -0.084 Cl
ATOM     24  C   UNL d   1       2.999  -3.686   1.993  0.00  0.00     0.017 A 
ENDBRANCH  14  18
ENDBRANCH  12  14
ENDBRANCH   9  12
ENDBRANCH   2   9
BRANCH   1  25
ATOM     25  O   UNL d   1      -0.738  -2.308  -5.266  0.00  0.00    -0.306 OA
BRANCH  25  26
ATOM     26  C   UNL d   1      -0.436  -1.624  -6.425  0.00  0.00     0.098 A 
ATOM     27  C   UNL d   1      -1.287  -1.825  -7.523  0.00  0.00     0.070 A 
ATOM     28  C   UNL d   1      -1.110  -1.099  -8.702  0.00  0.00     0.062 A 
ATOM     29 CL   UNL d   1      -2.596  -2.950  -7.445  0.00  0.00    -0.081 Cl
ATOM     30  C   UNL d   1      -0.066  -0.172  -8.781  0.00  0.00     0.104 A 
ATOM     31  C   UNL d   1       0.832  -0.010  -7.717  0.00  0.00     0.039 A 
ATOM     32  C   UNL d   1       0.659  -0.756  -6.547  0.00  0.00     0.041 A 
BRANCH  30  33
ATOM     33  N   UNL d   1       0.082   0.651  -9.988  0.00  0.00    -0.116 N 
ATOM     34  O   UNL d   1      -0.672   0.413 -10.941  0.00  0.00    -0.532 OA
ATOM     35  O   UNL d   1       0.946   1.538  -9.976  0.00  0.00    -0.532 OA
ENDBRANCH  30  33
ENDBRANCH  25  26
ENDBRANCH   1  25
TORSDOF 7
