REMARK  3 active torsions:
REMARK  status: ('A' for Active; 'I' for Inactive)
REMARK    1  A    between atoms: N_9  and  C_1 
REMARK    2  A    between atoms: C_10  and  N_6 
REMARK    3  A    between atoms: C_8  and  C_10 
ROOT
ATOM      1  C   UNL d   1      -0.108  -1.375   0.095  0.00  0.00     0.709 A 
ATOM      2  N   UNL d   1       1.125  -0.893   0.301  0.00  0.00    -0.116 N 
ATOM      3  HN  UNL d   1       1.983  -1.387   0.547  1.00  0.00     0.207 HD
ATOM      4  N   UNL d   1      -1.007  -0.378  -0.210  0.00  0.00    -0.113 N 
ATOM      5  HN  UNL d   1      -2.003  -0.498  -0.396  1.00  0.00     0.203 HD
ATOM      6  N   UNL d   1       0.919   0.419   0.094  0.00  0.00    -0.199 N 
ATOM      7  N   UNL d   1      -0.339   0.766  -0.216  0.00  0.00     0.011 NA
ENDROOT
BRANCH   6   8
ATOM      8  C   UNL d   1       2.018   1.367   0.015  0.00  0.00     0.209 C 
BRANCH   8   9
ATOM      9  C   UNL d   1       2.323   1.994   1.355  0.00  0.00     0.006 A 
ATOM     10  C   UNL d   1       3.261   1.422   2.236  0.00  0.00     0.043 A 
ATOM     11 CL   UNL d   1       4.184   0.020   1.821  0.00  0.00    -0.084 Cl
ATOM     12  C   UNL d   1       3.509   1.984   3.495  0.00  0.00     0.024 A 
ATOM     13  C   UNL d   1       2.827   3.124   3.904  0.00  0.00     0.003 A 
ATOM     14  C   UNL d   1       1.903   3.712   3.048  0.00  0.00     0.024 A 
ATOM     15  C   UNL d   1       1.652   3.155   1.787  0.00  0.00     0.043 A 
ATOM     16 CL   UNL d   1       0.505   3.982   0.792  0.00  0.00    -0.084 Cl
ENDBRANCH   8   9
ENDBRANCH   6   8
BRANCH   1  17
ATOM     17  N   UNL d   1      -0.478  -2.681   0.119  0.00  0.00    -0.215 N 
ATOM     18  C   UNL d   1      -1.903  -3.008   0.203  0.00  0.00     0.141 C 
ATOM     19  C   UNL d   1      -2.161  -4.399  -0.377  0.00  0.00     0.020 C 
ATOM     20  C   UNL d   1      -1.266  -5.452   0.267  0.00  0.00     0.003 C 
ATOM     21  C   UNL d   1       0.199  -5.041   0.167  0.00  0.00     0.020 C 
ATOM     22  C   UNL d   1       0.430  -3.644   0.744  0.00  0.00     0.141 C 
ENDBRANCH   1  17
TORSDOF 3
