REMARK  3 active torsions:
REMARK  status: ('A' for Active; 'I' for Inactive)
REMARK    1  A    between atoms: C_2  and  C_1 
REMARK    2  A    between atoms: N_13  and  C_1 
REMARK    3  A    between atoms: O_14  and  N_7 
ROOT
ATOM      1  C   UNL d   1       2.411   0.031  -0.037  0.00  0.00     0.006 A 
ATOM      2  C   UNL d   1       4.472   0.972  -0.748  0.00  0.00     0.105 A 
ATOM      3  C   UNL d   1       3.095   0.990  -0.793  0.00  0.00     0.054 A 
ATOM      4  C   UNL d   1       5.163   0.043  -0.005  0.00  0.00     0.105 A 
ATOM      5  O   UNL d   1       5.299   1.834  -1.399  0.00  0.00    -0.323 OA
ATOM      6  O   UNL d   1       6.511   0.200  -0.103  0.00  0.00    -0.323 OA
ATOM      7  C   UNL d   1       6.588   1.362  -0.954  0.00  0.00     0.352 A 
ATOM      8  C   UNL d   1       3.121  -0.920   0.729  0.00  0.00     0.018 A 
ATOM      9  C   UNL d   1       4.519  -0.920   0.740  0.00  0.00     0.040 A 
ENDROOT
BRANCH   1  10
ATOM     10  C   UNL d   1       0.920   0.011  -0.037  0.00  0.00     0.108 C 
ATOM     11  N   UNL d   1       0.303  -0.414   1.027  0.00  0.00    -0.258 N 
ATOM     12  HN  UNL d   1       0.769  -0.739   1.875  1.00  0.00     0.195 HD
BRANCH  11  13
ATOM     13  O   UNL d   1      -1.090  -0.366   0.853  0.00  0.00    -0.289 OA
ATOM     14  H   UNL d   1      -1.412  -0.541   1.757  0.00  0.00     0.244 HD
ENDBRANCH  11  13
BRANCH  10  15
ATOM     15  N   UNL d   1       0.252   0.436  -1.162  0.00  0.00    -0.287 NA
ATOM     16  H   UNL d   1       0.679   0.175  -2.042  0.00  0.00     0.125 HD
ATOM     17  H   UNL d   1      -0.724   0.152  -1.105  0.00  0.00     0.125 HD
ENDBRANCH  10  15
ENDBRANCH   1  10
TORSDOF 3
