REMARK  1 active torsions:
REMARK  status: ('A' for Active; 'I' for Inactive)
REMARK    1  A    between atoms: C_5  and  C_3 
ROOT
ATOM      1  C   UNL d   1      -2.081   0.355   0.050  0.00  0.00    -0.006 C 
ATOM      2  C   UNL d   1      -1.106  -0.782   0.011  0.00  0.00     0.189 C 
ATOM      3  C   UNL d   1      -3.288   0.145  -0.505  0.00  0.00     0.030 C 
ATOM      4  C   UNL d   1       0.339  -0.410   0.009  0.00  0.00     0.021 A 
ATOM      5  C   UNL d   1       0.737   0.940  -0.035  0.00  0.00    -0.044 A 
ATOM      6  C   UNL d   1      -1.559   1.623   0.659  0.00  0.00     0.047 C 
ATOM      7  O   UNL d   1      -1.466  -1.951  -0.032  0.00  0.00    -0.287 OA
ATOM      8  C   UNL d   1      -0.284   2.047  -0.060  0.00  0.00     0.044 C 
ATOM      9  C   UNL d   1       1.304  -1.424   0.020  0.00  0.00     0.016 A 
ATOM     10  C   UNL d   1       2.102   1.251  -0.101  0.00  0.00     0.008 A 
ATOM     11  C   UNL d   1       2.661  -1.100  -0.024  0.00  0.00     0.001 A 
ATOM     12  C   UNL d   1       3.058   0.234  -0.091  0.00  0.00     0.001 A 
ENDROOT
BRANCH   3  13
ATOM     13  C   UNL d   1      -4.249   1.182  -0.633  0.00  0.00     0.005 A 
ATOM     14  S   UNL d   1      -4.312   2.110  -2.080  0.00  0.00    -0.102 SA
ATOM     15  C   UNL d   1      -5.617   3.050  -1.506  0.00  0.00     0.050 A 
ATOM     16  C   UNL d   1      -6.012   2.669  -0.244  0.00  0.00     0.008 A 
ATOM     17  C   UNL d   1      -5.223   1.593   0.259  0.00  0.00     0.019 A 
ENDBRANCH   3  13
TORSDOF 1
