REMARK  5 active torsions:
REMARK  status: ('A' for Active; 'I' for Inactive)
REMARK    1  A    between atoms: C_7  and  C_1 
REMARK    2  A    between atoms: C_14  and  C_6 
REMARK    3  A    between atoms: S_21  and  C_15 
REMARK    4  A    between atoms: C_19  and  C_20 
REMARK    5  A    between atoms: C_20  and  S_21 
ROOT
ATOM      1  C   UNL d   1      -3.936  -0.043   0.151  0.00  0.00     0.193 A 
ATOM      2  O   UNL d   1      -4.658  -0.933   0.907  0.00  0.00    -0.266 OA
ATOM      3  N   UNL d   1      -4.720   0.808  -0.488  0.00  0.00    -0.275 N 
ATOM      4  HN  UNL d   1      -4.423   1.562  -1.107  1.00  0.00     0.189 HD
ATOM      5  C   UNL d   1      -5.947  -0.540   0.676  0.00  0.00     0.204 A 
ATOM      6  N   UNL d   1      -6.019   0.478  -0.156  0.00  0.00    -0.272 N 
ATOM      7  HN  UNL d   1      -6.868   0.934  -0.490  1.00  0.00     0.189 HD
ENDROOT
BRANCH   1   8
ATOM      8  C   UNL d   1      -2.445  -0.031   0.079  0.00  0.00     0.103 A 
ATOM      9  N   UNL d   1      -1.641  -0.971   0.680  0.00  0.00    -0.336 N 
ATOM     10  C   UNL d   1      -0.402  -0.610   0.406  0.00  0.00     0.134 A 
ATOM     11  HN  UNL d   1      -1.941  -1.780   1.225  1.00  0.00     0.168 HD
ATOM     12  C   UNL d   1       0.865  -1.177   0.732  0.00  0.00     0.079 A 
ATOM     13  N   UNL d   1      -0.380   0.570  -0.333  0.00  0.00    -0.314 N 
ATOM     14  C   UNL d   1       2.002  -0.549   0.375  0.00  0.00     0.045 A 
ATOM     15 CL   UNL d   1       0.913  -2.681   1.570  0.00  0.00    -0.080 Cl
ATOM     16  C   UNL d   1       1.991   0.725  -0.354  0.00  0.00     0.065 A 
ATOM     17  C   UNL d   1       0.788   1.233  -0.702  0.00  0.00     0.114 A 
ATOM     18  C   UNL d   1      -1.685   0.914  -0.576  0.00  0.00     0.132 A 
BRANCH  16  19
ATOM     19  C   UNL d   1       3.293   1.405  -0.676  0.00  0.00     0.418 C 
ATOM     20  F   UNL d   1       4.375   0.712  -0.240  0.00  0.00    -0.166 F 
ATOM     21  F   UNL d   1       3.446   1.577  -2.013  0.00  0.00    -0.166 F 
ATOM     22  F   UNL d   1       3.359   2.636  -0.109  0.00  0.00    -0.166 F 
ENDBRANCH  16  19
ENDBRANCH   1   8
BRANCH   5  23
ATOM     23  S   UNL d   1      -7.307  -1.296   1.446  0.00  0.00    -0.080 SA
BRANCH  23  24
ATOM     24  C   UNL d   1      -8.611  -0.945   0.231  0.00  0.00     0.126 C 
BRANCH  24  25
ATOM     25  C   UNL d   1      -9.950  -1.465   0.693  0.00  0.00     0.012 A 
ATOM     26  C   UNL d   1     -10.311  -2.783   0.386  0.00  0.00     0.125 A 
ATOM     27  F   UNL d   1      -9.480  -3.549  -0.336  0.00  0.00    -0.205 F 
ATOM     28  C   UNL d   1     -11.519  -3.336   0.809  0.00  0.00     0.043 A 
ATOM     29  C   UNL d   1     -12.403  -2.569   1.560  0.00  0.00     0.005 A 
ATOM     30  C   UNL d   1     -12.070  -1.253   1.879  0.00  0.00     0.024 A 
ATOM     31  C   UNL d   1     -10.852  -0.705   1.451  0.00  0.00     0.044 A 
ATOM     32 CL   UNL d   1     -10.523   0.932   1.895  0.00  0.00    -0.084 Cl
ENDBRANCH  24  25
ENDBRANCH  23  24
ENDBRANCH   5  23
TORSDOF 5
