REMARK  2 active torsions:
REMARK  status: ('A' for Active; 'I' for Inactive)
REMARK    1  A    between atoms: C_15  and  C_7 
REMARK    2  A    between atoms: S_16  and  C_8 
ROOT
ATOM      1  N   UNL d   1       0.276  -0.624  -0.021  0.00  0.00    -0.214 N 
ATOM      2  C   UNL d   1       0.303   0.750   0.012  0.00  0.00     0.153 A 
ATOM      3  N   UNL d   1       1.553   1.152   0.043  0.00  0.00    -0.324 N 
ATOM      4  HN  UNL d   1       1.905   2.108   0.085  1.00  0.00     0.169 HD
ATOM      5  N   UNL d   1       1.528  -1.131  -0.037  0.00  0.00    -0.274 N 
ATOM      6  HN  UNL d   1       1.825  -2.106  -0.072  1.00  0.00     0.189 HD
ATOM      7  C   UNL d   1       2.281  -0.021   0.006  0.00  0.00     0.132 A 
ATOM      8  C   UNL d   1      -0.907  -1.377  -0.037  0.00  0.00     0.167 A 
ATOM      9  C   UNL d   1      -0.944   1.423   0.005  0.00  0.00     0.105 A 
ATOM     10  N   UNL d   1      -2.058  -0.758  -0.034  0.00  0.00    -0.344 N 
ATOM     11  HN  UNL d   1      -2.937  -1.277  -0.043  1.00  0.00     0.167 HD
ATOM     12  C   UNL d   1      -2.044   0.634  -0.020  0.00  0.00     0.117 A 
ATOM     13  C   UNL d   1      -1.026   2.855   0.013  0.00  0.00     0.104 C 
ATOM     14  N   UNL d   1      -1.133   4.015   0.016  0.00  0.00    -0.191 NA
ENDROOT
BRANCH   8  15
ATOM     15  S   UNL d   1      -0.819  -3.137  -0.054  0.00  0.00    -0.096 SA
ATOM     16  C   UNL d   1      -2.559  -3.603  -0.055  0.00  0.00     0.099 C 
ENDBRANCH   8  15
BRANCH   7  17
ATOM     17  C   UNL d   1       3.740  -0.017   0.009  0.00  0.00     0.009 A 
ATOM     18  C   UNL d   1       4.466  -1.211  -0.116  0.00  0.00     0.017 A 
ATOM     19  C   UNL d   1       5.865  -1.194  -0.117  0.00  0.00     0.025 A 
ATOM     20  C   UNL d   1       6.544   0.016   0.010  0.00  0.00     0.034 A 
ATOM     21  C   UNL d   1       5.838   1.210   0.135  0.00  0.00     0.025 A 
ATOM     22 CL   UNL d   1       8.264   0.035   0.012  0.00  0.00    -0.084 Cl
ATOM     23  C   UNL d   1       4.440   1.193   0.132  0.00  0.00     0.017 A 
ENDBRANCH   7  17
TORSDOF 2
