REMARK  4 active torsions:
REMARK  status: ('A' for Active; 'I' for Inactive)
REMARK    1  A    between atoms: C_7  and  C_1 
REMARK    2  A    between atoms: C_8  and  C_2 
REMARK    3  A    between atoms: N_9  and  C_3 
REMARK       I    between atoms: C_13  and  N_9 
REMARK    4  A    between atoms: C_10  and  C_11 
ROOT
ATOM      1  C   UNL d   1       1.299   0.727  -0.326  0.00  0.00     0.147 A 
ATOM      2  C   UNL d   1       1.407  -0.697  -0.202  0.00  0.00     0.053 A 
ATOM      3  C   UNL d   1       0.091  -1.152  -0.155  0.00  0.00     0.138 A 
ATOM      4  N   UNL d   1       0.008   1.111  -0.329  0.00  0.00    -0.292 N 
ATOM      5  HN  UNL d   1      -0.355   2.062  -0.390  1.00  0.00     0.187 HD
ATOM      6  N   UNL d   1      -0.700  -0.029  -0.236  0.00  0.00    -0.280 N 
ATOM      7  C   UNL d   1      -2.130   0.094  -0.064  0.00  0.00     0.179 C 
ENDROOT
BRANCH   2   8
ATOM      8  C   UNL d   1       2.591  -1.553  -0.203  0.00  0.00    -0.019 A 
ATOM      9  C   UNL d   1       2.618  -2.736  -0.959  0.00  0.00     0.028 A 
ATOM     10  C   UNL d   1       3.731  -3.596  -0.940  0.00  0.00     0.048 A 
ATOM     11  C   UNL d   1       4.869  -3.210  -0.225  0.00  0.00     0.016 A 
ATOM     12  C   UNL d   1       4.871  -2.018   0.499  0.00  0.00     0.002 A 
ATOM     13  C   UNL d   1       3.732  -1.208   0.531  0.00  0.00     0.012 A 
BRANCH  10  14
ATOM     14  C   UNL d   1       3.698  -4.908  -1.688  0.00  0.00     0.417 C 
ATOM     15  F   UNL d   1       2.420  -5.339  -1.906  0.00  0.00    -0.166 F 
ATOM     16  F   UNL d   1       4.289  -4.841  -2.906  0.00  0.00    -0.166 F 
ATOM     17  F   UNL d   1       4.311  -5.916  -1.010  0.00  0.00    -0.166 F 
ENDBRANCH  10  14
ENDBRANCH   2   8
BRANCH   1  18
ATOM     18  C   UNL d   1       2.416   1.738  -0.431  0.00  0.00     0.434 C 
ATOM     19  F   UNL d   1       3.478   1.257  -1.130  0.00  0.00    -0.165 F 
ATOM     20  F   UNL d   1       2.043   2.890  -1.045  0.00  0.00    -0.165 F 
ATOM     21  F   UNL d   1       2.886   2.079   0.800  0.00  0.00    -0.165 F 
ENDBRANCH   1  18
BRANCH   3  22
ATOM     22  N   UNL d   1      -0.262  -2.494  -0.008  0.00  0.00    -0.311 N 
ATOM     23  C   UNL d   1      -1.423  -3.075  -0.608  0.00  0.00     0.219 C 
ATOM     24  O   UNL d   1      -2.177  -2.405  -1.292  0.00  0.00    -0.274 OA
ATOM     25  C   UNL d   1      -1.549  -4.560  -0.429  0.00  0.00     0.117 C 
ATOM     26  H   UNL d   1       0.423  -3.105   0.422  0.00  0.00     0.170 HD
ENDBRANCH   3  22
TORSDOF 4
