REMARK  6 active torsions:
REMARK  status: ('A' for Active; 'I' for Inactive)
REMARK    1  A    between atoms: C_6  and  C_1 
REMARK    2  A    between atoms: C_9  and  C_1 
REMARK    3  A    between atoms: C_2  and  C_8 
REMARK    4  A    between atoms: C_5  and  C_2 
REMARK    5  A    between atoms: C_7  and  C_9 
REMARK    6  A    between atoms: C_8  and  C_7 
ROOT
ATOM      1  C   UNL d   1       2.945  -1.255   0.769  0.00  0.00     0.015 C 
ENDROOT
BRANCH   1   2
ATOM      2  C   UNL d   1       2.398   0.007   0.100  0.00  0.00     0.084 C 
BRANCH   2   3
ATOM      3  C   UNL d   1       0.878  -0.004   0.059  0.00  0.00     0.159 C 
ATOM      4  O   UNL d   1       0.208  -0.940   0.492  0.00  0.00    -0.292 OA
BRANCH   3   5
ATOM      5  C   UNL d   1       0.174   1.144  -0.576  0.00  0.00     0.010 A 
ATOM      6  C   UNL d   1       0.729   2.427  -0.626  0.00  0.00     0.015 A 
ATOM      7  C   UNL d   1       0.017   3.470  -1.225  0.00  0.00     0.001 A 
ATOM      8  C   UNL d   1      -1.242   3.235  -1.779  0.00  0.00     0.000 A 
ATOM      9  C   UNL d   1      -1.799   1.958  -1.728  0.00  0.00     0.001 A 
ATOM     10  C   UNL d   1      -1.097   0.917  -1.123  0.00  0.00     0.015 A 
ENDBRANCH   3   5
ENDBRANCH   2   3
ENDBRANCH   1   2
BRANCH   1  11
ATOM     11  C   UNL d   1       4.474  -1.287   0.786  0.00  0.00     0.084 C 
BRANCH  11  12
ATOM     12  C   UNL d   1       4.994  -2.531   1.486  0.00  0.00     0.159 C 
ATOM     13  O   UNL d   1       4.240  -3.372   1.974  0.00  0.00    -0.292 OA
BRANCH  12  14
ATOM     14  C   UNL d   1       6.469  -2.740   1.598  0.00  0.00     0.010 A 
ATOM     15  C   UNL d   1       7.398  -1.855   1.041  0.00  0.00     0.015 A 
ATOM     16  C   UNL d   1       8.768  -2.101   1.176  0.00  0.00     0.001 A 
ATOM     17  C   UNL d   1       9.214  -3.230   1.864  0.00  0.00     0.000 A 
ATOM     18  C   UNL d   1       8.295  -4.116   2.421  0.00  0.00     0.001 A 
ATOM     19  C   UNL d   1       6.928  -3.872   2.287  0.00  0.00     0.015 A 
ENDBRANCH  12  14
ENDBRANCH  11  12
ENDBRANCH   1  11
TORSDOF 6
