REMARK  4 active torsions:
REMARK  status: ('A' for Active; 'I' for Inactive)
REMARK    1  A    between atoms: N_7  and  C_1 
REMARK    2  A    between atoms: N_2  and  N_7 
REMARK    3  A    between atoms: C_6  and  N_2 
REMARK    4  A    between atoms: O_15  and  C_12 
ROOT
ATOM      1  C   UNL d   1       2.703  -1.138  -3.844  0.00  0.00    -0.006 A 
ATOM      2  C   UNL d   1       3.831  -1.945  -4.057  0.00  0.00    -0.043 A 
ATOM      3  C   UNL d   1       2.032  -1.110  -2.501  0.00  0.00     0.036 C 
ATOM      4  C   UNL d   1       2.203  -0.363  -4.898  0.00  0.00     0.017 A 
ATOM      5  C   UNL d   1       4.435  -1.962  -5.325  0.00  0.00     0.044 A 
ATOM      6  C   UNL d   1       3.921  -1.207  -6.382  0.00  0.00     0.068 A 
ATOM      7  C   UNL d   1       2.807  -0.399  -6.162  0.00  0.00     0.037 A 
ATOM      8  C   UNL d   1       4.427  -2.764  -2.948  0.00  0.00     0.040 C 
ATOM      9  C   UNL d   1       2.554  -2.075  -1.440  0.00  0.00     0.060 C 
ATOM     10  C   UNL d   1       3.332  -3.248  -2.016  0.00  0.00     0.011 C 
ENDROOT
BRANCH   3  11
ATOM     11  N   UNL d   1       1.075  -0.245  -2.289  0.00  0.00    -0.302 N 
ATOM     12  HN  UNL d   1       0.778   0.396  -3.024  1.00  0.00     0.186 HD
BRANCH  11  13
ATOM     13  N   UNL d   1       0.482  -0.222  -1.058  0.00  0.00    -0.276 N 
ATOM     14  H   UNL d   1       0.730  -0.892  -0.340  0.00  0.00     0.189 HD
BRANCH  13  15
ATOM     15  C   UNL d   1      -0.494   0.676  -0.736  0.00  0.00     0.184 C 
ATOM     16  S   UNL d   1      -1.241   0.666   0.746  0.00  0.00    -0.040 SA
ATOM     17  N   UNL d   1      -0.812   1.579  -1.688  0.00  0.00    -0.375 N 
ATOM     18  H   UNL d   1      -0.333   1.503  -2.577  0.00  0.00     0.158 HD
ATOM     19  H   UNL d   1      -1.528   2.275  -1.540  0.00  0.00     0.158 HD
ENDBRANCH  13  15
ENDBRANCH  11  13
ENDBRANCH   3  11
BRANCH   6  20
ATOM     20  O   UNL d   1       4.596  -1.353  -7.562  0.00  0.00    -0.356 OA
ATOM     21  C   UNL d   1       4.083  -0.657  -8.690  0.00  0.00     0.210 C 
ENDBRANCH   6  20
TORSDOF 4
