REMARK  3 active torsions:
REMARK  status: ('A' for Active; 'I' for Inactive)
REMARK       I    between atoms: C_2  and  N_1 
REMARK    1  A    between atoms: C_10  and  C_2 
REMARK       I    between atoms: C_3  and  N_4 
REMARK    2  A    between atoms: C_9  and  C_3 
REMARK    3  A    between atoms: N_4  and  C_11 
ROOT
ATOM      1  N   UNL d   1       1.128   0.119   0.395  0.00  0.00    -0.352 N 
ATOM      2  C   UNL d   1       2.312   0.039   1.130  0.00  0.00     0.224 C 
ATOM      3  C   UNL d   1       0.362  -1.010  -0.121  0.00  0.00     0.127 C 
ATOM      4  C   UNL d   1       0.630   1.435  -0.015  0.00  0.00     0.127 C 
ATOM      5  O   UNL d   1       2.940   1.054   1.433  0.00  0.00    -0.273 OA
ATOM      6  C   UNL d   1      -1.708   0.431  -0.220  0.00  0.00     0.087 C 
ATOM      7  C   UNL d   1      -0.859   1.603   0.299  0.00  0.00     0.045 C 
ATOM      8  C   UNL d   1      -1.109  -0.889   0.278  0.00  0.00     0.045 C 
ENDROOT
BRANCH   6   9
ATOM      9  N   UNL d   1      -1.858   0.410  -1.676  0.00  0.00    -0.352 N 
ATOM     10  C   UNL d   1      -2.526   1.405  -2.365  0.00  0.00     0.252 C 
ATOM     11  O   UNL d   1      -3.008   2.386  -1.827  0.00  0.00    -0.268 OA
ATOM     12  H   UNL d   1      -1.464  -0.361  -2.196  0.00  0.00     0.163 HD
BRANCH  10  13
ATOM     13  C   UNL d   1      -2.616   1.248  -3.845  0.00  0.00     0.032 A 
ATOM     14  C   UNL d   1      -2.679  -0.001  -4.476  0.00  0.00     0.017 A 
ATOM     15  C   UNL d   1      -2.825  -0.073  -5.865  0.00  0.00     0.001 A 
ATOM     16  C   UNL d   1      -2.908   1.094  -6.625  0.00  0.00     0.000 A 
ATOM     17  C   UNL d   1      -2.837   2.338  -6.002  0.00  0.00     0.001 A 
ATOM     18  C   UNL d   1      -2.693   2.416  -4.617  0.00  0.00     0.017 A 
ENDBRANCH  10  13
ENDBRANCH   6   9
BRANCH   2  19
ATOM     19  C   UNL d   1       2.822  -1.353   1.557  0.00  0.00     0.078 C 
ATOM     20  C   UNL d   1       3.622  -1.330   2.865  0.00  0.00     0.014 C 
ATOM     21  C   UNL d   1       5.016  -0.733   2.740  0.00  0.00     0.001 C 
ATOM     22  C   UNL d   1       5.826  -1.284   1.573  0.00  0.00     0.000 C 
ATOM     23  C   UNL d   1       5.044  -1.502   0.280  0.00  0.00     0.001 C 
ATOM     24  C   UNL d   1       3.631  -2.056   0.462  0.00  0.00     0.014 C 
ENDBRANCH   2  19
TORSDOF 3
