REMARK  6 active torsions:
REMARK  status: ('A' for Active; 'I' for Inactive)
REMARK    1  A    between atoms: N_2  and  S_1 
REMARK    2  A    between atoms: C_3  and  S_1 
REMARK    3  A    between atoms: O_14  and  C_7 
REMARK    4  A    between atoms: O_18  and  C_8 
REMARK    5  A    between atoms: C_13  and  C_17 
REMARK    6  A    between atoms: C_19  and  C_13 
ROOT
ATOM      1  N   UNL d   1       0.382   1.396   0.854  0.00  0.00    -0.206 NA
ATOM      2  C   UNL d   1      -1.106   1.505   0.901  0.00  0.00     0.108 C 
ATOM      3  C   UNL d   1       1.094   2.670   0.554  0.00  0.00     0.108 C 
ATOM      4  C   UNL d   1       0.616   3.791   1.469  0.00  0.00     0.020 C 
ATOM      5  C   UNL d   1      -1.573   2.697   1.747  0.00  0.00     0.020 C 
ATOM      6  C   UNL d   1      -0.894   4.022   1.350  0.00  0.00    -0.008 C 
ENDROOT
BRANCH   1   7
ATOM      7  S   UNL d   1       0.967   0.052  -0.058  0.00  0.00     0.243 S 
ATOM      8  O   UNL d   1       2.307   0.345  -0.517  0.00  0.00    -0.206 OA
ATOM      9  O   UNL d   1      -0.075  -0.357  -0.983  0.00  0.00    -0.206 OA
BRANCH   7  10
ATOM     10  C   UNL d   1       1.138  -1.210   1.181  0.00  0.00     0.077 A 
ATOM     11  C   UNL d   1       2.034  -0.986   2.234  0.00  0.00     0.064 A 
ATOM     12  C   UNL d   1       2.224  -1.954   3.231  0.00  0.00     0.102 A 
ATOM     13  C   UNL d   1       1.503  -3.160   3.150  0.00  0.00     0.101 A 
ATOM     14  C   UNL d   1       0.625  -3.376   2.072  0.00  0.00     0.041 A 
ATOM     15  C   UNL d   1       0.451  -2.415   1.077  0.00  0.00     0.028 A 
BRANCH  12  16
ATOM     16  O   UNL d   1       3.064  -1.770   4.296  0.00  0.00    -0.353 OA
ATOM     17  C   UNL d   1       3.798  -0.553   4.363  0.00  0.00     0.210 C 
ENDBRANCH  12  16
BRANCH  13  18
ATOM     18  O   UNL d   1       1.487  -4.189   4.056  0.00  0.00    -0.353 OA
ATOM     19  C   UNL d   1       2.672  -4.435   4.801  0.00  0.00     0.210 C 
ENDBRANCH  13  18
ENDBRANCH   7  10
ENDBRANCH   1   7
BRANCH   6  20
ATOM     20  C   UNL d   1      -1.364   4.501  -0.048  0.00  0.00     0.043 C 
BRANCH  20  21
ATOM     21  C   UNL d   1      -0.765   5.797  -0.549  0.00  0.00    -0.058 A 
ATOM     22  C   UNL d   1      -0.005   5.817  -1.729  0.00  0.00     0.007 A 
ATOM     23  C   UNL d   1       0.536   7.012  -2.211  0.00  0.00     0.001 A 
ATOM     24  C   UNL d   1       0.310   8.206  -1.531  0.00  0.00     0.000 A 
ATOM     25  C   UNL d   1      -0.467   8.204  -0.375  0.00  0.00     0.001 A 
ATOM     26  C   UNL d   1      -1.002   7.009   0.114  0.00  0.00     0.007 A 
ENDBRANCH  20  21
ENDBRANCH   6  20
TORSDOF 6
