REMARK  5 active torsions:
REMARK  status: ('A' for Active; 'I' for Inactive)
REMARK    1  A    between atoms: S_8  and  C_3 
REMARK    2  A    between atoms: C_13  and  S_8 
REMARK    3  A    between atoms: C_9  and  C_13 
REMARK    4  A    between atoms: C_11  and  C_9 
REMARK    5  A    between atoms: C_19  and  C_12 
ROOT
ATOM      1  C   UNL d   1       4.564   2.191  -0.142  0.00  0.00     0.166 C 
ENDROOT
BRANCH   1   2
ATOM      2  C   UNL d   1       5.616   3.279  -0.169  0.00  0.00     0.169 C 
ATOM      3  O   UNL d   1       6.803   3.001  -0.333  0.00  0.00    -0.291 OA
BRANCH   2   4
ATOM      4  C   UNL d   1       5.221   4.721  -0.037  0.00  0.00     0.011 A 
ATOM      5  C   UNL d   1       3.902   5.150   0.112  0.00  0.00     0.016 A 
ATOM      6  C   UNL d   1       3.602   6.522   0.143  0.00  0.00     0.013 A 
ATOM      7  C   UNL d   1       4.602   7.508   0.043  0.00  0.00    -0.026 A 
ATOM      8  C   UNL d   1       5.927   7.051  -0.061  0.00  0.00     0.013 A 
ATOM      9  C   UNL d   1       6.233   5.685  -0.108  0.00  0.00     0.016 A 
BRANCH   7  10
ATOM     10  C   UNL d   1       4.273   8.956   0.017  0.00  0.00    -0.026 A 
ATOM     11  C   UNL d   1       5.045   9.871  -0.726  0.00  0.00     0.012 A 
ATOM     12  C   UNL d   1       4.731  11.234  -0.771  0.00  0.00     0.001 A 
ATOM     13  C   UNL d   1       3.625  11.717  -0.082  0.00  0.00     0.000 A 
ATOM     14  C   UNL d   1       2.841  10.839   0.658  0.00  0.00     0.001 A 
ATOM     15  C   UNL d   1       3.167   9.479   0.713  0.00  0.00     0.012 A 
ENDBRANCH   7  10
ENDBRANCH   2   4
ENDBRANCH   1   2
BRANCH   1  16
ATOM     16  S   UNL d   1       3.781   2.038  -1.764  0.00  0.00    -0.086 SA
BRANCH  16  17
ATOM     17  C   UNL d   1       5.051   1.282  -2.678  0.00  0.00     0.147 A 
ATOM     18  N   UNL d   1       5.303   1.942  -3.840  0.00  0.00    -0.303 N 
ATOM     19  C   UNL d   1       6.163   1.468  -4.793  0.00  0.00     0.259 A 
ATOM     20  H   UNL d   1       4.803   2.792  -4.047  0.00  0.00     0.171 HD
ATOM     21  C   UNL d   1       6.820   0.191  -4.471  0.00  0.00     0.059 A 
ATOM     22  O   UNL d   1       6.353   2.054  -5.851  0.00  0.00    -0.267 OA
ATOM     23  C   UNL d   1       7.668  -0.432  -5.396  0.00  0.00     0.019 A 
ATOM     24  C   UNL d   1       6.539  -0.387  -3.228  0.00  0.00     0.049 A 
ATOM     25  C   UNL d   1       8.253  -1.653  -5.071  0.00  0.00     0.001 A 
ATOM     26  C   UNL d   1       8.002  -2.234  -3.827  0.00  0.00     0.002 A 
ATOM     27  C   UNL d   1       7.151  -1.602  -2.911  0.00  0.00     0.030 A 
ATOM     28  N   UNL d   1       5.616   0.179  -2.321  0.00  0.00    -0.336 N 
ATOM     29  HN  UNL d   1       5.406  -0.263  -1.427  1.00  0.00     0.168 HD
ENDBRANCH  16  17
ENDBRANCH   1  16
TORSDOF 5
