REMARK  4 active torsions:
REMARK  status: ('A' for Active; 'I' for Inactive)
REMARK    1  A    between atoms: N_6  and  C_1 
REMARK       I    between atoms: C_8  and  N_6 
REMARK    2  A    between atoms: C_12  and  C_8 
REMARK    3  A    between atoms: S_9  and  C_12 
REMARK    4  A    between atoms: C_13  and  S_9 
ROOT
ATOM      1  N   UNL d   1       0.667  -3.761  -0.045  0.00  0.00    -0.310 N 
ATOM      2  C   UNL d   1       1.939  -3.087   0.025  0.00  0.00     0.232 C 
ATOM      3  O   UNL d   1       2.006  -1.881   0.192  0.00  0.00    -0.272 OA
ATOM      4  H   UNL d   1       0.731  -4.775  -0.029  0.00  0.00     0.170 HD
ENDROOT
BRANCH   2   5
ATOM      5  C   UNL d   1       3.172  -3.982  -0.045  0.00  0.00     0.182 C 
BRANCH   5   6
ATOM      6  S   UNL d   1       2.694  -5.752  -0.072  0.00  0.00    -0.121 SA
BRANCH   6   7
ATOM      7  C   UNL d   1       4.253  -6.598   0.130  0.00  0.00     0.001 A 
ATOM      8  C   UNL d   1       4.231  -7.814   0.825  0.00  0.00     0.019 A 
ATOM      9  C   UNL d   1       5.388  -8.584   0.958  0.00  0.00     0.008 A 
ATOM     10  C   UNL d   1       6.591  -8.155   0.392  0.00  0.00    -0.062 A 
ATOM     11  C   UNL d   1       6.619  -6.938  -0.296  0.00  0.00     0.008 A 
ATOM     12  C   UNL d   1       7.815  -9.017   0.506  0.00  0.00     0.048 C 
ATOM     13  C   UNL d   1       5.456  -6.164  -0.428  0.00  0.00     0.019 A 
ENDBRANCH   6   7
ENDBRANCH   5   6
ENDBRANCH   2   5
BRANCH   1  14
ATOM     14  C   UNL d   1      -0.599  -3.185  -0.020  0.00  0.00     0.143 A 
ATOM     15  C   UNL d   1      -1.052  -1.935  -0.392  0.00  0.00     0.073 A 
ATOM     16  C   UNL d   1      -2.439  -1.938  -0.154  0.00  0.00     0.130 A 
ATOM     17 BR   UNL d   1      -0.229  -0.462  -1.204  0.00  0.00    -0.045 Br
ATOM     18  N   UNL d   1      -2.866  -3.112   0.310  0.00  0.00    -0.307 N 
ATOM     19  N   UNL d   1      -1.750  -3.860   0.355  0.00  0.00    -0.280 N 
ATOM     20  HN  UNL d   1      -3.815  -3.380   0.570  1.00  0.00     0.186 HD
ATOM     21  C   UNL d   1      -1.878  -5.226   0.809  0.00  0.00     0.179 C 
ENDBRANCH   1  14
TORSDOF 4
