REMARK  3 active torsions:
REMARK  status: ('A' for Active; 'I' for Inactive)
REMARK    1  A    between atoms: N_8  and  S_1 
REMARK    2  A    between atoms: C_9  and  S_1 
REMARK    3  A    between atoms: C_15  and  N_8 
ROOT
ATOM      1  C   UNL d   1      -0.745   4.846  -3.288  0.00  0.00     0.199 A 
ATOM      2  C   UNL d   1      -0.303   6.197  -3.646  0.00  0.00     0.066 A 
ATOM      3  C   UNL d   1       0.280   3.930  -2.772  0.00  0.00     0.051 A 
ATOM      4  C   UNL d   1       1.032   6.534  -3.491  0.00  0.00     0.162 A 
ATOM      5  O   UNL d   1       1.982   5.659  -3.017  0.00  0.00    -0.292 OA
ATOM      6  C   UNL d   1       1.589   4.393  -2.667  0.00  0.00     0.092 A 
ATOM      7  N   UNL d   1       1.517   7.761  -3.798  0.00  0.00    -0.346 N 
ATOM      8  HN  UNL d   1       2.503   7.989  -3.675  1.00  0.00     0.167 HD
ATOM      9  C   UNL d   1      -0.055   2.626  -2.390  0.00  0.00     0.048 A 
ATOM     10  C   UNL d   1       0.937   1.789  -1.884  0.00  0.00     0.043 A 
ATOM     11  O   UNL d   1      -1.909   4.494  -3.413  0.00  0.00    -0.286 OA
ATOM     12  C   UNL d   1       2.580   3.543  -2.176  0.00  0.00     0.040 A 
ATOM     13  C   UNL d   1       2.252   2.244  -1.775  0.00  0.00     0.033 A 
ATOM     14  C   UNL d   1      -1.194   7.150  -4.139  0.00  0.00     0.021 A 
ATOM     15  C   UNL d   1       0.636   8.671  -4.274  0.00  0.00     0.090 A 
ATOM     16  C   UNL d   1      -0.713   8.415  -4.460  0.00  0.00     0.018 A 
ENDROOT
BRANCH  10  17
ATOM     17  N   UNL d   1       0.615   0.482  -1.430  0.00  0.00    -0.281 N 
ATOM     18  H   UNL d   1       0.079  -0.123  -2.051  0.00  0.00     0.179 HD
BRANCH  17  19
ATOM     19  S   UNL d   1       0.210   0.255   0.199  0.00  0.00     0.263 S 
ATOM     20  O   UNL d   1       1.244   0.832   1.030  0.00  0.00    -0.200 OA
ATOM     21  O   UNL d   1      -0.184  -1.130   0.331  0.00  0.00    -0.200 OA
BRANCH  19  22
ATOM     22  C   UNL d   1      -1.262   1.243   0.392  0.00  0.00     0.080 A 
ATOM     23  C   UNL d   1      -2.513   0.680   0.110  0.00  0.00     0.027 A 
ATOM     24  C   UNL d   1      -3.664   1.460   0.242  0.00  0.00     0.025 A 
ATOM     25  C   UNL d   1      -3.560   2.787   0.663  0.00  0.00     0.034 A 
ATOM     26  C   UNL d   1      -2.316   3.338   0.973  0.00  0.00     0.025 A 
ATOM     27 CL   UNL d   1      -4.978   3.750   0.805  0.00  0.00    -0.084 Cl
ATOM     28  C   UNL d   1      -1.161   2.562   0.848  0.00  0.00     0.027 A 
ENDBRANCH  19  22
ENDBRANCH  17  19
ENDBRANCH  10  17
TORSDOF 3
