REMARK  5 active torsions:
REMARK  status: ('A' for Active; 'I' for Inactive)
REMARK    1  A    between atoms: C_4  and  N_1 
REMARK    2  A    between atoms: C_2  and  N_3 
REMARK    3  A    between atoms: N_9  and  C_2 
REMARK    4  A    between atoms: N_5  and  C_6 
REMARK    5  A    between atoms: C_16  and  N_9 
ROOT
ATOM      1  N   UNL d   1      -2.138   4.954  -5.698  0.00  0.00    -0.355 N 
ATOM      2  N   UNL d   1      -1.787   3.151  -3.545  0.00  0.00    -0.364 N 
ATOM      3  C   UNL d   1      -1.502   5.407  -4.441  0.00  0.00     0.145 C 
ATOM      4  C   UNL d   1      -2.174   3.496  -5.929  0.00  0.00     0.145 C 
ATOM      5  C   UNL d   1      -1.947   4.572  -3.217  0.00  0.00     0.144 C 
ATOM      6  C   UNL d   1      -2.587   2.698  -4.685  0.00  0.00     0.144 C 
ENDROOT
BRANCH   1   7
ATOM      7  C   UNL d   1      -2.701   5.837  -6.575  0.00  0.00     0.174 C 
ATOM      8  S   UNL d   1      -4.333   5.799  -6.961  0.00  0.00    -0.041 SA
BRANCH   7   9
ATOM      9  N   UNL d   1      -1.947   6.847  -7.100  0.00  0.00    -0.333 N 
ATOM     10  H   UNL d   1      -2.516   7.566  -7.535  0.00  0.00     0.168 HD
BRANCH   9  11
ATOM     11  C   UNL d   1      -0.553   6.981  -7.271  0.00  0.00     0.035 A 
ATOM     12  C   UNL d   1       0.365   5.951  -7.061  0.00  0.00     0.055 A 
ATOM     13  C   UNL d   1       1.742   6.174  -7.166  0.00  0.00     0.058 A 
ATOM     14 CL   UNL d   1       2.795   4.853  -6.797  0.00  0.00    -0.082 Cl
ATOM     15  C   UNL d   1       2.215   7.429  -7.543  0.00  0.00     0.055 A 
ATOM     16  C   UNL d   1       1.302   8.442  -7.849  0.00  0.00     0.028 A 
ATOM     17 CL   UNL d   1       3.899   7.795  -7.644  0.00  0.00    -0.083 Cl
ATOM     18  C   UNL d   1      -0.073   8.216  -7.718  0.00  0.00     0.031 A 
ENDBRANCH   9  11
ENDBRANCH   7   9
ENDBRANCH   1   7
BRANCH   2  19
ATOM     19  C   UNL d   1      -1.112   2.312  -2.698  0.00  0.00     0.103 A 
ATOM     20  C   UNL d   1      -0.475   1.161  -3.169  0.00  0.00     0.051 A 
ATOM     21  C   UNL d   1       0.262   0.352  -2.302  0.00  0.00     0.041 A 
ATOM     22  C   UNL d   1       0.333   0.711  -0.959  0.00  0.00     0.118 A 
ATOM     23  C   UNL d   1      -0.323   1.855  -0.547  0.00  0.00     0.125 A 
ATOM     24  N   UNL d   1      -1.019   2.656  -1.394  0.00  0.00    -0.350 N 
ATOM     25  HN  UNL d   1      -1.466   3.506  -1.051  1.00  0.00     0.166 HD
BRANCH  22  26
ATOM     26  N   UNL d   1       1.086  -0.084  -0.006  0.00  0.00    -0.114 N 
ATOM     27  O   UNL d   1       1.097   0.288   1.176  0.00  0.00    -0.532 OA
ATOM     28  O   UNL d   1       1.678  -1.087  -0.431  0.00  0.00    -0.532 OA
ENDBRANCH  22  26
ENDBRANCH   2  19
TORSDOF 5
