REMARK  1 active torsions:
REMARK  status: ('A' for Active; 'I' for Inactive)
REMARK    1  A    between atoms: N_8  and  C_3 
ROOT
ATOM      1  C   UNL d   1      -0.132   0.970  -0.005  0.00  0.00     0.065 A 
ATOM      2  C   UNL d   1       0.138  -0.384   0.076  0.00  0.00     0.137 A 
ATOM      3  C   UNL d   1      -1.476   1.371  -0.065  0.00  0.00     0.099 A 
ATOM      4  N   UNL d   1       2.144   0.699   0.016  0.00  0.00    -0.307 N 
ATOM      5  HN  UNL d   1       3.148   0.881   0.024  1.00  0.00     0.186 HD
ATOM      6  N   UNL d   1       1.504  -0.493   0.072  0.00  0.00    -0.281 N 
ATOM      7  C   UNL d   1       1.140   1.581  -0.053  0.00  0.00     0.126 A 
ATOM      8  N   UNL d   1      -0.764  -1.379   0.121  0.00  0.00    -0.337 N 
ATOM      9  HN  UNL d   1      -0.530  -2.369   0.196  1.00  0.00     0.168 HD
ATOM     10  N   UNL d   1      -2.416   0.391  -0.044  0.00  0.00    -0.342 N 
ATOM     11  HN  UNL d   1      -3.407   0.623  -0.103  1.00  0.00     0.167 HD
ATOM     12  C   UNL d   1      -2.018  -0.896   0.055  0.00  0.00     0.183 A 
ATOM     13  C   UNL d   1       2.278  -1.707   0.073  0.00  0.00     0.179 C 
ENDROOT
BRANCH   3  14
ATOM     14  N   UNL d   1      -1.835   2.710  -0.236  0.00  0.00    -0.265 NA
ATOM     15  C   UNL d   1      -3.193   2.921  -0.771  0.00  0.00     0.123 C 
ATOM     16  C   UNL d   1      -3.348   4.412  -1.118  0.00  0.00     0.182 C 
ATOM     17  O   UNL d   1      -3.118   5.247   0.032  0.00  0.00    -0.389 OA
ATOM     18  C   UNL d   1      -1.800   5.021   0.564  0.00  0.00     0.182 C 
ATOM     19  C   UNL d   1      -1.594   3.547   0.955  0.00  0.00     0.123 C 
ENDBRANCH   3  14
TORSDOF 1
