REMARK  6 active torsions:
REMARK  status: ('A' for Active; 'I' for Inactive)
REMARK    1  A    between atoms: C_2  and  C_1 
REMARK       I    between atoms: N_5  and  C_1 
REMARK    2  A    between atoms: C_8  and  C_3 
REMARK    3  A    between atoms: C_13  and  N_5 
REMARK    4  A    between atoms: C_6  and  C_8 
REMARK    5  A    between atoms: C_7  and  C_6 
REMARK    6  A    between atoms: O_19  and  C_7 
ROOT
ATOM      1  C   UNL d   1       0.174   0.621   1.254  0.00  0.00     0.044 A 
ATOM      2  C   UNL d   1       0.681   1.955   1.202  0.00  0.00    -0.040 A 
ATOM      3  C   UNL d   1      -0.920   0.323   2.111  0.00  0.00    -0.045 A 
ATOM      4  C   UNL d   1       0.151   2.918   2.095  0.00  0.00     0.015 A 
ATOM      5  C   UNL d   1      -1.394   1.313   2.993  0.00  0.00     0.014 A 
ATOM      6  C   UNL d   1      -0.859   2.597   3.008  0.00  0.00    -0.061 A 
ATOM      7  C   UNL d   1      -1.671  -0.983   2.183  0.00  0.00     0.049 C 
ATOM      8  C   UNL d   1      -1.345   3.612   4.004  0.00  0.00     0.048 C 
ENDROOT
BRANCH   1   9
ATOM      9  C   UNL d   1       0.805  -0.431   0.384  0.00  0.00     0.257 C 
ATOM     10  N   UNL d   1       0.936  -1.704   0.912  0.00  0.00    -0.323 N 
ATOM     11  H   UNL d   1       0.673  -1.838   1.878  0.00  0.00     0.169 HD
ATOM     12  O   UNL d   1       1.185  -0.104  -0.729  0.00  0.00    -0.267 OA
BRANCH  10  13
ATOM     13  C   UNL d   1       1.345  -2.863   0.209  0.00  0.00     0.035 A 
ATOM     14  C   UNL d   1       1.767  -2.868  -1.124  0.00  0.00     0.037 A 
ATOM     15  C   UNL d   1       2.132  -4.057  -1.782  0.00  0.00    -0.054 A 
ATOM     16  C   UNL d   1       2.577  -3.990  -3.219  0.00  0.00     0.049 C 
ATOM     17  C   UNL d   1       2.061  -5.276  -1.087  0.00  0.00    -0.056 A 
ATOM     18  C   UNL d   1       1.646  -5.271   0.252  0.00  0.00     0.009 A 
ATOM     19  C   UNL d   1       2.411  -6.579  -1.751  0.00  0.00     0.049 C 
ATOM     20  C   UNL d   1       1.294  -4.079   0.893  0.00  0.00     0.030 A 
ENDBRANCH  10  13
ENDBRANCH   1   9
BRANCH   2  21
ATOM     21  C   UNL d   1       1.861   2.413   0.338  0.00  0.00     0.059 C 
BRANCH  21  22
ATOM     22  C   UNL d   1       1.657   3.074  -1.066  0.00  0.00     0.042 C 
ATOM     23  C   UNL d   1       3.076   3.309  -1.657  0.00  0.00     0.026 C 
ATOM     24  C   UNL d   1       0.891   2.256  -2.118  0.00  0.00     0.026 C 
BRANCH  22  25
ATOM     25  C   UNL d   1       0.973   4.436  -0.929  0.00  0.00     0.148 C 
ATOM     26  O   UNL d   1       1.539   5.517  -1.069  0.00  0.00    -0.649 OA
BRANCH  25  27
ATOM     27  O   UNL d   1      -0.344   4.382  -0.635  0.00  0.00    -0.776 OA
ATOM     28  H   UNL d   1      -0.689   3.478  -0.503  0.00  0.00     0.167 HD
ENDBRANCH  25  27
ENDBRANCH  22  25
ENDBRANCH  21  22
ENDBRANCH   2  21
TORSDOF 6
