REMARK  4 active torsions:
REMARK  status: ('A' for Active; 'I' for Inactive)
REMARK    1  A    between atoms: N_5  and  S_1 
REMARK    2  A    between atoms: C_7  and  S_1 
REMARK    3  A    between atoms: C_2  and  C_11 
REMARK    4  A    between atoms: C_11  and  N_5 
ROOT
ATOM      1  N   UNL d   1       0.397   1.034   1.141  0.00  0.00    -0.211 NA
ATOM      2  H   UNL d   1      -0.605   1.229   1.097  0.00  0.00     0.140 HD
ENDROOT
BRANCH   1   3
ATOM      3  S   UNL d   1       0.896  -0.047  -0.066  0.00  0.00     0.241 S 
ATOM      4  O   UNL d   1       2.138  -0.653   0.351  0.00  0.00    -0.206 OA
ATOM      5  O   UNL d   1       0.752   0.623  -1.339  0.00  0.00    -0.206 OA
BRANCH   3   6
ATOM      6  C   UNL d   1      -0.376  -1.293  -0.009  0.00  0.00     0.074 A 
ATOM      7  C   UNL d   1      -1.672  -0.955  -0.419  0.00  0.00     0.028 A 
ATOM      8  C   UNL d   1      -2.677  -1.922  -0.387  0.00  0.00     0.044 A 
ATOM      9  C   UNL d   1      -2.374  -3.214   0.033  0.00  0.00     0.116 A 
ATOM     10  C   UNL d   1      -1.080  -3.562   0.414  0.00  0.00     0.044 A 
ATOM     11  F   UNL d   1      -3.342  -4.138   0.066  0.00  0.00    -0.206 F 
ATOM     12  C   UNL d   1      -0.069  -2.599   0.392  0.00  0.00     0.028 A 
ENDBRANCH   3   6
ENDBRANCH   1   3
BRANCH   1  13
ATOM     13  C   UNL d   1       0.861   0.696   2.490  0.00  0.00     0.144 C 
BRANCH  13  14
ATOM     14  C   UNL d   1       0.371   1.725   3.468  0.00  0.00    -0.026 A 
ATOM     15  C   UNL d   1       1.051   2.895   3.750  0.00  0.00     0.059 A 
ATOM     16  S   UNL d   1       0.347   3.785   5.018  0.00  0.00    -0.101 SA
ATOM     17  C   UNL d   1      -0.918   2.638   5.218  0.00  0.00     0.015 A 
ATOM     18  C   UNL d   1      -0.815   1.595   4.290  0.00  0.00    -0.011 A 
ATOM     19  C   UNL d   1      -1.951   2.682   6.176  0.00  0.00     0.019 A 
ATOM     20  C   UNL d   1      -1.818   0.592   4.320  0.00  0.00     0.013 A 
ATOM     21  C   UNL d   1      -2.854   0.640   5.259  0.00  0.00     0.001 A 
ATOM     22  C   UNL d   1      -2.913   1.671   6.183  0.00  0.00     0.001 A 
ENDBRANCH  13  14
ENDBRANCH   1  13
TORSDOF 4
