REMARK  6 active torsions:
REMARK  status: ('A' for Active; 'I' for Inactive)
REMARK    1  A    between atoms: O_11  and  C_3 
REMARK    2  A    between atoms: S_9  and  C_4 
REMARK    3  A    between atoms: C_13  and  C_5 
REMARK    4  A    between atoms: C_14  and  C_8 
REMARK    5  A    between atoms: C_10  and  C_13 
REMARK    6  A    between atoms: C_15  and  C_14 
ROOT
ATOM      1  N   UNL d   1      -0.591   1.316  -0.082  0.00  0.00    -0.317 N 
ATOM      2  HN  UNL d   1      -1.024   2.239  -0.102  1.00  0.00     0.170 HD
ATOM      3  C   UNL d   1      -1.302   0.184  -0.055  0.00  0.00     0.150 A 
ATOM      4  C   UNL d   1       0.733   1.139  -0.080  0.00  0.00     0.143 A 
ATOM      5  C   UNL d   1      -0.799  -1.104  -0.018  0.00  0.00     0.019 A 
ATOM      6  N   UNL d   1       1.355  -0.048  -0.060  0.00  0.00    -0.340 N 
ATOM      7  HN  UNL d   1       2.373  -0.107  -0.069  1.00  0.00     0.168 HD
ATOM      8  C   UNL d   1       0.589  -1.167  -0.029  0.00  0.00     0.022 A 
ENDROOT
BRANCH   5   9
ATOM      9  C   UNL d   1      -1.718  -2.291   0.054  0.00  0.00     0.071 C 
BRANCH   9  10
ATOM     10  C   UNL d   1      -2.174  -2.899  -1.246  0.00  0.00    -0.032 C 
ATOM     11  C   UNL d   1      -1.903  -2.498  -2.494  0.00  0.00     0.007 C 
ENDBRANCH   9  10
ENDBRANCH   5   9
BRANCH   3  12
ATOM     12  O   UNL d   1      -2.642   0.411  -0.036  0.00  0.00    -0.346 OA
ATOM     13  H   UNL d   1      -2.663   1.385  -0.062  0.00  0.00     0.219 HD
ENDBRANCH   3  12
BRANCH   8  14
ATOM     14  C   UNL d   1       1.378  -2.452   0.035  0.00  0.00     0.057 C 
BRANCH  14  15
ATOM     15  C   UNL d   1       1.731  -3.072  -1.320  0.00  0.00     0.002 C 
ATOM     16  C   UNL d   1       2.620  -2.196  -2.191  0.00  0.00     0.005 C 
ENDBRANCH  14  15
ENDBRANCH   8  14
BRANCH   4  17
ATOM     17  S   UNL d   1       1.736   2.594  -0.065  0.00  0.00    -0.107 SA
ATOM     18  H   UNL d   1       0.689   3.424  -0.004  0.00  0.00     0.110 HD
ENDBRANCH   4  17
TORSDOF 6
