REMARK  7 active torsions:
REMARK  status: ('A' for Active; 'I' for Inactive)
REMARK    1  A    between atoms: C_2  and  C_1 
REMARK    2  A    between atoms: C_3  and  C_1 
REMARK    3  A    between atoms: C_4  and  C_1 
REMARK    4  A    between atoms: C_5  and  C_1 
REMARK    5  A    between atoms: O_10  and  C_2 
REMARK    6  A    between atoms: C_8  and  C_4 
REMARK    7  A    between atoms: C_9  and  C_5 
ROOT
ATOM      1  C   UNL d   1       0.879  -0.028   0.062  0.00  0.00     0.115 C 
ENDROOT
BRANCH   1   2
ATOM      2  C   UNL d   1       0.445  -1.476  -0.158  0.00  0.00     0.275 C 
ATOM      3  O   UNL d   1      -0.162  -1.882  -1.142  0.00  0.00    -0.264 OA
BRANCH   2   4
ATOM      4  O   UNL d   1       0.897  -2.301   0.835  0.00  0.00    -0.326 OA
ATOM      5  C   UNL d   1       0.497  -3.665   0.681  0.00  0.00     0.213 C 
ENDBRANCH   2   4
ENDBRANCH   1   2
BRANCH   1   6
ATOM      6  C   UNL d   1       0.456   0.511   1.438  0.00  0.00     0.142 C 
ATOM      7  O   UNL d   1      -0.207  -0.157   2.238  0.00  0.00    -0.297 OA
ATOM      8  C   UNL d   1       0.845   1.924   1.835  0.00  0.00     0.092 C 
ENDBRANCH   1   6
BRANCH   1   9
ATOM      9  C   UNL d   1       0.278   0.871  -1.057  0.00  0.00     0.066 C 
BRANCH   9  10
ATOM     10  C   UNL d   1      -1.236   0.971  -1.189  0.00  0.00    -0.056 A 
ATOM     11  C   UNL d   1      -2.058   1.492  -0.179  0.00  0.00     0.010 A 
ATOM     12  C   UNL d   1      -3.439   1.606  -0.360  0.00  0.00     0.043 A 
ATOM     13  C   UNL d   1      -4.007   1.216  -1.560  0.00  0.00     0.116 A 
ATOM     14  C   UNL d   1      -3.222   0.704  -2.582  0.00  0.00     0.043 A 
ATOM     15  F   UNL d   1      -5.329   1.343  -1.737  0.00  0.00    -0.206 F 
ATOM     16  C   UNL d   1      -1.843   0.581  -2.397  0.00  0.00     0.010 A 
ENDBRANCH   9  10
ENDBRANCH   1   9
BRANCH   1  17
ATOM     17  C   UNL d   1       2.436  -0.001   0.051  0.00  0.00     0.066 C 
BRANCH  17  18
ATOM     18  C   UNL d   1       3.168  -0.451  -1.196  0.00  0.00    -0.056 A 
ATOM     19  C   UNL d   1       3.458   0.466  -2.220  0.00  0.00     0.010 A 
ATOM     20  C   UNL d   1       4.246   0.089  -3.308  0.00  0.00     0.043 A 
ATOM     21  C   UNL d   1       4.747  -1.204  -3.375  0.00  0.00     0.116 A 
ATOM     22  C   UNL d   1       4.448  -2.137  -2.391  0.00  0.00     0.043 A 
ATOM     23  F   UNL d   1       5.545  -1.550  -4.394  0.00  0.00    -0.206 F 
ATOM     24  C   UNL d   1       3.652  -1.764  -1.305  0.00  0.00     0.010 A 
ENDBRANCH  17  18
ENDBRANCH   1  17
TORSDOF 7
