REMARK  2 active torsions:
REMARK  status: ('A' for Active; 'I' for Inactive)
REMARK       I    between atoms: N_2  and  C_1 
REMARK       I    between atoms: N_3  and  C_1 
REMARK    1  A    between atoms: C_7  and  N_2 
REMARK    2  A    between atoms: C_5  and  C_6 
ROOT
ATOM      1  C   UNL d   1       2.531  -3.633   3.020  0.00  0.00    -0.051 A 
ATOM      2  C   UNL d   1       0.932  -1.851   1.468  0.00  0.00     0.036 A 
ATOM      3  C   UNL d   1       1.442  -4.088   2.258  0.00  0.00     0.010 A 
ATOM      4  C   UNL d   1       2.803  -2.256   2.977  0.00  0.00     0.010 A 
ATOM      5  C   UNL d   1       0.665  -3.216   1.490  0.00  0.00     0.030 A 
ATOM      6  C   UNL d   1       2.019  -1.379   2.208  0.00  0.00     0.030 A 
ENDROOT
BRANCH   2   7
ATOM      7  N   UNL d   1       0.173  -0.919   0.718  0.00  0.00    -0.309 N 
ATOM      8  C   UNL d   1      -1.061  -1.147   0.153  0.00  0.00     0.322 C 
ATOM      9  N   UNL d   1      -1.541  -0.140  -0.680  0.00  0.00    -0.343 N 
ATOM     10  O   UNL d   1      -1.729  -2.159   0.356  0.00  0.00    -0.247 OA
ATOM     11  C   UNL d   1      -2.874  -0.308  -1.245  0.00  0.00     0.154 C 
ATOM     12  C   UNL d   1      -0.822   1.040  -1.139  0.00  0.00     0.154 C 
ATOM     13  H   UNL d   1       0.459   0.042   0.800  0.00  0.00     0.170 HD
ENDBRANCH   2   7
BRANCH   1  14
ATOM     14  C   UNL d   1       3.363  -4.635   3.837  0.00  0.00    -0.024 C 
ATOM     15  C   UNL d   1       4.552  -3.993   4.585  0.00  0.00     0.019 C 
ATOM     16  C   UNL d   1       2.470  -5.321   4.894  0.00  0.00     0.019 C 
ATOM     17  C   UNL d   1       3.945  -5.714   2.896  0.00  0.00     0.019 C 
ENDBRANCH   1  14
TORSDOF 2
