REMARK  3 active torsions:
REMARK  status: ('A' for Active; 'I' for Inactive)
REMARK    1  A    between atoms: C_9  and  N_6 
REMARK    2  A    between atoms: C_10  and  C_9 
REMARK       I    between atoms: N_13  and  C_10 
REMARK       I    between atoms: C_11  and  N_12 
REMARK       I    between atoms: N_16  and  C_11 
REMARK    3  A    between atoms: N_12  and  N_13 
ROOT
ATOM      1  C   UNL d   1      -0.577  -1.255  -0.013  0.00  0.00     0.709 A 
ATOM      2  N   UNL d   1       0.630  -0.859  -0.447  0.00  0.00    -0.115 N 
ATOM      3  HN  UNL d   1       1.342  -1.380  -0.959  1.00  0.00     0.207 HD
ATOM      4  N   UNL d   1      -1.271  -0.231   0.590  0.00  0.00    -0.113 N 
ATOM      5  HN  UNL d   1      -2.209  -0.287   0.986  1.00  0.00     0.203 HD
ATOM      6  N   UNL d   1       0.639   0.416  -0.016  0.00  0.00    -0.194 N 
ATOM      7  N   UNL d   1      -0.497   0.839   0.560  0.00  0.00     0.011 NA
ATOM      8  N   UNL d   1      -1.113  -2.502  -0.098  0.00  0.00    -0.215 N 
ATOM      9  C   UNL d   1      -0.790  -3.291  -1.291  0.00  0.00     0.141 C 
ATOM     10  C   UNL d   1      -2.462  -2.690   0.447  0.00  0.00     0.141 C 
ATOM     11  C   UNL d   1      -2.725  -4.165   0.727  0.00  0.00     0.020 C 
ATOM     12  C   UNL d   1      -1.107  -4.774  -1.087  0.00  0.00     0.020 C 
ATOM     13  C   UNL d   1      -2.504  -5.008  -0.521  0.00  0.00     0.003 C 
ENDROOT
BRANCH   6  14
ATOM     14  C   UNL d   1       1.775   1.309  -0.061  0.00  0.00     0.272 C 
BRANCH  14  15
ATOM     15  C   UNL d   1       3.109   0.792  -0.526  0.00  0.00     0.257 C 
ATOM     16  N   UNL d   1       3.201  -0.423  -1.158  0.00  0.00    -0.265 N 
ATOM     17  H   UNL d   1       2.467  -1.141  -1.089  0.00  0.00     0.190 HD
ATOM     18  O   UNL d   1       4.117   1.499  -0.386  0.00  0.00    -0.270 OA
BRANCH  16  19
ATOM     19  N   UNL d   1       4.490  -0.838  -1.545  0.00  0.00    -0.249 N 
ATOM     20  C   UNL d   1       4.767  -2.188  -1.611  0.00  0.00     0.334 C 
ATOM     21  O   UNL d   1       3.919  -3.066  -1.484  0.00  0.00    -0.246 OA
ATOM     22  N   UNL d   1       6.101  -2.409  -1.856  0.00  0.00    -0.346 N 
ATOM     23  C   UNL d   1       6.629  -3.733  -2.079  0.00  0.00     0.151 C 
ATOM     24  H   UNL d   1       6.623  -1.634  -2.233  0.00  0.00     0.163 HD
ATOM     25  H   UNL d   1       5.233  -0.222  -1.222  0.00  0.00     0.192 HD
ENDBRANCH  16  19
ENDBRANCH  14  15
ENDBRANCH   6  14
TORSDOF 3
