REMARK  5 active torsions:
REMARK  status: ('A' for Active; 'I' for Inactive)
REMARK    1  A    between atoms: C_7  and  C_1 
REMARK    2  A    between atoms: S_9  and  C_4 
REMARK    3  A    between atoms: C_8  and  C_7 
REMARK    4  A    between atoms: C_18  and  S_9 
REMARK    5  A    between atoms: C_19  and  C_18 
ROOT
ATOM      1  C   UNL d   1      -1.518   1.123  -0.039  0.00  0.00     0.117 A 
ATOM      2  N   UNL d   1      -2.321  -0.003  -0.073  0.00  0.00    -0.331 N 
ATOM      3  HN  UNL d   1      -3.341  -0.027  -0.103  1.00  0.00     0.168 HD
ATOM      4  C   UNL d   1      -1.509  -1.038  -0.058  0.00  0.00     0.152 A 
ATOM      5  C   UNL d   1      -0.187   0.741  -0.022  0.00  0.00     0.071 A 
ATOM      6  N   UNL d   1      -0.180  -0.654  -0.028  0.00  0.00    -0.300 N 
ATOM      7  C   UNL d   1       1.006  -1.396  -0.012  0.00  0.00     0.099 A 
ATOM      8  C   UNL d   1       1.071   1.413   0.002  0.00  0.00     0.032 A 
ATOM      9  C   UNL d   1       2.191  -0.758   0.006  0.00  0.00     0.018 A 
ATOM     10  C   UNL d   1       2.209   0.695   0.014  0.00  0.00     0.004 A 
ENDROOT
BRANCH   4  11
ATOM     11  S   UNL d   1      -2.015  -2.705  -0.045  0.00  0.00    -0.089 SA
BRANCH  11  12
ATOM     12  C   UNL d   1      -3.686  -2.579  -0.754  0.00  0.00     0.121 C 
BRANCH  12  13
ATOM     13  C   UNL d   1      -4.397  -3.916  -0.822  0.00  0.00    -0.049 A 
ATOM     14  C   UNL d   1      -5.281  -4.312   0.193  0.00  0.00     0.008 A 
ATOM     15  C   UNL d   1      -5.967  -5.530   0.111  0.00  0.00     0.007 A 
ATOM     16  C   UNL d   1      -5.781  -6.383  -0.983  0.00  0.00    -0.062 A 
ATOM     17  C   UNL d   1      -4.891  -5.998  -1.991  0.00  0.00     0.007 A 
ATOM     18  C   UNL d   1      -6.528  -7.683  -1.061  0.00  0.00     0.048 C 
ATOM     19  C   UNL d   1      -4.205  -4.779  -1.911  0.00  0.00     0.008 A 
ENDBRANCH  12  13
ENDBRANCH  11  12
ENDBRANCH   4  11
BRANCH   1  20
ATOM     20  C   UNL d   1      -2.024   2.499  -0.025  0.00  0.00     0.283 C 
ATOM     21  O   UNL d   1      -1.238   3.458  -0.033  0.00  0.00    -0.281 OA
BRANCH  20  22
ATOM     22  C   UNL d   1      -3.531   2.726   0.010  0.00  0.00     0.457 C 
ATOM     23  F   UNL d   1      -4.311   1.612  -0.018  0.00  0.00    -0.163 F 
ATOM     24  F   UNL d   1      -3.909   3.413   1.130  0.00  0.00    -0.163 F 
ATOM     25  F   UNL d   1      -3.946   3.491  -1.045  0.00  0.00    -0.163 F 
ENDBRANCH  20  22
ENDBRANCH   1  20
TORSDOF 5
