REMARK  5 active torsions:
REMARK  status: ('A' for Active; 'I' for Inactive)
REMARK    1  A    between atoms: C_2  and  S_1 
REMARK    2  A    between atoms: O_7  and  S_1 
REMARK    3  A    between atoms: C_3  and  C_5 
REMARK    4  A    between atoms: C_4  and  C_6 
REMARK    5  A    between atoms: C_15  and  O_7 
ROOT
ATOM      1  C   UNL d   1       0.517   1.578  -0.436  0.00  0.00     0.088 A 
ATOM      2  C   UNL d   1       0.847   3.982  -0.351  0.00  0.00     0.050 A 
ATOM      3  C   UNL d   1      -1.286   3.049  -1.130  0.00  0.00     0.050 A 
ATOM      4  C   UNL d   1      -0.785   1.756  -0.919  0.00  0.00     0.042 A 
ATOM      5  C   UNL d   1       1.332   2.680  -0.153  0.00  0.00     0.042 A 
ATOM      6  C   UNL d   1      -0.458   4.153  -0.850  0.00  0.00     0.032 A 
ENDROOT
BRANCH   1   7
ATOM      7  S   UNL d   1       1.074  -0.065   0.000  0.00  0.00     0.303 S 
ATOM      8  O   UNL d   1      -0.119  -0.824   0.325  0.00  0.00    -0.193 OA
ATOM      9  O   UNL d   1       2.131   0.104   0.979  0.00  0.00    -0.193 OA
BRANCH   7  10
ATOM     10  O   UNL d   1       1.717  -0.645  -1.380  0.00  0.00    -0.228 OA
BRANCH  10  11
ATOM     11  C   UNL d   1       2.249  -1.906  -1.447  0.00  0.00     0.105 A 
ATOM     12  C   UNL d   1       2.793  -2.292  -2.668  0.00  0.00     0.125 A 
ATOM     13  N   UNL d   1       3.356  -3.500  -2.909  0.00  0.00    -0.373 N 
ATOM     14  C   UNL d   1       3.379  -4.372  -1.879  0.00  0.00     0.088 A 
ATOM     15  HN  UNL d   1       3.742  -3.738  -3.822  1.00  0.00     0.164 HD
ATOM     16  C   UNL d   1       2.867  -4.087  -0.625  0.00  0.00     0.020 A 
ATOM     17  C   UNL d   1       2.294  -2.834  -0.408  0.00  0.00     0.041 A 
ENDBRANCH  10  11
ENDBRANCH   7  10
ENDBRANCH   1   7
BRANCH   3  18
ATOM     18  C   UNL d   1      -2.703   3.273  -1.610  0.00  0.00     0.417 C 
ATOM     19  F   UNL d   1      -3.406   2.121  -1.782  0.00  0.00    -0.166 F 
ATOM     20  F   UNL d   1      -3.427   4.030  -0.741  0.00  0.00    -0.166 F 
ATOM     21  F   UNL d   1      -2.747   3.924  -2.804  0.00  0.00    -0.166 F 
ENDBRANCH   3  18
BRANCH   2  22
ATOM     22  C   UNL d   1       1.682   5.192   0.009  0.00  0.00     0.417 C 
ATOM     23  F   UNL d   1       2.900   4.876   0.527  0.00  0.00    -0.166 F 
ATOM     24  F   UNL d   1       1.924   5.992  -1.065  0.00  0.00    -0.166 F 
ATOM     25  F   UNL d   1       1.071   5.979   0.936  0.00  0.00    -0.166 F 
ENDBRANCH   2  22
TORSDOF 5
