REMARK  7 active torsions:
REMARK  status: ('A' for Active; 'I' for Inactive)
REMARK    1  A    between atoms: C_27  and  C_2 
REMARK       I    between atoms: C_7  and  N_9 
REMARK    2  A    between atoms: C_13  and  C_7 
REMARK    3  A    between atoms: C_8  and  C_20 
REMARK       I    between atoms: N_11  and  C_8 
REMARK    4  A    between atoms: N_9  and  N_11 
REMARK    5  A    between atoms: O_21  and  C_17 
REMARK    6  A    between atoms: C_20  and  O_21 
REMARK    7  A    between atoms: C_28  and  C_27 
ROOT
ATOM      1  C   UNL d   1       3.506   3.372  -0.114  0.00  0.00     0.280 C 
ENDROOT
BRANCH   1   2
ATOM      2  C   UNL d   1       4.836   4.116  -0.035  0.00  0.00     0.260 C 
ATOM      3  N   UNL d   1       5.434   4.389  -1.252  0.00  0.00    -0.265 N 
ATOM      4  H   UNL d   1       5.011   4.193  -2.159  0.00  0.00     0.190 HD
ATOM      5  O   UNL d   1       5.348   4.460   1.033  0.00  0.00    -0.269 OA
BRANCH   3   6
ATOM      6  N   UNL d   1       6.603   5.163  -1.254  0.00  0.00    -0.263 N 
ATOM      7  C   UNL d   1       7.174   5.502  -2.462  0.00  0.00     0.270 C 
ATOM      8  O   UNL d   1       6.710   5.151  -3.544  0.00  0.00    -0.266 OA
ATOM      9  H   UNL d   1       7.056   5.294  -0.350  0.00  0.00     0.190 HD
BRANCH   7  10
ATOM     10  C   UNL d   1       8.414   6.326  -2.400  0.00  0.00     0.033 A 
ATOM     11  C   UNL d   1       9.369   6.187  -3.418  0.00  0.00     0.019 A 
ATOM     12  C   UNL d   1      10.523   6.980  -3.417  0.00  0.00     0.025 A 
ATOM     13  C   UNL d   1      10.714   7.921  -2.408  0.00  0.00     0.034 A 
ATOM     14  C   UNL d   1       9.768   8.070  -1.393  0.00  0.00     0.025 A 
ATOM     15 CL   UNL d   1      12.116   8.918  -2.422  0.00  0.00    -0.084 Cl
ATOM     16  C   UNL d   1       8.618   7.274  -1.387  0.00  0.00     0.019 A 
ENDBRANCH   7  10
ENDBRANCH   3   6
ENDBRANCH   1   2
BRANCH   1  17
ATOM     17  O   UNL d   1       3.741   1.970  -0.062  0.00  0.00    -0.342 OA
BRANCH  17  18
ATOM     18  C   UNL d   1       2.646   1.150  -0.023  0.00  0.00     0.072 A 
ATOM     19  C   UNL d   1       1.314   1.550  -0.057  0.00  0.00     0.075 A 
ATOM     20  C   UNL d   1       0.303   0.579  -0.037  0.00  0.00     0.092 A 
ATOM     21  O   UNL d   1      -1.020   1.069  -0.070  0.00  0.00    -0.275 OA
ATOM     22  C   UNL d   1       0.569  -0.792   0.010  0.00  0.00     0.004 A 
ATOM     23  C   UNL d   1      -2.102   0.208  -0.063  0.00  0.00     0.288 A 
ATOM     24  O   UNL d   1      -3.261   0.608  -0.072  0.00  0.00    -0.260 OA
ATOM     25  C   UNL d   1      -1.805  -1.231  -0.063  0.00  0.00     0.090 A 
ATOM     26  C   UNL d   1      -0.561  -1.736  -0.022  0.00  0.00    -0.039 A 
ATOM     27  C   UNL d   1       1.911  -1.176   0.070  0.00  0.00     0.017 A 
ATOM     28  C   UNL d   1       2.934  -0.215   0.052  0.00  0.00     0.038 A 
BRANCH  26  29
ATOM     29  C   UNL d   1      -0.343  -3.231  -0.077  0.00  0.00     0.039 C 
BRANCH  29  30
ATOM     30  C   UNL d   1      -0.227  -3.862   1.314  0.00  0.00     0.000 C 
ATOM     31  C   UNL d   1       0.030  -5.359   1.223  0.00  0.00     0.005 C 
ENDBRANCH  29  30
ENDBRANCH  26  29
ENDBRANCH  17  18
ENDBRANCH   1  17
TORSDOF 7
