REMARK  2 active torsions:
REMARK  status: ('A' for Active; 'I' for Inactive)
REMARK    1  A    between atoms: C_9  and  C_3 
REMARK    2  A    between atoms: C_4  and  C_8 
ROOT
ATOM      1  C   UNL d   1       3.877  -4.540  -0.129  0.00  0.00     0.048 A 
ATOM      2  C   UNL d   1       2.036  -2.393  -0.067  0.00  0.00    -0.009 A 
ATOM      3  C   UNL d   1       3.922  -3.591   0.902  0.00  0.00     0.017 A 
ATOM      4  C   UNL d   1       2.903  -4.403  -1.129  0.00  0.00     0.017 A 
ATOM      5  C   UNL d   1       3.014  -2.526   0.928  0.00  0.00     0.014 A 
ATOM      6  C   UNL d   1       1.993  -3.341  -1.099  0.00  0.00     0.014 A 
ENDROOT
BRANCH   2   7
ATOM      7  C   UNL d   1       1.106  -1.271  -0.024  0.00  0.00     0.049 A 
ATOM      8  N   UNL d   1       1.475  -0.050   0.521  0.00  0.00    -0.353 N 
ATOM      9  C   UNL d   1       0.482   0.809   0.419  0.00  0.00     0.047 A 
ATOM     10  HN  UNL d   1       2.382   0.153   0.940  1.00  0.00     0.166 HD
ATOM     11  S   UNL d   1      -0.958   0.195  -0.288  0.00  0.00    -0.087 SA
ATOM     12  C   UNL d   1       0.542   2.228   0.863  0.00  0.00     0.076 C 
ATOM     13  C   UNL d   1      -0.192  -1.325  -0.494  0.00  0.00     0.081 A 
ENDBRANCH   2   7
BRANCH   1  14
ATOM     14  C   UNL d   1       4.854  -5.689  -0.184  0.00  0.00     0.417 C 
ATOM     15  F   UNL d   1       5.744  -5.702   0.847  0.00  0.00    -0.166 F 
ATOM     16  F   UNL d   1       4.233  -6.901  -0.156  0.00  0.00    -0.166 F 
ATOM     17  F   UNL d   1       5.602  -5.681  -1.323  0.00  0.00    -0.166 F 
ENDBRANCH   1  14
TORSDOF 2
