REMARK  2 active torsions:
REMARK  status: ('A' for Active; 'I' for Inactive)
REMARK    1  A    between atoms: C_15  and  N_8 
REMARK    2  A    between atoms: C_18  and  C_15 
ROOT
ATOM      1  C   UNL d   1       0.054  -0.723   0.062  0.00  0.00     0.101 A 
ATOM      2  C   UNL d   1       0.007   0.621   0.060  0.00  0.00     0.077 A 
ATOM      3  N   UNL d   1       1.269  -1.370  -0.059  0.00  0.00    -0.293 N 
ATOM      4  N   UNL d   1       2.435   0.683  -0.014  0.00  0.00    -0.270 N 
ATOM      5  C   UNL d   1       2.491  -0.699  -0.101  0.00  0.00     0.332 A 
ATOM      6  C   UNL d   1       1.258   1.402   0.036  0.00  0.00     0.262 A 
ATOM      7  N   UNL d   1      -1.141  -1.421   0.180  0.00  0.00    -0.252 NA
ATOM      8  N   UNL d   1      -2.461   0.587  -0.358  0.00  0.00     0.111 N 
ATOM      9  C   UNL d   1      -1.294   1.391   0.070  0.00  0.00     0.322 C 
ATOM     10  C   UNL d   1      -2.390  -0.694   0.339  0.00  0.00     0.369 C 
ATOM     11  O   UNL d   1       3.559  -1.310  -0.200  0.00  0.00    -0.246 OA
ATOM     12  O   UNL d   1       1.215   2.632   0.082  0.00  0.00    -0.267 OA
ATOM     13  C   UNL d   1       1.352  -2.824  -0.096  0.00  0.00     0.162 C 
ATOM     14  C   UNL d   1       3.675   1.432   0.014  0.00  0.00     0.164 C 
ATOM     15  H   UNL d   1      -1.220  -2.136  -0.535  0.00  0.00     0.130 HD
ENDROOT
BRANCH   8  16
ATOM     16  C   UNL d   1      -3.726   1.292  -0.076  0.00  0.00     0.331 C 
BRANCH  16  17
ATOM     17  C   UNL d   1      -4.966   0.509  -0.487  0.00  0.00     0.037 A 
ATOM     18  N   UNL d   1      -5.486  -0.345   0.436  0.00  0.00    -0.368 N 
ATOM     19  C   UNL d   1      -6.519  -1.127   0.052  0.00  0.00     0.088 A 
ATOM     20  HN  UNL d   1      -5.109  -0.393   1.382  1.00  0.00     0.165 HD
ATOM     21  C   UNL d   1      -7.076  -1.098  -1.214  0.00  0.00     0.017 A 
ATOM     22  C   UNL d   1      -6.549  -0.209  -2.142  0.00  0.00     0.003 A 
ATOM     23  C   UNL d   1      -5.475   0.603  -1.781  0.00  0.00     0.027 A 
ENDBRANCH  16  17
ENDBRANCH   8  16
TORSDOF 2
