REMARK  8 active torsions:
REMARK  status: ('A' for Active; 'I' for Inactive)
REMARK    1  A    between atoms: C_7  and  C_1 
REMARK    2  A    between atoms: C_2  and  O_13 
REMARK    3  A    between atoms: C_3  and  C_2 
REMARK       I    between atoms: C_4  and  N_6 
REMARK    4  A    between atoms: C_8  and  C_4 
REMARK    5  A    between atoms: N_6  and  C_5 
REMARK    6  A    between atoms: C_11  and  C_8 
REMARK    7  A    between atoms: O_13  and  N_9 
REMARK    8  A    between atoms: N_26  and  C_11 
ROOT
ATOM      1  C   UNL d   1      -2.571  -3.749  -2.049  0.00  0.00     0.228 C 
ATOM      2  N   UNL d   1      -2.619  -2.596  -1.290  0.00  0.00    -0.325 N 
ATOM      3  O   UNL d   1      -2.893  -3.849  -3.230  0.00  0.00    -0.273 OA
ATOM      4  H   UNL d   1      -2.173  -2.643  -0.374  0.00  0.00     0.169 HD
ENDROOT
BRANCH   1   5
ATOM      5  C   UNL d   1      -2.158  -4.975  -1.262  0.00  0.00     0.174 C 
BRANCH   5   6
ATOM      6  C   UNL d   1      -0.757  -4.972  -0.672  0.00  0.00     0.084 C 
ATOM      7  N   UNL d   1      -0.117  -3.842  -0.651  0.00  0.00    -0.250 N 
ATOM      8  HN  UNL d   1      -0.496  -2.992  -1.068  1.00  0.00     0.196 HD
BRANCH   7   9
ATOM      9  O   UNL d   1       1.145  -3.875  -0.007  0.00  0.00    -0.193 OA
BRANCH   9  10
ATOM     10  C   UNL d   1       2.138  -4.330  -0.845  0.00  0.00     0.322 C 
ATOM     11  O   UNL d   1       2.006  -5.303  -1.589  0.00  0.00    -0.257 OA
BRANCH  10  12
ATOM     12  C   UNL d   1       3.382  -3.608  -0.663  0.00  0.00     0.082 A 
ATOM     13  S   UNL d   1       3.454  -2.066   0.077  0.00  0.00    -0.096 SA
ATOM     14  C   UNL d   1       5.131  -1.919  -0.229  0.00  0.00     0.050 A 
ATOM     15  C   UNL d   1       5.641  -3.036  -0.852  0.00  0.00     0.009 A 
ATOM     16  C   UNL d   1       4.632  -4.008  -1.104  0.00  0.00     0.026 A 
ENDBRANCH  10  12
ENDBRANCH   9  10
ENDBRANCH   7   9
BRANCH   6  17
ATOM     17  N   UNL d   1      -0.295  -6.178  -0.191  0.00  0.00    -0.290 NA
ATOM     18  H   UNL d   1       0.717  -6.262  -0.257  0.00  0.00     0.125 HD
ATOM     19  H   UNL d   1      -0.729  -7.000  -0.600  0.00  0.00     0.125 HD
ENDBRANCH   6  17
ENDBRANCH   5   6
ENDBRANCH   1   5
BRANCH   2  20
ATOM     20  C   UNL d   1      -2.993  -1.293  -1.697  0.00  0.00     0.057 A 
ATOM     21  C   UNL d   1      -3.535  -1.011  -2.956  0.00  0.00     0.047 A 
ATOM     22  C   UNL d   1      -3.842   0.309  -3.336  0.00  0.00     0.050 A 
ATOM     23  C   UNL d   1      -3.648   1.349  -2.415  0.00  0.00     0.018 A 
ATOM     24  C   UNL d   1      -3.130   1.081  -1.149  0.00  0.00     0.027 A 
ATOM     25  C   UNL d   1      -2.799  -0.229  -0.796  0.00  0.00     0.060 A 
ATOM     26 CL   UNL d   1      -2.134  -0.501   0.780  0.00  0.00    -0.082 Cl
BRANCH  22  27
ATOM     27  C   UNL d   1      -4.380   0.611  -4.715  0.00  0.00     0.417 C 
ATOM     28  F   UNL d   1      -4.187  -0.392  -5.614  0.00  0.00    -0.166 F 
ATOM     29  F   UNL d   1      -3.803   1.716  -5.265  0.00  0.00    -0.166 F 
ATOM     30  F   UNL d   1      -5.719   0.858  -4.707  0.00  0.00    -0.166 F 
ENDBRANCH  22  27
ENDBRANCH   2  20
TORSDOF 8
