REMARK  1 active torsions:
REMARK  status: ('A' for Active; 'I' for Inactive)
REMARK    1  A    between atoms: O_16  and  C_2 
ROOT
ATOM      1  N   UNL d   1       0.193   0.410   0.237  0.00  0.00    -0.259 N 
ATOM      2  C   UNL d   1      -0.551  -0.814   0.270  0.00  0.00     0.268 C 
ATOM      3  C   UNL d   1      -0.595   1.544   0.168  0.00  0.00     0.234 C 
ATOM      4  O   UNL d   1      -0.064  -1.617   1.333  0.00  0.00    -0.259 OA
ATOM      5  C   UNL d   1      -2.011  -0.420   0.484  0.00  0.00     0.094 C 
ATOM      6  C   UNL d   1      -2.015   1.141   0.477  0.00  0.00     0.098 C 
ATOM      7  C   UNL d   1       1.589   0.297   0.176  0.00  0.00     0.059 A 
ATOM      8  C   UNL d   1       1.268  -1.893   1.300  0.00  0.00     0.299 C 
ATOM      9  C   UNL d   1       2.129  -0.940   0.550  0.00  0.00     0.066 A 
ATOM     10  C   UNL d   1      -3.071  -0.742  -0.605  0.00  0.00     0.020 C 
ATOM     11  C   UNL d   1      -3.097   1.498  -0.558  0.00  0.00     0.022 C 
ATOM     12  C   UNL d   1      -2.642  -0.254  -1.970  0.00  0.00    -0.025 C 
ATOM     13  C   UNL d   1      -2.647   1.086  -1.938  0.00  0.00    -0.025 C 
ATOM     14  C   UNL d   1      -4.101   0.359  -0.309  0.00  0.00     0.018 C 
ATOM     15  O   UNL d   1      -0.247   2.706  -0.003  0.00  0.00    -0.272 OA
ATOM     16  O   UNL d   1       1.745  -2.832   1.925  0.00  0.00    -0.259 OA
ATOM     17  C   UNL d   1       2.439   1.305  -0.272  0.00  0.00     0.031 A 
ATOM     18  C   UNL d   1       3.476  -1.231   0.328  0.00  0.00     0.020 A 
ATOM     19  C   UNL d   1       4.305  -0.250  -0.211  0.00  0.00     0.001 A 
ATOM     20  C   UNL d   1       3.796   1.026  -0.469  0.00  0.00     0.002 A 
ENDROOT
BRANCH   2  21
ATOM     21  O   UNL d   1      -0.350  -1.515  -0.944  0.00  0.00    -0.347 OA
ATOM     22  H   UNL d   1      -0.953  -2.274  -0.918  0.00  0.00     0.215 HD
ENDBRANCH   2  21
TORSDOF 1
