REMARK  6 active torsions:
REMARK  status: ('A' for Active; 'I' for Inactive)
REMARK    1  A    between atoms: C_8  and  N_1 
REMARK    2  A    between atoms: C_12  and  C_5 
REMARK    3  A    between atoms: C_11  and  C_8 
REMARK    4  A    between atoms: C_9  and  C_14 
REMARK    5  A    between atoms: C_10  and  C_13 
REMARK       I    between atoms: N_15  and  C_11 
REMARK    6  A    between atoms: N_19  and  N_15 
REMARK       I    between atoms: C_20  and  N_19 
ROOT
ATOM      1  N   UNL d   1      -0.082  -1.182  -0.161  0.00  0.00    -0.203 N 
ATOM      2  N   UNL d   1       1.182  -0.740  -0.290  0.00  0.00    -0.268 N 
ATOM      3  HN  UNL d   1       2.035  -1.259  -0.500  1.00  0.00     0.190 HD
ATOM      4  N   UNL d   1      -0.987  -0.242   0.155  0.00  0.00    -0.002 NA
ATOM      5  C   UNL d   1       1.013   0.573  -0.067  0.00  0.00     0.144 A 
ATOM      6  N   UNL d   1      -0.296   0.892   0.204  0.00  0.00    -0.266 N 
ATOM      7  HN  UNL d   1      -0.666   1.821   0.405  1.00  0.00     0.186 HD
ENDROOT
BRANCH   5   8
ATOM      8  C   UNL d   1       2.108   1.530  -0.107  0.00  0.00     0.012 A 
ATOM      9  C   UNL d   1       3.389   1.098  -0.492  0.00  0.00     0.031 A 
ATOM     10  C   UNL d   1       4.474   1.981  -0.545  0.00  0.00     0.049 A 
ATOM     11  C   UNL d   1       4.262   3.325  -0.203  0.00  0.00     0.032 A 
ATOM     12  C   UNL d   1       2.988   3.787   0.178  0.00  0.00     0.049 A 
ATOM     13  C   UNL d   1       1.917   2.877   0.228  0.00  0.00     0.031 A 
BRANCH  10  14
ATOM     14  C   UNL d   1       5.840   1.497  -0.970  0.00  0.00     0.417 C 
ATOM     15  F   UNL d   1       5.883   0.174  -1.282  0.00  0.00    -0.166 F 
ATOM     16  F   UNL d   1       6.306   2.159  -2.064  0.00  0.00    -0.166 F 
ATOM     17  F   UNL d   1       6.775   1.679   0.004  0.00  0.00    -0.166 F 
ENDBRANCH  10  14
BRANCH  12  18
ATOM     18  C   UNL d   1       2.793   5.247   0.514  0.00  0.00     0.417 C 
ATOM     19  F   UNL d   1       1.508   5.569   0.829  0.00  0.00    -0.166 F 
ATOM     20  F   UNL d   1       3.550   5.640   1.575  0.00  0.00    -0.166 F 
ATOM     21  F   UNL d   1       3.142   6.063  -0.518  0.00  0.00    -0.166 F 
ENDBRANCH  12  18
ENDBRANCH   5   8
BRANCH   1  22
ATOM     22  C   UNL d   1      -0.387  -2.602  -0.134  0.00  0.00     0.214 C 
ATOM     23  C   UNL d   1       0.129  -3.229   1.158  0.00  0.00     0.046 C 
BRANCH  22  24
ATOM     24  C   UNL d   1       0.136  -3.343  -1.364  0.00  0.00     0.262 C 
ATOM     25  N   UNL d   1       1.295  -2.876  -1.950  0.00  0.00    -0.266 N 
ATOM     26  H   UNL d   1       1.770  -2.017  -1.649  0.00  0.00     0.190 HD
ATOM     27  O   UNL d   1      -0.418  -4.364  -1.778  0.00  0.00    -0.269 OA
BRANCH  25  28
ATOM     28  N   UNL d   1       1.778  -3.483  -3.114  0.00  0.00    -0.268 N 
ATOM     29  C   UNL d   1       2.877  -2.920  -3.731  0.00  0.00     0.232 C 
ATOM     30  O   UNL d   1       3.445  -1.920  -3.301  0.00  0.00    -0.272 OA
ATOM     31  C   UNL d   1       3.335  -3.642  -4.971  0.00  0.00     0.119 C 
ATOM     32  H   UNL d   1       1.210  -4.221  -3.525  0.00  0.00     0.190 HD
ENDBRANCH  25  28
ENDBRANCH  22  24
ENDBRANCH   1  22
TORSDOF 6
