REMARK  6 active torsions:
REMARK  status: ('A' for Active; 'I' for Inactive)
REMARK    1  A    between atoms: C_2  and  S_1 
REMARK    2  A    between atoms: O_3  and  S_1 
REMARK    3  A    between atoms: N_8  and  O_3 
REMARK    4  A    between atoms: C_11  and  N_8 
REMARK    5  A    between atoms: C_14  and  C_11 
REMARK    6  A    between atoms: N_13  and  C_14 
ROOT
ATOM      1  S   UNL d   1       1.016  -0.127   0.110  0.00  0.00     0.314 S 
ATOM      2  O   UNL d   1       0.307  -1.209  -0.553  0.00  0.00    -0.192 OA
ATOM      3  O   UNL d   1       2.465  -0.114   0.170  0.00  0.00    -0.192 OA
ENDROOT
BRANCH   1   4
ATOM      4  C   UNL d   1       0.415  -0.083   1.785  0.00  0.00     0.087 A 
ATOM      5  C   UNL d   1      -0.961  -0.039   2.019  0.00  0.00     0.026 A 
ATOM      6  C   UNL d   1      -1.434  -0.061   3.333  0.00  0.00     0.008 A 
ATOM      7  C   UNL d   1      -0.539  -0.132   4.412  0.00  0.00    -0.062 A 
ATOM      8  C   UNL d   1       0.838  -0.175   4.160  0.00  0.00     0.008 A 
ATOM      9  C   UNL d   1      -1.062  -0.182   5.818  0.00  0.00     0.048 C 
ATOM     10  C   UNL d   1       1.318  -0.151   2.849  0.00  0.00     0.026 A 
ENDBRANCH   1   4
BRANCH   1  11
ATOM     11  O   UNL d   1       0.492   1.303  -0.541  0.00  0.00    -0.176 OA
BRANCH  11  12
ATOM     12  N   UNL d   1       0.861   1.507  -1.958  0.00  0.00    -0.186 NA
ATOM     13  H   UNL d   1       0.315   0.771  -2.418  0.00  0.00     0.155 HD
BRANCH  12  14
ATOM     14  C   UNL d   1       0.307   2.810  -2.329  0.00  0.00     0.148 C 
BRANCH  14  15
ATOM     15  C   UNL d   1       0.663   3.122  -3.795  0.00  0.00     0.283 C 
BRANCH  15  16
ATOM     16  N   UNL d   1       0.115   4.404  -4.236  0.00  0.00     0.079 N 
ATOM     17  H   UNL d   1       0.390   4.562  -5.205  0.00  0.00     0.312 HD
ATOM     18  H   UNL d   1       0.547   5.157  -3.700  0.00  0.00     0.312 HD
ENDBRANCH  15  16
ENDBRANCH  14  15
ENDBRANCH  12  14
ENDBRANCH  11  12
ENDBRANCH   1  11
TORSDOF 6
