REMARK  3 active torsions:
REMARK  status: ('A' for Active; 'I' for Inactive)
REMARK    1  A    between atoms: N_6  and  C_2 
REMARK    2  A    between atoms: C_12  and  C_3 
REMARK    3  A    between atoms: O_24  and  C_20 
ROOT
ATOM      1  C   UNL d   1       0.105   1.007  -0.061  0.00  0.00     0.048 A 
ATOM      2  C   UNL d   1       1.439   1.492  -0.136  0.00  0.00     0.097 A 
ATOM      3  C   UNL d   1      -1.218   1.627   0.014  0.00  0.00    -0.003 A 
ATOM      4  C   UNL d   1      -0.017  -0.377  -0.021  0.00  0.00     0.089 A 
ATOM      5  C   UNL d   1      -2.219   0.671   0.071  0.00  0.00     0.065 A 
ATOM      6  S   UNL d   1      -1.626  -0.922   0.040  0.00  0.00    -0.082 SA
ATOM      7  N   UNL d   1       2.458   0.597  -0.099  0.00  0.00    -0.342 N 
ATOM      8  HN  UNL d   1       3.427   0.917  -0.119  1.00  0.00     0.167 HD
ATOM      9  N   UNL d   1       0.977  -1.280  -0.013  0.00  0.00    -0.346 N 
ATOM     10  HN  UNL d   1       0.828  -2.289   0.009  1.00  0.00     0.167 HD
ATOM     11  C   UNL d   1       2.178  -0.711  -0.037  0.00  0.00     0.182 A 
ENDROOT
BRANCH   2  12
ATOM     12  N   UNL d   1       1.739   2.854  -0.183  0.00  0.00    -0.268 NA
ATOM     13  C   UNL d   1       2.992   3.246   0.456  0.00  0.00     0.099 C 
ATOM     14  C   UNL d   1       2.851   4.720   0.822  0.00  0.00     0.046 C 
ATOM     15  C   UNL d   1       2.388   5.595  -0.351  0.00  0.00     0.120 C 
ATOM     16  C   UNL d   1       1.449   4.945  -1.379  0.00  0.00     0.046 C 
ATOM     17  C   UNL d   1       1.604   3.432  -1.520  0.00  0.00     0.099 C 
BRANCH  15  18
ATOM     18  O   UNL d   1       3.530   6.133  -1.021  0.00  0.00    -0.395 OA
ATOM     19  H   UNL d   1       4.006   5.399  -1.443  0.00  0.00     0.210 HD
ENDBRANCH  15  18
ENDBRANCH   2  12
BRANCH   3  20
ATOM     20  C   UNL d   1      -1.597   3.042   0.099  0.00  0.00    -0.024 A 
ATOM     21  C   UNL d   1      -2.664   3.545  -0.663  0.00  0.00     0.013 A 
ATOM     22  C   UNL d   1      -3.073   4.878  -0.534  0.00  0.00     0.007 A 
ATOM     23  C   UNL d   1      -2.408   5.742   0.340  0.00  0.00    -0.062 A 
ATOM     24  C   UNL d   1      -1.341   5.249   1.095  0.00  0.00     0.007 A 
ATOM     25  C   UNL d   1      -2.854   7.169   0.470  0.00  0.00     0.048 C 
ATOM     26  C   UNL d   1      -0.953   3.907   0.988  0.00  0.00     0.013 A 
ENDBRANCH   3  20
TORSDOF 3
