REMARK  6 active torsions:
REMARK  status: ('A' for Active; 'I' for Inactive)
REMARK    1  A    between atoms: C_8  and  S_1 
REMARK    2  A    between atoms: C_9  and  S_1 
REMARK    3  A    between atoms: C_2  and  C_5 
REMARK    4  A    between atoms: C_3  and  C_4 
REMARK    5  A    between atoms: C_13  and  C_8 
REMARK    6  A    between atoms: C_12  and  C_9 
ROOT
ATOM      1  S   UNL d   1       1.008  -0.073  -0.070  0.00  0.00     0.152 S 
ATOM      2  O   UNL d   1       0.640   0.092  -1.466  0.00  0.00    -0.227 OA
ATOM      3  O   UNL d   1       0.582  -1.234   0.695  0.00  0.00    -0.227 OA
ENDROOT
BRANCH   1   4
ATOM      4  C   UNL d   1       0.488   1.397   0.815  0.00  0.00     0.179 C 
BRANCH   4   5
ATOM      5  C   UNL d   1      -1.015   1.516   0.764  0.00  0.00    -0.043 A 
ATOM      6  C   UNL d   1      -1.817   0.911   1.746  0.00  0.00     0.024 A 
ATOM      7  C   UNL d   1      -3.218   0.999   1.691  0.00  0.00     0.048 A 
ATOM      8  C   UNL d   1      -3.815   1.709   0.639  0.00  0.00     0.016 A 
ATOM      9  C   UNL d   1      -3.028   2.312  -0.341  0.00  0.00     0.001 A 
ATOM     10  C   UNL d   1      -1.638   2.214  -0.281  0.00  0.00     0.008 A 
BRANCH   7  11
ATOM     11  C   UNL d   1      -4.087   0.336   2.733  0.00  0.00     0.417 C 
ATOM     12  F   UNL d   1      -3.381  -0.329   3.691  0.00  0.00    -0.166 F 
ATOM     13  F   UNL d   1      -4.865   1.232   3.404  0.00  0.00    -0.166 F 
ATOM     14  F   UNL d   1      -4.945  -0.576   2.199  0.00  0.00    -0.166 F 
ENDBRANCH   7  11
ENDBRANCH   4   5
ENDBRANCH   1   4
BRANCH   1  15
ATOM     15  C   UNL d   1       2.789   0.044   0.049  0.00  0.00     0.179 C 
BRANCH  15  16
ATOM     16  C   UNL d   1       3.439  -1.043  -0.771  0.00  0.00    -0.043 A 
ATOM     17  C   UNL d   1       3.772  -0.815  -2.116  0.00  0.00     0.024 A 
ATOM     18  C   UNL d   1       4.416  -1.801  -2.884  0.00  0.00     0.048 A 
ATOM     19  C   UNL d   1       4.708  -3.038  -2.290  0.00  0.00     0.016 A 
ATOM     20  C   UNL d   1       4.363  -3.282  -0.961  0.00  0.00     0.001 A 
ATOM     21  C   UNL d   1       3.734  -2.291  -0.205  0.00  0.00     0.008 A 
BRANCH  18  22
ATOM     22  C   UNL d   1       4.812  -1.541  -4.317  0.00  0.00     0.417 C 
ATOM     23  F   UNL d   1       4.442  -0.311  -4.771  0.00  0.00    -0.166 F 
ATOM     24  F   UNL d   1       6.162  -1.608  -4.497  0.00  0.00    -0.166 F 
ATOM     25  F   UNL d   1       4.276  -2.440  -5.187  0.00  0.00    -0.166 F 
ENDBRANCH  18  22
ENDBRANCH  15  16
ENDBRANCH   1  15
TORSDOF 6
