REMARK  5 active torsions:
REMARK  status: ('A' for Active; 'I' for Inactive)
REMARK    1  A    between atoms: N_2  and  C_1 
REMARK    2  A    between atoms: C_9  and  N_2 
REMARK    3  A    between atoms: C_7  and  N_6 
REMARK    4  A    between atoms: C_12  and  C_7 
REMARK    5  A    between atoms: C_8  and  C_12 
ROOT
ATOM      1  C   UNL d   1       1.229   0.119  -0.090  0.00  0.00     0.167 C 
ATOM      2  S   UNL d   1       0.550  -1.251   0.573  0.00  0.00    -0.041 SA
ATOM      3  N   UNL d   1       2.577   0.280   0.037  0.00  0.00    -0.367 N 
ATOM      4  H   UNL d   1       3.024  -0.491   0.525  0.00  0.00     0.161 HD
ENDROOT
BRANCH   3   5
ATOM      5  C   UNL d   1       3.426   1.185  -0.726  0.00  0.00     0.126 C 
BRANCH   5   6
ATOM      6  C   UNL d   1       4.910   0.864  -0.557  0.00  0.00     0.058 C 
BRANCH   6   7
ATOM      7  C   UNL d   1       5.777   1.845  -1.302  0.00  0.00    -0.054 A 
ATOM      8  C   UNL d   1       6.166   3.045  -0.704  0.00  0.00     0.024 A 
ATOM      9  C   UNL d   1       6.939   3.929  -1.436  0.00  0.00     0.088 A 
ATOM     10  N   UNL d   1       7.338   3.710  -2.706  0.00  0.00    -0.375 N 
ATOM     11  C   UNL d   1       6.951   2.544  -3.267  0.00  0.00     0.088 A 
ATOM     12  HN  UNL d   1       7.903   4.389  -3.216  1.00  0.00     0.164 HD
ATOM     13  C   UNL d   1       6.178   1.594  -2.618  0.00  0.00     0.024 A 
ENDBRANCH   6   7
ENDBRANCH   5   6
ENDBRANCH   3   5
BRANCH   1  14
ATOM     14  N   UNL d   1       0.587   1.088  -0.806  0.00  0.00    -0.363 N 
ATOM     15  H   UNL d   1       1.055   1.982  -0.850  0.00  0.00     0.162 HD
BRANCH  14  16
ATOM     16  C   UNL d   1      -0.802   1.075  -1.269  0.00  0.00     0.075 C 
ATOM     17  C   UNL d   1      -1.772   1.556  -0.192  0.00  0.00     0.032 C 
ATOM     18  C   UNL d   1      -0.924   1.949  -2.518  0.00  0.00     0.032 C 
ENDBRANCH  14  16
ENDBRANCH   1  14
TORSDOF 5
