REMARK  3 active torsions:
REMARK  status: ('A' for Active; 'I' for Inactive)
REMARK    1  A    between atoms: C_8  and  N_5 
REMARK    2  A    between atoms: C_15  and  C_7 
REMARK    3  A    between atoms: C_16  and  C_7 
ROOT
ATOM      1  C   UNL d   1      -0.494  -1.027  -0.320  0.00  0.00     0.146 C 
ATOM      2  S   UNL d   1       1.257  -1.099  -0.561  0.00  0.00    -0.057 SA
ATOM      3  N   UNL d   1      -0.868   0.261  -0.030  0.00  0.00    -0.356 N 
ATOM      4  C   UNL d   1       1.437   0.612  -0.239  0.00  0.00     0.005 C 
ATOM      5  N   UNL d   1      -1.352  -2.002  -0.400  0.00  0.00    -0.336 N 
ATOM      6  HN  UNL d   1      -2.336  -1.808  -0.217  1.00  0.00     0.168 HD
ATOM      7  C   UNL d   1       0.087   1.328  -0.332  0.00  0.00     0.064 C 
ATOM      8  C   UNL d   1       2.630   1.107   0.119  0.00  0.00     0.029 C 
ATOM      9  H   UNL d   1      -1.858   0.447  -0.097  0.00  0.00     0.162 HD
ENDROOT
BRANCH   5  10
ATOM     10  C   UNL d   1      -0.967  -3.316  -0.732  0.00  0.00     0.040 A 
ATOM     11  C   UNL d   1      -1.614  -4.006  -1.774  0.00  0.00    -0.035 A 
ATOM     12  C   UNL d   1      -1.181  -5.302  -2.128  0.00  0.00     0.015 A 
ATOM     13  C   UNL d   1      -2.807  -3.443  -2.497  0.00  0.00     0.050 C 
ATOM     14  C   UNL d   1      -0.122  -5.922  -1.458  0.00  0.00    -0.061 A 
ATOM     15  C   UNL d   1       0.459  -5.267  -0.373  0.00  0.00     0.009 A 
ATOM     16  C   UNL d   1       0.346  -7.284  -1.873  0.00  0.00     0.048 C 
ATOM     17  C   UNL d   1       0.018  -3.996  -0.001  0.00  0.00     0.030 A 
ENDBRANCH   5  10
BRANCH   7  18
ATOM     18  C   UNL d   1      -0.101   2.514   0.646  0.00  0.00     0.032 C 
ATOM     19  C   UNL d   1       0.058   2.192   2.129  0.00  0.00     0.008 C 
ENDBRANCH   7  18
BRANCH   7  20
ATOM     20  C   UNL d   1      -0.105   1.795  -1.806  0.00  0.00     0.032 C 
ATOM     21  C   UNL d   1      -1.473   2.379  -2.143  0.00  0.00     0.008 C 
ENDBRANCH   7  20
TORSDOF 3
