REMARK  7 active torsions:
REMARK  status: ('A' for Active; 'I' for Inactive)
REMARK    1  A    between atoms: N_11  and  C_1 
REMARK    2  A    between atoms: C_9  and  N_6 
REMARK    3  A    between atoms: C_8  and  C_12 
REMARK    4  A    between atoms: C_10  and  C_9 
REMARK    5  A    between atoms: C_19  and  C_10 
REMARK    6  A    between atoms: C_12  and  O_16 
REMARK    7  A    between atoms: O_16  and  N_14 
ROOT
ATOM      1  C   UNL d   1       3.397   0.582  -0.289  0.00  0.00     0.064 C 
ATOM      2  N   UNL d   1       3.578  -0.609  -0.775  0.00  0.00    -0.259 N 
ATOM      3  HN  UNL d   1       4.508  -1.007  -0.905  1.00  0.00     0.194 HD
ENDROOT
BRANCH   1   4
ATOM      4  C   UNL d   1       2.057   1.195   0.054  0.00  0.00     0.227 C 
BRANCH   4   5
ATOM      5  N   UNL d   1       1.487   1.977  -1.019  0.00  0.00    -0.197 N 
ATOM      6  N   UNL d   1       1.838   1.838  -2.306  0.00  0.00    -0.116 N 
ATOM      7  C   UNL d   1       1.223   2.891  -2.851  0.00  0.00     0.709 A 
ATOM      8  HN  UNL d   1       2.418   1.124  -2.747  1.00  0.00     0.207 HD
ATOM      9  N   UNL d   1       0.507   3.611  -1.920  0.00  0.00    -0.113 N 
ATOM     10  N   UNL d   1       0.680   3.017  -0.749  0.00  0.00     0.011 NA
ATOM     11  HN  UNL d   1      -0.051   4.446  -2.099  1.00  0.00     0.203 HD
BRANCH   7  12
ATOM     12  N   UNL d   1       1.284   3.275  -4.156  0.00  0.00    -0.215 N 
ATOM     13  C   UNL d   1       0.277   4.234  -4.617  0.00  0.00     0.141 C 
ATOM     14  C   UNL d   1       0.689   4.863  -5.943  0.00  0.00     0.020 C 
ATOM     15  C   UNL d   1       0.968   3.790  -6.985  0.00  0.00     0.003 C 
ATOM     16  C   UNL d   1       2.061   2.859  -6.480  0.00  0.00     0.020 C 
ATOM     17  C   UNL d   1       1.721   2.256  -5.118  0.00  0.00     0.141 C 
ENDBRANCH   7  12
ENDBRANCH   4   5
ENDBRANCH   1   4
BRANCH   1  18
ATOM     18  C   UNL d   1       4.637   1.364  -0.002  0.00  0.00    -0.010 A 
ATOM     19  C   UNL d   1       5.772   0.661   0.434  0.00  0.00     0.015 A 
ATOM     20  C   UNL d   1       6.982   1.328   0.638  0.00  0.00     0.024 A 
ATOM     21  C   UNL d   1       7.060   2.696   0.396  0.00  0.00     0.034 A 
ATOM     22  C   UNL d   1       5.938   3.404  -0.037  0.00  0.00     0.024 A 
ATOM     23 CL   UNL d   1       8.556   3.518   0.615  0.00  0.00    -0.084 Cl
ATOM     24  C   UNL d   1       4.720   2.739  -0.234  0.00  0.00     0.015 A 
ENDBRANCH   1  18
BRANCH   2  25
ATOM     25  O   UNL d   1       2.406  -1.314  -1.109  0.00  0.00    -0.195 OA
BRANCH  25  26
ATOM     26  C   UNL d   1       2.722  -2.643  -1.116  0.00  0.00     0.316 C 
ATOM     27  O   UNL d   1       3.645  -3.175  -0.510  0.00  0.00    -0.257 OA
BRANCH  26  28
ATOM     28  C   UNL d   1       1.903  -3.434  -2.064  0.00  0.00     0.063 A 
ATOM     29  C   UNL d   1       0.522  -3.310  -2.250  0.00  0.00     0.052 A 
ATOM     30  C   UNL d   1      -0.150  -4.213  -3.088  0.00  0.00     0.048 A 
ATOM     31 CL   UNL d   1      -0.437  -2.120  -1.447  0.00  0.00    -0.083 Cl
ATOM     32  C   UNL d   1       0.552  -5.229  -3.741  0.00  0.00     0.035 A 
ATOM     33  C   UNL d   1       1.930  -5.338  -3.593  0.00  0.00     0.025 A 
ATOM     34 CL   UNL d   1      -0.291  -6.368  -4.716  0.00  0.00    -0.084 Cl
ATOM     35  C   UNL d   1       2.599  -4.445  -2.758  0.00  0.00     0.021 A 
ENDBRANCH  26  28
ENDBRANCH  25  26
ENDBRANCH   2  25
TORSDOF 7
