REMARK  6 active torsions:
REMARK  status: ('A' for Active; 'I' for Inactive)
REMARK    1  A    between atoms: C_5  and  S_1 
REMARK    2  A    between atoms: C_7  and  S_1 
REMARK    3  A    between atoms: C_4  and  C_7 
REMARK    4  A    between atoms: C_11  and  C_6 
REMARK    5  A    between atoms: O_23  and  C_14 
REMARK    6  A    between atoms: O_24  and  C_20 
ROOT
ATOM      1  N   UNL d   1       0.282   3.316   1.962  0.00  0.00    -0.322 N 
ATOM      2  HN  UNL d   1      -0.678   3.627   1.812  1.00  0.00     0.169 HD
ATOM      3  C   UNL d   1       0.891   2.172   1.518  0.00  0.00     0.118 A 
ATOM      4  C   UNL d   1       1.245   3.912   2.632  0.00  0.00     0.182 A 
ATOM      5  N   UNL d   1       2.194   2.081   1.818  0.00  0.00    -0.246 N 
ATOM      6  HN  UNL d   1       2.854   1.350   1.555  1.00  0.00     0.196 HD
ATOM      7  O   UNL d   1       2.429   3.232   2.578  0.00  0.00    -0.217 OA
ENDROOT
BRANCH   4   8
ATOM      8  C   UNL d   1       1.198   5.137   3.417  0.00  0.00     0.020 A 
ATOM      9  C   UNL d   1      -0.040   5.785   3.587  0.00  0.00     0.055 A 
ATOM     10  C   UNL d   1      -0.168   6.952   4.356  0.00  0.00     0.102 A 
ATOM     11  C   UNL d   1       0.983   7.498   4.950  0.00  0.00     0.101 A 
ATOM     12  C   UNL d   1       2.217   6.852   4.779  0.00  0.00     0.040 A 
ATOM     13  C   UNL d   1       2.328   5.683   4.025  0.00  0.00     0.019 A 
BRANCH  10  14
ATOM     14  O   UNL d   1      -1.369   7.576   4.560  0.00  0.00    -0.353 OA
ATOM     15  C   UNL d   1      -2.534   7.024   3.959  0.00  0.00     0.210 C 
ENDBRANCH  10  14
BRANCH  11  16
ATOM     16  O   UNL d   1       1.100   8.628   5.716  0.00  0.00    -0.353 OA
ATOM     17  C   UNL d   1      -0.056   9.412   5.968  0.00  0.00     0.210 C 
ENDBRANCH  11  16
ENDBRANCH   4   8
BRANCH   3  18
ATOM     18  C   UNL d   1       0.199   1.188   0.675  0.00  0.00     0.224 C 
BRANCH  18  19
ATOM     19  S   UNL d   1      -1.109   0.350   1.524  0.00  0.00     0.182 S 
ATOM     20  O   UNL d   1      -1.869  -0.417   0.556  0.00  0.00    -0.222 OA
ATOM     21  O   UNL d   1      -0.609  -0.262   2.742  0.00  0.00    -0.222 OA
BRANCH  19  22
ATOM     22  C   UNL d   1      -2.246   1.548   2.058  0.00  0.00     0.066 A 
ATOM     23  C   UNL d   1      -2.601   1.760   3.425  0.00  0.00     0.031 A 
ATOM     24  C   UNL d   1      -3.542   2.756   3.568  0.00  0.00     0.051 A 
ATOM     25  S   UNL d   1      -3.994   3.433   2.063  0.00  0.00    -0.112 SA
ATOM     26  C   UNL d   1      -2.950   2.376   1.207  0.00  0.00     0.072 A 
ENDBRANCH  19  22
ENDBRANCH  18  19
ENDBRANCH   3  18
TORSDOF 6
