REMARK  6 active torsions:
REMARK  status: ('A' for Active; 'I' for Inactive)
REMARK    1  A    between atoms: C_17  and  N_1 
REMARK    2  A    between atoms: C_18  and  N_2 
REMARK    3  A    between atoms: C_15  and  O_23 
REMARK    4  A    between atoms: C_16  and  O_24 
REMARK    5  A    between atoms: O_23  and  C_36 
REMARK    6  A    between atoms: O_24  and  C_37 
ROOT
ATOM      1  N   UNL d   1      -3.117  -1.137   0.141  0.00  0.00    -0.153 NA
ATOM      2  N   UNL d   1       3.103   1.419   0.209  0.00  0.00    -0.153 NA
ATOM      3  C   UNL d   1      -0.576   1.554  -0.565  0.00  0.00    -0.001 C 
ATOM      4  C   UNL d   1      -2.912   0.207  -0.151  0.00  0.00     0.217 C 
ATOM      5  C   UNL d   1       2.025   2.220  -0.140  0.00  0.00     0.217 C 
ATOM      6  C   UNL d   1       2.770   0.181  -0.299  0.00  0.00     0.216 C 
ATOM      7  C   UNL d   1      -1.995  -1.762  -0.353  0.00  0.00     0.216 C 
ATOM      8  C   UNL d   1      -1.464   0.510   0.189  0.00  0.00     0.099 C 
ATOM      9  C   UNL d   1       0.780   1.427   0.201  0.00  0.00     0.099 C 
ATOM     10  C   UNL d   1       1.330  -0.020   0.072  0.00  0.00     0.095 C 
ATOM     11  C   UNL d   1      -0.837  -0.902   0.051  0.00  0.00     0.095 C 
ATOM     12  C   UNL d   1       0.428  -0.887  -0.813  0.00  0.00     0.040 C 
ATOM     13  C   UNL d   1      -0.372   1.070  -1.985  0.00  0.00    -0.013 C 
ATOM     14  C   UNL d   1       0.130  -0.170  -2.114  0.00  0.00    -0.081 C 
ATOM     15  O   UNL d   1       3.483  -0.629  -0.850  0.00  0.00    -0.278 OA
ATOM     16  O   UNL d   1       2.059   3.333  -0.635  0.00  0.00    -0.278 OA
ATOM     17  O   UNL d   1      -1.918  -2.833  -0.925  0.00  0.00    -0.278 OA
ATOM     18  O   UNL d   1      -3.731   1.003  -0.587  0.00  0.00    -0.278 OA
ATOM     19  C   UNL d   1      -1.149   2.967  -0.521  0.00  0.00     0.021 C 
ATOM     20  C   UNL d   1       0.357  -0.845  -3.427  0.00  0.00     0.043 C 
ENDROOT
BRANCH   1  21
ATOM     21  C   UNL d   1      -3.434  -1.414   1.537  0.00  0.00     0.025 A 
ATOM     22  C   UNL d   1      -2.651  -2.291   2.318  0.00  0.00     0.027 A 
ATOM     23  C   UNL d   1      -2.772  -2.341   3.714  0.00  0.00     0.039 A 
ATOM     24  C   UNL d   1      -3.726  -1.560   4.352  0.00  0.00     0.078 A 
ATOM     25  C   UNL d   1      -4.609  -0.804   3.574  0.00  0.00     0.039 A 
ATOM     26  C   UNL d   1      -4.453  -0.709   2.182  0.00  0.00     0.027 A 
BRANCH  24  27
ATOM     27  O   UNL d   1      -3.920  -1.486   5.698  0.00  0.00    -0.255 OA
BRANCH  27  28
ATOM     28  C   UNL d   1      -2.796  -1.612   6.562  0.00  0.00     0.530 C 
ATOM     29  F   UNL d   1      -1.610  -1.438   5.937  0.00  0.00    -0.144 F 
ATOM     30  F   UNL d   1      -2.890  -0.669   7.527  0.00  0.00    -0.144 F 
ATOM     31  F   UNL d   1      -2.806  -2.825   7.152  0.00  0.00    -0.144 F 
ENDBRANCH  27  28
ENDBRANCH  24  27
ENDBRANCH   1  21
BRANCH   2  32
ATOM     32  C   UNL d   1       3.481   1.442   1.619  0.00  0.00     0.025 A 
ATOM     33  C   UNL d   1       3.801   0.257   2.313  0.00  0.00     0.027 A 
ATOM     34  C   UNL d   1       3.968   0.243   3.708  0.00  0.00     0.039 A 
ATOM     35  C   UNL d   1       3.907   1.428   4.430  0.00  0.00     0.078 A 
ATOM     36  C   UNL d   1       3.607   2.613   3.750  0.00  0.00     0.039 A 
ATOM     37  C   UNL d   1       3.402   2.626   2.361  0.00  0.00     0.027 A 
BRANCH  35  38
ATOM     38  O   UNL d   1       4.077   1.568   5.773  0.00  0.00    -0.255 OA
BRANCH  38  39
ATOM     39  C   UNL d   1       4.855   0.625   6.499  0.00  0.00     0.530 C 
ATOM     40  F   UNL d   1       5.619  -0.172   5.723  0.00  0.00    -0.144 F 
ATOM     41  F   UNL d   1       5.679   1.301   7.330  0.00  0.00    -0.144 F 
ATOM     42  F   UNL d   1       4.041  -0.148   7.250  0.00  0.00    -0.144 F 
ENDBRANCH  38  39
ENDBRANCH  35  38
ENDBRANCH   2  32
TORSDOF 6
