REMARK  8 active torsions:
REMARK  status: ('A' for Active; 'I' for Inactive)
REMARK    1  A    between atoms: C_4  and  C_1 
REMARK    2  A    between atoms: C_2  and  N_8 
REMARK    3  A    between atoms: N_5  and  C_2 
REMARK    4  A    between atoms: C_3  and  O_7 
REMARK    5  A    between atoms: C_9  and  N_5 
REMARK    6  A    between atoms: N_8  and  C_6 
REMARK    7  A    between atoms: O_7  and  C_10 
REMARK    8  A    between atoms: O_22  and  C_15 
ROOT
ATOM      1  C   UNL d   1      -0.029  -4.238   1.788  0.00  0.00     0.176 C 
ATOM      2  S   UNL d   1       1.394  -4.116   0.910  0.00  0.00    -0.041 SA
ENDROOT
BRANCH   1   3
ATOM      3  N   UNL d   1      -0.667  -3.234   2.516  0.00  0.00    -0.333 N 
ATOM      4  H   UNL d   1      -1.314  -3.627   3.192  0.00  0.00     0.168 HD
BRANCH   3   5
ATOM      5  C   UNL d   1      -0.430  -1.847   2.670  0.00  0.00     0.037 A 
ATOM      6  C   UNL d   1       0.352  -1.058   1.820  0.00  0.00     0.046 A 
ATOM      7  C   UNL d   1       0.521   0.320   2.063  0.00  0.00     0.052 A 
ATOM      8  C   UNL d   1      -0.134   0.907   3.149  0.00  0.00     0.053 A 
ATOM      9  C   UNL d   1      -0.925   0.143   4.002  0.00  0.00     0.071 A 
ATOM     10  C   UNL d   1      -1.072  -1.224   3.758  0.00  0.00     0.066 A 
BRANCH   7  11
ATOM     11  C   UNL d   1       1.398   1.178   1.183  0.00  0.00     0.417 C 
ATOM     12  F   UNL d   1       2.119   0.477   0.272  0.00  0.00    -0.166 F 
ATOM     13  F   UNL d   1       2.308   1.900   1.901  0.00  0.00    -0.166 F 
ATOM     14  F   UNL d   1       0.681   2.092   0.472  0.00  0.00    -0.166 F 
ENDBRANCH   7  11
BRANCH   9  15
ATOM     15  O   UNL d   1      -1.491   0.853   5.023  0.00  0.00    -0.356 OA
ATOM     16  C   UNL d   1      -2.232   0.126   5.993  0.00  0.00     0.210 C 
ENDBRANCH   9  15
ENDBRANCH   3   5
ENDBRANCH   1   3
BRANCH   1  17
ATOM     17  N   UNL d   1      -0.785  -5.416   1.886  0.00  0.00    -0.331 N 
ATOM     18  H   UNL d   1      -1.772  -5.289   1.711  0.00  0.00     0.168 HD
BRANCH  17  19
ATOM     19  C   UNL d   1      -0.288  -6.749   1.871  0.00  0.00     0.068 A 
ATOM     20  C   UNL d   1      -0.991  -7.842   1.336  0.00  0.00     0.105 A 
ATOM     21  C   UNL d   1      -0.477  -9.142   1.508  0.00  0.00     0.039 A 
ATOM     22  C   UNL d   1       0.716  -9.374   2.186  0.00  0.00     0.003 A 
ATOM     23  C   UNL d   1       1.417  -8.305   2.713  0.00  0.00     0.002 A 
ATOM     24  C   UNL d   1       0.916  -7.008   2.562  0.00  0.00     0.032 A 
BRANCH  20  25
ATOM     25  O   UNL d   1      -2.157  -7.885   0.630  0.00  0.00    -0.253 OA
BRANCH  25  26
ATOM     26  C   UNL d   1      -2.668  -6.768  -0.061  0.00  0.00     0.530 C 
ATOM     27  F   UNL d   1      -1.710  -5.932  -0.506  0.00  0.00    -0.144 F 
ATOM     28  F   UNL d   1      -3.374  -7.201  -1.126  0.00  0.00    -0.144 F 
ATOM     29  F   UNL d   1      -3.500  -6.085   0.757  0.00  0.00    -0.144 F 
ENDBRANCH  25  26
ENDBRANCH  20  25
ENDBRANCH  17  19
ENDBRANCH   1  17
TORSDOF 8
