REMARK  4 active torsions:
REMARK  status: ('A' for Active; 'I' for Inactive)
REMARK    1  A    between atoms: N_2  and  C_1 
REMARK       I    between atoms: C_3  and  N_6 
REMARK    2  A    between atoms: C_4  and  C_3 
REMARK    3  A    between atoms: N_8  and  C_5 
REMARK    4  A    between atoms: C_7  and  C_10 
ROOT
ATOM      1  C   UNL d   1       3.160  -6.321   0.027  0.00  0.00     0.257 C 
ATOM      2  N   UNL d   1       2.443  -5.112   0.091  0.00  0.00    -0.345 N 
ATOM      3  N   UNL d   1       1.103  -2.572  -0.042  0.00  0.00    -0.376 N 
ATOM      4  O   UNL d   1       2.967  -7.160  -0.850  0.00  0.00    -0.267 OA
ATOM      5  C   UNL d   1       2.822  -3.976   0.952  0.00  0.00     0.146 C 
ATOM      6  C   UNL d   1       1.624  -4.752  -1.086  0.00  0.00     0.146 C 
ATOM      7  C   UNL d   1       0.519  -3.699  -0.798  0.00  0.00     0.143 C 
ATOM      8  C   UNL d   1       1.659  -3.023   1.248  0.00  0.00     0.143 C 
ENDROOT
BRANCH   3   9
ATOM      9  C   UNL d   1       0.552  -1.300  -0.053  0.00  0.00     0.063 A 
ATOM     10  C   UNL d   1       1.343  -0.134   0.089  0.00  0.00     0.130 A 
ATOM     11  C   UNL d   1       0.802   1.155   0.185  0.00  0.00     0.054 A 
ATOM     12  C   UNL d   1      -0.582   1.328   0.124  0.00  0.00     0.050 A 
ATOM     13  C   UNL d   1      -1.388   0.195  -0.071  0.00  0.00     0.018 A 
ATOM     14  C   UNL d   1      -0.827  -1.091  -0.161  0.00  0.00     0.032 A 
BRANCH  10  15
ATOM     15  N   UNL d   1       2.800  -0.232   0.112  0.00  0.00    -0.113 N 
ATOM     16  O   UNL d   1       3.365  -0.586  -0.927  0.00  0.00    -0.532 OA
ATOM     17  O   UNL d   1       3.354   0.101   1.171  0.00  0.00    -0.532 OA
ENDBRANCH  10  15
BRANCH  12  18
ATOM     18  C   UNL d   1      -1.206   2.696   0.261  0.00  0.00     0.417 C 
ATOM     19  F   UNL d   1      -0.294   3.685   0.477  0.00  0.00    -0.166 F 
ATOM     20  F   UNL d   1      -1.904   3.064  -0.846  0.00  0.00    -0.166 F 
ATOM     21  F   UNL d   1      -2.081   2.763   1.302  0.00  0.00    -0.166 F 
ENDBRANCH  12  18
ENDBRANCH   3   9
BRANCH   1  22
ATOM     22  C   UNL d   1       4.153  -6.643   1.086  0.00  0.00     0.075 C 
ATOM     23  C   UNL d   1       3.943  -7.739   1.938  0.00  0.00     0.051 C 
ATOM     24 CL   UNL d   1       2.622  -8.841   1.758  0.00  0.00    -0.083 Cl
ATOM     25  C   UNL d   1       4.822  -7.987   3.004  0.00  0.00     0.025 C 
ATOM     26  C   UNL d   1       5.887  -7.125   3.253  0.00  0.00     0.003 C 
ATOM     27  C   UNL d   1       6.138  -6.076   2.376  0.00  0.00     0.025 C 
ATOM     28  C   UNL d   1       5.319  -5.880   1.257  0.00  0.00     0.051 C 
ATOM     29 CL   UNL d   1       5.874  -4.729   0.092  0.00  0.00    -0.083 Cl
ENDBRANCH   1  22
TORSDOF 4
