REMARK  5 active torsions:
REMARK  status: ('A' for Active; 'I' for Inactive)
REMARK    1  A    between atoms: C_3  and  C_1 
REMARK       I    between atoms: C_2  and  N_5 
REMARK       I    between atoms: N_6  and  C_2 
REMARK    2  A    between atoms: N_5  and  C_4 
REMARK    3  A    between atoms: C_12  and  N_6 
REMARK    4  A    between atoms: O_18  and  C_11 
REMARK    5  A    between atoms: O_19  and  C_17 
ROOT
ATOM      1  C   UNL d   1       0.726  -4.673   1.376  0.00  0.00     0.325 C 
ATOM      2  N   UNL d   1       0.332  -3.827   2.360  0.00  0.00    -0.309 N 
ATOM      3  N   UNL d   1       0.623  -4.274   0.078  0.00  0.00    -0.309 N 
ATOM      4  O   UNL d   1       1.100  -5.788   1.739  0.00  0.00    -0.247 OA
ATOM      5  H   UNL d   1       0.317  -4.358   3.228  0.00  0.00     0.170 HD
ATOM      6  H   UNL d   1      -0.179  -3.694  -0.123  0.00  0.00     0.170 HD
ENDROOT
BRANCH   2   7
ATOM      7  C   UNL d   1       0.211  -2.437   2.515  0.00  0.00     0.039 A 
ATOM      8  C   UNL d   1       0.483  -1.469   1.546  0.00  0.00     0.046 A 
ATOM      9  C   UNL d   1       0.433  -0.097   1.886  0.00  0.00     0.052 A 
ATOM     10  C   UNL d   1       0.117   0.282   3.201  0.00  0.00     0.053 A 
ATOM     11  C   UNL d   1      -0.146  -0.674   4.176  0.00  0.00     0.071 A 
ATOM     12  C   UNL d   1      -0.120  -2.019   3.819  0.00  0.00     0.066 A 
BRANCH   9  13
ATOM     13  C   UNL d   1       0.752   0.990   0.887  0.00  0.00     0.417 C 
ATOM     14  F   UNL d   1       1.067   0.521  -0.350  0.00  0.00    -0.166 F 
ATOM     15  F   UNL d   1       1.806   1.759   1.277  0.00  0.00    -0.166 F 
ATOM     16  F   UNL d   1      -0.289   1.850   0.707  0.00  0.00    -0.166 F 
ENDBRANCH   9  13
BRANCH  11  17
ATOM     17  O   UNL d   1      -0.393  -0.181   5.426  0.00  0.00    -0.356 OA
ATOM     18  C   UNL d   1      -0.454  -1.127   6.489  0.00  0.00     0.210 C 
ENDBRANCH  11  17
ENDBRANCH   2   7
BRANCH   3  19
ATOM     19  C   UNL d   1       1.182  -5.007  -1.000  0.00  0.00     0.039 A 
ATOM     20  C   UNL d   1       2.370  -5.742  -0.856  0.00  0.00     0.066 A 
ATOM     21  C   UNL d   1       2.945  -6.397  -1.947  0.00  0.00     0.070 A 
ATOM     22  C   UNL d   1       2.291  -6.369  -3.179  0.00  0.00     0.037 A 
ATOM     23  C   UNL d   1       1.099  -5.659  -3.330  0.00  0.00     0.005 A 
ATOM     24  C   UNL d   1       0.558  -4.957  -2.249  0.00  0.00     0.030 A 
BRANCH  21  25
ATOM     25  O   UNL d   1       4.131  -7.079  -1.942  0.00  0.00    -0.356 OA
ATOM     26  C   UNL d   1       4.947  -6.951  -0.783  0.00  0.00     0.210 C 
ENDBRANCH  21  25
ENDBRANCH   3  19
TORSDOF 5
