REMARK  5 active torsions:
REMARK  status: ('A' for Active; 'I' for Inactive)
REMARK    1  A    between atoms: N_14  and  C_1 
REMARK    2  A    between atoms: C_11  and  N_2 
REMARK    3  A    between atoms: C_10  and  C_3 
REMARK    4  A    between atoms: O_18  and  C_10 
REMARK    5  A    between atoms: C_25  and  O_18 
ROOT
ATOM      1  C   UNL d   1       0.861  -0.884  -0.258  0.00  0.00     0.126 C 
ATOM      2  N   UNL d   1       1.782  -0.826   0.796  0.00  0.00    -0.281 N 
ATOM      3  C   UNL d   1      -0.057  -1.888   0.019  0.00  0.00     0.114 C 
ATOM      4  C   UNL d   1       1.725  -2.060   1.440  0.00  0.00     0.143 A 
ATOM      5  C   UNL d   1       0.551  -2.686   1.016  0.00  0.00     0.098 A 
ATOM      6  N   UNL d   1       2.575  -2.567   2.366  0.00  0.00    -0.338 N 
ATOM      7  HN  UNL d   1       3.410  -2.077   2.689  1.00  0.00     0.167 HD
ATOM      8  N   UNL d   1       0.167  -3.883   1.528  0.00  0.00    -0.350 N 
ATOM      9  HN  UNL d   1      -0.709  -4.334   1.263  1.00  0.00     0.166 HD
ATOM     10  C   UNL d   1       2.209  -3.780   2.819  0.00  0.00     0.060 A 
ATOM     11  C   UNL d   1       1.017  -4.428   2.406  0.00  0.00     0.059 A 
ATOM     12  C   UNL d   1       3.043  -4.436   3.718  0.00  0.00     0.032 A 
ATOM     13  C   UNL d   1       0.720  -5.689   2.909  0.00  0.00     0.032 A 
ATOM     14  C   UNL d   1       1.573  -6.339   3.800  0.00  0.00     0.002 A 
ATOM     15  C   UNL d   1       2.741  -5.710   4.206  0.00  0.00     0.002 A 
ENDROOT
BRANCH   2  16
ATOM     16  C   UNL d   1       2.580   0.317   1.138  0.00  0.00     0.043 A 
ATOM     17  C   UNL d   1       2.145   1.602   0.757  0.00  0.00     0.032 A 
ATOM     18  C   UNL d   1       2.898   2.738   1.049  0.00  0.00     0.026 A 
ATOM     19  C   UNL d   1       4.091   2.604   1.748  0.00  0.00     0.034 A 
ATOM     20  C   UNL d   1       4.517   1.347   2.171  0.00  0.00     0.026 A 
ATOM     21 CL   UNL d   1       5.035   3.999   2.094  0.00  0.00    -0.084 Cl
ATOM     22  C   UNL d   1       3.760   0.203   1.878  0.00  0.00     0.032 A 
ENDBRANCH   2  16
BRANCH   1  23
ATOM     23  N   UNL d   1       0.928  -0.051  -1.332  0.00  0.00    -0.384 N 
ATOM     24  H   UNL d   1       0.326  -0.242  -2.135  0.00  0.00     0.157 HD
ATOM     25  H   UNL d   1       1.825   0.346  -1.614  0.00  0.00     0.157 HD
ENDBRANCH   1  23
BRANCH   3  26
ATOM     26  C   UNL d   1      -1.340  -2.091  -0.634  0.00  0.00     0.299 C 
ATOM     27  O   UNL d   1      -2.154  -2.948  -0.320  0.00  0.00    -0.259 OA
BRANCH  26  28
ATOM     28  O   UNL d   1      -1.572  -1.137  -1.586  0.00  0.00    -0.318 OA
BRANCH  28  29
ATOM     29  C   UNL d   1      -2.928  -0.909  -1.986  0.00  0.00     0.174 C 
ATOM     30  C   UNL d   1      -3.148   0.593  -1.930  0.00  0.00     0.034 C 
ENDBRANCH  28  29
ENDBRANCH  26  28
ENDBRANCH   3  26
TORSDOF 5
