REMARK  7 active torsions:
REMARK  status: ('A' for Active; 'I' for Inactive)
REMARK    1  A    between atoms: N_4  and  C_1 
REMARK       I    between atoms: C_5  and  N_4 
REMARK       I    between atoms: N_10  and  C_5 
REMARK    2  A    between atoms: O_18  and  C_8 
REMARK    3  A    between atoms: C_15  and  N_10 
REMARK    4  A    between atoms: C_30  and  C_13 
REMARK    5  A    between atoms: O_14  and  C_17 
REMARK    6  A    between atoms: C_16  and  O_14 
REMARK    7  A    between atoms: O_29  and  C_30 
ROOT
ATOM      1  N   UNL d   1       3.519  -3.527  -0.307  0.00  0.00    -0.022 N 
ATOM      2  C   UNL d   1       3.022  -2.318   0.052  0.00  0.00     0.690 C 
ATOM      3  N   UNL d   1       3.903  -1.278   0.202  0.00  0.00    -0.192 N 
ATOM      4  N   UNL d   1       1.744  -2.199   0.257  0.00  0.00    -0.234 N 
ATOM      5  HN  UNL d   1       1.282  -1.342   0.560  1.00  0.00     0.174 HD
ATOM      6  H   UNL d   1       2.914  -4.329  -0.276  0.00  0.00     0.203 HD
ATOM      7  H   UNL d   1       4.739  -1.318  -0.367  0.00  0.00     0.184 HD
ATOM      8  H   UNL d   1       1.267  -3.080   0.074  0.00  0.00     0.174 HD
ENDROOT
BRANCH   1   9
ATOM      9  C   UNL d   1       4.810  -3.922  -0.613  0.00  0.00     0.699 A 
ATOM     10  N   UNL d   1       4.986  -5.247  -0.735  0.00  0.00    -0.170 N 
ATOM     11  C   UNL d   1       6.217  -5.644  -1.065  0.00  0.00     0.157 A 
ATOM     12  HN  UNL d   1       4.225  -5.910  -0.585  1.00  0.00     0.186 HD
ATOM     13  C   UNL d   1       7.281  -4.823  -1.296  0.00  0.00     0.084 A 
ATOM     14  C   UNL d   1       7.013  -3.481  -1.155  0.00  0.00     0.054 A 
ATOM     15  N   UNL d   1       5.785  -3.017  -0.816  0.00  0.00    -0.193 N 
ATOM     16  HN  UNL d   1       5.606  -2.017  -0.718  1.00  0.00     0.184 HD
BRANCH  11  17
ATOM     17  O   UNL d   1       6.356  -6.992  -1.178  0.00  0.00    -0.346 OA
ATOM     18  H   UNL d   1       5.456  -7.293  -0.966  0.00  0.00     0.219 HD
ENDBRANCH  11  17
BRANCH  14  19
ATOM     19  C   UNL d   1       8.079  -2.460  -1.470  0.00  0.00     0.224 C 
BRANCH  19  20
ATOM     20  O   UNL d   1       8.398  -2.442  -2.864  0.00  0.00    -0.390 OA
ATOM     21  C   UNL d   1       7.363  -1.865  -3.654  0.00  0.00     0.201 C 
ENDBRANCH  19  20
ENDBRANCH  14  19
ENDBRANCH   1   9
BRANCH   3  22
ATOM     22  C   UNL d   1       3.543  -0.019   0.717  0.00  0.00     0.049 C 
ATOM     23  C   UNL d   1       2.804   0.068   1.907  0.00  0.00     0.033 C 
ATOM     24  C   UNL d   1       2.256   1.275   2.332  0.00  0.00     0.039 C 
ATOM     25  C   UNL d   1       2.382   2.403   1.524  0.00  0.00     0.076 C 
ATOM     26  C   UNL d   1       3.198   2.363   0.392  0.00  0.00     0.039 C 
ATOM     27  C   UNL d   1       3.780   1.153  -0.009  0.00  0.00     0.033 C 
BRANCH  25  28
ATOM     28  O   UNL d   1       1.724   3.578   1.801  0.00  0.00    -0.311 OA
BRANCH  28  29
ATOM     29  C   UNL d   1       0.363   3.528   2.046  0.00  0.00     0.076 A 
ATOM     30  C   UNL d   1      -0.166   4.623   2.734  0.00  0.00     0.039 A 
ATOM     31  C   UNL d   1      -1.529   4.673   3.042  0.00  0.00     0.026 A 
ATOM     32  C   UNL d   1      -2.365   3.625   2.662  0.00  0.00     0.034 A 
ATOM     33  C   UNL d   1      -1.853   2.539   1.956  0.00  0.00     0.026 A 
ATOM     34 CL   UNL d   1      -4.037   3.674   3.061  0.00  0.00    -0.084 Cl
ATOM     35  C   UNL d   1      -0.494   2.501   1.629  0.00  0.00     0.039 A 
ENDBRANCH  28  29
ENDBRANCH  25  28
ENDBRANCH   3  22
TORSDOF 7
