REMARK  9 active torsions:
REMARK  status: ('A' for Active; 'I' for Inactive)
REMARK       I    between atoms: N_17  and  C1_1 
REMARK    1  A    between atoms: O1_4  and  C1_1 
REMARK    2  A    between atoms: C2_2  and  C3_3 
REMARK    3  A    between atoms: C3_3  and  O1_4 
REMARK    4  A    between atoms: O6_12  and  C9_9 
REMARK    5  A    between atoms: O5_11  and  C10_10 
REMARK    6  A    between atoms: CA_19  and  N_17 
REMARK    7  A    between atoms: CA_19  and  C_18 
REMARK    8  A    between atoms: OXT_21  and  C_18 
REMARK    9  A    between atoms: C_26  and  N_25 
ROOT
ATOM      1  C   UNL d   1      -0.431   0.750  -0.298  0.00  0.00     0.218 C 
ATOM      2  C   UNL d   1       0.047  -0.172   0.828  0.00  0.00     0.035 C 
ATOM      3  C   UNL d   1       0.582   1.863  -0.573  0.00  0.00     0.035 C 
ATOM      4  C   UNL d   1       1.964   1.293  -0.877  0.00  0.00     0.002 C 
ATOM      5  C   UNL d   1       1.428  -0.749   0.528  0.00  0.00     0.002 C 
ATOM      6  C   UNL d   1       2.448   0.341   0.212  0.00  0.00     0.000 C 
ENDROOT
BRANCH   1   7
ATOM      7  N   UNL d   1      -1.736   1.318   0.036  0.00  0.00     0.082 N 
ATOM      8  H   UNL d   1      -2.427   0.567   0.056  0.00  0.00     0.313 HD
ATOM      9  H   UNL d   1      -2.042   1.907  -0.742  0.00  0.00     0.313 HD
ENDBRANCH   1   7
TORSDOF 9
