REMARK  2 active torsions:
REMARK  status: ('A' for Active; 'I' for Inactive)
REMARK    1  A    between atoms: C_14  and  N_3 
REMARK    2  A    between atoms: C_22  and  C_14 
ROOT
ATOM      1  C   UNL d   1      -1.199   0.617   0.013  0.00  0.00     0.126 A 
ATOM      2  C   UNL d   1      -1.198  -0.737   0.029  0.00  0.00     0.078 A 
ATOM      3  N   UNL d   1      -2.454   1.290  -0.029  0.00  0.00    -0.317 N 
ATOM      4  N   UNL d   1      -0.014   1.321   0.015  0.00  0.00    -0.327 N 
ATOM      5  HN  UNL d   1      -0.026   2.341   0.019  1.00  0.00     0.169 HD
ATOM      6  C   UNL d   1       0.097  -1.471   0.036  0.00  0.00     0.267 A 
ATOM      7  N   UNL d   1       1.236  -0.693   0.020  0.00  0.00    -0.274 N 
ATOM      8  C   UNL d   1      -3.639  -0.929  -0.083  0.00  0.00     0.089 C 
ATOM      9  C   UNL d   1      -3.652   0.572  -0.213  0.00  0.00     0.123 C 
ATOM     10  C   UNL d   1       1.115   0.685   0.011  0.00  0.00     0.115 A 
ATOM     11  C   UNL d   1      -2.433  -1.503   0.038  0.00  0.00     0.047 C 
ATOM     12  C   UNL d   1      -4.827  -1.705  -0.071  0.00  0.00     0.103 C 
ATOM     13  N   UNL d   1      -5.797  -2.339  -0.061  0.00  0.00    -0.191 NA
ATOM     14  N   UNL d   1      -4.758   1.196  -0.506  0.00  0.00    -0.384 N 
ATOM     15  HN  UNL d   1      -4.822   2.209  -0.605  1.00  0.00     0.157 HD
ATOM     16  C   UNL d   1       2.483  -1.310   0.019  0.00  0.00     0.102 A 
ATOM     17  O   UNL d   1       0.100  -2.704   0.049  0.00  0.00    -0.267 OA
ATOM     18  C   UNL d   1       2.384   1.469  -0.003  0.00  0.00     0.049 A 
ATOM     19  C   UNL d   1       3.619  -0.603   0.011  0.00  0.00     0.018 A 
ATOM     20  C   UNL d   1       3.564   0.835  -0.000  0.00  0.00     0.005 A 
ATOM     21  H   UNL d   1      -5.557   0.566  -0.625  0.00  0.00     0.157 HD
ENDROOT
BRANCH   3  22
ATOM     22  C   UNL d   1      -2.495   2.775  -0.039  0.00  0.00     0.136 C 
BRANCH  22  23
ATOM     23  C   UNL d   1      -3.282   3.380   1.147  0.00  0.00    -0.004 C 
ATOM     24  C   UNL d   1      -2.718   2.970   2.508  0.00  0.00     0.011 C 
ATOM     25  C   UNL d   1      -3.297   4.911   1.051  0.00  0.00     0.011 C 
ENDBRANCH  22  23
ENDBRANCH   3  22
TORSDOF 2
