REMARK  4 active torsions:
REMARK  status: ('A' for Active; 'I' for Inactive)
REMARK    1  A    between atoms: C_9  and  C_4 
REMARK    2  A    between atoms: O_16  and  C_8 
REMARK    3  A    between atoms: O_17  and  C_10 
REMARK    4  A    between atoms: O_18  and  C_11 
ROOT
ATOM      1  C   UNL d   1      -2.923   3.028  -2.769  0.00  0.00     0.136 A 
ATOM      2  C   UNL d   1      -3.110   1.192  -1.148  0.00  0.00     0.001 A 
ATOM      3  C   UNL d   1      -2.393   1.845  -2.180  0.00  0.00     0.114 A 
ATOM      4  C   UNL d   1      -4.163   3.530  -2.324  0.00  0.00     0.104 A 
ATOM      5  C   UNL d   1      -4.350   1.686  -0.743  0.00  0.00     0.017 A 
ATOM      6  C   UNL d   1      -4.863   2.842  -1.323  0.00  0.00     0.040 A 
ENDROOT
BRANCH   2   7
ATOM      7  C   UNL d   1      -2.563   0.050  -0.404  0.00  0.00     0.038 C 
ATOM      8  C   UNL d   1      -1.621   0.137   0.556  0.00  0.00     0.115 C 
ATOM      9  C   UNL d   1      -0.908  -1.100   0.901  0.00  0.00     0.302 C 
ATOM     10  C   UNL d   1      -1.238   1.407   1.190  0.00  0.00     0.302 C 
ATOM     11  O   UNL d   1       0.301  -0.925   1.468  0.00  0.00    -0.280 OA
ATOM     12  O   UNL d   1      -1.341  -2.220   0.641  0.00  0.00    -0.259 OA
ATOM     13  C   UNL d   1       0.907   0.371   1.428  0.00  0.00     0.175 C 
ATOM     14  O   UNL d   1       0.004   1.435   1.713  0.00  0.00    -0.280 OA
ATOM     15  C   UNL d   1       1.603   0.609   0.086  0.00  0.00     0.080 C 
ATOM     16  C   UNL d   1       1.950   0.399   2.543  0.00  0.00     0.080 C 
ATOM     17  O   UNL d   1      -1.996   2.349   1.322  0.00  0.00    -0.259 OA
ENDBRANCH   2   7
BRANCH   3  18
ATOM     18  O   UNL d   1      -1.090   1.496  -2.485  0.00  0.00    -0.352 OA
ATOM     19  C   UNL d   1      -0.865   0.157  -2.935  0.00  0.00     0.210 C 
ENDBRANCH   3  18
BRANCH   1  20
ATOM     20  O   UNL d   1      -2.206   3.790  -3.658  0.00  0.00    -0.351 OA
ATOM     21  C   UNL d   1      -1.685   3.116  -4.799  0.00  0.00     0.210 C 
ENDBRANCH   1  20
BRANCH   4  22
ATOM     22  O   UNL d   1      -4.848   4.650  -2.716  0.00  0.00    -0.353 OA
ATOM     23  C   UNL d   1      -4.287   5.540  -3.664  0.00  0.00     0.210 C 
ENDBRANCH   4  22
TORSDOF 4
