REMARK  0 active torsions:
REMARK  status: ('A' for Active; 'I' for Inactive)
ROOT
ATOM      1  C   UNL d   1      -0.754  -0.404   0.003  0.00  0.00     0.049 A 
ATOM      2  C   UNL d   1       0.689  -0.432   0.003  0.00  0.00    -0.002 A 
ATOM      3  C   UNL d   1      -1.191   0.927   0.004  0.00  0.00    -0.026 A 
ATOM      4  C   UNL d   1       1.162   0.900   0.004  0.00  0.00    -0.041 A 
ATOM      5  C   UNL d   1      -0.009   1.866   0.005  0.00  0.00     0.080 A 
ATOM      6  N   UNL d   1      -1.555  -1.480   0.002  0.00  0.00    -0.365 N 
ATOM      7  HN  UNL d   1      -1.197  -2.435   0.001  1.00  0.00     0.165 HD
ATOM      8  C   UNL d   1       1.573  -1.497   0.001  0.00  0.00     0.014 A 
ATOM      9  C   UNL d   1       2.516   1.184   0.003  0.00  0.00     0.008 A 
ATOM     10  C   UNL d   1      -2.544   1.196   0.003  0.00  0.00     0.011 A 
ATOM     11  C   UNL d   1      -2.878  -1.192   0.002  0.00  0.00     0.088 A 
ATOM     12  C   UNL d   1      -3.410   0.102   0.002  0.00  0.00     0.018 A 
ATOM     13  C   UNL d   1       2.943  -1.218   0.001  0.00  0.00     0.001 A 
ATOM     14  C   UNL d   1       3.409   0.109   0.002  0.00  0.00     0.001 A 
ENDROOT
TORSDOF 0
