REMARK  6 active torsions:
REMARK  status: ('A' for Active; 'I' for Inactive)
REMARK    1  A    between atoms: C_4  and  N_1 
REMARK    2  A    between atoms: C_2  and  N_9 
REMARK    3  A    between atoms: N_11  and  C_2 
REMARK    4  A    between atoms: C_6  and  C_19 
REMARK    5  A    between atoms: N_9  and  C_20 
REMARK    6  A    between atoms: C_19  and  N_11 
ROOT
ATOM      1  C   UNL d   1       1.222   2.203  -0.956  0.00  0.00     0.030 A 
ATOM      2  C   UNL d   1       1.585   1.772  -2.241  0.00  0.00     0.031 A 
ATOM      3  C   UNL d   1       1.388   3.575  -0.709  0.00  0.00     0.031 A 
ATOM      4  C   UNL d   1       2.351   4.005  -2.869  0.00  0.00     0.034 A 
ATOM      5  C   UNL d   1       2.117   2.659  -3.190  0.00  0.00     0.032 A 
ATOM      6  C   UNL d   1       1.945   4.461  -1.628  0.00  0.00     0.032 A 
ENDROOT
BRANCH   4   7
ATOM      7  N   UNL d   1       3.010   4.782  -3.850  0.00  0.00    -0.333 N 
ATOM      8  H   UNL d   1       3.055   4.315  -4.740  0.00  0.00     0.168 HD
BRANCH   7   9
ATOM      9  C   UNL d   1       3.972   5.767  -3.669  0.00  0.00     0.172 C 
ATOM     10  S   UNL d   1       4.201   6.817  -2.385  0.00  0.00    -0.041 SA
BRANCH   9  11
ATOM     11  N   UNL d   1       4.908   5.833  -4.679  0.00  0.00    -0.362 N 
ATOM     12  H   UNL d   1       5.747   6.354  -4.453  0.00  0.00     0.162 HD
BRANCH  11  13
ATOM     13  C   UNL d   1       4.685   5.440  -6.055  0.00  0.00     0.168 C 
BRANCH  13  14
ATOM     14  C   UNL d   1       5.879   5.636  -6.923  0.00  0.00     0.000 A 
ATOM     15  S   UNL d   1       7.042   4.380  -7.049  0.00  0.00    -0.105 SA
ATOM     16  C   UNL d   1       7.857   5.173  -8.322  0.00  0.00     0.050 A 
ATOM     17  C   UNL d   1       7.293   6.395  -8.616  0.00  0.00     0.008 A 
ATOM     18  C   UNL d   1       6.159   6.671  -7.796  0.00  0.00     0.017 A 
ENDBRANCH  13  14
ENDBRANCH  11  13
ENDBRANCH   9  11
ENDBRANCH   7   9
ENDBRANCH   4   7
BRANCH   1  19
ATOM     19  N   UNL d   1       0.774   1.361   0.030  0.00  0.00    -0.376 N 
ATOM     20  C   UNL d   1       1.274  -0.017   0.141  0.00  0.00     0.154 C 
ATOM     21  C   UNL d   1       0.236  -1.040  -0.361  0.00  0.00     0.136 C 
ATOM     22  C   UNL d   1       0.693  -2.462  -0.060  0.00  0.00     0.041 C 
ATOM     23  O   UNL d   1      -1.035  -0.847   0.285  0.00  0.00    -0.378 OA
ATOM     24  C   UNL d   1      -1.545   0.473   0.008  0.00  0.00     0.136 C 
ATOM     25  C   UNL d   1      -0.593   1.563   0.549  0.00  0.00     0.154 C 
ATOM     26  C   UNL d   1      -2.918   0.574   0.656  0.00  0.00     0.041 C 
ENDBRANCH   1  19
TORSDOF 6
