REMARK  6 active torsions:
REMARK  status: ('A' for Active; 'I' for Inactive)
REMARK    1  A    between atoms: N_3  and  C_1 
REMARK    2  A    between atoms: C_5  and  C_2 
REMARK       I    between atoms: N_13  and  C_5 
REMARK       I    between atoms: C_11  and  N_14 
REMARK    3  A    between atoms: C_18  and  C_11 
REMARK    4  A    between atoms: O_19  and  C_12 
REMARK    5  A    between atoms: N_14  and  N_13 
REMARK    6  A    between atoms: O_20  and  C_15 
ROOT
ATOM      1  C   UNL d   1       1.334  -0.340   0.142  0.00  0.00     0.058 A 
ATOM      2  C   UNL d   1       0.431  -1.416   0.097  0.00  0.00     0.063 A 
ATOM      3  C   UNL d   1       0.820   0.972   0.194  0.00  0.00     0.070 A 
ATOM      4  C   UNL d   1      -0.956  -1.137   0.160  0.00  0.00     0.059 A 
ATOM      5  C   UNL d   1      -0.556   1.241   0.204  0.00  0.00     0.103 A 
ATOM      6  C   UNL d   1      -1.460   0.178   0.187  0.00  0.00     0.102 A 
ENDROOT
BRANCH   2   7
ATOM      7  C   UNL d   1       0.761  -2.877  -0.016  0.00  0.00     0.272 C 
ATOM      8  N   UNL d   1       1.855  -3.265  -0.766  0.00  0.00    -0.263 N 
ATOM      9  H   UNL d   1       2.549  -2.614  -1.138  0.00  0.00     0.190 HD
ATOM     10  O   UNL d   1       0.047  -3.706   0.553  0.00  0.00    -0.266 OA
BRANCH   8  11
ATOM     11  N   UNL d   1       2.309  -4.603  -0.622  0.00  0.00    -0.267 N 
ATOM     12  C   UNL d   1       3.624  -4.882  -0.933  0.00  0.00     0.239 C 
ATOM     13  O   UNL d   1       4.364  -4.037  -1.450  0.00  0.00    -0.271 OA
ATOM     14  H   UNL d   1       1.722  -5.215  -0.057  0.00  0.00     0.190 HD
BRANCH  12  15
ATOM     15  C   UNL d   1       4.088  -6.302  -0.613  0.00  0.00     0.071 C 
ATOM     16  C   UNL d   1       5.410  -6.617  -1.317  0.00  0.00     0.019 C 
ATOM     17  C   UNL d   1       4.249  -6.514   0.892  0.00  0.00     0.019 C 
ENDBRANCH  12  15
ENDBRANCH   8  11
ENDBRANCH   2   7
BRANCH   1  18
ATOM     18  N   UNL d   1       2.753  -0.483   0.234  0.00  0.00    -0.319 N 
ATOM     19  C   UNL d   1       3.714   0.283  -0.441  0.00  0.00     0.013 C 
ATOM     20  C   UNL d   1       4.962  -0.233  -0.143  0.00  0.00     0.027 C 
ATOM     21  C   UNL d   1       3.481   1.413  -1.395  0.00  0.00     0.068 C 
ATOM     22  C   UNL d   1       4.791  -1.286   0.762  0.00  0.00     0.027 C 
ATOM     23  C   UNL d   1       3.444  -1.383   1.050  0.00  0.00     0.013 C 
ATOM     24  C   UNL d   1       2.857  -2.265   2.105  0.00  0.00     0.068 C 
ENDBRANCH   1  18
BRANCH   6  25
ATOM     25  O   UNL d   1      -2.796   0.463   0.221  0.00  0.00    -0.353 OA
ATOM     26  C   UNL d   1      -3.688  -0.519  -0.293  0.00  0.00     0.210 C 
ENDBRANCH   6  25
BRANCH   5  27
ATOM     27  O   UNL d   1      -0.833   2.583   0.179  0.00  0.00    -0.353 OA
ATOM     28  C   UNL d   1      -2.045   3.021   0.779  0.00  0.00     0.210 C 
ENDBRANCH   5  27
TORSDOF 6
