REMARK  8 active torsions:
REMARK  status: ('A' for Active; 'I' for Inactive)
REMARK    1  A    between atoms: O_11  and  C_3 
REMARK    2  A    between atoms: S_9  and  C_4 
REMARK    3  A    between atoms: C_13  and  C_5 
REMARK    4  A    between atoms: C_22  and  C_8 
REMARK    5  A    between atoms: C_14  and  S_9 
REMARK    6  A    between atoms: C_10  and  C_13 
REMARK    7  A    between atoms: C_16  and  C_14 
REMARK    8  A    between atoms: C_23  and  C_22 
ROOT
ATOM      1  N   UNL d   1      -0.271  -1.264  -0.003  0.00  0.00    -0.317 N 
ATOM      2  HN  UNL d   1      -0.773  -2.151  -0.047  1.00  0.00     0.170 HD
ATOM      3  C   UNL d   1      -0.901  -0.088   0.024  0.00  0.00     0.150 A 
ATOM      4  C   UNL d   1       1.064  -1.198   0.031  0.00  0.00     0.146 A 
ATOM      5  C   UNL d   1      -0.307   1.155   0.077  0.00  0.00     0.019 A 
ATOM      6  N   UNL d   1       1.773  -0.058   0.065  0.00  0.00    -0.340 N 
ATOM      7  HN  UNL d   1       2.793  -0.071   0.087  1.00  0.00     0.168 HD
ATOM      8  C   UNL d   1       1.082   1.113   0.068  0.00  0.00     0.022 A 
ENDROOT
BRANCH   4   9
ATOM      9  S   UNL d   1       1.912  -2.751  -0.075  0.00  0.00    -0.089 SA
BRANCH   9  10
ATOM     10  C   UNL d   1       3.297  -2.442   1.060  0.00  0.00     0.121 C 
BRANCH  10  11
ATOM     11  C   UNL d   1       4.086  -3.716   1.291  0.00  0.00    -0.048 A 
ATOM     12  C   UNL d   1       5.065  -4.123   0.369  0.00  0.00     0.011 A 
ATOM     13  C   UNL d   1       5.761  -5.323   0.552  0.00  0.00     0.043 A 
ATOM     14  C   UNL d   1       5.477  -6.115   1.657  0.00  0.00     0.116 A 
ATOM     15  C   UNL d   1       4.514  -5.732   2.583  0.00  0.00     0.043 A 
ATOM     16  F   UNL d   1       6.138  -7.268   1.829  0.00  0.00    -0.206 F 
ATOM     17  C   UNL d   1       3.816  -4.536   2.400  0.00  0.00     0.011 A 
ENDBRANCH  10  11
ENDBRANCH   9  10
ENDBRANCH   4   9
BRANCH   3  18
ATOM     18  O   UNL d   1      -2.252  -0.220  -0.022  0.00  0.00    -0.346 OA
ATOM     19  H   UNL d   1      -2.332  -1.187  -0.114  0.00  0.00     0.219 HD
ENDBRANCH   3  18
BRANCH   8  20
ATOM     20  C   UNL d   1       1.934   2.361   0.026  0.00  0.00     0.057 C 
BRANCH  20  21
ATOM     21  C   UNL d   1       2.229   2.983   1.393  0.00  0.00     0.002 C 
ATOM     22  C   UNL d   1       3.085   2.101   2.289  0.00  0.00     0.005 C 
ENDBRANCH  20  21
ENDBRANCH   8  20
BRANCH   5  23
ATOM     23  C   UNL d   1      -1.132   2.411   0.118  0.00  0.00     0.071 C 
BRANCH  23  24
ATOM     24  C   UNL d   1      -1.506   3.046  -1.196  0.00  0.00    -0.032 C 
ATOM     25  C   UNL d   1      -1.199   2.641  -2.435  0.00  0.00     0.007 C 
ENDBRANCH  23  24
ENDBRANCH   5  23
TORSDOF 8
