REMARK  1 active torsions:
REMARK  status: ('A' for Active; 'I' for Inactive)
REMARK    1  A    between atoms: C_2  and  N_1 
ROOT
ATOM      1  C   UNL d   1       0.002   2.342  -0.051  0.00  0.00     0.047 A 
ATOM      2  C   UNL d   1       0.692   3.061  -1.042  0.00  0.00     0.057 A 
ATOM      3  C   UNL d   1       0.673   4.461  -1.061  0.00  0.00     0.074 A 
ATOM      4  C   UNL d   1      -0.015   5.162  -0.079  0.00  0.00     0.138 A 
ATOM      5  C   UNL d   1      -0.694   3.078   0.926  0.00  0.00     0.033 A 
ATOM      6  C   UNL d   1      -0.694   4.478   0.919  0.00  0.00     0.046 A 
ATOM      7 CL   UNL d   1       1.493   5.301  -2.322  0.00  0.00    -0.081 Cl
ATOM      8  F   UNL d   1      -0.039   6.502  -0.075  0.00  0.00    -0.204 F 
ENDROOT
BRANCH   1   9
ATOM      9  N   UNL d   1       0.001   0.918  -0.038  0.00  0.00    -0.245 N 
ATOM     10  C   UNL d   1      -0.910   0.130   0.614  0.00  0.00     0.255 A 
ATOM     11  C   UNL d   1      -0.546  -1.269   0.363  0.00  0.00     0.080 A 
ATOM     12  O   UNL d   1      -1.900   0.418   1.266  0.00  0.00    -0.268 OA
ATOM     13  C   UNL d   1       0.537  -1.276  -0.408  0.00  0.00     0.080 A 
ATOM     14  C   UNL d   1       0.907   0.117  -0.678  0.00  0.00     0.255 A 
ATOM     15  O   UNL d   1       1.897   0.393  -1.335  0.00  0.00    -0.268 OA
ENDBRANCH   1   9
TORSDOF 1
