REMARK  4 active torsions:
REMARK  status: ('A' for Active; 'I' for Inactive)
REMARK    1  A    between atoms: C_6  and  S_1 
REMARK    2  A    between atoms: C_8  and  S_1 
REMARK    3  A    between atoms: C_7  and  C_4 
REMARK    4  A    between atoms: C_5  and  C_8 
ROOT
ATOM      1  N   UNL d   1       0.367   2.076  -2.465  0.00  0.00    -0.322 N 
ATOM      2  HN  UNL d   1      -0.233   2.449  -1.730  1.00  0.00     0.169 HD
ATOM      3  C   UNL d   1       0.906   2.708  -3.484  0.00  0.00     0.183 A 
ATOM      4  C   UNL d   1       0.812   0.794  -2.634  0.00  0.00     0.118 A 
ATOM      5  N   UNL d   1       1.557   0.600  -3.730  0.00  0.00    -0.246 N 
ATOM      6  HN  UNL d   1       1.964  -0.269  -4.074  1.00  0.00     0.196 HD
ATOM      7  O   UNL d   1       1.641   1.881  -4.289  0.00  0.00    -0.217 OA
ENDROOT
BRANCH   4   8
ATOM      8  C   UNL d   1       0.429  -0.282  -1.710  0.00  0.00     0.224 C 
BRANCH   8   9
ATOM      9  S   UNL d   1       1.526  -0.410  -0.325  0.00  0.00     0.182 S 
ATOM     10  O   UNL d   1       0.945  -1.323   0.642  0.00  0.00    -0.222 OA
ATOM     11  O   UNL d   1       2.898  -0.563  -0.769  0.00  0.00    -0.222 OA
BRANCH   9  12
ATOM     12  C   UNL d   1       1.492   1.127   0.484  0.00  0.00     0.066 A 
ATOM     13  C   UNL d   1       0.566   1.469   1.517  0.00  0.00     0.031 A 
ATOM     14  C   UNL d   1       0.780   2.743   1.998  0.00  0.00     0.051 A 
ATOM     15  S   UNL d   1       2.075   3.525   1.198  0.00  0.00    -0.112 SA
ATOM     16  C   UNL d   1       2.378   2.152   0.223  0.00  0.00     0.072 A 
ENDBRANCH   9  12
ENDBRANCH   8   9
ENDBRANCH   4   8
BRANCH   3  17
ATOM     17  C   UNL d   1       0.887   4.125  -3.819  0.00  0.00     0.039 A 
ATOM     18  C   UNL d   1      -0.213   4.949  -3.511  0.00  0.00     0.051 A 
ATOM     19  C   UNL d   1      -0.156   6.328  -3.737  0.00  0.00     0.067 A 
ATOM     20 CL   UNL d   1      -1.700   4.331  -2.875  0.00  0.00    -0.083 Cl
ATOM     21  C   UNL d   1       0.993   6.888  -4.277  0.00  0.00     0.118 A 
ATOM     22  C   UNL d   1       2.080   6.096  -4.620  0.00  0.00     0.043 A 
ATOM     23  F   UNL d   1       1.054   8.211  -4.466  0.00  0.00    -0.206 F 
ATOM     24  C   UNL d   1       2.027   4.718  -4.397  0.00  0.00     0.020 A 
ENDBRANCH   3  17
TORSDOF 4
