REMARK  4 active torsions:
REMARK  status: ('A' for Active; 'I' for Inactive)
REMARK    1  A    between atoms: C_9  and  C_1 
REMARK    2  A    between atoms: N_6  and  C_2 
REMARK    3  A    between atoms: C_11  and  C_4 
REMARK       I    between atoms: C_7  and  N_6 
REMARK    4  A    between atoms: C_8  and  C_7 
ROOT
ATOM      1  C   UNL d   1       0.005   1.185  -0.253  0.00  0.00     0.077 C 
ATOM      2  C   UNL d   1       1.303   0.814   0.058  0.00  0.00     0.057 C 
ATOM      3  S   UNL d   1      -1.079  -0.127  -0.060  0.00  0.00    -0.084 SA
ATOM      4  C   UNL d   1       0.189  -1.275   0.049  0.00  0.00     0.018 C 
ATOM      5  C   UNL d   1       1.400  -0.617   0.177  0.00  0.00     0.051 C 
ENDROOT
BRANCH   2   6
ATOM      6  N   UNL d   1       2.440   1.611   0.189  0.00  0.00    -0.321 N 
ATOM      7  C   UNL d   1       2.481   2.979   0.405  0.00  0.00     0.263 C 
ATOM      8  O   UNL d   1       1.481   3.672   0.564  0.00  0.00    -0.267 OA
ATOM      9  H   UNL d   1       3.326   1.126   0.268  0.00  0.00     0.169 HD
BRANCH   7  10
ATOM     10  C   UNL d   1       3.823   3.562   0.434  0.00  0.00     0.072 A 
ATOM     11  S   UNL d   1       5.238   2.633   0.156  0.00  0.00    -0.097 SA
ATOM     12  C   UNL d   1       6.250   4.004   0.280  0.00  0.00     0.050 A 
ATOM     13  C   UNL d   1       5.537   5.148   0.555  0.00  0.00     0.009 A 
ATOM     14  C   UNL d   1       4.139   4.891   0.654  0.00  0.00     0.025 A 
ENDBRANCH   7  10
ENDBRANCH   2   6
BRANCH   1  15
ATOM     15  C   UNL d   1      -0.578   2.414  -0.770  0.00  0.00     0.164 C 
ATOM     16  O   UNL d   1      -1.670   2.860  -0.407  0.00  0.00    -0.292 OA
ATOM     17  C   UNL d   1       0.107   3.028  -1.972  0.00  0.00     0.097 C 
ENDBRANCH   1  15
BRANCH   4  18
ATOM     18  C   UNL d   1      -0.111  -2.721   0.025  0.00  0.00    -0.019 A 
ATOM     19  C   UNL d   1      -1.246  -3.220  -0.648  0.00  0.00     0.016 A 
ATOM     20  C   UNL d   1      -1.522  -4.588  -0.688  0.00  0.00     0.043 A 
ATOM     21  C   UNL d   1      -0.658  -5.476  -0.068  0.00  0.00     0.116 A 
ATOM     22  C   UNL d   1       0.476  -5.020   0.592  0.00  0.00     0.043 A 
ATOM     23  F   UNL d   1      -0.918  -6.789  -0.111  0.00  0.00    -0.206 F 
ATOM     24  C   UNL d   1       0.749  -3.648   0.639  0.00  0.00     0.016 A 
ENDBRANCH   4  18
TORSDOF 4
