REMARK  3 active torsions:
REMARK  status: ('A' for Active; 'I' for Inactive)
REMARK       I    between atoms: C_2  and  N_1 
REMARK    1  A    between atoms: C_10  and  C_2 
REMARK    2  A    between atoms: C_6  and  C_3 
REMARK    3  A    between atoms: O_13  and  C_3 
ROOT
ATOM      1  N   UNL d   1       1.771   0.132   0.056  0.00  0.00    -0.352 N 
ATOM      2  C   UNL d   1       3.065   0.171  -0.463  0.00  0.00     0.224 C 
ATOM      3  C   UNL d   1      -1.052  -0.097  -0.699  0.00  0.00     0.088 C 
ATOM      4  C   UNL d   1      -0.256   1.227  -0.772  0.00  0.00     0.062 C 
ATOM      5  C   UNL d   1      -0.065  -1.291  -0.751  0.00  0.00     0.062 C 
ATOM      6  C   UNL d   1       1.102  -1.153   0.234  0.00  0.00     0.129 C 
ATOM      7  C   UNL d   1       0.880   1.269   0.246  0.00  0.00     0.129 C 
ATOM      8  O   UNL d   1       3.715  -0.855  -0.678  0.00  0.00    -0.273 OA
ENDROOT
BRANCH   3   9
ATOM      9  C   UNL d   1      -2.136  -0.113  -1.794  0.00  0.00    -0.024 A 
ATOM     10  C   UNL d   1      -2.239  -1.141  -2.747  0.00  0.00     0.012 A 
ATOM     11  C   UNL d   1      -3.184  -1.085  -3.780  0.00  0.00     0.024 A 
ATOM     12  C   UNL d   1      -4.057  -0.006  -3.867  0.00  0.00     0.034 A 
ATOM     13  C   UNL d   1      -4.009   1.006  -2.917  0.00  0.00     0.024 A 
ATOM     14 CL   UNL d   1      -5.189   0.081  -5.159  0.00  0.00    -0.084 Cl
ATOM     15  C   UNL d   1      -3.062   0.950  -1.888  0.00  0.00     0.012 A 
ENDBRANCH   3   9
BRANCH   3  16
ATOM     16  O   UNL d   1      -1.695  -0.140   0.585  0.00  0.00    -0.385 OA
ATOM     17  H   UNL d   1      -2.644   0.034   0.469  0.00  0.00     0.211 HD
ENDBRANCH   3  16
BRANCH   2  18
ATOM     18  C   UNL d   1       3.673   1.556  -0.754  0.00  0.00     0.078 C 
ATOM     19  C   UNL d   1       4.796   1.515  -1.807  0.00  0.00     0.014 C 
ATOM     20  C   UNL d   1       6.200   1.282  -1.260  0.00  0.00     0.001 C 
ATOM     21  C   UNL d   1       6.508   2.202  -0.088  0.00  0.00     0.000 C 
ATOM     22  C   UNL d   1       5.488   1.993   1.021  0.00  0.00     0.001 C 
ATOM     23  C   UNL d   1       4.070   2.287   0.540  0.00  0.00     0.014 C 
ENDBRANCH   2  18
TORSDOF 3
