REMARK  7 active torsions:
REMARK  status: ('A' for Active; 'I' for Inactive)
REMARK    1  A    between atoms: C_4  and  C_1 
REMARK    2  A    between atoms: C_13  and  C_2 
REMARK    3  A    between atoms: S_3  and  O_16 
REMARK    4  A    between atoms: N_17  and  S_3 
REMARK    5  A    between atoms: C_15  and  C_7 
REMARK    6  A    between atoms: C_20  and  C_10 
REMARK    7  A    between atoms: O_16  and  C_27 
ROOT
ATOM      1  C   UNL d   1       2.349   1.533  -0.062  0.00  0.00     0.185 A 
ATOM      2  N   UNL d   1       2.634   2.429   0.851  0.00  0.00    -0.318 N 
ATOM      3  HN  UNL d   1       2.062   2.738   1.637  1.00  0.00     0.169 HD
ATOM      4  C   UNL d   1       3.892   2.849   0.491  0.00  0.00     0.138 A 
ATOM      5  N   UNL d   1       4.357   2.274  -0.628  0.00  0.00    -0.242 N 
ATOM      6  HN  UNL d   1       5.245   2.442  -1.102  1.00  0.00     0.196 HD
ATOM      7  O   UNL d   1       3.345   1.395  -0.989  0.00  0.00    -0.217 OA
ENDROOT
BRANCH   1   8
ATOM      8  C   UNL d   1       1.126   0.703  -0.062  0.00  0.00     0.059 A 
ATOM      9  C   UNL d   1       0.039   0.802   0.780  0.00  0.00     0.174 A 
ATOM     10  O   UNL d   1      -0.838  -0.219   0.484  0.00  0.00    -0.304 OA
ATOM     11  C   UNL d   1      -0.302  -0.954  -0.538  0.00  0.00     0.089 A 
ATOM     12  C   UNL d   1       0.884  -0.381  -0.937  0.00  0.00     0.056 A 
BRANCH   9  13
ATOM     13  C   UNL d   1      -0.374   1.718   1.876  0.00  0.00     0.440 C 
ATOM     14  F   UNL d   1       0.429   2.798   2.041  0.00  0.00    -0.164 F 
ATOM     15  F   UNL d   1      -1.622   2.216   1.660  0.00  0.00    -0.164 F 
ATOM     16  F   UNL d   1      -0.415   1.082   3.075  0.00  0.00    -0.164 F 
ENDBRANCH   9  13
BRANCH  11  17
ATOM     17  C   UNL d   1      -1.068  -2.118  -0.983  0.00  0.00     0.019 A 
ATOM     18  C   UNL d   1      -0.466  -3.295  -1.470  0.00  0.00     0.047 A 
ATOM     19 CL   UNL d   1       1.247  -3.561  -1.460  0.00  0.00    -0.083 Cl
ATOM     20  C   UNL d   1      -1.248  -4.346  -1.964  0.00  0.00     0.025 A 
ATOM     21  C   UNL d   1      -2.637  -4.252  -1.963  0.00  0.00     0.002 A 
ATOM     22  C   UNL d   1      -3.249  -3.111  -1.452  0.00  0.00     0.001 A 
ATOM     23  C   UNL d   1      -2.472  -2.057  -0.965  0.00  0.00     0.016 A 
ENDBRANCH  11  17
ENDBRANCH   1   8
BRANCH   4  24
ATOM     24  C   UNL d   1       4.657   3.779   1.308  0.00  0.00     0.010 A 
ATOM     25  C   UNL d   1       4.121   4.292   2.498  0.00  0.00     0.018 A 
ATOM     26  C   UNL d   1       4.880   5.144   3.306  0.00  0.00     0.039 A 
ATOM     27  C   UNL d   1       6.175   5.502   2.926  0.00  0.00     0.090 A 
ATOM     28  C   UNL d   1       6.718   4.983   1.750  0.00  0.00     0.039 A 
ATOM     29  C   UNL d   1       5.959   4.139   0.941  0.00  0.00     0.018 A 
BRANCH  27  30
ATOM     30  O   UNL d   1       6.843   6.350   3.771  0.00  0.00    -0.221 OA
BRANCH  30  31
ATOM     31  S   UNL d   1       8.061   7.294   3.231  0.00  0.00     0.344 S 
ATOM     32  O   UNL d   1       9.290   6.525   3.279  0.00  0.00    -0.180 OA
ATOM     33  O   UNL d   1       7.644   7.944   2.008  0.00  0.00    -0.180 OA
BRANCH  31  34
ATOM     34  N   UNL d   1       8.170   8.514   4.417  0.00  0.00    -0.196 NA
ATOM     35  C   UNL d   1       6.944   9.321   4.564  0.00  0.00     0.131 C 
ATOM     36  C   UNL d   1       8.751   8.094   5.701  0.00  0.00     0.131 C 
ENDBRANCH  31  34
ENDBRANCH  30  31
ENDBRANCH  27  30
ENDBRANCH   4  24
TORSDOF 7
