REMARK  6 active torsions:
REMARK  status: ('A' for Active; 'I' for Inactive)
REMARK    1  A    between atoms: N_15  and  C_3 
REMARK    2  A    between atoms: N_17  and  C_6 
REMARK    3  A    between atoms: O_18  and  C_9 
REMARK    4  A    between atoms: O_19  and  C_10 
REMARK    5  A    between atoms: O_20  and  C_11 
REMARK    6  A    between atoms: C_12  and  N_15 
ROOT
ATOM      1  N   UNL d   1      -2.310  -0.090  -0.064  0.00  0.00    -0.191 N 
ATOM      2  H   UNL d   1      -1.409  -0.075   0.387  0.00  0.00     0.184 HD
ENDROOT
BRANCH   1   3
ATOM      3  C   UNL d   1      -3.044  -1.282  -0.029  0.00  0.00     0.054 A 
ATOM      4  C   UNL d   1      -4.057  -1.584  -0.941  0.00  0.00     0.069 A 
ATOM      5  C   UNL d   1      -4.846  -2.737  -0.827  0.00  0.00     0.106 A 
ATOM      6  C   UNL d   1      -4.616  -3.632   0.228  0.00  0.00     0.135 A 
ATOM      7  C   UNL d   1      -3.547  -3.383   1.115  0.00  0.00     0.106 A 
ATOM      8  C   UNL d   1      -2.811  -2.192   1.006  0.00  0.00     0.069 A 
BRANCH   5   9
ATOM      9  O   UNL d   1      -5.731  -2.871  -1.866  0.00  0.00    -0.353 OA
ATOM     10  C   UNL d   1      -6.972  -3.502  -1.585  0.00  0.00     0.210 C 
ENDBRANCH   5   9
BRANCH   6  11
ATOM     11  O   UNL d   1      -5.327  -4.804   0.266  0.00  0.00    -0.351 OA
ATOM     12  C   UNL d   1      -5.978  -5.074   1.508  0.00  0.00     0.210 C 
ENDBRANCH   6  11
BRANCH   7  13
ATOM     13  O   UNL d   1      -3.263  -4.351   2.049  0.00  0.00    -0.353 OA
ATOM     14  C   UNL d   1      -1.968  -4.312   2.639  0.00  0.00     0.210 C 
ENDBRANCH   7  13
ENDBRANCH   1   3
BRANCH   1  15
ATOM     15  C   UNL d   1      -2.582   1.140  -0.662  0.00  0.00     0.685 A 
ATOM     16  N   UNL d   1      -3.776   1.378  -1.193  0.00  0.00    -0.166 N 
ATOM     17  C   UNL d   1      -3.970   2.578  -1.701  0.00  0.00     0.170 A 
ATOM     18  HN  UNL d   1      -4.507   0.666  -1.207  1.00  0.00     0.187 HD
ATOM     19  N   UNL d   1      -3.080   3.558  -1.687  0.00  0.00    -0.328 N 
ATOM     20  C   UNL d   1      -1.920   3.223  -1.137  0.00  0.00     0.200 A 
ATOM     21  HN  UNL d   1      -3.270   4.486  -2.065  1.00  0.00     0.169 HD
ATOM     22  N   UNL d   1      -1.611   2.045  -0.602  0.00  0.00    -0.188 N 
ATOM     23  HN  UNL d   1      -0.703   1.853  -0.179  1.00  0.00     0.185 HD
BRANCH  17  24
ATOM     24  N   UNL d   1      -5.215   2.836  -2.237  0.00  0.00    -0.273 NA
ATOM     25  H   UNL d   1      -5.891   2.190  -1.853  0.00  0.00     0.127 HD
ATOM     26  H   UNL d   1      -5.428   3.822  -2.177  0.00  0.00     0.127 HD
ENDBRANCH  17  24
ENDBRANCH   1  15
TORSDOF 6
