REMARK  5 active torsions:
REMARK  status: ('A' for Active; 'I' for Inactive)
REMARK    1  A    between atoms: S_8  and  C_1 
REMARK    2  A    between atoms: C_2  and  C_7 
REMARK    3  A    between atoms: O_13  and  C_2 
REMARK    4  A    between atoms: C_12  and  S_8 
REMARK    5  A    between atoms: C_14  and  C_12 
ROOT
ATOM      1  C   UNL d   1      -1.221   8.069  -0.025  0.00  0.00     0.039 A 
ATOM      2  C   UNL d   1      -0.539   7.321  -0.992  0.00  0.00     0.018 A 
ATOM      3  C   UNL d   1      -1.956   7.399   0.960  0.00  0.00     0.018 A 
ATOM      4  C   UNL d   1      -1.328   5.244   0.012  0.00  0.00    -0.048 A 
ATOM      5  C   UNL d   1      -2.000   6.003   0.983  0.00  0.00     0.009 A 
ATOM      6  C   UNL d   1      -0.595   5.920  -0.975  0.00  0.00     0.009 A 
ENDROOT
BRANCH   4   7
ATOM      7  C   UNL d   1      -1.382   3.727   0.048  0.00  0.00     0.121 C 
BRANCH   7   8
ATOM      8  S   UNL d   1      -3.090   3.123  -0.142  0.00  0.00    -0.089 SA
BRANCH   8   9
ATOM      9  C   UNL d   1      -2.855   1.369  -0.036  0.00  0.00     0.144 A 
ATOM     10  N   UNL d   1      -1.621   0.861   0.124  0.00  0.00    -0.347 N 
ATOM     11  C   UNL d   1      -1.533  -0.485   0.160  0.00  0.00     0.091 A 
ATOM     12  HN  UNL d   1      -0.799   1.459   0.215  1.00  0.00     0.167 HD
ATOM     13  C   UNL d   1      -2.615  -1.326   0.044  0.00  0.00     0.034 A 
ATOM     14  C   UNL d   1      -3.829  -0.705  -0.107  0.00  0.00     0.091 A 
ATOM     15  N   UNL d   1      -3.974   0.630  -0.148  0.00  0.00    -0.347 N 
ATOM     16  HN  UNL d   1      -4.891   1.064  -0.258  1.00  0.00     0.167 HD
ENDBRANCH   8   9
ENDBRANCH   7   8
ENDBRANCH   4   7
BRANCH   1  17
ATOM     17  C   UNL d   1      -1.134   9.556  -0.067  0.00  0.00     0.292 C 
ATOM     18  O   UNL d   1      -0.479  10.186  -0.887  0.00  0.00    -0.259 OA
BRANCH  17  19
ATOM     19  O   UNL d   1      -1.875  10.088   0.939  0.00  0.00    -0.323 OA
ATOM     20  C   UNL d   1      -1.861  11.515   1.011  0.00  0.00     0.213 C 
ENDBRANCH  17  19
ENDBRANCH   1  17
TORSDOF 5
