REMARK  0 active torsions:
REMARK  status: ('A' for Active; 'I' for Inactive)
ROOT
ATOM      1  C   UNL d   1       0.972  -0.778   0.005  0.00  0.00     0.134 A 
ATOM      2  C   UNL d   1      -0.345  -1.168   0.004  0.00  0.00     0.072 A 
ATOM      3  N   UNL d   1      -0.330   1.102  -0.008  0.00  0.00    -0.307 N 
ATOM      4  HN  UNL d   1      -0.619   2.080  -0.014  1.00  0.00     0.186 HD
ATOM      5  N   UNL d   1       0.927   0.599  -0.001  0.00  0.00    -0.281 N 
ATOM      6  C   UNL d   1      -1.102   0.010  -0.004  0.00  0.00     0.130 A 
ATOM      7  N   UNL d   1       2.118  -1.492   0.012  0.00  0.00    -0.383 N 
ATOM      8 BR   UNL d   1      -1.050  -2.898   0.010  0.00  0.00    -0.045 Br
ATOM      9  C   UNL d   1       2.050   1.505   0.003  0.00  0.00     0.179 C 
ATOM     10  H   UNL d   1       2.097  -2.510  -0.018  0.00  0.00     0.157 HD
ATOM     11  H   UNL d   1       3.048  -1.089  -0.033  0.00  0.00     0.157 HD
ENDROOT
TORSDOF 0
