REMARK  5 active torsions:
REMARK  status: ('A' for Active; 'I' for Inactive)
REMARK    1  A    between atoms: C_3  and  C_1 
REMARK    2  A    between atoms: C_2  and  N_5 
REMARK    3  A    between atoms: N_4  and  C_2 
REMARK    4  A    between atoms: C_9  and  N_4 
REMARK    5  A    between atoms: N_5  and  C_12 
ROOT
ATOM      1  C   UNL d   1      -1.357  -1.022  -3.924  0.00  0.00     0.176 C 
ATOM      2  S   UNL d   1      -1.531  -1.976  -2.562  0.00  0.00    -0.041 SA
ENDROOT
BRANCH   1   3
ATOM      3  N   UNL d   1      -1.040   0.310  -3.996  0.00  0.00    -0.333 N 
ATOM      4  H   UNL d   1      -1.424   0.749  -4.821  0.00  0.00     0.168 HD
BRANCH   3   5
ATOM      5  C   UNL d   1      -0.442   1.226  -3.106  0.00  0.00     0.035 A 
ATOM      6  C   UNL d   1       0.130   0.908  -1.875  0.00  0.00     0.045 A 
ATOM      7  C   UNL d   1       0.692   1.910  -1.061  0.00  0.00     0.050 A 
ATOM      8  C   UNL d   1       0.716   3.236  -1.518  0.00  0.00     0.016 A 
ATOM      9  C   UNL d   1       0.187   3.557  -2.762  0.00  0.00     0.003 A 
ATOM     10  C   UNL d   1      -0.392   2.558  -3.546  0.00  0.00     0.029 A 
BRANCH   7  11
ATOM     11  C   UNL d   1       1.242   1.585   0.306  0.00  0.00     0.417 C 
ATOM     12  F   UNL d   1       1.278   0.254   0.587  0.00  0.00    -0.166 F 
ATOM     13  F   UNL d   1       0.509   2.157   1.303  0.00  0.00    -0.166 F 
ATOM     14  F   UNL d   1       2.515   2.037   0.477  0.00  0.00    -0.166 F 
ENDBRANCH   7  11
ENDBRANCH   3   5
ENDBRANCH   1   3
BRANCH   1  15
ATOM     15  N   UNL d   1      -1.682  -1.624  -5.124  0.00  0.00    -0.333 N 
ATOM     16  H   UNL d   1      -2.160  -2.510  -4.992  0.00  0.00     0.168 HD
BRANCH  15  17
ATOM     17  C   UNL d   1      -1.540  -1.175  -6.453  0.00  0.00     0.035 A 
ATOM     18  C   UNL d   1      -0.615  -0.206  -6.851  0.00  0.00     0.055 A 
ATOM     19  C   UNL d   1      -0.641   0.316  -8.148  0.00  0.00     0.058 A 
ATOM     20 CL   UNL d   1       0.465   1.591  -8.519  0.00  0.00    -0.082 Cl
ATOM     21  C   UNL d   1      -1.560  -0.176  -9.078  0.00  0.00     0.055 A 
ATOM     22  C   UNL d   1      -2.409  -1.226  -8.717  0.00  0.00     0.028 A 
ATOM     23 CL   UNL d   1      -1.710   0.477 -10.668  0.00  0.00    -0.083 Cl
ATOM     24  C   UNL d   1      -2.391  -1.733  -7.415  0.00  0.00     0.031 A 
ENDBRANCH  15  17
ENDBRANCH   1  15
TORSDOF 5
