REMARK  4 active torsions:
REMARK  status: ('A' for Active; 'I' for Inactive)
REMARK       I    between atoms: N_2  and  C_1 
REMARK    1  A    between atoms: C_3  and  C_1 
REMARK    2  A    between atoms: C_6  and  N_2 
REMARK    3  A    between atoms: C_4  and  C_6 
REMARK    4  A    between atoms: C_5  and  C_4 
ROOT
ATOM      1  C   UNL d   1       0.408   0.393   0.814  0.00  0.00     0.252 C 
ATOM      2  N   UNL d   1       0.308   1.154  -0.332  0.00  0.00    -0.350 N 
ATOM      3  O   UNL d   1       1.021   0.763   1.807  0.00  0.00    -0.268 OA
ATOM      4  H   UNL d   1      -0.312   0.885  -1.085  0.00  0.00     0.163 HD
ENDROOT
BRANCH   2   5
ATOM      5  C   UNL d   1       0.944   2.457  -0.424  0.00  0.00     0.206 C 
BRANCH   5   6
ATOM      6  C   UNL d   1      -0.075   3.551  -0.708  0.00  0.00     0.177 C 
ATOM      7  O   UNL d   1      -0.507   3.755  -1.843  0.00  0.00    -0.291 OA
BRANCH   6   8
ATOM      8  C   UNL d   1      -0.619   4.347   0.424  0.00  0.00     0.011 A 
ATOM      9  C   UNL d   1      -0.961   5.688   0.207  0.00  0.00     0.017 A 
ATOM     10  C   UNL d   1      -1.546   6.439   1.232  0.00  0.00     0.025 A 
ATOM     11  C   UNL d   1      -1.804   5.844   2.466  0.00  0.00     0.034 A 
ATOM     12  C   UNL d   1      -1.464   4.512   2.691  0.00  0.00     0.025 A 
ATOM     13 CL   UNL d   1      -2.565   6.751   3.714  0.00  0.00    -0.084 Cl
ATOM     14  C   UNL d   1      -0.865   3.764   1.672  0.00  0.00     0.017 A 
ENDBRANCH   6   8
ENDBRANCH   5   6
ENDBRANCH   2   5
BRANCH   1  15
ATOM     15  C   UNL d   1      -0.321  -0.903   0.841  0.00  0.00     0.033 A 
ATOM     16  C   UNL d   1      -0.729  -1.398   2.087  0.00  0.00     0.041 A 
ATOM     17  C   UNL d   1      -1.425  -2.603   2.157  0.00  0.00     0.035 A 
ATOM     18 CL   UNL d   1      -1.942  -3.202   3.686  0.00  0.00    -0.084 Cl
ATOM     19  C   UNL d   1      -1.706  -3.326   1.001  0.00  0.00     0.024 A 
ATOM     20  C   UNL d   1      -1.280  -2.847  -0.238  0.00  0.00     0.003 A 
ATOM     21  C   UNL d   1      -0.585  -1.638  -0.322  0.00  0.00     0.017 A 
ENDBRANCH   1  15
TORSDOF 4
