REMARK  3 active torsions:
REMARK  status: ('A' for Active; 'I' for Inactive)
REMARK    1  A    between atoms: S_15  and  C_4 
REMARK    2  A    between atoms: C_9  and  C_5 
REMARK    3  A    between atoms: S_17  and  C_6 
ROOT
ATOM      1  N   UNL d   1       1.522   1.154   0.077  0.00  0.00    -0.330 N 
ATOM      2  HN  UNL d   1       2.044   2.029   0.116  1.00  0.00     0.168 HD
ATOM      3  C   UNL d   1      -0.575  -0.024   0.021  0.00  0.00     0.107 A 
ATOM      4  C   UNL d   1       0.171   1.143   0.078  0.00  0.00     0.094 A 
ATOM      5  C   UNL d   1       0.168  -1.188  -0.070  0.00  0.00     0.092 A 
ATOM      6  C   UNL d   1       2.148  -0.025   0.023  0.00  0.00     0.145 A 
ATOM      7  N   UNL d   1       1.522  -1.202  -0.047  0.00  0.00    -0.333 N 
ATOM      8  HN  UNL d   1       2.043  -2.078  -0.081  1.00  0.00     0.168 HD
ATOM      9  C   UNL d   1      -2.002  -0.017   0.090  0.00  0.00     0.104 C 
ATOM     10  N   UNL d   1      -3.161   0.004   0.174  0.00  0.00    -0.191 NA
ENDROOT
BRANCH   4  11
ATOM     11  S   UNL d   1      -0.621   2.756   0.143  0.00  0.00    -0.115 SA
ATOM     12  C   UNL d   1       0.812   3.864   0.091  0.00  0.00     0.097 C 
ENDBRANCH   4  11
BRANCH   5  13
ATOM     13  C   UNL d   1      -0.391  -2.526  -0.248  0.00  0.00     0.103 A 
ATOM     14  O   UNL d   1      -1.614  -2.608  -0.851  0.00  0.00    -0.320 OA
ATOM     15  C   UNL d   1      -1.920  -3.923  -0.977  0.00  0.00     0.142 A 
ATOM     16  C   UNL d   1      -0.905  -4.702  -0.475  0.00  0.00     0.027 A 
ATOM     17  C   UNL d   1       0.084  -3.802  -0.007  0.00  0.00     0.041 A 
ENDBRANCH   5  13
BRANCH   6  18
ATOM     18  S   UNL d   1       3.921  -0.074   0.029  0.00  0.00    -0.098 SA
ATOM     19  C   UNL d   1       4.305   1.694   0.017  0.00  0.00     0.099 C 
ENDBRANCH   6  18
TORSDOF 3
