REMARK  7 active torsions:
REMARK  status: ('A' for Active; 'I' for Inactive)
REMARK    1  A    between atoms: C_6  and  C_3 
REMARK    2  A    between atoms: N_13  and  C_4 
REMARK    3  A    between atoms: C_15  and  N_13 
REMARK    4  A    between atoms: N_14  and  C_18 
REMARK    5  A    between atoms: C_19  and  N_14 
REMARK    6  A    between atoms: C_20  and  N_14 
REMARK    7  A    between atoms: C_18  and  C_15 
ROOT
ATOM      1  N   UNL d   1      -0.517   1.252   0.398  0.00  0.00    -0.354 N 
ATOM      2  HN  UNL d   1      -0.265   2.208   0.649  1.00  0.00     0.166 HD
ATOM      3  C   UNL d   1       0.410   0.392  -0.070  0.00  0.00     0.051 C 
ATOM      4  C   UNL d   1      -1.163  -1.441  -0.094  0.00  0.00     0.023 C 
ATOM      5  C   UNL d   1       0.107  -0.921  -0.377  0.00  0.00     0.055 C 
ATOM      6  C   UNL d   1      -1.779   0.818   0.524  0.00  0.00     0.044 A 
ATOM      7  C   UNL d   1      -2.177  -0.522   0.284  0.00  0.00     0.012 A 
ATOM      8  C   UNL d   1      -3.548  -0.848   0.447  0.00  0.00     0.015 A 
ATOM      9  C   UNL d   1      -2.724   1.750   0.920  0.00  0.00     0.030 A 
ATOM     10  C   UNL d   1      -4.483   0.115   0.838  0.00  0.00     0.001 A 
ATOM     11  C   UNL d   1      -4.070   1.417   1.079  0.00  0.00     0.002 A 
ENDROOT
BRANCH   4  12
ATOM     12  N   UNL d   1      -1.417  -2.846  -0.250  0.00  0.00    -0.290 NA
ATOM     13  H   UNL d   1      -2.168  -3.137   0.371  0.00  0.00     0.127 HD
BRANCH  12  14
ATOM     14  C   UNL d   1      -0.200  -3.676  -0.088  0.00  0.00     0.122 C 
BRANCH  14  15
ATOM     15  C   UNL d   1      -0.430  -5.135   0.346  0.00  0.00     0.287 C 
BRANCH  15  16
ATOM     16  N   UNL d   1       0.842  -5.886   0.546  0.00  0.00     0.088 N 
BRANCH  16  17
ATOM     17  C   UNL d   1       1.801  -5.238   1.460  0.00  0.00     0.268 C 
ATOM     18  C   UNL d   1       1.364  -5.119   2.916  0.00  0.00     0.037 C 
ENDBRANCH  16  17
BRANCH  16  19
ATOM     19  C   UNL d   1       0.565  -7.292   0.884  0.00  0.00     0.268 C 
ATOM     20  C   UNL d   1       1.815  -8.162   1.017  0.00  0.00     0.037 C 
ENDBRANCH  16  19
ENDBRANCH  15  16
ENDBRANCH  14  15
ENDBRANCH  12  14
ENDBRANCH   4  12
BRANCH   3  21
ATOM     21  C   UNL d   1       1.783   0.913  -0.093  0.00  0.00     0.031 A 
ATOM     22  S   UNL d   1       2.953   0.321  -1.208  0.00  0.00    -0.100 SA
ATOM     23  C   UNL d   1       4.190   1.294  -0.547  0.00  0.00     0.050 A 
ATOM     24  C   UNL d   1       3.731   2.082   0.482  0.00  0.00     0.008 A 
ATOM     25  C   UNL d   1       2.344   1.875   0.731  0.00  0.00     0.021 A 
ENDBRANCH   3  21
TORSDOF 7
