REMARK  5 active torsions:
REMARK  status: ('A' for Active; 'I' for Inactive)
REMARK    1  A    between atoms: C_13  and  C_5 
REMARK    2  A    between atoms: N_7  and  C_9 
REMARK    3  A    between atoms: N_8  and  C_14 
REMARK       I    between atoms: N_23  and  C_13 
REMARK    4  A    between atoms: C_24  and  N_23 
REMARK    5  A    between atoms: C_25  and  C_24 
ROOT
ATOM      1  C   UNL d   1      -0.678   0.840   0.055  0.00  0.00     0.005 A 
ATOM      2  C   UNL d   1      -1.151  -0.494   0.004  0.00  0.00     0.029 A 
ATOM      3  C   UNL d   1       1.211  -0.560  -0.022  0.00  0.00     0.028 A 
ATOM      4  C   UNL d   1       0.791   0.785   0.047  0.00  0.00    -0.010 A 
ATOM      5  C   UNL d   1      -1.634   1.864   0.083  0.00  0.00     0.046 A 
ATOM      6  C   UNL d   1       0.008  -1.403  -0.034  0.00  0.00     0.194 A 
ATOM      7  C   UNL d   1      -3.416   0.165  -0.026  0.00  0.00     0.104 A 
ATOM      8  C   UNL d   1      -2.483  -0.869  -0.033  0.00  0.00     0.052 A 
ATOM      9  C   UNL d   1      -3.006   1.516   0.030  0.00  0.00     0.054 A 
ATOM     10  C   UNL d   1       2.531  -0.978  -0.086  0.00  0.00     0.052 A 
ATOM     11  C   UNL d   1       3.501   0.025  -0.091  0.00  0.00     0.103 A 
ATOM     12  C   UNL d   1       1.778   1.757   0.076  0.00  0.00     0.016 A 
ATOM     13  O   UNL d   1      -0.029  -2.615  -0.070  0.00  0.00    -0.287 OA
ATOM     14  C   UNL d   1       3.131   1.382  -0.007  0.00  0.00     0.037 A 
ENDROOT
BRANCH   5  15
ATOM     15  C   UNL d   1      -1.272   3.308   0.076  0.00  0.00     0.252 C 
ATOM     16  O   UNL d   1      -0.314   3.696  -0.576  0.00  0.00    -0.268 OA
ATOM     17  N   UNL d   1      -2.068   4.173   0.805  0.00  0.00    -0.357 N 
ATOM     18  H   UNL d   1      -2.910   3.860   1.270  0.00  0.00     0.162 HD
BRANCH  17  19
ATOM     19  C   UNL d   1      -1.738   5.587   0.892  0.00  0.00     0.122 C 
BRANCH  19  20
ATOM     20  C   UNL d   1      -2.208   6.388  -0.321  0.00  0.00     0.015 C 
ATOM     21  C   UNL d   1      -3.723   6.417  -0.444  0.00  0.00     0.006 C 
ENDBRANCH  19  20
ENDBRANCH  17  19
ENDBRANCH   5  15
BRANCH   7  22
ATOM     22  N   UNL d   1      -4.850  -0.159  -0.102  0.00  0.00    -0.116 N 
ATOM     23  O   UNL d   1      -5.166  -1.350  -0.156  0.00  0.00    -0.532 OA
ATOM     24  O   UNL d   1      -5.645   0.790  -0.098  0.00  0.00    -0.532 OA
ENDBRANCH   7  22
BRANCH  11  25
ATOM     25  N   UNL d   1       4.923  -0.330  -0.195  0.00  0.00    -0.116 N 
ATOM     26  O   UNL d   1       5.211  -1.530  -0.281  0.00  0.00    -0.532 OA
ATOM     27  O   UNL d   1       5.748   0.595  -0.190  0.00  0.00    -0.532 OA
ENDBRANCH  11  25
TORSDOF 5
