REMARK  2 active torsions:
REMARK  status: ('A' for Active; 'I' for Inactive)
REMARK    1  A    between atoms: C_6  and  N_1 
REMARK    2  A    between atoms: C_14  and  C_9 
ROOT
ATOM      1  C   UNL d   1       0.352   2.176  -0.032  0.00  0.00     0.045 A 
ATOM      2  C   UNL d   1       0.269   5.024   0.110  0.00  0.00    -0.054 A 
ATOM      3  C   UNL d   1      -0.162   2.829   1.091  0.00  0.00     0.031 A 
ATOM      4  C   UNL d   1       0.888   2.965  -1.051  0.00  0.00     0.031 A 
ATOM      5  C   UNL d   1      -0.185   4.226   1.169  0.00  0.00     0.010 A 
ATOM      6  C   UNL d   1       0.833   4.368  -0.992  0.00  0.00     0.010 A 
ENDROOT
BRANCH   1   7
ATOM      7  N   UNL d   1       0.306   0.758  -0.122  0.00  0.00    -0.245 N 
ATOM      8  C   UNL d   1      -0.606  -0.032   0.517  0.00  0.00     0.255 A 
ATOM      9  C   UNL d   1      -0.285  -1.426   0.172  0.00  0.00     0.080 A 
ATOM     10  O   UNL d   1      -1.577   0.241   1.204  0.00  0.00    -0.268 OA
ATOM     11  C   UNL d   1       0.763  -1.415  -0.640  0.00  0.00     0.080 A 
ATOM     12  C   UNL d   1       1.142  -0.018  -0.875  0.00  0.00     0.255 A 
ATOM     13  O   UNL d   1       2.081   0.276  -1.599  0.00  0.00    -0.268 OA
ENDBRANCH   1   7
BRANCH   2  14
ATOM     14  C   UNL d   1      -0.011   6.523   0.170  0.00  0.00     0.018 C 
ATOM     15  C   UNL d   1       0.125   7.307  -1.150  0.00  0.00     0.009 C 
ATOM     16  C   UNL d   1       1.554   7.731  -1.482  0.00  0.00     0.001 C 
ATOM     17  C   UNL d   1       2.220   8.461  -0.323  0.00  0.00     0.000 C 
ATOM     18  C   UNL d   1       2.146   7.662   0.972  0.00  0.00     0.001 C 
ATOM     19  C   UNL d   1       0.715   7.258   1.314  0.00  0.00     0.009 C 
ENDBRANCH   2  14
TORSDOF 2
