REMARK  8 active torsions:
REMARK  status: ('A' for Active; 'I' for Inactive)
REMARK    1  A    between atoms: C_5  and  C_1 
REMARK       I    between atoms: N_15  and  C_1 
REMARK    2  A    between atoms: C_8  and  N_2 
REMARK    3  A    between atoms: C_3  and  C_4 
REMARK    4  A    between atoms: C_17  and  C_8 
REMARK    5  A    between atoms: O_16  and  C_19 
REMARK    6  A    between atoms: C_18  and  O_16 
REMARK    7  A    between atoms: C_19  and  C_17 
REMARK    8  A    between atoms: O_22  and  C_17 
ROOT
ATOM      1  C   UNL d   1      -1.213   3.273  -3.870  0.00  0.00     0.170 C 
ENDROOT
BRANCH   1   2
ATOM      2  C   UNL d   1      -1.294   1.883  -3.188  0.00  0.00     0.306 C 
BRANCH   2   3
ATOM      3  N   UNL d   1      -2.637   1.253  -3.190  0.00  0.00     0.091 N 
ATOM      4  C   UNL d   1      -3.599   2.067  -2.430  0.00  0.00     0.273 C 
ATOM      5  C   UNL d   1      -4.976   1.410  -2.336  0.00  0.00     0.044 C 
ATOM      6  C   UNL d   1      -4.890   0.013  -1.723  0.00  0.00     0.081 C 
ATOM      7  C   UNL d   1      -3.909  -0.811  -2.566  0.00  0.00     0.044 C 
ATOM      8  C   UNL d   1      -2.543  -0.121  -2.661  0.00  0.00     0.273 C 
BRANCH   6   9
ATOM      9  C   UNL d   1      -4.473   0.004  -0.252  0.00  0.00     0.219 C 
ATOM     10  O   UNL d   1      -3.705  -0.828   0.236  0.00  0.00    -0.273 OA
ATOM     11  N   UNL d   1      -5.047   0.930   0.561  0.00  0.00    -0.370 N 
ATOM     12  H   UNL d   1      -5.760   1.580   0.269  0.00  0.00     0.159 HD
ATOM     13  H   UNL d   1      -4.797   0.900   1.542  0.00  0.00     0.159 HD
ENDBRANCH   6   9
ENDBRANCH   2   3
ENDBRANCH   1   2
BRANCH   1  14
ATOM     14  C   UNL d   1       0.211   3.845  -3.762  0.00  0.00     0.209 C 
BRANCH  14  15
ATOM     15  O   UNL d   1       0.207   5.179  -4.289  0.00  0.00    -0.349 OA
BRANCH  15  16
ATOM     16  C   UNL d   1       1.298   5.955  -4.023  0.00  0.00     0.068 A 
ATOM     17  C   UNL d   1       2.514   5.504  -3.520  0.00  0.00     0.037 A 
ATOM     18  C   UNL d   1       3.538   6.415  -3.242  0.00  0.00     0.018 A 
ATOM     19  C   UNL d   1       3.363   7.784  -3.490  0.00  0.00     0.009 A 
ATOM     20  C   UNL d   1       2.151   8.233  -4.022  0.00  0.00     0.018 A 
ATOM     21  C   UNL d   1       1.131   7.318  -4.292  0.00  0.00     0.037 A 
BRANCH  19  22
ATOM     22  C   UNL d   1       4.481   8.700  -3.135  0.00  0.00     0.155 C 
ATOM     23  O   UNL d   1       5.277   8.366  -2.259  0.00  0.00    -0.293 OA
ATOM     24  C   UNL d   1       4.645  10.006  -3.866  0.00  0.00     0.096 C 
ENDBRANCH  19  22
ENDBRANCH  15  16
ENDBRANCH  14  15
ENDBRANCH   1  14
BRANCH   1  25
ATOM     25  O   UNL d   1      -1.600   3.186  -5.250  0.00  0.00    -0.392 OA
ATOM     26  H   UNL d   1      -1.159   2.411  -5.636  0.00  0.00     0.210 HD
ENDBRANCH   1  25
TORSDOF 8
