REMARK  4 active torsions:
REMARK  status: ('A' for Active; 'I' for Inactive)
REMARK    1  A    between atoms: C_7  and  C_2 
REMARK    2  A    between atoms: C_6  and  C_3 
REMARK    3  A    between atoms: O_16  and  C_6 
REMARK    4  A    between atoms: C_8  and  C_9 
ROOT
ATOM      1  C   UNL d   1       0.441  -2.431   0.005  0.00  0.00    -0.018 A 
ATOM      2  C   UNL d   1       0.942  -5.263   0.131  0.00  0.00    -0.023 A 
ATOM      3  C   UNL d   1       1.124  -3.006   1.088  0.00  0.00     0.013 A 
ATOM      4  C   UNL d   1       0.013  -3.296  -1.006  0.00  0.00     0.013 A 
ATOM      5  C   UNL d   1       1.385  -4.387   1.137  0.00  0.00     0.013 A 
ATOM      6  C   UNL d   1       0.230  -4.680  -0.930  0.00  0.00     0.013 A 
ENDROOT
BRANCH   1   7
ATOM      7  C   UNL d   1       0.188  -0.976  -0.083  0.00  0.00     0.022 A 
ATOM      8  S   UNL d   1       1.398   0.120   0.486  0.00  0.00    -0.083 SA
ATOM      9  C   UNL d   1       0.503   1.502   0.058  0.00  0.00     0.081 A 
ATOM     10  C   UNL d   1      -0.694   1.142  -0.524  0.00  0.00     0.033 A 
ATOM     11  C   UNL d   1      -0.902  -0.277  -0.598  0.00  0.00    -0.043 A 
ATOM     12  C   UNL d   1      -2.162  -0.837  -1.181  0.00  0.00     0.049 C 
BRANCH   9  13
ATOM     13  C   UNL d   1       0.967   2.862   0.278  0.00  0.00     0.299 C 
ATOM     14  O   UNL d   1       0.350   3.865  -0.062  0.00  0.00    -0.259 OA
BRANCH  13  15
ATOM     15  O   UNL d   1       2.173   2.894   0.918  0.00  0.00    -0.322 OA
ATOM     16  C   UNL d   1       2.664   4.213   1.152  0.00  0.00     0.213 C 
ENDBRANCH  13  15
ENDBRANCH   9  13
ENDBRANCH   1   7
BRANCH   2  17
ATOM     17  C   UNL d   1       1.233  -6.720   0.174  0.00  0.00     0.013 A 
ATOM     18  C   UNL d   1       1.403  -7.492  -0.993  0.00  0.00     0.127 A 
ATOM     19  F   UNL d   1       1.311  -6.933  -2.209  0.00  0.00    -0.205 F 
ATOM     20  C   UNL d   1       1.696  -8.857  -0.948  0.00  0.00     0.043 A 
ATOM     21  C   UNL d   1       1.842  -9.498   0.275  0.00  0.00     0.003 A 
ATOM     22  C   UNL d   1       1.682  -8.771   1.450  0.00  0.00     0.001 A 
ATOM     23  C   UNL d   1       1.372  -7.405   1.399  0.00  0.00     0.015 A 
ENDBRANCH   2  17
TORSDOF 4
