REMARK  1 active torsions:
REMARK  status: ('A' for Active; 'I' for Inactive)
REMARK    1  A    between atoms: N_11  and  N_4 
REMARK       I    between atoms: N_8  and  C_6 
REMARK       I    between atoms: N_9  and  C_6 
REMARK       I    between atoms: C_13  and  N_8 
REMARK       I    between atoms: C_14  and  N_9 
ROOT
ATOM      1  C   UNL d   1      -1.223   1.038  -0.973  0.00  0.00     0.129 A 
ATOM      2  C   UNL d   1      -2.009   0.107  -1.930  0.00  0.00     0.275 A 
ATOM      3  N   UNL d   1      -1.049  -0.727  -2.479  0.00  0.00    -0.321 N 
ATOM      4  N   UNL d   1      -1.629   2.015  -0.222  0.00  0.00    -0.281 N 
ATOM      5  HN  UNL d   1      -1.001   2.639   0.285  1.00  0.00     0.188 HD
ATOM      6  C   UNL d   1       0.171   0.617  -1.077  0.00  0.00     0.024 A 
ATOM      7  C   UNL d   1       0.216  -0.431  -1.990  0.00  0.00     0.047 A 
ATOM      8  O   UNL d   1      -3.183   0.116  -2.211  0.00  0.00    -0.266 OA
ATOM      9  C   UNL d   1       1.295   1.073  -0.417  0.00  0.00     0.016 A 
ATOM     10  C   UNL d   1       1.405  -1.051  -2.312  0.00  0.00     0.030 A 
ATOM     11  C   UNL d   1       2.507   0.449  -0.723  0.00  0.00     0.001 A 
ATOM     12  C   UNL d   1       2.561  -0.598  -1.666  0.00  0.00     0.002 A 
ATOM     13  H   UNL d   1      -1.281  -1.440  -3.155  0.00  0.00     0.169 HD
ENDROOT
BRANCH   4  14
ATOM     14  N   UNL d   1      -3.015   2.117  -0.186  0.00  0.00    -0.131 N 
ATOM     15  C   UNL d   1      -3.474   3.280   0.138  0.00  0.00     0.702 C 
ATOM     16  N   UNL d   1      -2.611   4.328   0.351  0.00  0.00    -0.159 N 
ATOM     17  N   UNL d   1      -4.811   3.543   0.276  0.00  0.00    -0.159 N 
ATOM     18  C   UNL d   1      -2.916   5.646   0.622  0.00  0.00     0.232 C 
ATOM     19  H   UNL d   1      -1.652   4.032   0.225  0.00  0.00     0.187 HD
ATOM     20  O   UNL d   1      -4.062   6.052   0.810  0.00  0.00    -0.273 OA
ATOM     21  C   UNL d   1      -1.723   6.563   0.685  0.00  0.00     0.118 C 
ATOM     22  C   UNL d   1      -5.849   2.635   0.166  0.00  0.00     0.232 C 
ATOM     23  H   UNL d   1      -5.036   4.506   0.504  0.00  0.00     0.187 HD
ATOM     24  O   UNL d   1      -5.749   1.424  -0.001  0.00  0.00    -0.273 OA
ATOM     25  C   UNL d   1      -7.211   3.264   0.308  0.00  0.00     0.118 C 
ATOM     26  HN  UNL d   1      -3.627   1.329  -0.399  1.00  0.00     0.205 HD
ENDBRANCH   4  14
TORSDOF 1
