REMARK  1 active torsions:
REMARK  status: ('A' for Active; 'I' for Inactive)
REMARK    1  A    between atoms: C_2  and  C_1 
REMARK       I    between atoms: N_3  and  C_2 
ROOT
ATOM      1  C   UNL d   1      -3.697  -1.695  -1.397  0.00  0.00     0.108 A 
ATOM      2  C   UNL d   1      -3.469  -2.040  -2.818  0.00  0.00     0.304 A 
ATOM      3  C   UNL d   1      -4.540  -0.705  -1.051  0.00  0.00     0.037 A 
ATOM      4  O   UNL d   1      -4.245  -1.376  -3.764  0.00  0.00    -0.274 OA
ATOM      5  C   UNL d   1      -5.307   0.001  -2.068  0.00  0.00    -0.001 A 
ATOM      6  C   UNL d   1      -5.146  -0.361  -3.401  0.00  0.00     0.089 A 
ATOM      7  O   UNL d   1      -2.658  -2.888  -3.171  0.00  0.00    -0.259 OA
ATOM      8  C   UNL d   1      -6.209   1.022  -1.758  0.00  0.00     0.014 A 
ATOM      9  C   UNL d   1      -5.854   0.261  -4.426  0.00  0.00     0.038 A 
ATOM     10  C   UNL d   1      -6.751   1.277  -4.110  0.00  0.00     0.003 A 
ATOM     11  C   UNL d   1      -6.929   1.657  -2.777  0.00  0.00     0.001 A 
ENDROOT
BRANCH   1  12
ATOM     12  C   UNL d   1      -2.940  -2.352  -0.289  0.00  0.00     0.260 C 
ATOM     13  N   UNL d   1      -2.858  -3.734  -0.257  0.00  0.00    -0.343 N 
ATOM     14  C   UNL d   1      -2.010  -4.400   0.740  0.00  0.00     0.157 C 
ATOM     15  C   UNL d   1      -3.720  -4.666  -0.991  0.00  0.00     0.157 C 
ATOM     16  C   UNL d   1      -1.269  -5.612   0.126  0.00  0.00     0.136 C 
ATOM     17  C   UNL d   1      -0.586  -6.450   1.200  0.00  0.00     0.041 C 
ATOM     18  O   UNL d   1      -2.174  -6.488  -0.579  0.00  0.00    -0.378 OA
ATOM     19  C   UNL d   1      -2.865  -5.774  -1.622  0.00  0.00     0.136 C 
ATOM     20  C   UNL d   1      -3.736  -6.757  -2.387  0.00  0.00     0.041 C 
ATOM     21  O   UNL d   1      -2.418  -1.646   0.575  0.00  0.00    -0.267 OA
ENDBRANCH   1  12
TORSDOF 1
