REMARK  6 active torsions:
REMARK  status: ('A' for Active; 'I' for Inactive)
REMARK    1  A    between atoms: C_4  and  C_1 
REMARK    2  A    between atoms: C_8  and  C_1 
REMARK    3  A    between atoms: C_5  and  C_2 
REMARK    4  A    between atoms: C_3  and  C_6 
REMARK    5  A    between atoms: C_10  and  C_4 
REMARK    6  A    between atoms: C_7  and  C_5 
ROOT
ATOM      1  C   UNL d   1       1.251  -0.126   0.290  0.00  0.00     0.029 C 
ATOM      2  C   UNL d   1       0.679  -1.181   0.902  0.00  0.00     0.072 C 
ENDROOT
BRANCH   1   3
ATOM      3  C   UNL d   1       2.545  -0.157  -0.473  0.00  0.00     0.193 C 
ATOM      4  O   UNL d   1       2.545   0.047  -1.685  0.00  0.00    -0.287 OA
BRANCH   3   5
ATOM      5  C   UNL d   1       3.841  -0.201   0.273  0.00  0.00     0.015 A 
ATOM      6  C   UNL d   1       4.030  -0.889   1.477  0.00  0.00     0.015 A 
ATOM      7  C   UNL d   1       5.288  -0.922   2.088  0.00  0.00     0.001 A 
ATOM      8  C   UNL d   1       6.361  -0.239   1.522  0.00  0.00     0.000 A 
ATOM      9  C   UNL d   1       6.180   0.474   0.340  0.00  0.00     0.001 A 
ATOM     10  C   UNL d   1       4.930   0.486  -0.286  0.00  0.00     0.015 A 
ENDBRANCH   3   5
ENDBRANCH   1   3
BRANCH   1  11
ATOM     11  C   UNL d   1       0.467   1.123   0.214  0.00  0.00    -0.022 A 
ATOM     12  C   UNL d   1       0.564   2.098   1.214  0.00  0.00     0.012 A 
ATOM     13  C   UNL d   1      -0.164   3.286   1.105  0.00  0.00     0.001 A 
ATOM     14  C   UNL d   1      -0.991   3.506   0.003  0.00  0.00     0.000 A 
ATOM     15  C   UNL d   1      -1.095   2.540  -0.995  0.00  0.00     0.001 A 
ATOM     16  C   UNL d   1      -0.368   1.353  -0.890  0.00  0.00     0.012 A 
ENDBRANCH   1  11
BRANCH   2  17
ATOM     17  C   UNL d   1       1.214  -2.566   0.841  0.00  0.00     0.183 C 
ATOM     18  O   UNL d   1       1.905  -2.947  -0.092  0.00  0.00    -0.288 OA
BRANCH  17  19
ATOM     19  C   UNL d   1       0.889  -3.507   1.944  0.00  0.00     0.014 A 
ATOM     20  C   UNL d   1       0.841  -4.873   1.639  0.00  0.00     0.016 A 
ATOM     21  C   UNL d   1       0.658  -5.821   2.649  0.00  0.00     0.017 A 
ATOM     22  C   UNL d   1       0.532  -5.419   3.986  0.00  0.00     0.048 A 
ATOM     23  C   UNL d   1       0.572  -4.046   4.287  0.00  0.00     0.017 A 
ATOM     24  C   UNL d   1       0.746  -3.093   3.274  0.00  0.00     0.016 A 
BRANCH  22  25
ATOM     25  C   UNL d   1       0.408  -6.443   5.092  0.00  0.00     0.417 C 
ATOM     26  F   UNL d   1       0.218  -7.713   4.641  0.00  0.00    -0.166 F 
ATOM     27  F   UNL d   1       1.519  -6.488   5.879  0.00  0.00    -0.166 F 
ATOM     28  F   UNL d   1      -0.633  -6.184   5.931  0.00  0.00    -0.166 F 
ENDBRANCH  22  25
ENDBRANCH  17  19
ENDBRANCH   2  17
TORSDOF 6
