REMARK  5 active torsions:
REMARK  status: ('A' for Active; 'I' for Inactive)
REMARK    1  A    between atoms: C_8  and  C_3 
REMARK    2  A    between atoms: C_11  and  C_6 
REMARK    3  A    between atoms: S_9  and  C_11 
REMARK    4  A    between atoms: C_10  and  S_9 
REMARK    5  A    between atoms: N_15  and  C_12 
ROOT
ATOM      1  N   UNL d   1      -0.564  -0.579  -0.196  0.00  0.00    -0.322 N 
ATOM      2  HN  UNL d   1      -1.377  -1.194  -0.194  1.00  0.00     0.169 HD
ATOM      3  C   UNL d   1      -0.524   0.800  -0.285  0.00  0.00     0.137 A 
ATOM      4  N   UNL d   1       0.719   1.305  -0.259  0.00  0.00    -0.242 N 
ATOM      5  HN  UNL d   1       0.999   2.285  -0.306  1.00  0.00     0.196 HD
ATOM      6  C   UNL d   1       0.712  -0.901  -0.115  0.00  0.00     0.158 A 
ATOM      7  O   UNL d   1       1.534   0.191  -0.153  0.00  0.00    -0.222 OA
ENDROOT
BRANCH   6   8
ATOM      8  C   UNL d   1       1.346  -2.252   0.005  0.00  0.00     0.166 C 
BRANCH   8   9
ATOM      9  S   UNL d   1       3.150  -2.168   0.305  0.00  0.00    -0.120 SA
BRANCH   9  10
ATOM     10  C   UNL d   1       3.679  -3.877   0.151  0.00  0.00     0.021 A 
ATOM     11  C   UNL d   1       4.927  -4.146  -0.460  0.00  0.00     0.022 A 
ATOM     12  C   UNL d   1       5.395  -5.464  -0.516  0.00  0.00     0.024 A 
ATOM     13  C   UNL d   1       4.685  -6.497   0.093  0.00  0.00     0.002 A 
ATOM     14  C   UNL d   1       3.471  -6.228   0.723  0.00  0.00     0.001 A 
ATOM     15  C   UNL d   1       2.968  -4.925   0.751  0.00  0.00     0.020 A 
BRANCH  11  16
ATOM     16  N   UNL d   1       5.611  -3.154  -1.196  0.00  0.00    -0.302 NA
ATOM     17  H   UNL d   1       5.342  -2.218  -0.896  0.00  0.00     0.124 HD
ATOM     18  H   UNL d   1       6.617  -3.283  -1.218  0.00  0.00     0.124 HD
ENDBRANCH  11  16
ENDBRANCH   9  10
ENDBRANCH   8   9
ENDBRANCH   6   8
BRANCH   3  19
ATOM     19  C   UNL d   1      -1.719   1.631  -0.405  0.00  0.00     0.010 A 
ATOM     20  C   UNL d   1      -2.991   1.048  -0.467  0.00  0.00     0.017 A 
ATOM     21  C   UNL d   1      -4.136   1.847  -0.588  0.00  0.00     0.025 A 
ATOM     22  C   UNL d   1      -4.012   3.233  -0.651  0.00  0.00     0.034 A 
ATOM     23  C   UNL d   1      -2.756   3.831  -0.591  0.00  0.00     0.025 A 
ATOM     24 CL   UNL d   1      -5.417   4.213  -0.805  0.00  0.00    -0.084 Cl
ATOM     25  C   UNL d   1      -1.615   3.031  -0.469  0.00  0.00     0.017 A 
ENDBRANCH   3  19
TORSDOF 5
