REMARK  16 active torsions:
REMARK  status: ('A' for Active; 'I' for Inactive)
REMARK    1  A    between atoms: O_5  and  N_2 
REMARK    2  A    between atoms: C_7  and  C_4 
REMARK    3  A    between atoms: C_9  and  C_7 
REMARK    4  A    between atoms: C_21  and  C_9 
REMARK    5  A    between atoms: C_10  and  C_11 
REMARK    6  A    between atoms: C_11  and  C_20 
REMARK    7  A    between atoms: C_12  and  C_22 
REMARK    8  A    between atoms: C_13  and  C_12 
REMARK    9  A    between atoms: C_14  and  C_13 
REMARK   10  A    between atoms: C_15  and  C_14 
REMARK   11  A    between atoms: C_16  and  C_15 
REMARK   12  A    between atoms: C_17  and  C_16 
REMARK   13  A    between atoms: C_18  and  C_17 
REMARK   14  A    between atoms: C_19  and  C_18 
REMARK   15  A    between atoms: C_20  and  C_19 
REMARK   16  A    between atoms: C_22  and  C_21 
ROOT
ATOM      1  C   UNL d   1       2.339   1.222   3.729  0.00  0.00     0.000 C 
ENDROOT
BRANCH   1   2
ATOM      2  C   UNL d   1       2.297   1.219   2.207  0.00  0.00     0.001 C 
BRANCH   2   3
ATOM      3  C   UNL d   1       1.546  -0.009   1.703  0.00  0.00     0.010 C 
BRANCH   3   4
ATOM      4  C   UNL d   1       1.426  -0.040   0.173  0.00  0.00     0.033 C 
ATOM      5  C   UNL d   1       0.686   1.190  -0.349  0.00  0.00     0.014 C 
ATOM      6  N   UNL d   1       1.212   2.153  -1.051  0.00  0.00    -0.277 N 
ATOM      7  C   UNL d   1      -0.783   1.295   0.008  0.00  0.00     0.055 C 
ATOM      8  HN  UNL d   1       0.692   2.966  -1.384  1.00  0.00     0.193 HD
ATOM      9  C   UNL d   1      -1.506   0.032  -0.437  0.00  0.00     0.006 C 
ATOM     10  C   UNL d   1      -0.830  -1.242   0.071  0.00  0.00     0.001 C 
ATOM     11  C   UNL d   1       0.656  -1.281  -0.299  0.00  0.00     0.010 C 
BRANCH   6  12
ATOM     12  O   UNL d   1       2.571   1.942  -1.294  0.00  0.00    -0.290 OA
ATOM     13  H   UNL d   1       2.811   2.731  -1.820  0.00  0.00     0.244 HD
ENDBRANCH   6  12
ENDBRANCH   3   4
ENDBRANCH   2   3
ENDBRANCH   1   2
BRANCH   1  14
ATOM     14  C   UNL d   1       3.053   2.466   4.234  0.00  0.00     0.000 C 
BRANCH  14  15
ATOM     15  C   UNL d   1       3.094   2.475   5.754  0.00  0.00     0.000 C 
BRANCH  15  16
ATOM     16  C   UNL d   1       3.823   3.714   6.249  0.00  0.00     0.000 C 
BRANCH  16  17
ATOM     17  C   UNL d   1       3.878   3.723   7.768  0.00  0.00     0.000 C 
BRANCH  17  18
ATOM     18  C   UNL d   1       4.613   4.961   8.258  0.00  0.00     0.000 C 
BRANCH  18  19
ATOM     19  C   UNL d   1       4.671   4.971   9.778  0.00  0.00     0.000 C 
BRANCH  19  20
ATOM     20  C   UNL d   1       5.407   6.208  10.271  0.00  0.00     0.000 C 
BRANCH  20  21
ATOM     21  C   UNL d   1       5.465   6.218  11.793  0.00  0.00     0.000 C 
BRANCH  21  22
ATOM     22  C   UNL d   1       6.200   7.457  12.290  0.00  0.00     0.000 C 
BRANCH  22  23
ATOM     23  C   UNL d   1       6.261   7.470  13.813  0.00  0.00     0.000 C 
BRANCH  23  24
ATOM     24  C   UNL d   1       6.996   8.710  14.309  0.00  0.00    -0.000 C 
BRANCH  24  25
ATOM     25  C   UNL d   1       7.061   8.735  15.833  0.00  0.00    -0.005 C 
ATOM     26  C   UNL d   1       7.793   9.971  16.327  0.00  0.00     0.005 C 
ENDBRANCH  24  25
ENDBRANCH  23  24
ENDBRANCH  22  23
ENDBRANCH  21  22
ENDBRANCH  20  21
ENDBRANCH  19  20
ENDBRANCH  18  19
ENDBRANCH  17  18
ENDBRANCH  16  17
ENDBRANCH  15  16
ENDBRANCH  14  15
ENDBRANCH   1  14
TORSDOF 16
