REMARK  4 active torsions:
REMARK  status: ('A' for Active; 'I' for Inactive)
REMARK    1  A    between atoms: C_11  and  N_3 
REMARK    2  A    between atoms: N_4  and  C_8 
REMARK    3  A    between atoms: C_13  and  C_5 
REMARK    4  A    between atoms: C_10  and  C_6 
ROOT
ATOM      1  N   UNL d   1       1.147  -0.193   0.134  0.00  0.00    -0.301 N 
ATOM      2  HN  UNL d   1       2.146  -0.390   0.197  1.00  0.00     0.187 HD
ATOM      3  N   UNL d   1       0.137  -1.109   0.155  0.00  0.00    -0.283 N 
ATOM      4  C   UNL d   1       0.597   0.979   0.019  0.00  0.00     0.038 A 
ATOM      5  C   UNL d   1      -1.192  -0.516   0.015  0.00  0.00     0.147 A 
ATOM      6  C   UNL d   1      -0.906   0.983  -0.004  0.00  0.00     0.091 A 
ENDROOT
BRANCH   5   7
ATOM      7  C   UNL d   1      -2.123  -0.892   1.161  0.00  0.00    -0.033 A 
ATOM      8  C   UNL d   1      -1.627  -1.145   2.454  0.00  0.00     0.012 A 
ATOM      9  C   UNL d   1      -2.480  -1.520   3.492  0.00  0.00     0.037 A 
ATOM     10  C   UNL d   1      -3.852  -1.626   3.246  0.00  0.00     0.102 A 
ATOM     11  C   UNL d   1      -4.370  -1.358   1.972  0.00  0.00     0.037 A 
ATOM     12  C   UNL d   1      -3.506  -0.990   0.935  0.00  0.00     0.012 A 
BRANCH  10  13
ATOM     13  N   UNL d   1      -4.753  -2.021   4.334  0.00  0.00    -0.116 N 
ATOM     14  O   UNL d   1      -5.965  -2.099   4.077  0.00  0.00    -0.532 OA
ATOM     15  O   UNL d   1      -4.257  -2.249   5.446  0.00  0.00    -0.532 OA
ENDBRANCH  10  13
ENDBRANCH   5   7
BRANCH   3  16
ATOM     16  C   UNL d   1       0.412  -2.475   0.074  0.00  0.00     0.051 A 
ATOM     17  C   UNL d   1       1.626  -2.990   0.556  0.00  0.00     0.031 A 
ATOM     18  C   UNL d   1       1.903  -4.361   0.531  0.00  0.00     0.002 A 
ATOM     19  C   UNL d   1       0.974  -5.249  -0.002  0.00  0.00     0.000 A 
ATOM     20  C   UNL d   1      -0.230  -4.766  -0.500  0.00  0.00     0.002 A 
ATOM     21  C   UNL d   1      -0.508  -3.396  -0.452  0.00  0.00     0.031 A 
ENDBRANCH   3  16
BRANCH   4  22
ATOM     22  C   UNL d   1       1.371   2.237  -0.099  0.00  0.00    -0.012 A 
ATOM     23  C   UNL d   1       2.769   2.183  -0.076  0.00  0.00     0.013 A 
ATOM     24  C   UNL d   1       3.519   3.352  -0.221  0.00  0.00     0.001 A 
ATOM     25  C   UNL d   1       2.877   4.578  -0.392  0.00  0.00     0.000 A 
ATOM     26  C   UNL d   1       1.484   4.638  -0.412  0.00  0.00     0.001 A 
ATOM     27  C   UNL d   1       0.730   3.472  -0.264  0.00  0.00     0.013 A 
ENDBRANCH   4  22
TORSDOF 4
