REMARK  1 active torsions:
REMARK  status: ('A' for Active; 'I' for Inactive)
REMARK    1  A    between atoms: N_3  and  C_1 
REMARK       I    between atoms: C_7  and  N_3 
ROOT
ATOM      1  C   UNL d   1       0.003   1.035   0.018  0.00  0.00     0.097 A 
ATOM      2  C   UNL d   1      -0.754  -0.108  -0.121  0.00  0.00     0.079 A 
ATOM      3  C   UNL d   1      -2.188  -0.168  -0.200  0.00  0.00     0.102 C 
ATOM      4  S   UNL d   1       1.646   0.697   0.332  0.00  0.00    -0.083 SA
ATOM      5  N   UNL d   1      -3.341  -0.290  -0.195  0.00  0.00    -0.191 NA
ATOM      6  C   UNL d   1       0.072  -1.279  -0.096  0.00  0.00     0.033 A 
ATOM      7  C   UNL d   1       1.403  -0.979   0.104  0.00  0.00     0.053 A 
ENDROOT
BRANCH   1   8
ATOM      8  N   UNL d   1      -0.255   2.388  -0.026  0.00  0.00    -0.320 N 
ATOM      9  C   UNL d   1      -1.212   2.916  -0.869  0.00  0.00     0.218 C 
ATOM     10  O   UNL d   1      -1.898   2.277  -1.660  0.00  0.00    -0.274 OA
ATOM     11  C   UNL d   1      -1.296   4.418  -0.805  0.00  0.00     0.117 C 
ATOM     12  H   UNL d   1       0.498   2.994   0.276  0.00  0.00     0.169 HD
ENDBRANCH   1   8
TORSDOF 1
