REMARK  4 active torsions:
REMARK  status: ('A' for Active; 'I' for Inactive)
REMARK    1  A    between atoms: N_4  and  C_1 
REMARK       I    between atoms: C_7  and  N_4 
REMARK    2  A    between atoms: C_13  and  C_7 
REMARK    3  A    between atoms: O_12  and  C_13 
REMARK    4  A    between atoms: C_15  and  O_12 
ROOT
ATOM      1  N   UNL d   1      -4.132   1.461  -0.985  0.00  0.00    -0.320 N 
ATOM      2  C   UNL d   1      -4.788   1.127   0.188  0.00  0.00     0.246 C 
ATOM      3  O   UNL d   1      -4.251   0.862   1.261  0.00  0.00    -0.271 OA
ATOM      4  H   UNL d   1      -4.668   2.018  -1.646  0.00  0.00     0.169 HD
ENDROOT
BRANCH   1   5
ATOM      5  C   UNL d   1      -2.731   1.427  -1.176  0.00  0.00     0.113 A 
ATOM      6  C   UNL d   1      -1.851   0.589  -0.482  0.00  0.00     0.147 A 
ATOM      7  C   UNL d   1      -0.473   0.652  -0.692  0.00  0.00     0.064 A 
ATOM      8  F   UNL d   1      -2.299  -0.369   0.339  0.00  0.00    -0.204 F 
ATOM      9  C   UNL d   1       0.041   1.548  -1.625  0.00  0.00     0.017 A 
ATOM     10  C   UNL d   1      -0.815   2.354  -2.370  0.00  0.00     0.064 A 
ATOM     11 BR   UNL d   1       1.908   1.653  -1.894  0.00  0.00    -0.051 Br
ATOM     12  C   UNL d   1      -2.187   2.277  -2.146  0.00  0.00     0.147 A 
ATOM     13  F   UNL d   1      -3.003   3.061  -2.868  0.00  0.00    -0.204 F 
ENDBRANCH   1   5
BRANCH   2  14
ATOM     14  C   UNL d   1      -6.305   1.112   0.043  0.00  0.00     0.278 C 
BRANCH  14  15
ATOM     15  O   UNL d   1      -6.763   2.391  -0.378  0.00  0.00    -0.342 OA
BRANCH  15  16
ATOM     16  C   UNL d   1      -8.121   2.576  -0.362  0.00  0.00     0.069 A 
ATOM     17  C   UNL d   1      -9.080   1.570  -0.215  0.00  0.00     0.037 A 
ATOM     18  C   UNL d   1     -10.441   1.888  -0.231  0.00  0.00     0.003 A 
ATOM     19  C   UNL d   1     -10.852   3.209  -0.397  0.00  0.00     0.000 A 
ATOM     20  C   UNL d   1      -9.901   4.215  -0.544  0.00  0.00     0.003 A 
ATOM     21  C   UNL d   1      -8.540   3.898  -0.529  0.00  0.00     0.037 A 
ENDBRANCH  15  16
ENDBRANCH  14  15
ENDBRANCH   2  14
TORSDOF 4
