REMARK  4 active torsions:
REMARK  status: ('A' for Active; 'I' for Inactive)
REMARK    1  A    between atoms: C_14  and  N_1 
REMARK    2  A    between atoms: C_9  and  C_2 
REMARK    3  A    between atoms: N_16  and  C_13 
REMARK    4  A    between atoms: C_15  and  N_16 
ROOT
ATOM      1  N   UNL d   1       6.436  -5.617   0.929  0.00  0.00    -0.191 NA
ATOM      2  C   UNL d   1       6.164  -4.991  -0.011  0.00  0.00     0.101 C 
ATOM      3  C   UNL d   1       5.806  -4.243  -1.181  0.00  0.00     0.066 A 
ATOM      4  C   UNL d   1       4.626  -3.465  -1.218  0.00  0.00     0.033 A 
ATOM      5  C   UNL d   1       6.654  -4.317  -2.299  0.00  0.00     0.024 A 
ATOM      6  C   UNL d   1       4.358  -2.748  -2.400  0.00  0.00     0.025 A 
ATOM      7  C   UNL d   1       6.352  -3.612  -3.462  0.00  0.00     0.002 A 
ATOM      8  C   UNL d   1       5.204  -2.830  -3.511  0.00  0.00     0.002 A 
ENDROOT
BRANCH   4   9
ATOM      9  N   UNL d   1       3.805  -3.332  -0.057  0.00  0.00    -0.268 NA
ATOM     10  H   UNL d   1       3.726  -4.238   0.412  0.00  0.00     0.133 HD
BRANCH   9  11
ATOM     11  C   UNL d   1       2.599  -2.659  -0.049  0.00  0.00     0.066 C 
ATOM     12  C   UNL d   1       2.428  -1.347   0.169  0.00  0.00     0.063 C 
BRANCH  12  13
ATOM     13  C   UNL d   1       1.137  -0.771   0.141  0.00  0.00     0.145 A 
ATOM     14  N   UNL d   1       0.880   0.561  -0.210  0.00  0.00    -0.223 N 
ATOM     15  N   UNL d   1      -0.434   0.797   0.056  0.00  0.00    -0.219 N 
ATOM     16  N   UNL d   1      -0.960  -0.354   0.431  0.00  0.00    -0.226 N 
ATOM     17  HN  UNL d   1      -0.919   1.691  -0.021  1.00  0.00     0.210 HD
ATOM     18  N   UNL d   1      -0.015  -1.333   0.468  0.00  0.00    -0.268 N 
ATOM     19  HN  UNL d   1      -1.943  -0.491   0.664  1.00  0.00     0.210 HD
ATOM     20  HN  UNL d   1      -0.167  -2.313   0.704  1.00  0.00     0.190 HD
BRANCH  14  21
ATOM     21  C   UNL d   1       1.686   1.599  -0.769  0.00  0.00     0.060 A 
ATOM     22  C   UNL d   1       2.970   1.373  -1.280  0.00  0.00     0.031 A 
ATOM     23  C   UNL d   1       3.741   2.438  -1.760  0.00  0.00     0.002 A 
ATOM     24  C   UNL d   1       3.227   3.732  -1.772  0.00  0.00     0.000 A 
ATOM     25  C   UNL d   1       1.931   3.962  -1.323  0.00  0.00     0.002 A 
ATOM     26  C   UNL d   1       1.163   2.905  -0.826  0.00  0.00     0.031 A 
ENDBRANCH  14  21
ENDBRANCH  12  13
ENDBRANCH   9  11
ENDBRANCH   4   9
TORSDOF 4
