REMARK  5 active torsions:
REMARK  status: ('A' for Active; 'I' for Inactive)
REMARK    1  A    between atoms: C_3  and  C_1 
REMARK    2  A    between atoms: C_4  and  C_1 
REMARK    3  A    between atoms: C_8  and  C_2 
REMARK    4  A    between atoms: O_11  and  C_3 
REMARK    5  A    between atoms: N_5  and  C_4 
ROOT
ATOM      1  C   UNL d   1       1.077   0.039  -0.050  0.00  0.00     0.102 C 
ATOM      2  C   UNL d   1       0.383  -0.270   1.062  0.00  0.00     0.039 C 
ENDROOT
BRANCH   1   3
ATOM      3  C   UNL d   1       0.359   0.386  -1.298  0.00  0.00     0.302 C 
ATOM      4  O   UNL d   1      -0.857   0.423  -1.405  0.00  0.00    -0.259 OA
BRANCH   3   5
ATOM      5  O   UNL d   1       1.248   0.647  -2.289  0.00  0.00    -0.322 OA
ATOM      6  C   UNL d   1       0.662   0.991  -3.547  0.00  0.00     0.213 C 
ENDBRANCH   3   5
ENDBRANCH   1   3
BRANCH   1   7
ATOM      7  C   UNL d   1       2.597   0.039  -0.050  0.00  0.00    -0.031 C 
BRANCH   7   8
ATOM      8  N   UNL d   1       3.858   0.039  -0.050  0.00  0.00    -0.365 N 
ATOM      9  HN2 UNL d   1       2.838   0.039  -0.050  1.00  0.00     0.165 HD
ATOM     10  HN1 UNL d   1       4.878   0.039  -0.050  1.00  0.00     0.165 HD
ENDBRANCH   7   8
ENDBRANCH   1   7
BRANCH   2  11
ATOM     11  C   UNL d   1       1.030  -0.633   2.328  0.00  0.00    -0.033 A 
ATOM     12  C   UNL d   1       1.395   0.358   3.247  0.00  0.00     0.030 A 
ATOM     13  C   UNL d   1       2.078   0.005   4.412  0.00  0.00     0.011 A 
ATOM     14 BR   UNL d   1       2.588   1.348   5.642  0.00  0.00    -0.051 Br
ATOM     15  C   UNL d   1       2.400  -1.326   4.673  0.00  0.00     0.019 A 
ATOM     16  C   UNL d   1       2.032  -2.315   3.761  0.00  0.00     0.002 A 
ATOM     17  C   UNL d   1       1.349  -1.971   2.593  0.00  0.00     0.011 A 
ENDBRANCH   2  11
TORSDOF 5
