REMARK  5 active torsions:
REMARK  status: ('A' for Active; 'I' for Inactive)
REMARK    1  A    between atoms: N_7  and  C_1 
REMARK    2  A    between atoms: C_8  and  N_2 
REMARK    3  A    between atoms: C_9  and  C_8 
REMARK    4  A    between atoms: O_15  and  C_9 
REMARK    5  A    between atoms: C_16  and  O_15 
ROOT
ATOM      1  C   UNL d   1      -0.291  -1.329   0.011  0.00  0.00     0.150 C 
ATOM      2  N   UNL d   1       1.008   0.443  -0.076  0.00  0.00    -0.285 N 
ATOM      3  N   UNL d   1      -0.245   0.945  -0.105  0.00  0.00    -0.300 N 
ATOM      4  HN  UNL d   1      -0.522   1.926  -0.146  1.00  0.00     0.187 HD
ATOM      5  C   UNL d   1       1.033  -0.920   0.126  0.00  0.00     0.060 C 
ATOM      6  C   UNL d   1      -1.044  -0.130  -0.068  0.00  0.00     0.057 C 
ATOM      7  C   UNL d   1       2.281  -1.696   0.359  0.00  0.00     0.072 C 
ATOM      8  C   UNL d   1      -2.519   0.050  -0.083  0.00  0.00     0.072 C 
ENDROOT
BRANCH   2   9
ATOM      9  C   UNL d   1       2.122   1.383  -0.114  0.00  0.00     0.259 C 
BRANCH   9  10
ATOM     10  C   UNL d   1       3.097   1.117  -1.230  0.00  0.00     0.278 C 
ATOM     11  O   UNL d   1       3.062   0.181  -2.018  0.00  0.00    -0.263 OA
BRANCH  10  12
ATOM     12  O   UNL d   1       4.081   2.067  -1.210  0.00  0.00    -0.321 OA
BRANCH  12  13
ATOM     13  C   UNL d   1       5.154   1.881  -2.150  0.00  0.00     0.174 C 
ATOM     14  C   UNL d   1       4.784   2.421  -3.518  0.00  0.00     0.034 C 
ENDBRANCH  12  13
ENDBRANCH  10  12
ENDBRANCH   9  10
ENDBRANCH   2   9
BRANCH   1  15
ATOM     15  N   UNL d   1      -0.795  -2.679   0.012  0.00  0.00    -0.112 N 
ATOM     16  O   UNL d   1       0.028  -3.600   0.083  0.00  0.00    -0.532 OA
ATOM     17  O   UNL d   1      -2.021  -2.825  -0.072  0.00  0.00    -0.532 OA
ENDBRANCH   1  15
TORSDOF 5
