REMARK  7 active torsions:
REMARK  status: ('A' for Active; 'I' for Inactive)
REMARK    1  A    between atoms: N_8  and  C_2 
REMARK    2  A    between atoms: C_7  and  N_8 
REMARK    3  A    between atoms: N_16  and  C_7 
REMARK    4  A    between atoms: O_20  and  C_10 
REMARK    5  A    between atoms: N_11  and  N_16 
REMARK    6  A    between atoms: C_13  and  C_19 
REMARK    7  A    between atoms: O_22  and  C_18 
ROOT
ATOM      1  N   UNL d   1       5.870   3.461  -2.203  0.00  0.00    -0.277 N 
ATOM      2  H   UNL d   1       6.716   4.024  -2.206  0.00  0.00     0.189 HD
ENDROOT
BRANCH   1   3
ATOM      3  N   UNL d   1       5.616   2.547  -3.195  0.00  0.00    -0.309 N 
ATOM      4  C   UNL d   1       6.497   2.441  -4.142  0.00  0.00     0.121 C 
ATOM      5  HN  UNL d   1       4.771   1.976  -3.188  1.00  0.00     0.186 HD
BRANCH   4   6
ATOM      6  C   UNL d   1       6.332   1.419  -5.207  0.00  0.00     0.017 A 
ATOM      7  C   UNL d   1       5.197   0.579  -5.283  0.00  0.00     0.110 A 
ATOM      8  C   UNL d   1       5.116  -0.414  -6.267  0.00  0.00     0.102 A 
ATOM      9  C   UNL d   1       6.173  -0.542  -7.177  0.00  0.00     0.040 A 
ATOM     10  C   UNL d   1       7.287   0.298  -7.118  0.00  0.00     0.004 A 
ATOM     11  C   UNL d   1       7.371   1.280  -6.132  0.00  0.00     0.016 A 
BRANCH   7  12
ATOM     12  O   UNL d   1       4.163   0.736  -4.398  0.00  0.00    -0.357 OA
ATOM     13  H   UNL d   1       4.396   1.498  -3.834  0.00  0.00     0.217 HD
ENDBRANCH   7  12
BRANCH   8  14
ATOM     14  O   UNL d   1       4.116  -1.324  -6.484  0.00  0.00    -0.353 OA
ATOM     15  C   UNL d   1       2.978  -1.305  -5.633  0.00  0.00     0.210 C 
ENDBRANCH   8  14
ENDBRANCH   4   6
ENDBRANCH   1   3
BRANCH   1  16
ATOM     16  C   UNL d   1       5.056   3.477  -1.071  0.00  0.00     0.186 C 
ATOM     17  S   UNL d   1       5.406   4.421   0.244  0.00  0.00    -0.040 SA
BRANCH  16  18
ATOM     18  N   UNL d   1       3.992   2.636  -1.223  0.00  0.00    -0.361 N 
ATOM     19  H   UNL d   1       4.110   2.136  -2.090  0.00  0.00     0.162 HD
BRANCH  18  20
ATOM     20  C   UNL d   1       3.041   2.056  -0.283  0.00  0.00     0.089 C 
ATOM     21  C   UNL d   1       3.594   0.745   0.335  0.00  0.00     0.017 C 
ATOM     22  C   UNL d   1       2.575   0.210   1.376  0.00  0.00     0.018 A 
ATOM     23  C   UNL d   1       3.412  -0.235  -0.835  0.00  0.00     0.012 C 
ATOM     24  C   UNL d   1       1.417  -0.333   0.494  0.00  0.00     0.001 A 
ATOM     25  C   UNL d   1       3.021  -0.996   2.141  0.00  0.00    -0.025 A 
ATOM     26  C   UNL d   1       1.302  -1.839   0.770  0.00  0.00     0.032 A 
ATOM     27  C   UNL d   1       1.905   0.011  -0.929  0.00  0.00    -0.007 C 
ATOM     28  C   UNL d   1       2.328  -2.094   1.823  0.00  0.00    -0.030 A 
ATOM     29  C   UNL d   1       1.822   1.545  -1.087  0.00  0.00     0.030 C 
ENDBRANCH  18  20
ENDBRANCH  16  18
ENDBRANCH   1  16
TORSDOF 7
