REMARK  5 active torsions:
REMARK  status: ('A' for Active; 'I' for Inactive)
REMARK    1  A    between atoms: N_4  and  S_1 
REMARK    2  A    between atoms: C_6  and  S_1 
REMARK    3  A    between atoms: C_8  and  C_2 
REMARK    4  A    between atoms: C_3  and  N_4 
REMARK    5  A    between atoms: O_18  and  C_8 
ROOT
ATOM      1  N   UNL d   1       0.515  -0.252   1.665  0.00  0.00    -0.179 NA
ATOM      2  H   UNL d   1      -0.199   0.265   2.192  0.00  0.00     0.146 HD
ENDROOT
BRANCH   1   3
ATOM      3  C   UNL d   1       0.712  -1.560   2.187  0.00  0.00     0.052 A 
ATOM      4  C   UNL d   1      -0.278  -2.286   2.837  0.00  0.00     0.102 A 
ATOM      5  S   UNL d   1       0.294  -3.810   3.357  0.00  0.00    -0.093 SA
ATOM      6  C   UNL d   1       1.858  -3.498   2.764  0.00  0.00     0.059 A 
ATOM      7  C   UNL d   1       1.970  -2.260   2.158  0.00  0.00    -0.032 A 
ATOM      8  C   UNL d   1       3.257  -1.759   1.587  0.00  0.00     0.050 C 
BRANCH   4   9
ATOM      9  C   UNL d   1      -1.644  -1.850   3.062  0.00  0.00     0.301 C 
ATOM     10  O   UNL d   1      -2.061  -0.732   2.768  0.00  0.00    -0.259 OA
BRANCH   9  11
ATOM     11  O   UNL d   1      -2.397  -2.816   3.660  0.00  0.00    -0.322 OA
ATOM     12  C   UNL d   1      -3.749  -2.442   3.915  0.00  0.00     0.213 C 
ENDBRANCH   9  11
ENDBRANCH   4   9
ENDBRANCH   1   3
BRANCH   1  13
ATOM     13  S   UNL d   1       0.075  -0.140   0.010  0.00  0.00     0.246 S 
ATOM     14  O   UNL d   1      -0.863  -1.198  -0.300  0.00  0.00    -0.206 OA
ATOM     15  O   UNL d   1       1.277   0.064  -0.773  0.00  0.00    -0.206 OA
BRANCH  13  16
ATOM     16  C   UNL d   1      -0.841   1.392  -0.006  0.00  0.00     0.078 A 
ATOM     17  C   UNL d   1      -0.165   2.596  -0.225  0.00  0.00     0.048 A 
ATOM     18  C   UNL d   1      -0.893   3.783  -0.296  0.00  0.00     0.037 A 
ATOM     19 CL   UNL d   1      -0.073   5.271  -0.568  0.00  0.00    -0.084 Cl
ATOM     20  C   UNL d   1      -2.280   3.780  -0.156  0.00  0.00     0.047 A 
ATOM     21  C   UNL d   1      -2.943   2.572   0.056  0.00  0.00     0.037 A 
ATOM     22  C   UNL d   1      -2.235   1.373   0.131  0.00  0.00     0.048 A 
ATOM     23 CL   UNL d   1      -4.657   2.564   0.217  0.00  0.00    -0.084 Cl
ENDBRANCH  13  16
ENDBRANCH   1  13
TORSDOF 5
