REMARK  4 active torsions:
REMARK  status: ('A' for Active; 'I' for Inactive)
REMARK    1  A    between atoms: O_15  and  C_4 
REMARK    2  A    between atoms: C_5  and  C_6 
REMARK    3  A    between atoms: O_17  and  C_7 
REMARK    4  A    between atoms: O_16  and  C_8 
ROOT
ATOM      1  C   UNL d   1       6.149   0.405   0.299  0.00  0.00     0.135 A 
ATOM      2  C   UNL d   1       3.341   0.112   0.105  0.00  0.00    -0.007 A 
ATOM      3  C   UNL d   1       5.301   0.988   1.265  0.00  0.00     0.105 A 
ATOM      4  C   UNL d   1       5.558  -0.309  -0.768  0.00  0.00     0.105 A 
ATOM      5  C   UNL d   1       3.908   0.854   1.143  0.00  0.00     0.053 A 
ATOM      6  C   UNL d   1       4.169  -0.476  -0.844  0.00  0.00     0.053 A 
ENDROOT
BRANCH   2   7
ATOM      7  C   UNL d   1       1.853   0.023   0.007  0.00  0.00     0.036 C 
ATOM      8  N   UNL d   1       1.140   0.990   0.500  0.00  0.00    -0.301 N 
ATOM      9  N   UNL d   1      -0.211   0.928   0.370  0.00  0.00    -0.270 N 
ATOM     10  HN  UNL d   1       1.584   1.777   0.973  1.00  0.00     0.186 HD
ATOM     11  C   UNL d   1      -0.939  -0.157  -0.035  0.00  0.00     0.236 C 
ATOM     12  H   UNL d   1      -0.727   1.769   0.609  0.00  0.00     0.190 HD
ATOM     13  O   UNL d   1      -2.164  -0.112  -0.138  0.00  0.00    -0.272 OA
ATOM     14  C   UNL d   1      -0.162  -1.425  -0.238  0.00  0.00     0.110 C 
ATOM     15  C   UNL d   1       1.245  -1.153  -0.724  0.00  0.00     0.069 C 
ENDBRANCH   2   7
BRANCH   3  16
ATOM     16  O   UNL d   1       5.833   1.742   2.282  0.00  0.00    -0.353 OA
ATOM     17  C   UNL d   1       5.167   1.623   3.541  0.00  0.00     0.210 C 
ENDBRANCH   3  16
BRANCH   4  18
ATOM     18  O   UNL d   1       6.223  -0.970  -1.774  0.00  0.00    -0.353 OA
ATOM     19  C   UNL d   1       7.338  -0.294  -2.349  0.00  0.00     0.210 C 
ENDBRANCH   4  18
BRANCH   1  20
ATOM     20  O   UNL d   1       7.519   0.425   0.290  0.00  0.00    -0.351 OA
ATOM     21  C   UNL d   1       8.235   0.944   1.400  0.00  0.00     0.210 C 
ENDBRANCH   1  20
TORSDOF 4
