REMARK  4 active torsions:
REMARK  status: ('A' for Active; 'I' for Inactive)
REMARK    1  A    between atoms: N_3  and  C_1 
REMARK    2  A    between atoms: C_7  and  C_2 
REMARK       I    between atoms: N_13  and  C_7 
REMARK       I    between atoms: C_10  and  N_14 
REMARK    3  A    between atoms: C_15  and  C_10 
REMARK    4  A    between atoms: N_14  and  N_13 
ROOT
ATOM      1  C   UNL d   1      -2.070  -0.707   0.191  0.00  0.00     0.098 A 
ATOM      2  C   UNL d   1      -1.031  -1.638   0.040  0.00  0.00     0.075 A 
ATOM      3  S   UNL d   1      -1.532   0.905   0.275  0.00  0.00    -0.075 SA
ATOM      4  C   UNL d   1       0.262  -0.915   0.060  0.00  0.00    -0.026 A 
ATOM      5  C   UNL d   1       0.078   0.459   0.088  0.00  0.00    -0.008 A 
ATOM      6  C   UNL d   1       1.672  -1.456  -0.019  0.00  0.00     0.041 C 
ATOM      7  C   UNL d   1       1.142   1.516   0.033  0.00  0.00     0.047 C 
ATOM      8  C   UNL d   1       2.739  -0.403   0.332  0.00  0.00     0.005 C 
ATOM      9  C   UNL d   1       2.489   0.923  -0.379  0.00  0.00     0.005 C 
ENDROOT
BRANCH   2  10
ATOM     10  C   UNL d   1      -1.273  -3.097  -0.154  0.00  0.00     0.273 C 
ATOM     11  N   UNL d   1      -0.254  -3.944   0.228  0.00  0.00    -0.263 N 
ATOM     12  H   UNL d   1       0.686  -3.621   0.397  0.00  0.00     0.190 HD
ATOM     13  O   UNL d   1      -2.334  -3.544  -0.594  0.00  0.00    -0.266 OA
BRANCH  11  14
ATOM     14  N   UNL d   1      -0.334  -5.345   0.050  0.00  0.00    -0.267 N 
ATOM     15  C   UNL d   1       0.876  -6.021  -0.000  0.00  0.00     0.243 C 
ATOM     16  O   UNL d   1       1.935  -5.385  -0.022  0.00  0.00    -0.271 OA
ATOM     17  H   UNL d   1      -1.235  -5.785   0.202  0.00  0.00     0.190 HD
BRANCH  15  18
ATOM     18  C   UNL d   1       0.840  -7.562   0.048  0.00  0.00     0.032 C 
ATOM     19  C   UNL d   1      -0.099  -8.132  -1.021  0.00  0.00     0.025 C 
ATOM     20  C   UNL d   1       2.262  -8.102  -0.211  0.00  0.00     0.025 C 
ATOM     21  C   UNL d   1       0.391  -8.030   1.439  0.00  0.00     0.025 C 
ENDBRANCH  15  18
ENDBRANCH  11  14
ENDBRANCH   2  10
BRANCH   1  22
ATOM     22  N   UNL d   1      -3.461  -0.891   0.408  0.00  0.00    -0.313 N 
ATOM     23  C   UNL d   1      -4.523  -0.110  -0.096  0.00  0.00     0.013 A 
ATOM     24  C   UNL d   1      -5.717  -0.624   0.370  0.00  0.00     0.027 A 
ATOM     25  C   UNL d   1      -4.400   1.058  -1.020  0.00  0.00     0.068 C 
ATOM     26  C   UNL d   1      -5.422  -1.697   1.214  0.00  0.00     0.027 A 
ATOM     27  C   UNL d   1      -4.047  -1.813   1.289  0.00  0.00     0.013 A 
ATOM     28  C   UNL d   1      -3.314  -2.697   2.238  0.00  0.00     0.068 C 
ENDBRANCH   1  22
TORSDOF 4
