REMARK  6 active torsions:
REMARK  status: ('A' for Active; 'I' for Inactive)
REMARK    1  A    between atoms: N_6  and  C_1 
REMARK    2  A    between atoms: C_2  and  C_3 
REMARK       I    between atoms: C_9  and  N_7 
REMARK    3  A    between atoms: C_14  and  C_9 
REMARK    4  A    between atoms: C_10  and  S_23 
REMARK    5  A    between atoms: C_28  and  C_14 
REMARK    6  A    between atoms: S_23  and  C_28 
ROOT
ATOM      1  N   UNL d   1       0.527   2.281  -0.109  0.00  0.00    -0.363 N 
ATOM      2  N   UNL d   1       2.435   4.374  -0.003  0.00  0.00    -0.349 N 
ATOM      3  C   UNL d   1       2.970   5.597  -0.360  0.00  0.00     0.220 C 
ATOM      4  C   UNL d   1       1.325   2.541  -1.319  0.00  0.00     0.144 C 
ATOM      5  C   UNL d   1       0.211   3.499   0.645  0.00  0.00     0.144 C 
ATOM      6  C   UNL d   1       2.654   3.210  -0.888  0.00  0.00     0.145 C 
ATOM      7  C   UNL d   1       1.547   4.095   1.141  0.00  0.00     0.145 C 
ATOM      8  O   UNL d   1       3.641   5.730  -1.393  0.00  0.00    -0.273 OA
ENDROOT
BRANCH   1   9
ATOM      9  C   UNL d   1      -0.201   1.119   0.001  0.00  0.00     0.125 A 
ATOM     10  N   UNL d   1      -0.526   0.486  -1.157  0.00  0.00    -0.350 N 
ATOM     11  C   UNL d   1      -1.159  -0.712  -1.109  0.00  0.00     0.106 A 
ATOM     12  HN  UNL d   1      -0.296   0.910  -2.056  1.00  0.00     0.166 HD
ATOM     13  C   UNL d   1      -1.507  -1.357   0.062  0.00  0.00     0.065 A 
ATOM     14  C   UNL d   1      -1.190  -0.714   1.255  0.00  0.00     0.045 A 
ATOM     15  C   UNL d   1      -0.526   0.518   1.234  0.00  0.00     0.078 A 
ATOM     16 CL   UNL d   1      -0.016   1.121   2.776  0.00  0.00    -0.080 Cl
BRANCH  13  17
ATOM     17  C   UNL d   1      -2.152  -2.705   0.024  0.00  0.00     0.418 C 
ATOM     18  F   UNL d   1      -2.383  -3.228   1.261  0.00  0.00    -0.166 F 
ATOM     19  F   UNL d   1      -3.357  -2.693  -0.607  0.00  0.00    -0.166 F 
ATOM     20  F   UNL d   1      -1.394  -3.627  -0.631  0.00  0.00    -0.166 F 
ENDBRANCH  13  17
ENDBRANCH   1   9
BRANCH   3  21
ATOM     21  C   UNL d   1       2.790   6.795   0.554  0.00  0.00     0.113 C 
BRANCH  21  22
ATOM     22  C   UNL d   1       2.398   8.045  -0.228  0.00  0.00     0.089 C 
BRANCH  22  23
ATOM     23  S   UNL d   1       0.680   7.926  -0.836  0.00  0.00    -0.122 SA
BRANCH  23  24
ATOM     24  C   UNL d   1       0.487   9.530  -1.526  0.00  0.00     0.041 A 
ATOM     25  S   UNL d   1      -0.751  10.586  -1.001  0.00  0.00    -0.095 SA
ATOM     26  C   UNL d   1      -0.252  11.813  -2.084  0.00  0.00     0.051 A 
ATOM     27  C   UNL d   1       0.828  11.422  -2.843  0.00  0.00     0.009 A 
ATOM     28  C   UNL d   1       1.250  10.096  -2.526  0.00  0.00     0.026 A 
ENDBRANCH  23  24
ENDBRANCH  22  23
ENDBRANCH  21  22
ENDBRANCH   3  21
TORSDOF 6
