REMARK  5 active torsions:
REMARK  status: ('A' for Active; 'I' for Inactive)
REMARK    1  A    between atoms: N_5  and  C_1 
REMARK    2  A    between atoms: C_7  and  C_3 
REMARK    3  A    between atoms: C_9  and  C_7 
REMARK    4  A    between atoms: O_17  and  C_9 
REMARK    5  A    between atoms: C_20  and  O_17 
ROOT
ATOM      1  C   UNL d   1       0.198  -3.475   0.011  0.00  0.00     0.228 C 
ATOM      2  C   UNL d   1      -0.655  -4.427  -0.719  0.00  0.00     0.079 C 
ATOM      3  N   UNL d   1      -1.286  -5.171  -1.344  0.00  0.00    -0.196 NA
ENDROOT
BRANCH   1   4
ATOM      4  C   UNL d   1      -0.289  -2.014   0.007  0.00  0.00     0.020 A 
ATOM      5  C   UNL d   1      -1.569  -1.585   0.131  0.00  0.00     0.179 A 
ATOM      6  C   UNL d   1      -2.018  -0.177   0.146  0.00  0.00     0.281 A 
ATOM      7  N   UNL d   1      -1.018   0.784   0.061  0.00  0.00    -0.316 N 
ATOM      8  O   UNL d   1      -3.208   0.115   0.247  0.00  0.00    -0.265 OA
ATOM      9  C   UNL d   1      -1.419   2.187   0.053  0.00  0.00     0.159 C 
ATOM     10  C   UNL d   1       0.363   0.434  -0.014  0.00  0.00     0.048 A 
ATOM     11  C   UNL d   1       0.748  -0.927  -0.089  0.00  0.00     0.002 A 
ATOM     12  C   UNL d   1       1.348   1.442  -0.012  0.00  0.00     0.030 A 
ATOM     13  C   UNL d   1       2.127  -1.203  -0.219  0.00  0.00     0.014 A 
ATOM     14  C   UNL d   1       3.088  -0.189  -0.240  0.00  0.00     0.001 A 
ATOM     15  C   UNL d   1       2.701   1.133  -0.118  0.00  0.00     0.002 A 
BRANCH   5  16
ATOM     16  N   UNL d   1      -2.626  -2.538   0.348  0.00  0.00    -0.109 N 
ATOM     17  O   UNL d   1      -2.562  -3.215   1.382  0.00  0.00    -0.532 OA
ATOM     18  O   UNL d   1      -3.466  -2.666  -0.550  0.00  0.00    -0.532 OA
ENDBRANCH   5  16
ENDBRANCH   1   4
BRANCH   1  19
ATOM     19  C   UNL d   1       0.504  -3.967   1.423  0.00  0.00     0.281 C 
ATOM     20  O   UNL d   1       0.454  -3.273   2.432  0.00  0.00    -0.263 OA
BRANCH  19  21
ATOM     21  O   UNL d   1       0.969  -5.250   1.392  0.00  0.00    -0.321 OA
BRANCH  21  22
ATOM     22  C   UNL d   1       1.326  -5.838   2.654  0.00  0.00     0.174 C 
ATOM     23  C   UNL d   1       2.738  -5.442   3.047  0.00  0.00     0.034 C 
ENDBRANCH  21  22
ENDBRANCH  19  21
ENDBRANCH   1  19
TORSDOF 5
