REMARK  3 active torsions:
REMARK  status: ('A' for Active; 'I' for Inactive)
REMARK    1  A    between atoms: C_9  and  N_1 
REMARK    2  A    between atoms: S_7  and  C_4 
REMARK    3  A    between atoms: C_6  and  S_7 
ROOT
ATOM      1  N   UNL d   1       0.033   0.850  -0.072  0.00  0.00    -0.251 N 
ATOM      2  C   UNL d   1      -1.106   0.102   0.119  0.00  0.00     0.232 A 
ATOM      3  C   UNL d   1       1.147   0.045  -0.188  0.00  0.00     0.245 A 
ATOM      4  C   UNL d   1       0.719  -1.402  -0.209  0.00  0.00     0.154 A 
ATOM      5  C   UNL d   1      -0.775  -1.356   0.024  0.00  0.00     0.129 A 
ATOM      6  O   UNL d   1      -2.253   0.479   0.318  0.00  0.00    -0.273 OA
ATOM      7  O   UNL d   1       2.324   0.384  -0.209  0.00  0.00    -0.271 OA
ENDROOT
BRANCH   1   8
ATOM      8  C   UNL d   1       0.076   2.277  -0.097  0.00  0.00     0.045 A 
ATOM      9  C   UNL d   1      -0.928   3.057   0.497  0.00  0.00     0.030 A 
ATOM     10  C   UNL d   1      -0.871   4.456   0.473  0.00  0.00     0.002 A 
ATOM     11  C   UNL d   1       0.181   5.104  -0.164  0.00  0.00     0.000 A 
ATOM     12  C   UNL d   1       1.178   4.353  -0.775  0.00  0.00     0.002 A 
ATOM     13  C   UNL d   1       1.127   2.956  -0.737  0.00  0.00     0.030 A 
ENDBRANCH   1   8
BRANCH   4  14
ATOM     14  S   UNL d   1       1.176  -2.115  -1.824  0.00  0.00    -0.108 SA
BRANCH  14  15
ATOM     15  C   UNL d   1       0.712  -3.797  -1.636  0.00  0.00     0.041 A 
ATOM     16  S   UNL d   1       1.275  -4.808  -0.377  0.00  0.00    -0.095 SA
ATOM     17  C   UNL d   1       0.440  -6.163  -1.005  0.00  0.00     0.051 A 
ATOM     18  C   UNL d   1      -0.261  -5.851  -2.148  0.00  0.00     0.009 A 
ATOM     19  C   UNL d   1      -0.100  -4.483  -2.513  0.00  0.00     0.026 A 
ENDBRANCH  14  15
ENDBRANCH   4  14
TORSDOF 3
