REMARK  9 active torsions:
REMARK  status: ('A' for Active; 'I' for Inactive)
REMARK    1  A    between atoms: C_9  and  N_1 
REMARK    2  A    between atoms: C_4  and  C_2 
REMARK    3  A    between atoms: C_7  and  C_3 
REMARK    4  A    between atoms: C_10  and  C_3 
REMARK       I    between atoms: N_11  and  C_4 
REMARK    5  A    between atoms: N_5  and  N_11 
REMARK    6  A    between atoms: C_12  and  C_7 
REMARK    7  A    between atoms: O_22  and  C_10 
REMARK    8  A    between atoms: O_23  and  C_12 
REMARK    9  A    between atoms: N_21  and  C_13 
ROOT
ATOM      1  C   UNL d   1      -1.963   0.171  -0.050  0.00  0.00     0.271 C 
ATOM      2  N   UNL d   1      -3.346   0.072   0.080  0.00  0.00    -0.265 N 
ATOM      3  O   UNL d   1      -1.401   1.240  -0.297  0.00  0.00    -0.266 OA
ATOM      4  H   UNL d   1      -3.827  -0.797   0.302  0.00  0.00     0.190 HD
ENDROOT
BRANCH   1   5
ATOM      5  C   UNL d   1      -1.132  -1.088   0.078  0.00  0.00     0.057 A 
ATOM      6  C   UNL d   1      -1.720  -2.358   0.226  0.00  0.00     0.055 A 
ATOM      7  C   UNL d   1      -0.910  -3.508   0.291  0.00  0.00     0.103 A 
ATOM      8  C   UNL d   1       0.481  -3.416   0.199  0.00  0.00     0.038 A 
ATOM      9  C   UNL d   1       1.068  -2.161   0.062  0.00  0.00     0.027 A 
ATOM     10  C   UNL d   1       0.285  -0.996  -0.020  0.00  0.00     0.021 A 
BRANCH   7  11
ATOM     11  N   UNL d   1      -1.527  -4.830   0.471  0.00  0.00    -0.116 N 
ATOM     12  O   UNL d   1      -2.762  -4.879   0.561  0.00  0.00    -0.532 OA
ATOM     13  O   UNL d   1      -0.779  -5.816   0.522  0.00  0.00    -0.532 OA
ENDBRANCH   7  11
BRANCH  10  14
ATOM     14  N   UNL d   1       0.974   0.231   0.035  0.00  0.00    -0.302 NA
ATOM     15  H   UNL d   1       1.857   0.256  -0.461  0.00  0.00     0.124 HD
ATOM     16  H   UNL d   1       0.365   1.024  -0.211  0.00  0.00     0.124 HD
ENDBRANCH  10  14
ENDBRANCH   1   5
BRANCH   2  17
ATOM     17  N   UNL d   1      -4.096   1.222   0.020  0.00  0.00    -0.296 N 
ATOM     18  C   UNL d   1      -5.396   1.141   0.067  0.00  0.00     0.110 C 
ATOM     19  HN  UNL d   1      -3.639   2.131  -0.060  1.00  0.00     0.187 HD
BRANCH  18  20
ATOM     20  C   UNL d   1      -6.200   2.416   0.056  0.00  0.00     0.176 C 
BRANCH  20  21
ATOM     21  C   UNL d   1      -7.095   2.559   1.252  0.00  0.00     0.264 C 
ATOM     22  O   UNL d   1      -7.295   1.685   2.083  0.00  0.00    -0.265 OA
BRANCH  21  23
ATOM     23  O   UNL d   1      -7.669   3.794   1.252  0.00  0.00    -0.326 OA
ATOM     24  C   UNL d   1      -8.537   4.078   2.354  0.00  0.00     0.213 C 
ENDBRANCH  21  23
ENDBRANCH  20  21
ENDBRANCH  18  20
BRANCH  18  25
ATOM     25  C   UNL d   1      -6.167  -0.177   0.098  0.00  0.00     0.307 C 
ATOM     26  O   UNL d   1      -5.649  -1.217   0.480  0.00  0.00    -0.258 OA
BRANCH  25  27
ATOM     27  O   UNL d   1      -7.390  -0.023  -0.447  0.00  0.00    -0.322 OA
ATOM     28  C   UNL d   1      -8.168  -1.221  -0.473  0.00  0.00     0.213 C 
ENDBRANCH  25  27
ENDBRANCH  18  25
ENDBRANCH   2  17
TORSDOF 9
