REMARK  4 active torsions:
REMARK  status: ('A' for Active; 'I' for Inactive)
REMARK    1  A    between atoms: N_11  and  C_1 
REMARK    2  A    between atoms: O_18  and  C_2 
REMARK    3  A    between atoms: N_7  and  N_11 
REMARK    4  A    between atoms: C_14  and  C_15 
ROOT
ATOM      1  N   UNL d   1      -1.249  -2.912  -0.138  0.00  0.00    -0.327 N 
ATOM      2  HN  UNL d   1      -2.100  -2.350  -0.104  1.00  0.00     0.180 HD
ATOM      3  C   UNL d   1      -1.240  -4.208  -0.136  0.00  0.00     0.113 C 
ENDROOT
BRANCH   1   4
ATOM      4  N   UNL d   1       0.008  -2.385  -0.190  0.00  0.00    -0.203 NA
ATOM      5  H   UNL d   1       0.466  -2.358   0.730  0.00  0.00     0.153 HD
BRANCH   4   6
ATOM      6  C   UNL d   1       0.128  -1.096  -0.795  0.00  0.00     0.073 A 
ATOM      7  C   UNL d   1       0.939  -0.124  -0.177  0.00  0.00     0.073 A 
ATOM      8 CL   UNL d   1       1.729  -0.438   1.328  0.00  0.00    -0.081 Cl
ATOM      9  C   UNL d   1       1.105   1.118  -0.778  0.00  0.00     0.113 A 
ATOM     10  N   UNL d   1       0.542   1.463  -1.956  0.00  0.00    -0.372 N 
ATOM     11  C   UNL d   1      -0.214   0.512  -2.556  0.00  0.00     0.113 A 
ATOM     12  HN  UNL d   1       0.678   2.386  -2.369  1.00  0.00     0.164 HD
ATOM     13  C   UNL d   1      -0.444  -0.762  -2.036  0.00  0.00     0.073 A 
ATOM     14 CL   UNL d   1      -1.355  -1.861  -3.008  0.00  0.00    -0.081 Cl
ENDBRANCH   4   6
ENDBRANCH   1   4
BRANCH   3  15
ATOM     15  C   UNL d   1      -2.481  -5.002  -0.116  0.00  0.00    -0.017 A 
ATOM     16  C   UNL d   1      -2.407  -6.351  -0.473  0.00  0.00     0.034 A 
ATOM     17  C   UNL d   1      -3.571  -7.122  -0.499  0.00  0.00     0.046 A 
ATOM     18 BR   UNL d   1      -3.431  -8.937  -1.032  0.00  0.00    -0.048 Br
ATOM     19  C   UNL d   1      -4.799  -6.553  -0.151  0.00  0.00     0.100 A 
ATOM     20  C   UNL d   1      -4.859  -5.204   0.219  0.00  0.00     0.046 A 
ATOM     21  C   UNL d   1      -3.703  -4.421   0.231  0.00  0.00     0.034 A 
ATOM     22 BR   UNL d   1      -6.508  -4.408   0.710  0.00  0.00    -0.048 Br
BRANCH  19  23
ATOM     23  O   UNL d   1      -5.929  -7.326  -0.180  0.00  0.00    -0.358 OA
ATOM     24  H   UNL d   1      -6.686  -6.765   0.068  0.00  0.00     0.217 HD
ENDBRANCH  19  23
ENDBRANCH   3  15
TORSDOF 4
