REMARK  4 active torsions:
REMARK  status: ('A' for Active; 'I' for Inactive)
REMARK    1  A    between atoms: C_10  and  C_6 
REMARK    2  A    between atoms: C_11  and  C_7 
REMARK    3  A    between atoms: C_12  and  C_8 
REMARK    4  A    between atoms: C_13  and  C_9 
ROOT
ATOM      1  C   UNL d   1      -0.046   1.210   0.652  0.00  0.00     0.120 C 
ATOM      2  C   UNL d   1      -0.063  -1.307   0.435  0.00  0.00     0.120 C 
ATOM      3  C   UNL d   1      -0.149  -0.116   1.346  0.00  0.00     0.144 C 
ATOM      4  N   UNL d   1      -1.788   0.113  -0.834  0.00  0.00    -0.403 N 
ATOM      5  N   UNL d   1       1.815   0.016  -0.694  0.00  0.00     0.103 N 
ATOM      6  C   UNL d   1       1.302   1.255  -0.106  0.00  0.00     0.267 C 
ATOM      7  C   UNL d   1      -1.275   1.333  -0.271  0.00  0.00     0.124 C 
ATOM      8  C   UNL d   1       1.344  -1.275  -0.193  0.00  0.00     0.267 C 
ATOM      9  C   UNL d   1      -1.284  -1.204  -0.514  0.00  0.00     0.124 C 
ATOM     10  O   UNL d   1      -0.307  -0.221   2.558  0.00  0.00    -0.297 OA
ATOM     11  H   UNL d   1      -2.479   0.182  -1.574  0.00  0.00     0.154 HD
ATOM     12  H   UNL d   1       2.835   0.029  -0.745  0.00  0.00     0.317 HD
ENDROOT
BRANCH   6  13
ATOM     13  C   UNL d   1       2.404   1.969   0.672  0.00  0.00    -0.025 A 
ATOM     14  C   UNL d   1       3.241   2.885   0.009  0.00  0.00     0.010 A 
ATOM     15  C   UNL d   1       4.284   3.522   0.685  0.00  0.00     0.007 A 
ATOM     16  C   UNL d   1       4.525   3.244   2.033  0.00  0.00    -0.062 A 
ATOM     17  C   UNL d   1       3.684   2.352   2.703  0.00  0.00     0.007 A 
ATOM     18  C   UNL d   1       5.659   3.906   2.757  0.00  0.00     0.048 C 
ATOM     19  C   UNL d   1       2.636   1.723   2.028  0.00  0.00     0.010 A 
ENDBRANCH   6  13
BRANCH   8  20
ATOM     20  C   UNL d   1       2.410  -2.037   0.603  0.00  0.00    -0.025 A 
ATOM     21  C   UNL d   1       2.580  -1.919   1.986  0.00  0.00     0.010 A 
ATOM     22  C   UNL d   1       3.509  -2.712   2.669  0.00  0.00     0.007 A 
ATOM     23  C   UNL d   1       4.289  -3.650   1.986  0.00  0.00    -0.062 A 
ATOM     24  C   UNL d   1       4.151  -3.760   0.602  0.00  0.00     0.007 A 
ATOM     25  C   UNL d   1       5.250  -4.517   2.742  0.00  0.00     0.048 C 
ATOM     26  C   UNL d   1       3.230  -2.958  -0.080  0.00  0.00     0.010 A 
ENDBRANCH   8  20
BRANCH   7  27
ATOM     27  C   UNL d   1      -2.402   2.092   0.424  0.00  0.00    -0.035 A 
ATOM     28  C   UNL d   1      -3.061   1.562   1.545  0.00  0.00     0.010 A 
ATOM     29  C   UNL d   1      -4.071   2.280   2.188  0.00  0.00     0.007 A 
ATOM     30  C   UNL d   1      -4.456   3.539   1.718  0.00  0.00    -0.062 A 
ATOM     31  C   UNL d   1      -3.809   4.072   0.599  0.00  0.00     0.007 A 
ATOM     32  C   UNL d   1      -5.547   4.293   2.417  0.00  0.00     0.048 C 
ATOM     33  C   UNL d   1      -2.792   3.356  -0.042  0.00  0.00     0.010 A 
ENDBRANCH   7  27
BRANCH   9  34
ATOM     34  C   UNL d   1      -1.150  -1.985  -1.814  0.00  0.00    -0.035 A 
ATOM     35  C   UNL d   1      -0.425  -1.452  -2.897  0.00  0.00     0.010 A 
ATOM     36  C   UNL d   1      -0.291  -2.154  -4.089  0.00  0.00     0.007 A 
ATOM     37  C   UNL d   1      -0.920  -3.392  -4.248  0.00  0.00    -0.062 A 
ATOM     38  C   UNL d   1      -1.661  -3.921  -3.185  0.00  0.00     0.007 A 
ATOM     39  C   UNL d   1      -0.767  -4.136  -5.539  0.00  0.00     0.048 C 
ATOM     40  C   UNL d   1      -1.772  -3.227  -1.976  0.00  0.00     0.010 A 
ENDBRANCH   9  34
TORSDOF 4
