REMARK  3 active torsions:
REMARK  status: ('A' for Active; 'I' for Inactive)
REMARK    1  A    between atoms: C_12  and  C_7 
REMARK    2  A    between atoms: O_27  and  C_14 
REMARK    3  A    between atoms: O_28  and  C_20 
ROOT
ATOM      1  N   UNL d   1       4.650  -0.203   0.008  0.00  0.00    -0.270 N 
ATOM      2  N   UNL d   1       2.869  -1.720  -0.104  0.00  0.00    -0.289 N 
ATOM      3  C   UNL d   1       2.371   0.645   0.201  0.00  0.00     0.088 A 
ATOM      4  C   UNL d   1       1.941  -0.660   0.004  0.00  0.00     0.128 A 
ATOM      5  C   UNL d   1       4.234  -1.506  -0.172  0.00  0.00     0.332 C 
ATOM      6  C   UNL d   1       3.821   0.809   0.469  0.00  0.00     0.266 C 
ATOM      7  C   UNL d   1       1.440   1.717   0.178  0.00  0.00     0.004 A 
ATOM      8  N   UNL d   1       0.633  -0.977  -0.102  0.00  0.00    -0.340 N 
ATOM      9  HN  UNL d   1       0.344  -1.951  -0.199  1.00  0.00     0.167 HD
ATOM     10  C   UNL d   1      -0.288   0.011  -0.077  0.00  0.00     0.051 A 
ATOM     11  C   UNL d   1       0.066   1.368   0.007  0.00  0.00    -0.018 A 
ATOM     12  C   UNL d   1      -1.703  -0.417  -0.099  0.00  0.00    -0.003 A 
ATOM     13  C   UNL d   1      -1.067   2.378   0.024  0.00  0.00     0.046 C 
ATOM     14  O   UNL d   1       5.027  -2.435  -0.356  0.00  0.00    -0.246 OA
ATOM     15  O   UNL d   1       4.237   1.779   1.096  0.00  0.00    -0.267 OA
ATOM     16  C   UNL d   1      -2.716   0.526  -0.366  0.00  0.00    -0.045 A 
ATOM     17  C   UNL d   1      -2.316   1.928  -0.739  0.00  0.00     0.044 C 
ATOM     18  C   UNL d   1       6.077   0.080  -0.018  0.00  0.00     0.164 C 
ATOM     19  C   UNL d   1       2.337  -3.069  -0.247  0.00  0.00     0.163 C 
ATOM     20  C   UNL d   1      -2.092  -1.740   0.177  0.00  0.00     0.014 A 
ATOM     21  C   UNL d   1      -4.067   0.150  -0.351  0.00  0.00     0.008 A 
ATOM     22  C   UNL d   1      -3.439  -2.110   0.201  0.00  0.00     0.001 A 
ATOM     23  C   UNL d   1      -4.426  -1.164  -0.057  0.00  0.00     0.001 A 
ENDROOT
BRANCH   7  24
ATOM     24  C   UNL d   1       1.859   3.149   0.352  0.00  0.00     0.001 C 
ATOM     25  C   UNL d   1       2.852   3.799  -0.436  0.00  0.00     0.081 C 
ATOM     26  C   UNL d   1       3.308   5.113  -0.133  0.00  0.00     0.124 C 
ATOM     27 CL   UNL d   1       3.396   3.012  -1.901  0.00  0.00    -0.080 Cl
ATOM     28  C   UNL d   1       2.607   5.863   0.826  0.00  0.00     0.103 C 
ATOM     29  C   UNL d   1       1.567   5.261   1.537  0.00  0.00     0.040 C 
ATOM     30  C   UNL d   1       1.251   3.917   1.356  0.00  0.00     0.017 C 
BRANCH  26  31
ATOM     31  O   UNL d   1       4.328   5.729  -0.820  0.00  0.00    -0.351 OA
ATOM     32  C   UNL d   1       5.556   4.997  -0.886  0.00  0.00     0.210 C 
ENDBRANCH  26  31
BRANCH  28  33
ATOM     33  O   UNL d   1       2.744   7.181   1.170  0.00  0.00    -0.353 OA
ATOM     34  C   UNL d   1       3.956   7.855   0.876  0.00  0.00     0.210 C 
ENDBRANCH  28  33
ENDBRANCH   7  24
TORSDOF 3
