REMARK  2 active torsions:
REMARK  status: ('A' for Active; 'I' for Inactive)
REMARK    1  A    between atoms: C_7  and  C_1 
REMARK    2  A    between atoms: C_9  and  N_2 
REMARK       I    between atoms: N_11  and  C_7 
ROOT
ATOM      1  C   UNL d   1       2.349  -1.066  -0.172  0.00  0.00     0.098 A 
ATOM      2  N   UNL d   1       1.288   1.143  -0.022  0.00  0.00    -0.350 N 
ATOM      3  C   UNL d   1       2.366   0.271  -0.092  0.00  0.00     0.113 A 
ATOM      4  C   UNL d   1       1.024  -1.712  -0.230  0.00  0.00     0.201 A 
ATOM      5  C   UNL d   1      -0.171  -0.832  -0.164  0.00  0.00     0.042 A 
ATOM      6  C   UNL d   1      -0.018   0.573  -0.090  0.00  0.00     0.049 A 
ATOM      7  O   UNL d   1       0.908  -2.930  -0.340  0.00  0.00    -0.286 OA
ATOM      8  C   UNL d   1      -1.437  -1.441  -0.168  0.00  0.00     0.018 A 
ATOM      9  C   UNL d   1      -1.204   1.329  -0.093  0.00  0.00     0.030 A 
ATOM     10  C   UNL d   1      -2.586  -0.661  -0.124  0.00  0.00     0.001 A 
ATOM     11  C   UNL d   1      -2.469   0.723  -0.102  0.00  0.00     0.002 A 
ENDROOT
BRANCH   2  12
ATOM     12  C   UNL d   1       1.425   2.590   0.355  0.00  0.00     0.089 C 
ATOM     13  C   UNL d   1       2.814   3.222   0.088  0.00  0.00     0.026 C 
ATOM     14  C   UNL d   1       3.896   2.982   1.154  0.00  0.00     0.002 C 
ATOM     15  C   UNL d   1       3.394   3.091   2.588  0.00  0.00     0.000 C 
ATOM     16  C   UNL d   1       2.081   2.355   2.806  0.00  0.00     0.002 C 
ATOM     17  C   UNL d   1       1.021   2.833   1.822  0.00  0.00     0.026 C 
ENDBRANCH   2  12
BRANCH   1  18
ATOM     18  C   UNL d   1       3.656  -1.775  -0.163  0.00  0.00     0.254 C 
ATOM     19  O   UNL d   1       4.729  -1.204   0.004  0.00  0.00    -0.268 OA
ATOM     20  N   UNL d   1       3.611  -3.120  -0.338  0.00  0.00    -0.366 N 
ATOM     21  H   UNL d   1       2.723  -3.615  -0.434  0.00  0.00     0.159 HD
ATOM     22  H   UNL d   1       4.471  -3.647  -0.298  0.00  0.00     0.159 HD
ENDBRANCH   1  18
TORSDOF 2
