REMARK  4 active torsions:
REMARK  status: ('A' for Active; 'I' for Inactive)
REMARK    1  A    between atoms: C_2  and  C_1 
REMARK    2  A    between atoms: O_6  and  C_2 
REMARK    3  A    between atoms: C_9  and  C_3 
REMARK    4  A    between atoms: C_8  and  O_6 
ROOT
ATOM      1  C   UNL d   1       0.981  -0.102   0.106  0.00  0.00     0.116 C 
ATOM      2  C   UNL d   1       0.207  -0.263  -0.991  0.00  0.00     0.007 C 
ATOM      3  C   UNL d   1       0.442   0.101   1.407  0.00  0.00     0.105 C 
ATOM      4  N   UNL d   1      -0.026   0.273   2.455  0.00  0.00    -0.191 NA
ENDROOT
BRANCH   1   5
ATOM      5  C   UNL d   1       2.463  -0.123  -0.080  0.00  0.00     0.304 C 
ATOM      6  O   UNL d   1       3.004  -0.176  -1.177  0.00  0.00    -0.258 OA
BRANCH   5   7
ATOM      7  O   UNL d   1       3.106  -0.073   1.114  0.00  0.00    -0.307 OA
BRANCH   7   8
ATOM      8  C   UNL d   1       4.560  -0.007   1.179  0.00  0.00     0.060 C 
ATOM      9  C   UNL d   1       5.089   1.255   0.485  0.00  0.00     0.046 C 
ATOM     10  C   UNL d   1       4.891   0.080   2.678  0.00  0.00     0.046 C 
ATOM     11  C   UNL d   1       5.211  -1.273   0.612  0.00  0.00     0.046 C 
ENDBRANCH   7   8
ENDBRANCH   5   7
ENDBRANCH   1   5
BRANCH   2  12
ATOM     12  C   UNL d   1      -1.312  -0.278  -1.063  0.00  0.00     0.010 C 
ATOM     13  C   UNL d   1      -1.841  -1.629  -1.579  0.00  0.00     0.008 C 
ATOM     14  C   UNL d   1      -1.575  -1.856  -3.068  0.00  0.00     0.001 C 
ATOM     15  C   UNL d   1      -2.091  -0.704  -3.925  0.00  0.00     0.000 C 
ATOM     16  C   UNL d   1      -1.589   0.653  -3.438  0.00  0.00     0.001 C 
ATOM     17  C   UNL d   1      -1.854   0.862  -1.946  0.00  0.00     0.008 C 
ENDBRANCH   2  12
TORSDOF 4
