REMARK  3 active torsions:
REMARK  status: ('A' for Active; 'I' for Inactive)
REMARK    1  A    between atoms: C_16  and  C_6 
REMARK    2  A    between atoms: O_14  and  C_7 
REMARK    3  A    between atoms: O_18  and  C_15 
ROOT
ATOM      1  N   UNL d   1      -0.762   0.266   0.030  0.00  0.00    -0.256 N 
ATOM      2  C   UNL d   1      -1.302  -1.002   0.038  0.00  0.00     0.161 A 
ATOM      3  N   UNL d   1      -2.550  -1.297   0.049  0.00  0.00    -0.316 N 
ATOM      4  HN  UNL d   1      -2.869  -2.265   0.068  1.00  0.00     0.170 HD
ATOM      5  C   UNL d   1      -1.598   1.357   0.046  0.00  0.00     0.265 A 
ATOM      6  C   UNL d   1      -3.069   1.041   0.030  0.00  0.00     0.061 A 
ATOM      7  C   UNL d   1      -3.426  -0.258   0.035  0.00  0.00     0.153 A 
ATOM      8  S   UNL d   1      -0.070  -2.246   0.029  0.00  0.00    -0.051 SA
ATOM      9  C   UNL d   1       0.657   0.276   0.017  0.00  0.00     0.062 A 
ATOM     10  C   UNL d   1       1.196  -1.013   0.013  0.00  0.00     0.038 A 
ATOM     11  C   UNL d   1       2.560  -1.258   0.001  0.00  0.00     0.058 A 
ATOM     12  O   UNL d   1      -1.234   2.531   0.071  0.00  0.00    -0.267 OA
ATOM     13  C   UNL d   1       1.518   1.367   0.007  0.00  0.00     0.034 A 
ATOM     14  C   UNL d   1       3.430  -0.172  -0.004  0.00  0.00     0.069 A 
ATOM     15  C   UNL d   1       2.905   1.132  -0.002  0.00  0.00     0.039 A 
ENDROOT
BRANCH   6  16
ATOM     16  C   UNL d   1      -4.021   2.207  -0.066  0.00  0.00     0.044 C 
ATOM     17  C   UNL d   1      -4.445   2.744   1.294  0.00  0.00     0.010 C 
ENDBRANCH   6  16
BRANCH   7  18
ATOM     18  O   UNL d   1      -4.744  -0.664   0.021  0.00  0.00    -0.345 OA
ATOM     19  H   UNL d   1      -5.332   0.092   0.147  0.00  0.00     0.219 HD
ENDBRANCH   7  18
BRANCH  14  20
ATOM     20  O   UNL d   1       4.797  -0.262  -0.009  0.00  0.00    -0.356 OA
ATOM     21  C   UNL d   1       5.344  -1.579  -0.003  0.00  0.00     0.210 C 
ENDBRANCH  14  20
TORSDOF 3
