REMARK  6 active torsions:
REMARK  status: ('A' for Active; 'I' for Inactive)
REMARK    1  A    between atoms: C_6  and  C_1 
REMARK    2  A    between atoms: C_8  and  C_2 
REMARK    3  A    between atoms: C_10  and  C_4 
REMARK    4  A    between atoms: C_11  and  C_5 
REMARK    5  A    between atoms: C_13  and  C_6 
REMARK    6  A    between atoms: C_7  and  C_12 
ROOT
ATOM      1  C   UNL d   1       0.606  -1.119   0.101  0.00  0.00     0.109 C 
ATOM      2  C   UNL d   1       1.238   0.158  -0.476  0.00  0.00     0.077 C 
ATOM      3  N   UNL d   1      -1.117   0.525   0.141  0.00  0.00     0.103 N 
ATOM      4  C   UNL d   1      -0.887  -0.898  -0.168  0.00  0.00     0.266 C 
ATOM      5  C   UNL d   1       0.125   1.240  -0.227  0.00  0.00     0.264 C 
ATOM      6  H   UNL d   1      -1.295   0.647   1.135  0.00  0.00     0.317 HD
ENDROOT
BRANCH   4   7
ATOM      7  C   UNL d   1      -1.820  -1.808   0.608  0.00  0.00    -0.025 A 
ATOM      8  C   UNL d   1      -2.662  -2.675  -0.107  0.00  0.00     0.010 A 
ATOM      9  C   UNL d   1      -3.518  -3.556   0.558  0.00  0.00     0.017 A 
ATOM     10  C   UNL d   1      -3.552  -3.584   1.957  0.00  0.00     0.047 A 
ATOM     11  C   UNL d   1      -2.712  -2.720   2.676  0.00  0.00     0.017 A 
ATOM     12  C   UNL d   1      -1.853  -1.841   2.009  0.00  0.00     0.010 A 
BRANCH  10  13
ATOM     13  C   UNL d   1      -4.470  -4.531   2.693  0.00  0.00     0.417 C 
ATOM     14  F   UNL d   1      -5.225  -5.313   1.873  0.00  0.00    -0.166 F 
ATOM     15  F   UNL d   1      -3.790  -5.386   3.505  0.00  0.00    -0.166 F 
ATOM     16  F   UNL d   1      -5.351  -3.874   3.499  0.00  0.00    -0.166 F 
ENDBRANCH  10  13
ENDBRANCH   4   7
BRANCH   1  17
ATOM     17  C   UNL d   1       1.085  -2.470  -0.414  0.00  0.00     0.166 C 
ATOM     18  O   UNL d   1       0.404  -3.154  -1.178  0.00  0.00    -0.292 OA
BRANCH  17  19
ATOM     19  C   UNL d   1       2.402  -3.029   0.028  0.00  0.00     0.010 A 
ATOM     20  C   UNL d   1       3.126  -2.532   1.115  0.00  0.00     0.015 A 
ATOM     21  C   UNL d   1       4.347  -3.119   1.473  0.00  0.00     0.007 A 
ATOM     22  C   UNL d   1       4.862  -4.203   0.750  0.00  0.00    -0.062 A 
ATOM     23  C   UNL d   1       4.121  -4.719  -0.315  0.00  0.00     0.007 A 
ATOM     24  C   UNL d   1       6.200  -4.783   1.104  0.00  0.00     0.048 C 
ATOM     25  C   UNL d   1       2.902  -4.139  -0.670  0.00  0.00     0.015 A 
ENDBRANCH  17  19
ENDBRANCH   1  17
BRANCH   5  26
ATOM     26  C   UNL d   1      -0.111   2.269  -1.320  0.00  0.00    -0.025 A 
ATOM     27  C   UNL d   1      -1.013   2.032  -2.373  0.00  0.00     0.011 A 
ATOM     28  C   UNL d   1      -1.111   2.914  -3.449  0.00  0.00     0.024 A 
ATOM     29  C   UNL d   1      -0.326   4.061  -3.473  0.00  0.00     0.034 A 
ATOM     30  C   UNL d   1       0.536   4.345  -2.416  0.00  0.00     0.024 A 
ATOM     31 CL   UNL d   1      -0.404   5.122  -4.824  0.00  0.00    -0.084 Cl
ATOM     32  C   UNL d   1       0.642   3.455  -1.343  0.00  0.00     0.011 A 
ENDBRANCH   5  26
BRANCH   2  33
ATOM     33  C   UNL d   1       1.786   0.143  -1.896  0.00  0.00    -0.010 A 
ATOM     34  S   UNL d   1       1.057  -0.715  -3.193  0.00  0.00    -0.106 SA
ATOM     35  C   UNL d   1       2.147  -0.084  -4.340  0.00  0.00     0.050 A 
ATOM     36  C   UNL d   1       3.065   0.760  -3.764  0.00  0.00     0.008 A 
ATOM     37  C   UNL d   1       2.870   0.876  -2.357  0.00  0.00     0.015 A 
ENDBRANCH   2  33
TORSDOF 6
