REMARK  1 active torsions:
REMARK  status: ('A' for Active; 'I' for Inactive)
REMARK    1  A    between atoms: C_3  and  C_5 
ROOT
ATOM      1  N   UNL d   1       0.231  -1.195   0.059  0.00  0.00    -0.304 N 
ATOM      2  HN  UNL d   1       0.750  -2.072   0.086  1.00  0.00     0.170 HD
ATOM      3  C   UNL d   1       0.896   0.002   0.045  0.00  0.00     0.324 A 
ATOM      4  C   UNL d   1      -1.070  -1.201   0.036  0.00  0.00     0.121 A 
ATOM      5  N   UNL d   1       0.147   1.154   0.015  0.00  0.00    -0.319 N 
ATOM      6  C   UNL d   1      -1.898   0.037  -0.009  0.00  0.00     0.051 A 
ATOM      7  C   UNL d   1      -1.213   1.179  -0.014  0.00  0.00     0.095 A 
ATOM      8  O   UNL d   1       2.119   0.086   0.061  0.00  0.00    -0.247 OA
ATOM      9  H   UNL d   1       0.690   2.009   0.010  0.00  0.00     0.170 HD
ENDROOT
BRANCH   4  10
ATOM     10  C   UNL d   1      -1.826  -2.529   0.056  0.00  0.00     0.432 C 
ATOM     11  F   UNL d   1      -3.179  -2.362   0.054  0.00  0.00    -0.165 F 
ATOM     12  F   UNL d   1      -1.540  -3.303  -1.025  0.00  0.00    -0.165 F 
ATOM     13  F   UNL d   1      -1.540  -3.271   1.160  0.00  0.00    -0.165 F 
ENDBRANCH   4  10
TORSDOF 1
