REMARK  3 active torsions:
REMARK  status: ('A' for Active; 'I' for Inactive)
REMARK    1  A    between atoms: C_9  and  C_3 
REMARK    2  A    between atoms: C_10  and  C_7 
REMARK    3  A    between atoms: C_8  and  C_9 
ROOT
ATOM      1  N   UNL d   1       1.312  -1.139  -0.067  0.00  0.00    -0.297 N 
ATOM      2  HN  UNL d   1       1.869  -1.993  -0.059  1.00  0.00     0.187 HD
ATOM      3  C   UNL d   1      -0.241   1.239  -0.075  0.00  0.00     0.019 A 
ATOM      4  N   UNL d   1      -0.049  -1.174  -0.158  0.00  0.00    -0.266 N 
ATOM      5  C   UNL d   1      -0.887  -0.088  -0.212  0.00  0.00     0.266 A 
ATOM      6  C   UNL d   1       1.092   1.298   0.046  0.00  0.00     0.045 A 
ATOM      7  C   UNL d   1       1.865   0.035   0.010  0.00  0.00     0.059 A 
ATOM      8  O   UNL d   1      -2.100  -0.209  -0.346  0.00  0.00    -0.266 OA
ATOM      9  H   UNL d   1      -0.472  -2.093  -0.238  0.00  0.00     0.190 HD
ENDROOT
BRANCH   7  10
ATOM     10  C   UNL d   1       3.352   0.149   0.092  0.00  0.00    -0.008 A 
ATOM     11  C   UNL d   1       4.075  -0.904   0.673  0.00  0.00     0.017 A 
ATOM     12  C   UNL d   1       5.465  -0.822   0.791  0.00  0.00     0.043 A 
ATOM     13  C   UNL d   1       6.128   0.306   0.322  0.00  0.00     0.116 A 
ATOM     14  C   UNL d   1       5.431   1.348  -0.277  0.00  0.00     0.043 A 
ATOM     15  F   UNL d   1       7.459   0.388   0.443  0.00  0.00    -0.206 F 
ATOM     16  C   UNL d   1       4.042   1.268  -0.402  0.00  0.00     0.017 A 
ENDBRANCH   7  10
BRANCH   3  17
ATOM     17  C   UNL d   1      -1.116   2.462  -0.063  0.00  0.00     0.109 C 
BRANCH  17  18
ATOM     18  C   UNL d   1      -0.808   3.446  -1.142  0.00  0.00     0.057 A 
ATOM     19  O   UNL d   1       0.133   4.393  -0.856  0.00  0.00    -0.327 OA
ATOM     20  C   UNL d   1       0.282   5.152  -1.972  0.00  0.00     0.142 A 
ATOM     21  C   UNL d   1      -0.548   4.703  -2.973  0.00  0.00     0.027 A 
ATOM     22  C   UNL d   1      -1.260   3.604  -2.435  0.00  0.00     0.035 A 
ENDBRANCH  17  18
ENDBRANCH   3  17
TORSDOF 3
