REMARK  2 active torsions:
REMARK  status: ('A' for Active; 'I' for Inactive)
REMARK    1  A    between atoms: O_5  and  C_1 
REMARK    2  A    between atoms: C_8  and  O_5 
ROOT
ATOM      1  C   UNL d   1      -0.079  -0.968   0.069  0.00  0.00     0.169 A 
ATOM      2  C   UNL d   1      -1.142  -0.593  -0.743  0.00  0.00     0.096 A 
ATOM      3  C   UNL d   1      -1.681  -1.475  -1.731  0.00  0.00     0.104 C 
ATOM      4  N   UNL d   1      -2.146  -2.163  -2.540  0.00  0.00    -0.191 NA
ATOM      5  N   UNL d   1       0.428  -0.170   1.045  0.00  0.00    -0.345 N 
ATOM      6  HN  UNL d   1       1.182  -0.491   1.653  1.00  0.00     0.167 HD
ATOM      7  C   UNL d   1      -1.670   0.691  -0.578  0.00  0.00     0.028 A 
ATOM      8  C   UNL d   1      -0.102   1.062   1.179  0.00  0.00     0.090 A 
ATOM      9  C   UNL d   1      -1.136   1.537   0.392  0.00  0.00     0.019 A 
ENDROOT
BRANCH   1  10
ATOM     10  O   UNL d   1       0.471  -2.231  -0.111  0.00  0.00    -0.292 OA
BRANCH  10  11
ATOM     11  C   UNL d   1       1.809  -2.384   0.176  0.00  0.00     0.077 A 
ATOM     12  C   UNL d   1       2.185  -3.556   0.834  0.00  0.00     0.037 A 
ATOM     13  C   UNL d   1       3.527  -3.777   1.148  0.00  0.00     0.003 A 
ATOM     14  C   UNL d   1       4.493  -2.836   0.791  0.00  0.00     0.000 A 
ATOM     15  C   UNL d   1       4.124  -1.683   0.101  0.00  0.00     0.003 A 
ATOM     16  C   UNL d   1       2.785  -1.464  -0.223  0.00  0.00     0.037 A 
ENDBRANCH  10  11
ENDBRANCH   1  10
TORSDOF 2
