REMARK  3 active torsions:
REMARK  status: ('A' for Active; 'I' for Inactive)
REMARK    1  A    between atoms: C_10  and  N_3 
REMARK    2  A    between atoms: C_7  and  C_4 
REMARK    3  A    between atoms: C_15  and  C_5 
ROOT
ATOM      1  N   UNL d   1       1.137  -0.185   0.086  0.00  0.00    -0.301 N 
ATOM      2  HN  UNL d   1       2.137  -0.380   0.136  1.00  0.00     0.187 HD
ATOM      3  N   UNL d   1       0.130  -1.104   0.100  0.00  0.00    -0.283 N 
ATOM      4  C   UNL d   1      -1.204  -0.514   0.001  0.00  0.00     0.147 A 
ATOM      5  C   UNL d   1       0.582   0.987  -0.003  0.00  0.00     0.038 A 
ATOM      6  C   UNL d   1      -0.921   0.987  -0.011  0.00  0.00     0.091 A 
ENDROOT
BRANCH   4   7
ATOM      7  C   UNL d   1      -2.109  -0.897   1.163  0.00  0.00    -0.030 A 
ATOM      8  C   UNL d   1      -1.583  -1.159   2.444  0.00  0.00     0.049 A 
ATOM      9  C   UNL d   1      -2.451  -1.506   3.454  0.00  0.00     0.105 A 
ATOM     10  O   UNL d   1      -2.101  -1.799   4.734  0.00  0.00    -0.323 OA
ATOM     11  C   UNL d   1      -3.806  -1.590   3.245  0.00  0.00     0.105 A 
ATOM     12  C   UNL d   1      -3.397  -2.033   5.319  0.00  0.00     0.352 A 
ATOM     13  O   UNL d   1      -4.482  -1.942   4.371  0.00  0.00    -0.323 OA
ATOM     14  C   UNL d   1      -4.367  -1.331   2.013  0.00  0.00     0.040 A 
ATOM     15  C   UNL d   1      -3.509  -0.979   0.965  0.00  0.00     0.012 A 
ENDBRANCH   4   7
BRANCH   3  16
ATOM     16  C   UNL d   1       0.405  -2.469   0.046  0.00  0.00     0.051 A 
ATOM     17  C   UNL d   1       1.613  -2.975   0.554  0.00  0.00     0.031 A 
ATOM     18  C   UNL d   1       1.886  -4.346   0.564  0.00  0.00     0.002 A 
ATOM     19  C   UNL d   1       0.963  -5.244   0.038  0.00  0.00     0.000 A 
ATOM     20  C   UNL d   1      -0.233  -4.769  -0.490  0.00  0.00     0.002 A 
ATOM     21  C   UNL d   1      -0.509  -3.398  -0.476  0.00  0.00     0.031 A 
ENDBRANCH   3  16
BRANCH   5  22
ATOM     22  C   UNL d   1       1.353   2.248  -0.111  0.00  0.00    -0.012 A 
ATOM     23  C   UNL d   1       2.752   2.196  -0.105  0.00  0.00     0.013 A 
ATOM     24  C   UNL d   1       3.499   3.367  -0.247  0.00  0.00     0.001 A 
ATOM     25  C   UNL d   1       2.854   4.593  -0.395  0.00  0.00     0.000 A 
ATOM     26  C   UNL d   1       1.461   4.654  -0.395  0.00  0.00     0.001 A 
ATOM     27  C   UNL d   1       0.711   3.483  -0.251  0.00  0.00     0.013 A 
ENDBRANCH   5  22
TORSDOF 3
