REMARK  1 active torsions:
REMARK  status: ('A' for Active; 'I' for Inactive)
REMARK    1  A    between atoms: O_7  and  C_3 
ROOT
ATOM      1  N   UNL d   1       1.641   1.074   0.001  0.00  0.00    -0.330 N 
ATOM      2  HN  UNL d   1       1.904   2.060   0.001  1.00  0.00     0.168 HD
ATOM      3  C   UNL d   1       2.470   0.065   0.002  0.00  0.00     0.185 A 
ATOM      4  S   UNL d   1       1.812  -1.499   0.001  0.00  0.00    -0.045 SA
ATOM      5  C   UNL d   1       0.343   0.582   0.001  0.00  0.00     0.051 A 
ATOM      6  C   UNL d   1       0.231  -0.812   0.001  0.00  0.00     0.035 A 
ATOM      7  C   UNL d   1      -0.837   1.354  -0.000  0.00  0.00     0.031 A 
ATOM      8  C   UNL d   1      -1.016  -1.458   0.000  0.00  0.00     0.021 A 
ATOM      9  C   UNL d   1      -2.170  -0.669  -0.001  0.00  0.00     0.002 A 
ATOM     10  C   UNL d   1      -2.085   0.720  -0.001  0.00  0.00     0.002 A 
ENDROOT
BRANCH   3  11
ATOM     11  O   UNL d   1       3.768   0.298   0.002  0.00  0.00    -0.341 OA
ATOM     12  H   UNL d   1       3.784   1.270   0.002  0.00  0.00     0.220 HD
ENDBRANCH   3  11
TORSDOF 1
