REMARK  2 active torsions:
REMARK  status: ('A' for Active; 'I' for Inactive)
REMARK    1  A    between atoms: C_6  and  C_1 
REMARK    2  A    between atoms: C_5  and  C_2 
ROOT
ATOM      1  C   UNL d   1       2.445   0.022   0.018  0.00  0.00     0.057 C 
ATOM      2  C   UNL d   1       1.232  -0.081  -0.568  0.00  0.00     0.060 C 
ATOM      3  C   UNL d   1       3.091  -1.111   0.616  0.00  0.00     0.100 C 
ATOM      4  N   UNL d   1       3.670  -2.010   1.073  0.00  0.00    -0.191 NA
ENDROOT
BRANCH   1   5
ATOM      5  C   UNL d   1       3.180   1.323   0.004  0.00  0.00    -0.015 A 
ATOM      6  C   UNL d   1       2.507   2.553   0.096  0.00  0.00     0.013 A 
ATOM      7  C   UNL d   1       3.209   3.764   0.126  0.00  0.00     0.007 A 
ATOM      8  C   UNL d   1       4.606   3.779   0.085  0.00  0.00    -0.062 A 
ATOM      9  C   UNL d   1       5.289   2.564   0.004  0.00  0.00     0.007 A 
ATOM     10  C   UNL d   1       5.344   5.083   0.140  0.00  0.00     0.048 C 
ATOM     11  C   UNL d   1       4.586   1.354  -0.037  0.00  0.00     0.013 A 
ENDBRANCH   1   5
BRANCH   2  12
ATOM     12  C   UNL d   1       0.438  -1.264  -0.551  0.00  0.00     0.076 A 
ATOM     13  O   UNL d   1       0.471  -2.200   0.458  0.00  0.00    -0.323 OA
ATOM     14  C   UNL d   1      -0.412  -3.183   0.169  0.00  0.00     0.142 A 
ATOM     15  C   UNL d   1      -1.051  -2.916  -1.013  0.00  0.00     0.027 A 
ATOM     16  C   UNL d   1      -0.519  -1.685  -1.469  0.00  0.00     0.039 A 
ENDBRANCH   2  12
TORSDOF 2
