REMARK  5 active torsions:
REMARK  status: ('A' for Active; 'I' for Inactive)
REMARK    1  A    between atoms: N_2  and  S_1 
REMARK    2  A    between atoms: C_9  and  S_1 
REMARK    3  A    between atoms: C_3  and  N_2 
REMARK       I    between atoms: C_7  and  N_14 
REMARK       I    between atoms: N_13  and  C_7 
REMARK    4  A    between atoms: C_16  and  N_13 
REMARK    5  A    between atoms: N_14  and  C_23 
ROOT
ATOM      1  C   UNL d   1      -0.019   1.238   0.638  0.00  0.00     0.075 C 
ATOM      2  C   UNL d   1      -0.827   0.863   1.715  0.00  0.00     0.027 C 
ATOM      3  C   UNL d   1       0.547   2.512   0.584  0.00  0.00     0.027 C 
ATOM      4  C   UNL d   1      -0.310   2.959   2.804  0.00  0.00     0.036 C 
ATOM      5  C   UNL d   1      -0.988   1.736   2.791  0.00  0.00     0.031 C 
ATOM      6  C   UNL d   1       0.389   3.375   1.667  0.00  0.00     0.031 C 
ENDROOT
BRANCH   4   7
ATOM      7  N   UNL d   1      -0.345   3.713   3.990  0.00  0.00    -0.309 N 
ATOM      8  C   UNL d   1       0.574   4.697   4.346  0.00  0.00     0.325 C 
ATOM      9  N   UNL d   1       0.060   5.417   5.413  0.00  0.00    -0.309 N 
ATOM     10  O   UNL d   1       1.624   4.936   3.776  0.00  0.00    -0.247 OA
ATOM     11  H   UNL d   1      -0.947   5.364   5.449  0.00  0.00     0.170 HD
ATOM     12  H   UNL d   1      -0.881   3.334   4.755  0.00  0.00     0.170 HD
BRANCH   9  13
ATOM     13  C   UNL d   1       0.591   6.673   5.768  0.00  0.00     0.037 A 
ATOM     14  C   UNL d   1      -0.311   7.734   5.814  0.00  0.00     0.042 A 
ATOM     15  C   UNL d   1       0.122   9.025   6.117  0.00  0.00    -0.024 A 
ATOM     16  C   UNL d   1      -0.772  10.099   6.059  0.00  0.00     0.012 A 
ATOM     17  C   UNL d   1       1.470   9.240   6.481  0.00  0.00    -0.026 A 
ATOM     18  C   UNL d   1      -0.359  11.381   6.407  0.00  0.00     0.001 A 
ATOM     19  C   UNL d   1       0.950  11.594   6.831  0.00  0.00     0.001 A 
ATOM     20  C   UNL d   1       1.862  10.535   6.861  0.00  0.00     0.012 A 
ATOM     21  C   UNL d   1       2.370   8.156   6.441  0.00  0.00     0.014 A 
ATOM     22  C   UNL d   1       1.938   6.881   6.061  0.00  0.00     0.030 A 
ENDBRANCH   9  13
ENDBRANCH   4   7
BRANCH   1  23
ATOM     23  S   UNL d   1       0.495  -0.002  -0.522  0.00  0.00     0.247 S 
ATOM     24  O   UNL d   1       1.627   0.520  -1.266  0.00  0.00    -0.205 OA
ATOM     25  O   UNL d   1       0.604  -1.261   0.181  0.00  0.00    -0.205 OA
BRANCH  23  26
ATOM     26  N   UNL d   1      -0.767  -0.061  -1.635  0.00  0.00    -0.165 NA
ATOM     27  H   UNL d   1      -0.332  -0.008  -2.554  0.00  0.00     0.147 HD
BRANCH  26  28
ATOM     28  C   UNL d   1      -1.689  -1.085  -1.462  0.00  0.00     0.117 A 
ATOM     29  N   UNL d   1      -2.826  -0.907  -0.792  0.00  0.00    -0.249 N 
ATOM     30  O   UNL d   1      -3.471  -2.131  -0.818  0.00  0.00    -0.241 OA
ATOM     31  HN  UNL d   1      -3.153  -0.047  -0.352  1.00  0.00     0.196 HD
ATOM     32  C   UNL d   1      -2.706  -3.029  -1.498  0.00  0.00     0.075 A 
ATOM     33  C   UNL d   1      -1.570  -2.404  -1.952  0.00  0.00     0.079 A 
ATOM     34  C   UNL d   1      -3.225  -4.403  -1.575  0.00  0.00     0.079 C 
ENDBRANCH  26  28
ENDBRANCH  23  26
ENDBRANCH   1  23
TORSDOF 5
