REMARK  8 active torsions:
REMARK  status: ('A' for Active; 'I' for Inactive)
REMARK    1  A    between atoms: N_3  and  S_1 
REMARK    2  A    between atoms: C_4  and  S_1 
REMARK    3  A    between atoms: C_2  and  N_3 
REMARK    4  A    between atoms: N_11  and  C_5 
REMARK    5  A    between atoms: C_6  and  C_9 
REMARK    6  A    between atoms: C_7  and  C_10 
REMARK    7  A    between atoms: C_8  and  C_12 
REMARK    8  A    between atoms: N_13  and  N_11 
REMARK       I    between atoms: C_21  and  N_13 
ROOT
ATOM      1  N   UNL d   1       0.698   1.344   0.215  0.00  0.00    -0.278 N 
ATOM      2  H   UNL d   1       0.286   1.800  -0.598  0.00  0.00     0.179 HD
ENDROOT
BRANCH   1   3
ATOM      3  C   UNL d   1       1.075   2.179   1.308  0.00  0.00     0.071 A 
ATOM      4  C   UNL d   1       2.404   2.330   1.792  0.00  0.00     0.077 A 
ATOM      5  C   UNL d   1       2.583   3.356   2.762  0.00  0.00     0.034 A 
ATOM      6  C   UNL d   1       1.551   4.182   3.220  0.00  0.00     0.018 A 
ATOM      7  C   UNL d   1       0.263   4.030   2.719  0.00  0.00     0.050 A 
ATOM      8  C   UNL d   1       0.033   3.009   1.785  0.00  0.00     0.048 A 
BRANCH   4   9
ATOM      9  N   UNL d   1       3.568   1.670   1.347  0.00  0.00    -0.292 N 
ATOM     10  C   UNL d   1       3.634   0.633   0.324  0.00  0.00     0.178 C 
BRANCH   9  11
ATOM     11  N   UNL d   1       4.563   1.518   2.351  0.00  0.00    -0.268 N 
ATOM     12  C   UNL d   1       5.894   1.782   2.061  0.00  0.00     0.232 C 
ATOM     13  O   UNL d   1       6.332   2.166   0.978  0.00  0.00    -0.272 OA
ATOM     14  C   UNL d   1       6.803   1.528   3.235  0.00  0.00     0.119 C 
ATOM     15  H   UNL d   1       4.299   0.933   3.137  0.00  0.00     0.190 HD
ENDBRANCH   9  11
ENDBRANCH   4   9
BRANCH   7  16
ATOM     16  C   UNL d   1      -0.816   5.003   3.130  0.00  0.00     0.417 C 
ATOM     17  F   UNL d   1      -1.996   4.806   2.481  0.00  0.00    -0.166 F 
ATOM     18  F   UNL d   1      -1.101   4.940   4.458  0.00  0.00    -0.166 F 
ATOM     19  F   UNL d   1      -0.467   6.295   2.881  0.00  0.00    -0.166 F 
ENDBRANCH   7  16
ENDBRANCH   1   3
BRANCH   1  20
ATOM     20  S   UNL d   1       0.310  -0.280   0.343  0.00  0.00     0.263 S 
ATOM     21  O   UNL d   1       1.317  -0.985   1.092  0.00  0.00    -0.200 OA
ATOM     22  O   UNL d   1      -0.059  -0.700  -0.993  0.00  0.00    -0.200 OA
BRANCH  20  23
ATOM     23  C   UNL d   1      -1.171  -0.331   1.324  0.00  0.00     0.081 A 
ATOM     24  C   UNL d   1      -2.420  -0.289   0.696  0.00  0.00     0.041 A 
ATOM     25  C   UNL d   1      -3.587  -0.480   1.448  0.00  0.00     0.050 A 
ATOM     26  C   UNL d   1      -3.473  -0.738   2.827  0.00  0.00     0.032 A 
ATOM     27  C   UNL d   1      -2.217  -0.819   3.456  0.00  0.00     0.050 A 
ATOM     28  C   UNL d   1      -1.064  -0.605   2.691  0.00  0.00     0.041 A 
BRANCH  25  29
ATOM     29  C   UNL d   1      -4.951  -0.431   0.794  0.00  0.00     0.417 C 
ATOM     30  F   UNL d   1      -4.898  -0.252  -0.554  0.00  0.00    -0.166 F 
ATOM     31  F   UNL d   1      -5.667  -1.569   0.997  0.00  0.00    -0.166 F 
ATOM     32  F   UNL d   1      -5.712   0.587   1.278  0.00  0.00    -0.166 F 
ENDBRANCH  25  29
BRANCH  27  33
ATOM     33  C   UNL d   1      -2.117  -1.165   4.925  0.00  0.00     0.417 C 
ATOM     34  F   UNL d   1      -0.835  -1.272   5.370  0.00  0.00    -0.166 F 
ATOM     35  F   UNL d   1      -2.712  -0.231   5.715  0.00  0.00    -0.166 F 
ATOM     36  F   UNL d   1      -2.717  -2.350   5.219  0.00  0.00    -0.166 F 
ENDBRANCH  27  33
ENDBRANCH  20  23
ENDBRANCH   1  20
TORSDOF 8
