REMARK  3 active torsions:
REMARK  status: ('A' for Active; 'I' for Inactive)
REMARK    1  A    between atoms: C_7  and  C_1 
REMARK    2  A    between atoms: C_3  and  C_7 
REMARK    3  A    between atoms: O_15  and  C_3 
ROOT
ATOM      1  C   UNL d   1       0.691   0.857   1.079  0.00  0.00    -0.029 C 
ATOM      2  C   UNL d   1      -1.541   0.234   0.054  0.00  0.00     0.019 C 
ATOM      3  C   UNL d   1       0.272  -1.496   0.177  0.00  0.00    -0.012 C 
ATOM      4  C   UNL d   1       0.484   0.437  -1.421  0.00  0.00    -0.012 C 
ATOM      5  C   UNL d   1      -0.847   1.052   1.154  0.00  0.00     0.031 C 
ATOM      6  C   UNL d   1      -1.031   0.686  -1.323  0.00  0.00     0.025 C 
ATOM      7  C   UNL d   1      -1.245  -1.260   0.256  0.00  0.00     0.025 C 
ATOM      8  C   UNL d   1       0.976  -0.663   1.265  0.00  0.00     0.014 C 
ATOM      9  C   UNL d   1       1.201   1.253  -0.331  0.00  0.00     0.014 C 
ATOM     10  C   UNL d   1       0.775  -1.056  -1.207  0.00  0.00     0.009 C 
ATOM     11 BR   UNL d   1      -3.470   0.521   0.157  0.00  0.00    -0.085 Br
ENDROOT
BRANCH   1  12
ATOM     12  C   UNL d   1       1.423   1.641   2.193  0.00  0.00     0.119 C 
BRANCH  12  13
ATOM     13  C   UNL d   1       1.260   3.153   2.181  0.00  0.00     0.140 C 
ATOM     14  O   UNL d   1       0.633   3.806   1.366  0.00  0.00    -0.650 OA
BRANCH  13  15
ATOM     15  O   UNL d   1       1.914   3.740   3.212  0.00  0.00    -0.776 OA
ATOM     16  H   UNL d   1       2.379   3.112   3.796  0.00  0.00     0.167 HD
ENDBRANCH  13  15
ENDBRANCH  12  13
ENDBRANCH   1  12
TORSDOF 3
