REMARK  6 active torsions:
REMARK  status: ('A' for Active; 'I' for Inactive)
REMARK    1  A    between atoms: C_10  and  C_3 
REMARK    2  A    between atoms: C_5  and  C_4 
REMARK    3  A    between atoms: N_8  and  C_13 
REMARK    4  A    between atoms: O_15  and  C_12 
REMARK    5  A    between atoms: C_23  and  O_15 
REMARK    6  A    between atoms: O_30  and  C_25 
ROOT
ATOM      1  C   UNL d   1       1.108  -2.309   0.105  0.00  0.00     0.053 A 
ATOM      2  C   UNL d   1       1.899  -2.733   1.194  0.00  0.00     0.054 A 
ATOM      3  C   UNL d   1       0.798  -3.242  -0.902  0.00  0.00     0.090 A 
ATOM      4  C   UNL d   1       2.340  -4.059   1.290  0.00  0.00     0.104 A 
ATOM      5  C   UNL d   1       1.169  -4.593  -0.742  0.00  0.00     0.041 A 
ATOM      6  C   UNL d   1       1.963  -4.998   0.330  0.00  0.00     0.039 A 
ENDROOT
BRANCH   1   7
ATOM      7  C   UNL d   1       0.687  -0.913   0.100  0.00  0.00     0.185 A 
ATOM      8  N   UNL d   1       1.273   0.117   0.666  0.00  0.00    -0.317 N 
ATOM      9  C   UNL d   1       0.381   1.148   0.445  0.00  0.00     0.156 A 
ATOM     10  HN  UNL d   1       2.170   0.148   1.151  1.00  0.00     0.169 HD
ATOM     11  N   UNL d   1      -0.739   0.757  -0.193  0.00  0.00    -0.241 N 
ATOM     12  O   UNL d   1      -0.534  -0.608  -0.424  0.00  0.00    -0.217 OA
ATOM     13  HN  UNL d   1      -1.547   1.324  -0.448  1.00  0.00     0.196 HD
BRANCH   9  14
ATOM     14  C   UNL d   1       0.663   2.527   0.847  0.00  0.00     0.094 A 
ATOM     15  N   UNL d   1       1.856   2.778   1.456  0.00  0.00    -0.360 N 
ATOM     16  C   UNL d   1       2.113   4.074   1.755  0.00  0.00     0.105 A 
ATOM     17  HN  UNL d   1       2.518   2.033   1.674  1.00  0.00     0.165 HD
ATOM     18  C   UNL d   1       1.222   5.093   1.466  0.00  0.00     0.104 A 
ATOM     19  N   UNL d   1       0.029   4.862   0.877  0.00  0.00    -0.372 N 
ATOM     20  C   UNL d   1      -0.228   3.560   0.575  0.00  0.00     0.121 A 
ATOM     21  HN  UNL d   1      -0.632   5.611   0.672  1.00  0.00     0.164 HD
ENDBRANCH   9  14
ENDBRANCH   1   7
BRANCH   3  22
ATOM     22  O   UNL d   1       0.154  -2.819  -2.057  0.00  0.00    -0.310 OA
BRANCH  22  23
ATOM     23  C   UNL d   1       0.518  -3.426  -3.248  0.00  0.00     0.076 A 
ATOM     24  C   UNL d   1      -0.493  -3.776  -4.142  0.00  0.00     0.040 A 
ATOM     25  C   UNL d   1      -0.188  -4.500  -5.307  0.00  0.00     0.039 A 
ATOM     26  C   UNL d   1       1.131  -4.875  -5.574  0.00  0.00     0.068 A 
ATOM     27  C   UNL d   1       2.144  -4.468  -4.704  0.00  0.00     0.039 A 
ATOM     28  C   UNL d   1       1.847  -3.716  -3.565  0.00  0.00     0.040 A 
BRANCH  26  29
ATOM     29  O   UNL d   1       1.571  -5.632  -6.623  0.00  0.00    -0.356 OA
ATOM     30  C   UNL d   1       0.612  -6.049  -7.583  0.00  0.00     0.210 C 
ENDBRANCH  26  29
ENDBRANCH  22  23
ENDBRANCH   3  22
BRANCH   4  31
ATOM     31  N   UNL d   1       3.206  -4.465   2.406  0.00  0.00    -0.116 N 
ATOM     32  O   UNL d   1       3.455  -3.625   3.275  0.00  0.00    -0.532 OA
ATOM     33  O   UNL d   1       3.629  -5.630   2.405  0.00  0.00    -0.532 OA
ENDBRANCH   4  31
TORSDOF 6
