REMARK  3 active torsions:
REMARK  status: ('A' for Active; 'I' for Inactive)
REMARK    1  A    between atoms: N_2  and  S_1 
REMARK    2  A    between atoms: C_6  and  S_1 
REMARK    3  A    between atoms: C_3  and  N_2 
ROOT
ATOM      1  S   UNL d   1       0.866   0.029  -0.044  0.00  0.00     0.247 S 
ATOM      2  O   UNL d   1       0.186   1.153  -0.664  0.00  0.00    -0.205 OA
ATOM      3  O   UNL d   1       2.307  -0.012   0.042  0.00  0.00    -0.205 OA
ENDROOT
BRANCH   1   4
ATOM      4  N   UNL d   1       0.382  -1.385  -0.869  0.00  0.00    -0.165 NA
ATOM      5  H   UNL d   1       0.932  -2.171  -0.525  0.00  0.00     0.147 HD
BRANCH   4   6
ATOM      6  C   UNL d   1      -1.021  -1.603  -0.972  0.00  0.00     0.111 A 
ATOM      7  N   UNL d   1      -1.897  -1.101  -1.901  0.00  0.00    -0.285 N 
ATOM      8  N   UNL d   1      -3.153  -1.579  -1.746  0.00  0.00    -0.309 N 
ATOM      9  C   UNL d   1      -1.592  -0.314  -3.072  0.00  0.00     0.179 C 
ATOM     10  C   UNL d   1      -3.048  -2.416  -0.714  0.00  0.00     0.110 A 
ATOM     11  HN  UNL d   1      -3.985  -1.351  -2.290  1.00  0.00     0.186 HD
ATOM     12  C   UNL d   1      -1.740  -2.490  -0.205  0.00  0.00     0.063 A 
ENDBRANCH   4   6
ENDBRANCH   1   4
BRANCH   1  13
ATOM     13  C   UNL d   1       0.247  -0.158   1.633  0.00  0.00     0.080 A 
ATOM     14  C   UNL d   1       0.586  -1.248   2.463  0.00  0.00    -0.039 A 
ATOM     15  C   UNL d   1       1.450  -2.413   2.073  0.00  0.00     0.050 C 
ATOM     16  C   UNL d   1       0.068  -1.274   3.775  0.00  0.00     0.008 A 
ATOM     17  C   UNL d   1      -0.716  -0.233   4.270  0.00  0.00     0.001 A 
ATOM     18  C   UNL d   1      -1.010   0.856   3.457  0.00  0.00     0.002 A 
ATOM     19  C   UNL d   1      -0.539   0.891   2.144  0.00  0.00     0.025 A 
ENDBRANCH   1  13
TORSDOF 3
