REMARK  1 active torsions:
REMARK  status: ('A' for Active; 'I' for Inactive)
REMARK    1  A    between atoms: C_2  and  N_1 
ROOT
ATOM      1  C   UNL d   1      -0.759  -2.462  -0.023  0.00  0.00     0.111 A 
ATOM      2  N   UNL d   1      -0.268  -3.275   0.952  0.00  0.00    -0.350 N 
ATOM      3  HN  UNL d   1       0.396  -2.927   1.643  1.00  0.00     0.166 HD
ATOM      4  N   UNL d   1      -2.349  -7.560   0.212  0.00  0.00    -0.191 NA
ATOM      5  C   UNL d   1      -2.002  -6.456   0.145  0.00  0.00     0.101 C 
ATOM      6  C   UNL d   1      -1.586  -5.093   0.056  0.00  0.00     0.060 A 
ATOM      7  C   UNL d   1      -1.655  -2.922  -0.988  0.00  0.00     0.050 A 
ATOM      8  C   UNL d   1      -0.692  -4.562   0.971  0.00  0.00     0.112 A 
ATOM      9  C   UNL d   1      -2.069  -4.254  -0.945  0.00  0.00     0.028 A 
ENDROOT
BRANCH   1  10
ATOM     10  N   UNL d   1      -0.336  -1.095  -0.029  0.00  0.00    -0.319 N 
ATOM     11  C   UNL d   1      -0.745  -0.086  -0.880  0.00  0.00     0.098 A 
ATOM     12  C   UNL d   1      -0.099   1.083  -0.537  0.00  0.00     0.019 A 
ATOM     13  C   UNL d   1       0.740   0.793   0.558  0.00  0.00     0.019 A 
ATOM     14  C   UNL d   1       0.573  -0.542   0.856  0.00  0.00     0.098 A 
ENDBRANCH   1  10
TORSDOF 1
