REMARK  8 active torsions:
REMARK  status: ('A' for Active; 'I' for Inactive)
REMARK    1  A    between atoms: C_3  and  C_1 
REMARK    2  A    between atoms: N_16  and  C_1 
REMARK    3  A    between atoms: C_2  and  O_11 
REMARK    4  A    between atoms: O_10  and  N_4 
REMARK    5  A    between atoms: C_7  and  O_10 
REMARK    6  A    between atoms: C_8  and  C_7 
REMARK    7  A    between atoms: C_20  and  C_9 
REMARK    8  A    between atoms: O_11  and  C_21 
ROOT
ATOM      1  C   UNL d   1      -1.706   1.421  -1.505  0.00  0.00     0.304 C 
ATOM      2  O   UNL d   1      -2.920   1.513  -1.344  0.00  0.00    -0.258 OA
ENDROOT
BRANCH   1   3
ATOM      3  O   UNL d   1      -0.868   0.629  -0.781  0.00  0.00    -0.194 OA
BRANCH   3   4
ATOM      4  N   UNL d   1      -1.119   0.857   0.593  0.00  0.00    -0.245 N 
ATOM      5  C   UNL d   1      -1.154  -0.241   1.296  0.00  0.00     0.116 C 
ATOM      6  HN  UNL d   1      -1.257   1.785   0.992  1.00  0.00     0.196 HD
BRANCH   5   7
ATOM      7  C   UNL d   1      -1.264  -0.044   2.743  0.00  0.00     0.044 A 
ATOM      8  S   UNL d   1      -1.270  -1.386   3.812  0.00  0.00    -0.099 SA
ATOM      9  C   UNL d   1      -1.342  -0.377   5.193  0.00  0.00     0.050 A 
ATOM     10  C   UNL d   1      -1.385   0.956   4.855  0.00  0.00     0.009 A 
ATOM     11  C   UNL d   1      -1.349   1.147   3.444  0.00  0.00     0.023 A 
ENDBRANCH   5   7
BRANCH   5  12
ATOM     12  N   UNL d   1      -1.106  -1.491   0.720  0.00  0.00    -0.286 NA
ATOM     13  H   UNL d   1      -1.521  -2.222   1.286  0.00  0.00     0.125 HD
ATOM     14  H   UNL d   1      -1.441  -1.492  -0.236  0.00  0.00     0.125 HD
ENDBRANCH   5  12
ENDBRANCH   3   4
ENDBRANCH   1   3
BRANCH   1  15
ATOM     15  C   UNL d   1      -1.011   2.212  -2.547  0.00  0.00     0.085 C 
ATOM     16  C   UNL d   1       0.318   2.289  -2.741  0.00  0.00     0.017 C 
BRANCH  16  17
ATOM     17  C   UNL d   1       0.938   3.232  -3.694  0.00  0.00    -0.036 A 
ATOM     18  C   UNL d   1       0.400   4.505  -3.938  0.00  0.00     0.014 A 
ATOM     19  C   UNL d   1       1.032   5.414  -4.799  0.00  0.00     0.038 A 
ATOM     20  C   UNL d   1       2.207   5.058  -5.451  0.00  0.00     0.078 A 
ATOM     21  C   UNL d   1       2.780   3.814  -5.173  0.00  0.00     0.038 A 
ATOM     22  C   UNL d   1       2.154   2.909  -4.305  0.00  0.00     0.014 A 
BRANCH  20  23
ATOM     23  O   UNL d   1       2.921   5.845  -6.301  0.00  0.00    -0.255 OA
BRANCH  23  24
ATOM     24  C   UNL d   1       2.241   6.764  -7.149  0.00  0.00     0.530 C 
ATOM     25  F   UNL d   1       0.896   6.668  -7.112  0.00  0.00    -0.144 F 
ATOM     26  F   UNL d   1       2.596   8.024  -6.816  0.00  0.00    -0.144 F 
ATOM     27  F   UNL d   1       2.635   6.541  -8.423  0.00  0.00    -0.144 F 
ENDBRANCH  23  24
ENDBRANCH  20  23
ENDBRANCH  16  17
ENDBRANCH   1  15
TORSDOF 8
