REMARK  2 active torsions:
REMARK  status: ('A' for Active; 'I' for Inactive)
REMARK    1  A    between atoms: C_2  and  S_1 
REMARK    2  A    between atoms: N_3  and  S_1 
ROOT
ATOM      1  S   UNL d   1       1.051  -0.199   0.062  0.00  0.00     0.249 S 
ATOM      2  O   UNL d   1       0.533   0.120  -1.254  0.00  0.00    -0.205 OA
ATOM      3  O   UNL d   1       2.484  -0.223   0.259  0.00  0.00    -0.205 OA
ENDROOT
BRANCH   1   4
ATOM      4  C   UNL d   1       0.397  -1.762   0.514  0.00  0.00     0.151 A 
ATOM      5  C   UNL d   1      -0.932  -2.064   0.242  0.00  0.00     0.142 A 
ATOM      6  F   UNL d   1      -1.763  -1.156  -0.288  0.00  0.00    -0.204 F 
ATOM      7  C   UNL d   1      -1.450  -3.336   0.493  0.00  0.00     0.044 A 
ATOM      8  C   UNL d   1      -0.616  -4.345   0.965  0.00  0.00     0.006 A 
ATOM      9  C   UNL d   1       0.729  -4.065   1.194  0.00  0.00     0.044 A 
ATOM     10  C   UNL d   1       1.228  -2.778   0.975  0.00  0.00     0.142 A 
ATOM     11  F   UNL d   1       2.534  -2.586   1.196  0.00  0.00    -0.204 F 
ENDBRANCH   1   4
BRANCH   1  12
ATOM     12  N   UNL d   1       0.440   0.947   1.187  0.00  0.00    -0.202 NA
ATOM     13  C   UNL d   1      -1.027   1.264   1.178  0.00  0.00     0.134 C 
ATOM     14  C   UNL d   1      -1.414   2.147  -0.016  0.00  0.00     0.183 C 
ATOM     15  O   UNL d   1      -0.663   3.371  -0.010  0.00  0.00    -0.389 OA
ATOM     16  C   UNL d   1       0.749   3.115  -0.044  0.00  0.00     0.183 C 
ATOM     17  C   UNL d   1       1.187   2.261   1.156  0.00  0.00     0.134 C 
ENDBRANCH   1  12
TORSDOF 2
