REMARK  6 active torsions:
REMARK  status: ('A' for Active; 'I' for Inactive)
REMARK    1  A    between atoms: C_7  and  C_1 
REMARK    2  A    between atoms: N_5  and  C_2 
REMARK       I    between atoms: C_3  and  N_5 
REMARK    3  A    between atoms: C_4  and  C_3 
REMARK    4  A    between atoms: O_14  and  C_7 
REMARK    5  A    between atoms: O_16  and  C_9 
REMARK    6  A    between atoms: O_17  and  C_10 
ROOT
ATOM      1  C   UNL d   1       1.001  -0.142   0.039  0.00  0.00     0.063 C 
ATOM      2  C   UNL d   1       0.297  -1.222  -0.515  0.00  0.00     0.034 C 
ATOM      3  C   UNL d   1       0.325   1.064   0.270  0.00  0.00     0.059 C 
ATOM      4  C   UNL d   1      -1.109  -1.143  -0.578  0.00  0.00     0.064 C 
ATOM      5  C   UNL d   1      -1.058   1.181   0.095  0.00  0.00     0.102 C 
ATOM      6  C   UNL d   1      -1.792   0.047  -0.284  0.00  0.00     0.103 C 
ENDROOT
BRANCH   2   7
ATOM      7  N   UNL d   1       0.893  -2.447  -0.934  0.00  0.00    -0.224 NA
ATOM      8  C   UNL d   1       1.729  -2.502  -2.051  0.00  0.00     0.236 C 
ATOM      9  O   UNL d   1       2.922  -2.729  -1.837  0.00  0.00    -0.274 OA
ATOM     10  H   UNL d   1       1.585  -2.684  -0.208  0.00  0.00     0.137 HD
BRANCH   8  11
ATOM     11  C   UNL d   1       1.260  -2.622  -3.481  0.00  0.00     0.044 A 
ATOM     12  C   UNL d   1       0.310  -1.880  -4.196  0.00  0.00     0.026 A 
ATOM     13 BR   UNL d   1      -0.577  -0.322  -3.604  0.00  0.00    -0.050 Br
ATOM     14  C   UNL d   1       0.064  -2.151  -5.562  0.00  0.00     0.020 A 
ATOM     15  C   UNL d   1       0.815  -3.088  -6.265  0.00  0.00     0.001 A 
ATOM     16  C   UNL d   1       1.808  -3.785  -5.601  0.00  0.00     0.001 A 
ATOM     17  C   UNL d   1       2.007  -3.570  -4.231  0.00  0.00     0.018 A 
ENDBRANCH   8  11
ENDBRANCH   2   7
BRANCH   1  18
ATOM     18  C   UNL d   1       2.373  -0.303   0.596  0.00  0.00     0.294 C 
ATOM     19  O   UNL d   1       2.848  -1.390   0.888  0.00  0.00    -0.259 OA
BRANCH  18  20
ATOM     20  O   UNL d   1       2.894   0.912   0.902  0.00  0.00    -0.322 OA
ATOM     21  C   UNL d   1       3.937   0.918   1.881  0.00  0.00     0.213 C 
ENDBRANCH  18  20
ENDBRANCH   1  18
BRANCH   6  22
ATOM     22  O   UNL d   1      -3.153   0.169  -0.394  0.00  0.00    -0.353 OA
ATOM     23  C   UNL d   1      -3.916  -1.023  -0.524  0.00  0.00     0.210 C 
ENDBRANCH   6  22
BRANCH   5  24
ATOM     24  O   UNL d   1      -1.491   2.452   0.359  0.00  0.00    -0.353 OA
ATOM     25  C   UNL d   1      -2.882   2.717   0.401  0.00  0.00     0.210 C 
ENDBRANCH   5  24
TORSDOF 6
