REMARK  6 active torsions:
REMARK  status: ('A' for Active; 'I' for Inactive)
REMARK       I    between atoms: N_3  and  C_1 
REMARK    1  A    between atoms: C_6  and  C_1 
REMARK       I    between atoms: C_2  and  N_7 
REMARK    2  A    between atoms: C_9  and  C_2 
REMARK    3  A    between atoms: N_7  and  N_3 
REMARK    4  A    between atoms: C_5  and  C_16 
REMARK    5  A    between atoms: O_18  and  C_9 
REMARK    6  A    between atoms: N_10  and  O_18 
ROOT
ATOM      1  C   UNL d   1       0.372  -2.898  -2.265  0.00  0.00     0.262 C 
ATOM      2  N   UNL d   1       0.961  -1.984  -1.413  0.00  0.00    -0.265 N 
ATOM      3  O   UNL d   1       1.038  -3.680  -2.945  0.00  0.00    -0.269 OA
ATOM      4  H   UNL d   1       0.455  -1.229  -0.949  0.00  0.00     0.190 HD
ENDROOT
BRANCH   1   5
ATOM      5  C   UNL d   1      -1.151  -2.864  -2.265  0.00  0.00     0.305 C 
BRANCH   5   6
ATOM      6  O   UNL d   1      -1.632  -2.655  -3.586  0.00  0.00    -0.272 OA
BRANCH   6   7
ATOM      7  N   UNL d   1      -3.039  -2.649  -3.557  0.00  0.00    -0.277 N 
ATOM      8  C   UNL d   1      -3.481  -2.492  -4.767  0.00  0.00     0.127 C 
ATOM      9  HN  UNL d   1      -3.616  -2.751  -2.722  1.00  0.00     0.193 HD
BRANCH   8  10
ATOM     10  C   UNL d   1      -4.929  -2.448  -5.072  0.00  0.00     0.003 A 
ATOM     11  C   UNL d   1      -5.402  -2.238  -6.376  0.00  0.00     0.047 A 
ATOM     12  C   UNL d   1      -6.779  -2.189  -6.624  0.00  0.00     0.048 A 
ATOM     13 CL   UNL d   1      -4.354  -2.027  -7.733  0.00  0.00    -0.083 Cl
ATOM     14  C   UNL d   1      -7.681  -2.353  -5.576  0.00  0.00     0.035 A 
ATOM     15  C   UNL d   1      -7.224  -2.570  -4.279  0.00  0.00     0.025 A 
ATOM     16 CL   UNL d   1      -9.372  -2.285  -5.885  0.00  0.00    -0.084 Cl
ATOM     17  C   UNL d   1      -5.850  -2.618  -4.026  0.00  0.00     0.016 A 
ENDBRANCH   8  10
ENDBRANCH   6   7
ENDBRANCH   5   6
ENDBRANCH   1   5
BRANCH   2  18
ATOM     18  N   UNL d   1       2.358  -1.888  -1.395  0.00  0.00    -0.263 N 
ATOM     19  C   UNL d   1       2.928  -0.935  -0.577  0.00  0.00     0.270 C 
ATOM     20  O   UNL d   1       2.259  -0.152   0.092  0.00  0.00    -0.266 OA
ATOM     21  H   UNL d   1       2.869  -2.647  -1.845  0.00  0.00     0.190 HD
BRANCH  19  22
ATOM     22  C   UNL d   1       4.413  -0.907  -0.511  0.00  0.00     0.035 A 
ATOM     23  C   UNL d   1       5.013  -0.440   0.665  0.00  0.00     0.041 A 
ATOM     24  C   UNL d   1       6.400  -0.383   0.759  0.00  0.00     0.035 A 
ATOM     25 CL   UNL d   1       7.138   0.178   2.209  0.00  0.00    -0.084 Cl
ATOM     26  C   UNL d   1       7.200  -0.777  -0.313  0.00  0.00     0.024 A 
ATOM     27  C   UNL d   1       6.606  -1.231  -1.492  0.00  0.00     0.003 A 
ATOM     28  C   UNL d   1       5.213  -1.297  -1.594  0.00  0.00     0.017 A 
ENDBRANCH  19  22
ENDBRANCH   2  18
TORSDOF 6
