REMARK  6 active torsions:
REMARK  status: ('A' for Active; 'I' for Inactive)
REMARK    1  A    between atoms: C_2  and  C_1 
REMARK    2  A    between atoms: N_6  and  C_1 
REMARK    3  A    between atoms: O_11  and  N_3 
REMARK    4  A    between atoms: O_7  and  C_12 
REMARK    5  A    between atoms: C_8  and  O_7 
REMARK    6  A    between atoms: C_12  and  C_9 
ROOT
ATOM      1  C   UNL d   1       2.490   0.112  -0.114  0.00  0.00     0.004 A 
ATOM      2  C   UNL d   1       3.157  -0.952  -0.735  0.00  0.00     0.024 A 
ATOM      3  C   UNL d   1       4.555  -0.947  -0.845  0.00  0.00    -0.033 A 
ATOM      4  C   UNL d   1       3.219   1.185   0.407  0.00  0.00     0.015 A 
ATOM      5  C   UNL d   1       4.611   1.192   0.312  0.00  0.00     0.002 A 
ATOM      6  C   UNL d   1       5.274   0.135  -0.313  0.00  0.00     0.009 A 
ENDROOT
BRANCH   3   7
ATOM      7  C   UNL d   1       5.274  -2.067  -1.557  0.00  0.00     0.214 C 
BRANCH   7   8
ATOM      8  O   UNL d   1       6.204  -2.654  -0.650  0.00  0.00    -0.347 OA
BRANCH   8   9
ATOM      9  C   UNL d   1       6.987  -3.667  -1.125  0.00  0.00     0.069 A 
ATOM     10  C   UNL d   1       6.936  -4.219  -2.406  0.00  0.00     0.038 A 
ATOM     11  C   UNL d   1       7.803  -5.261  -2.756  0.00  0.00     0.026 A 
ATOM     12  C   UNL d   1       8.719  -5.748  -1.825  0.00  0.00     0.034 A 
ATOM     13  C   UNL d   1       8.775  -5.204  -0.545  0.00  0.00     0.026 A 
ATOM     14 CL   UNL d   1       9.783  -7.028  -2.259  0.00  0.00    -0.084 Cl
ATOM     15  C   UNL d   1       7.908  -4.167  -0.199  0.00  0.00     0.038 A 
ENDBRANCH   8   9
ENDBRANCH   7   8
ENDBRANCH   3   7
BRANCH   1  16
ATOM     16  C   UNL d   1       0.999   0.112  -0.042  0.00  0.00     0.108 C 
ATOM     17  N   UNL d   1       0.375   1.255  -0.002  0.00  0.00    -0.258 N 
ATOM     18  HN  UNL d   1       0.834   2.166  -0.013  1.00  0.00     0.195 HD
BRANCH  17  19
ATOM     19  O   UNL d   1      -1.016   1.065   0.057  0.00  0.00    -0.289 OA
ATOM     20  H   UNL d   1      -1.347   1.971  -0.082  0.00  0.00     0.244 HD
ENDBRANCH  17  19
BRANCH  16  21
ATOM     21  N   UNL d   1       0.331  -1.091  -0.022  0.00  0.00    -0.287 NA
ATOM     22  H   UNL d   1       0.752  -1.798   0.568  0.00  0.00     0.125 HD
ATOM     23  H   UNL d   1      -0.644  -0.925   0.221  0.00  0.00     0.125 HD
ENDBRANCH  16  21
ENDBRANCH   1  16
TORSDOF 6
