REMARK  3 active torsions:
REMARK  status: ('A' for Active; 'I' for Inactive)
REMARK    1  A    between atoms: N_3  and  C_1 
REMARK    2  A    between atoms: N_10  and  C_2 
REMARK    3  A    between atoms: C_11  and  C_9 
ROOT
ATOM      1  C   UNL d   1       0.538   1.163   0.139  0.00  0.00     0.145 C 
ATOM      2  C   UNL d   1      -0.416   0.517   0.855  0.00  0.00     0.125 C 
ATOM      3  C   UNL d   1       1.405   0.421  -0.738  0.00  0.00     0.120 C 
ATOM      4  C   UNL d   1      -0.585  -0.906   0.787  0.00  0.00     0.114 C 
ATOM      5  N   UNL d   1       2.135  -0.145  -1.442  0.00  0.00    -0.190 NA
ATOM      6  N   UNL d   1      -0.756  -2.053   0.731  0.00  0.00    -0.190 NA
ENDROOT
BRANCH   1   7
ATOM      7  N   UNL d   1       0.593   2.551   0.218  0.00  0.00    -0.355 N 
ATOM      8  C   UNL d   1       1.751   3.123   0.102  0.00  0.00     0.100 C 
ATOM      9  HN  UNL d   1      -0.252   3.103   0.363  1.00  0.00     0.166 HD
BRANCH   8  10
ATOM     10  C   UNL d   1       1.892   4.593   0.199  0.00  0.00    -0.021 A 
ATOM     11  C   UNL d   1       0.781   5.397   0.470  0.00  0.00     0.014 A 
ATOM     12  C   UNL d   1       0.933   6.781   0.585  0.00  0.00     0.024 A 
ATOM     13  C   UNL d   1       2.195   7.353   0.426  0.00  0.00     0.034 A 
ATOM     14  C   UNL d   1       3.305   6.555   0.149  0.00  0.00     0.024 A 
ATOM     15 CL   UNL d   1       2.382   9.056   0.577  0.00  0.00    -0.084 Cl
ATOM     16  C   UNL d   1       3.157   5.169   0.035  0.00  0.00     0.014 A 
ENDBRANCH   8  10
ENDBRANCH   1   7
BRANCH   2  17
ATOM     17  N   UNL d   1      -1.324   1.161   1.702  0.00  0.00    -0.291 NA
ATOM     18  H   UNL d   1      -1.358   2.161   1.497  0.00  0.00     0.125 HD
ATOM     19  H   UNL d   1      -2.246   0.728   1.715  0.00  0.00     0.125 HD
ENDBRANCH   2  17
TORSDOF 3
