REMARK  6 active torsions:
REMARK  status: ('A' for Active; 'I' for Inactive)
REMARK    1  A    between atoms: C_12  and  N_3 
REMARK    2  A    between atoms: C_8  and  C_4 
REMARK       I    between atoms: N_10  and  C_8 
REMARK    3  A    between atoms: C_9  and  N_11 
REMARK    4  A    between atoms: N_13  and  C_9 
REMARK    5  A    between atoms: N_11  and  N_10 
REMARK    6  A    between atoms: C_16  and  N_13 
ROOT
ATOM      1  C   UNL d   1      -2.459   0.062  -0.178  0.00  0.00     0.290 C 
ATOM      2  N   UNL d   1      -3.088   1.245  -0.508  0.00  0.00    -0.262 N 
ATOM      3  O   UNL d   1      -3.049  -1.013  -0.067  0.00  0.00    -0.264 OA
ATOM      4  H   UNL d   1      -2.524   2.080  -0.653  0.00  0.00     0.190 HD
ENDROOT
BRANCH   1   5
ATOM      5  C   UNL d   1      -1.015   0.223  -0.014  0.00  0.00     0.143 A 
ATOM      6  N   UNL d   1      -0.364   1.313  -0.472  0.00  0.00    -0.272 N 
ATOM      7  N   UNL d   1       0.932   1.038  -0.159  0.00  0.00    -0.196 N 
ATOM      8  HN  UNL d   1      -0.746   2.137  -0.936  1.00  0.00     0.189 HD
ATOM      9  N   UNL d   1       1.151  -0.145   0.466  0.00  0.00    -0.281 N 
ATOM     10  C   UNL d   1      -0.082  -0.649   0.591  0.00  0.00     0.057 A 
ATOM     11  HN  UNL d   1       2.037  -0.551   0.767  1.00  0.00     0.189 HD
ATOM     12  C   UNL d   1      -0.292  -1.917   1.323  0.00  0.00     0.072 C 
BRANCH   7  13
ATOM     13  C   UNL d   1       1.987   1.953  -0.417  0.00  0.00     0.074 A 
ATOM     14  C   UNL d   1       1.716   3.215  -0.967  0.00  0.00     0.033 A 
ATOM     15  C   UNL d   1       2.756   4.129  -1.155  0.00  0.00     0.002 A 
ATOM     16  C   UNL d   1       4.064   3.785  -0.810  0.00  0.00     0.000 A 
ATOM     17  C   UNL d   1       4.341   2.523  -0.287  0.00  0.00     0.002 A 
ATOM     18  C   UNL d   1       3.307   1.606  -0.090  0.00  0.00     0.033 A 
ENDBRANCH   7  13
ENDBRANCH   1   5
BRANCH   2  19
ATOM     19  N   UNL d   1      -4.420   1.261  -0.928  0.00  0.00    -0.273 N 
ATOM     20  H   UNL d   1      -4.771   0.386  -1.316  0.00  0.00     0.189 HD
BRANCH  19  21
ATOM     21  C   UNL d   1      -5.342   2.081  -0.337  0.00  0.00     0.191 C 
ATOM     22  S   UNL d   1      -5.129   2.880   1.122  0.00  0.00    -0.039 SA
BRANCH  21  23
ATOM     23  N   UNL d   1      -6.526   2.274  -0.997  0.00  0.00    -0.332 N 
ATOM     24  H   UNL d   1      -7.214   2.748  -0.420  0.00  0.00     0.168 HD
BRANCH  23  25
ATOM     25  C   UNL d   1      -6.821   2.242  -2.380  0.00  0.00     0.034 A 
ATOM     26  C   UNL d   1      -5.902   1.932  -3.387  0.00  0.00     0.031 A 
ATOM     27  C   UNL d   1      -6.258   2.036  -4.738  0.00  0.00     0.026 A 
ATOM     28  C   UNL d   1      -7.532   2.465  -5.091  0.00  0.00     0.034 A 
ATOM     29  C   UNL d   1      -8.462   2.771  -4.104  0.00  0.00     0.026 A 
ATOM     30 CL   UNL d   1      -7.946   2.643  -6.750  0.00  0.00    -0.084 Cl
ATOM     31  C   UNL d   1      -8.109   2.654  -2.755  0.00  0.00     0.031 A 
ENDBRANCH  23  25
ENDBRANCH  21  23
ENDBRANCH  19  21
ENDBRANCH   2  19
TORSDOF 6
