REMARK  1 active torsions:
REMARK  status: ('A' for Active; 'I' for Inactive)
REMARK    1  A    between atoms: C_7  and  C_4 
ROOT
ATOM      1  C   UNL d   1       1.217  -1.412   0.028  0.00  0.00     0.189 C 
ATOM      2  C   UNL d   1       2.244  -0.705  -0.786  0.00  0.00    -0.006 C 
ATOM      3  C   UNL d   1      -0.136  -0.795   0.067  0.00  0.00     0.021 A 
ATOM      4  C   UNL d   1       2.600  -1.326  -1.927  0.00  0.00     0.022 C 
ATOM      5  O   UNL d   1       1.428  -2.513   0.516  0.00  0.00    -0.287 OA
ATOM      6  C   UNL d   1      -0.364   0.558   0.373  0.00  0.00    -0.044 A 
ATOM      7  C   UNL d   1       2.804   0.586  -0.262  0.00  0.00     0.043 C 
ATOM      8  C   UNL d   1      -1.211  -1.631  -0.269  0.00  0.00     0.016 A 
ATOM      9  C   UNL d   1       1.790   1.723  -0.219  0.00  0.00     0.009 C 
ATOM     10  C   UNL d   1       0.725   1.486   0.842  0.00  0.00     0.040 C 
ATOM     11  C   UNL d   1      -1.674   1.058   0.278  0.00  0.00     0.008 A 
ATOM     12  C   UNL d   1      -2.506  -1.118  -0.356  0.00  0.00     0.001 A 
ATOM     13  C   UNL d   1      -2.734   0.230  -0.096  0.00  0.00     0.001 A 
ENDROOT
BRANCH   4  14
ATOM     14  C   UNL d   1       3.520  -0.705  -2.881  0.00  0.00    -0.035 A 
ATOM     15  C   UNL d   1       4.904  -0.861  -2.752  0.00  0.00     0.013 A 
ATOM     16  C   UNL d   1       5.766  -0.105  -3.551  0.00  0.00     0.024 A 
ATOM     17  C   UNL d   1       5.242   0.794  -4.479  0.00  0.00     0.034 A 
ATOM     18  C   UNL d   1       3.864   0.924  -4.640  0.00  0.00     0.024 A 
ATOM     19 CL   UNL d   1       6.303   1.778  -5.410  0.00  0.00    -0.084 Cl
ATOM     20  C   UNL d   1       3.002   0.172  -3.842  0.00  0.00     0.013 A 
ENDBRANCH   4  14
TORSDOF 1
