REMARK  4 active torsions:
REMARK  status: ('A' for Active; 'I' for Inactive)
REMARK    1  A    between atoms: C_8  and  C_1 
REMARK    2  A    between atoms: N_7  and  C_2 
REMARK    3  A    between atoms: C_11  and  C_3 
REMARK       I    between atoms: C_9  and  N_7 
REMARK       I    between atoms: N_10  and  C_9 
REMARK    4  A    between atoms: C_12  and  N_10 
ROOT
ATOM      1  C   UNL d   1       1.736   0.595   0.435  0.00  0.00     0.147 C 
ATOM      2  C   UNL d   1       0.378  -1.167   0.531  0.00  0.00     0.139 C 
ATOM      3  C   UNL d   1       1.695  -0.829   0.243  0.00  0.00     0.053 C 
ATOM      4  N   UNL d   1       0.601   1.028   1.023  0.00  0.00    -0.292 N 
ATOM      5  HN  UNL d   1       0.385   1.976   1.332  1.00  0.00     0.187 HD
ATOM      6  N   UNL d   1      -0.183  -0.058   1.113  0.00  0.00    -0.280 N 
ATOM      7  C   UNL d   1      -1.521   0.113   1.628  0.00  0.00     0.179 C 
ENDROOT
BRANCH   2   8
ATOM      8  N   UNL d   1      -0.250  -2.295   0.054  0.00  0.00    -0.292 N 
ATOM      9  C   UNL d   1      -1.185  -3.185   0.623  0.00  0.00     0.326 C 
ATOM     10  N   UNL d   1      -1.275  -3.195   1.982  0.00  0.00    -0.306 N 
ATOM     11  O   UNL d   1      -1.792  -3.839  -0.201  0.00  0.00    -0.247 OA
ATOM     12  H   UNL d   1      -0.854  -2.458   2.518  0.00  0.00     0.171 HD
ATOM     13  H   UNL d   1      -0.125  -2.488  -0.933  0.00  0.00     0.172 HD
BRANCH  10  14
ATOM     14  C   UNL d   1      -2.119  -4.112   2.653  0.00  0.00     0.075 A 
ATOM     15  C   UNL d   1      -2.336  -5.424   2.190  0.00  0.00     0.146 A 
ATOM     16  C   UNL d   1      -3.263  -6.263   2.793  0.00  0.00     0.086 A 
ATOM     17  F   UNL d   1      -1.588  -5.925   1.196  0.00  0.00    -0.204 F 
ATOM     18  C   UNL d   1      -3.974  -5.792   3.883  0.00  0.00     0.119 A 
ATOM     19  C   UNL d   1      -3.733  -4.521   4.403  0.00  0.00     0.044 A 
ATOM     20  F   UNL d   1      -4.903  -6.570   4.450  0.00  0.00    -0.206 F 
ATOM     21  C   UNL d   1      -2.784  -3.685   3.805  0.00  0.00     0.036 A 
ENDBRANCH  10  14
ENDBRANCH   2   8
BRANCH   3  22
ATOM     22  C   UNL d   1       2.773  -1.777  -0.070  0.00  0.00    -0.020 A 
ATOM     23  C   UNL d   1       2.585  -2.947  -0.820  0.00  0.00     0.014 A 
ATOM     24  C   UNL d   1       3.604  -3.900  -0.950  0.00  0.00     0.020 A 
ATOM     25  C   UNL d   1       4.843  -3.678  -0.361  0.00  0.00     0.011 A 
ATOM     26  C   UNL d   1       5.071  -2.508   0.352  0.00  0.00     0.020 A 
ATOM     27 BR   UNL d   1       6.206  -4.974  -0.516  0.00  0.00    -0.051 Br
ATOM     28  C   UNL d   1       4.040  -1.573   0.507  0.00  0.00     0.014 A 
ENDBRANCH   3  22
BRANCH   1  29
ATOM     29  C   UNL d   1       2.830   1.565   0.045  0.00  0.00     0.434 C 
ATOM     30  F   UNL d   1       3.752   1.005  -0.781  0.00  0.00    -0.165 F 
ATOM     31  F   UNL d   1       2.339   2.645  -0.620  0.00  0.00    -0.165 F 
ATOM     32  F   UNL d   1       3.507   2.031   1.126  0.00  0.00    -0.165 F 
ENDBRANCH   1  29
TORSDOF 4
