REMARK  13 active torsions:
REMARK  status: ('A' for Active; 'I' for Inactive)
REMARK    1  A    between atoms: S_8  and  C_2 
REMARK    2  A    between atoms: N_9  and  C_3 
REMARK    3  A    between atoms: C_10  and  S_8 
REMARK    4  A    between atoms: C_11  and  C_10 
REMARK    5  A    between atoms: C_19  and  C_11 
REMARK    6  A    between atoms: C_12  and  C_13 
REMARK    7  A    between atoms: C_13  and  C_18 
REMARK    8  A    between atoms: C_14  and  C_20 
REMARK    9  A    between atoms: C_15  and  C_14 
REMARK   10  A    between atoms: C_16  and  C_15 
REMARK   11  A    between atoms: C_17  and  C_16 
REMARK   12  A    between atoms: C_18  and  C_17 
REMARK   13  A    between atoms: C_20  and  C_19 
ROOT
ATOM      1  C   UNL d   1       4.265   0.659  -0.072  0.00  0.00     0.081 C 
ENDROOT
BRANCH   1   2
ATOM      2  S   UNL d   1       3.212  -0.821  -0.055  0.00  0.00    -0.103 SA
BRANCH   2   3
ATOM      3  C   UNL d   1       1.597  -0.156  -0.016  0.00  0.00     0.130 A 
ATOM      4  S   UNL d   1       0.212  -1.169   0.021  0.00  0.00    -0.027 SA
ATOM      5  C   UNL d   1      -0.748   0.254   0.065  0.00  0.00     0.159 A 
ATOM      6  N   UNL d   1      -0.042   1.366   0.028  0.00  0.00    -0.279 N 
ATOM      7  N   UNL d   1       1.325   1.130  -0.014  0.00  0.00    -0.286 N 
ATOM      8  HN  UNL d   1      -0.455   2.299   0.029  1.00  0.00     0.189 HD
ATOM      9  HN  UNL d   1       2.032   1.864  -0.039  1.00  0.00     0.188 HD
BRANCH   5  10
ATOM     10  N   UNL d   1      -2.086   0.191   0.136  0.00  0.00    -0.379 N 
ATOM     11  H   UNL d   1      -2.574  -0.682  -0.031  0.00  0.00     0.158 HD
ATOM     12  H   UNL d   1      -2.625   1.037  -0.012  0.00  0.00     0.158 HD
ENDBRANCH   5  10
ENDBRANCH   2   3
ENDBRANCH   1   2
BRANCH   1  13
ATOM     13  C   UNL d   1       5.727   0.202  -0.104  0.00  0.00     0.010 C 
BRANCH  13  14
ATOM     14  C   UNL d   1       6.698   1.383  -0.121  0.00  0.00     0.001 C 
BRANCH  14  15
ATOM     15  C   UNL d   1       8.148   0.895  -0.152  0.00  0.00     0.000 C 
BRANCH  15  16
ATOM     16  C   UNL d   1       9.119   2.071  -0.169  0.00  0.00     0.000 C 
BRANCH  16  17
ATOM     17  C   UNL d   1      10.565   1.585  -0.200  0.00  0.00     0.000 C 
BRANCH  17  18
ATOM     18  C   UNL d   1      11.528   2.767  -0.215  0.00  0.00     0.000 C 
BRANCH  18  19
ATOM     19  C   UNL d   1      12.973   2.286  -0.246  0.00  0.00     0.000 C 
BRANCH  19  20
ATOM     20  C   UNL d   1      13.934   3.469  -0.261  0.00  0.00     0.000 C 
BRANCH  20  21
ATOM     21  C   UNL d   1      15.380   2.985  -0.292  0.00  0.00    -0.000 C 
BRANCH  21  22
ATOM     22  C   UNL d   1      16.351   4.161  -0.305  0.00  0.00    -0.005 C 
ATOM     23  C   UNL d   1      17.788   3.675  -0.336  0.00  0.00     0.005 C 
ENDBRANCH  21  22
ENDBRANCH  20  21
ENDBRANCH  19  20
ENDBRANCH  18  19
ENDBRANCH  17  18
ENDBRANCH  16  17
ENDBRANCH  15  16
ENDBRANCH  14  15
ENDBRANCH  13  14
ENDBRANCH   1  13
TORSDOF 13
