REMARK  4 active torsions:
REMARK  status: ('A' for Active; 'I' for Inactive)
REMARK    1  A    between atoms: C_14  and  C_4 
REMARK       I    between atoms: C_6  and  N_10 
REMARK    2  A    between atoms: N_10  and  C_13 
REMARK    3  A    between atoms: O_15  and  C_11 
REMARK    4  A    between atoms: C_13  and  C_14 
ROOT
ATOM      1  N   UNL d   1      -2.136   0.779   0.022  0.00  0.00    -0.365 N 
ATOM      2  C   UNL d   1      -0.453  -0.681  -0.034  0.00  0.00     0.001 A 
ATOM      3  C   UNL d   1      -2.700  -0.465   0.017  0.00  0.00     0.096 A 
ATOM      4  C   UNL d   1      -1.692  -1.410  -0.040  0.00  0.00    -0.029 A 
ATOM      5  C   UNL d   1      -0.767   0.680  -0.003  0.00  0.00     0.043 A 
ATOM      6  C   UNL d   1       0.910  -1.047  -0.044  0.00  0.00     0.050 A 
ATOM      7  C   UNL d   1       0.203   1.690   0.009  0.00  0.00     0.033 A 
ATOM      8  C   UNL d   1       1.884  -0.044  -0.025  0.00  0.00     0.066 A 
ATOM      9  C   UNL d   1       1.545   1.304  -0.002  0.00  0.00     0.039 A 
ATOM     10  H   UNL d   1      -2.648   1.650   0.056  0.00  0.00     0.165 HD
ENDROOT
BRANCH   4  11
ATOM     11  C   UNL d   1      -1.871  -2.905  -0.061  0.00  0.00     0.060 C 
BRANCH  11  12
ATOM     12  C   UNL d   1      -3.123  -3.350  -0.830  0.00  0.00     0.127 C 
BRANCH  12  13
ATOM     13  N   UNL d   1      -3.348  -4.784  -0.800  0.00  0.00    -0.361 N 
ATOM     14  C   UNL d   1      -4.103  -5.371   0.191  0.00  0.00     0.213 C 
ATOM     15  O   UNL d   1      -4.550  -4.762   1.156  0.00  0.00    -0.274 OA
ATOM     16  C   UNL d   1      -4.366  -6.839  -0.014  0.00  0.00     0.117 C 
ATOM     17  H   UNL d   1      -2.990  -5.346  -1.561  0.00  0.00     0.162 HD
ENDBRANCH  12  13
ENDBRANCH  11  12
ENDBRANCH   4  11
BRANCH   8  18
ATOM     18  O   UNL d   1       3.195  -0.436  -0.029  0.00  0.00    -0.361 OA
ATOM     19  H   UNL d   1       3.753   0.358   0.014  0.00  0.00     0.217 HD
ENDBRANCH   8  18
TORSDOF 4
