REMARK  4 active torsions:
REMARK  status: ('A' for Active; 'I' for Inactive)
REMARK    1  A    between atoms: N_7  and  C_1 
REMARK    2  A    between atoms: C_13  and  N_2 
REMARK    3  A    between atoms: C_9  and  C_6 
REMARK       I    between atoms: C_8  and  N_7 
REMARK    4  A    between atoms: C_12  and  C_8 
ROOT
ATOM      1  C   UNL d   1      -0.246  -0.948  -0.038  0.00  0.00     0.132 C 
ATOM      2  N   UNL d   1       1.075  -0.651   0.289  0.00  0.00    -0.240 N 
ATOM      3  N   UNL d   1       1.223   0.654   0.604  0.00  0.00    -0.296 N 
ATOM      4  HN  UNL d   1       1.988   1.101   1.110  1.00  0.00     0.187 HD
ATOM      5  C   UNL d   1      -0.814   0.263  -0.367  0.00  0.00     0.077 C 
ATOM      6  C   UNL d   1       0.123   1.220   0.091  0.00  0.00     0.034 C 
ENDROOT
BRANCH   1   7
ATOM      7  N   UNL d   1      -0.743  -2.243   0.026  0.00  0.00    -0.311 N 
ATOM      8  C   UNL d   1      -1.610  -2.765  -0.918  0.00  0.00     0.231 C 
ATOM      9  O   UNL d   1      -2.025  -2.138  -1.889  0.00  0.00    -0.272 OA
ATOM     10  H   UNL d   1      -0.220  -2.892   0.602  0.00  0.00     0.170 HD
BRANCH   8  11
ATOM     11  C   UNL d   1      -2.041  -4.231  -0.634  0.00  0.00     0.030 C 
ATOM     12  C   UNL d   1      -3.069  -4.220   0.505  0.00  0.00     0.025 C 
ATOM     13  C   UNL d   1      -2.688  -4.829  -1.895  0.00  0.00     0.025 C 
ATOM     14  C   UNL d   1      -0.857  -5.138  -0.244  0.00  0.00     0.025 C 
ENDBRANCH   8  11
ENDBRANCH   1   7
BRANCH   2  15
ATOM     15  C   UNL d   1       2.211  -1.502   0.179  0.00  0.00     0.058 A 
ATOM     16  C   UNL d   1       2.195  -2.584  -0.716  0.00  0.00     0.031 A 
ATOM     17  C   UNL d   1       3.334  -3.373  -0.882  0.00  0.00     0.002 A 
ATOM     18  C   UNL d   1       4.488  -3.087  -0.156  0.00  0.00     0.000 A 
ATOM     19  C   UNL d   1       4.511  -2.002   0.725  0.00  0.00     0.002 A 
ATOM     20  C   UNL d   1       3.380  -1.200   0.885  0.00  0.00     0.031 A 
ENDBRANCH   2  15
BRANCH   6  21
ATOM     21  C   UNL d   1      -0.092   2.724   0.057  0.00  0.00     0.037 A 
ATOM     22  C   UNL d   1       1.124   3.622  -0.102  0.00  0.00     0.011 A 
ATOM     23  C   UNL d   1       0.431   3.557   1.214  0.00  0.00     0.011 A 
ENDBRANCH   6  21
TORSDOF 4
