REMARK  3 active torsions:
REMARK  status: ('A' for Active; 'I' for Inactive)
REMARK    1  A    between atoms: C_7  and  C_6 
REMARK    2  A    between atoms: C_8  and  C_9 
REMARK    3  A    between atoms: O_13  and  C_8 
ROOT
ATOM      1  C   UNL d   1      -3.863   0.359   0.063  0.00  0.00    -0.018 A 
ATOM      2  C   UNL d   1      -4.138  -0.459   1.175  0.00  0.00     0.048 A 
ATOM      3  C   UNL d   1      -4.847   0.525  -0.921  0.00  0.00     0.012 A 
ATOM      4  C   UNL d   1      -5.393  -1.081   1.299  0.00  0.00     0.019 A 
ATOM      5  C   UNL d   1      -6.085  -0.117  -0.804  0.00  0.00     0.001 A 
ATOM      6  C   UNL d   1      -6.356  -0.915   0.306  0.00  0.00     0.001 A 
ENDROOT
BRANCH   1   7
ATOM      7  C   UNL d   1      -2.566   1.019  -0.133  0.00  0.00     0.037 C 
ATOM      8  C   UNL d   1      -1.523   0.473  -0.773  0.00  0.00     0.076 A 
ATOM      9  C   UNL d   1      -1.464  -0.867  -1.425  0.00  0.00     0.264 A 
ATOM     10  S   UNL d   1       0.022   1.247  -0.902  0.00  0.00    -0.055 SA
ATOM     11  N   UNL d   1      -0.200  -1.093  -1.895  0.00  0.00    -0.307 N 
ATOM     12  O   UNL d   1      -2.381  -1.667  -1.525  0.00  0.00    -0.267 OA
ATOM     13  C   UNL d   1       0.745  -0.135  -1.690  0.00  0.00     0.146 A 
ATOM     14  H   UNL d   1       0.023  -1.968  -2.344  0.00  0.00     0.170 HD
ATOM     15  S   UNL d   1       2.329  -0.301  -2.140  0.00  0.00    -0.052 SA
ENDBRANCH   1   7
BRANCH   2  16
ATOM     16  C   UNL d   1      -3.133  -0.649   2.250  0.00  0.00     0.177 C 
ATOM     17  O   UNL d   1      -2.457   0.252   2.713  0.00  0.00    -0.646 OA
BRANCH  16  18
ATOM     18  O   UNL d   1      -3.026  -1.936   2.648  0.00  0.00    -0.773 OA
ATOM     19  H   UNL d   1      -3.512  -2.575   2.092  0.00  0.00     0.167 HD
ENDBRANCH  16  18
ENDBRANCH   2  16
TORSDOF 3
