REMARK  2 active torsions:
REMARK  status: ('A' for Active; 'I' for Inactive)
REMARK    1  A    between atoms: N_8  and  C_7 
REMARK    2  A    between atoms: C_9  and  N_8 
ROOT
ATOM      1  N   UNL d   1      -2.525   0.859  -1.542  0.00  0.00    -0.284 NA
ATOM      2  H   UNL d   1      -3.264   0.177  -1.702  0.00  0.00     0.128 HD
ENDROOT
BRANCH   1   3
ATOM      3  C   UNL d   1      -1.890   0.743  -0.231  0.00  0.00     0.098 A 
ATOM      4  C   UNL d   1      -0.372   0.894  -0.323  0.00  0.00     0.168 A 
ATOM      5  S   UNL d   1       0.328  -0.651   0.220  0.00  0.00     0.167 S 
ATOM      6  C   UNL d   1      -1.173  -1.429   0.562  0.00  0.00     0.106 A 
ATOM      7  O   UNL d   1       1.031  -0.424   1.467  0.00  0.00    -0.223 OA
ATOM      8  O   UNL d   1       0.965  -1.309  -0.901  0.00  0.00    -0.223 OA
ATOM      9  C   UNL d   1      -2.207  -0.628   0.299  0.00  0.00     0.005 A 
ENDBRANCH   1   3
BRANCH   1  10
ATOM     10  C   UNL d   1      -2.903   2.123  -2.018  0.00  0.00     0.008 A 
ATOM     11  C   UNL d   1      -2.237   3.309  -1.686  0.00  0.00     0.023 A 
ATOM     12  C   UNL d   1      -2.626   4.537  -2.233  0.00  0.00     0.002 A 
ATOM     13  C   UNL d   1      -3.678   4.597  -3.141  0.00  0.00     0.000 A 
ATOM     14  C   UNL d   1      -4.326   3.426  -3.518  0.00  0.00     0.002 A 
ATOM     15  C   UNL d   1      -3.928   2.201  -2.974  0.00  0.00     0.023 A 
ENDBRANCH   1  10
TORSDOF 2
