REMARK  3 active torsions:
REMARK  status: ('A' for Active; 'I' for Inactive)
REMARK    1  A    between atoms: C_2  and  S_1 
REMARK    2  A    between atoms: N_4  and  S_1 
REMARK    3  A    between atoms: N_11  and  C_15 
ROOT
ATOM      1  S   UNL d   1       0.988   0.067   0.180  0.00  0.00     0.246 S 
ATOM      2  O   UNL d   1       0.754  -1.199  -0.484  0.00  0.00    -0.206 OA
ATOM      3  O   UNL d   1       2.337   0.446   0.550  0.00  0.00    -0.206 OA
ENDROOT
BRANCH   1   4
ATOM      4  C   UNL d   1       0.024   0.088   1.637  0.00  0.00     0.105 A 
ATOM      5  C   UNL d   1      -1.311  -0.342   1.683  0.00  0.00     0.108 A 
ATOM      6  C   UNL d   1      -2.025  -0.466   2.953  0.00  0.00     0.086 A 
ATOM      7  N   UNL d   1      -2.155  -0.708   0.709  0.00  0.00    -0.238 N 
ATOM      8  N   UNL d   1      -3.262  -0.906   2.704  0.00  0.00    -0.239 N 
ATOM      9  C   UNL d   1      -1.431  -0.160   4.193  0.00  0.00     0.034 A 
ATOM     10  O   UNL d   1      -3.337  -1.063   1.332  0.00  0.00    -0.156 OA
ATOM     11  HN  UNL d   1      -3.999  -1.089   3.386  1.00  0.00     0.197 HD
ATOM     12  C   UNL d   1      -0.096   0.274   4.118  0.00  0.00     0.004 A 
ATOM     13  C   UNL d   1       0.608   0.389   2.892  0.00  0.00     0.027 A 
ATOM     14  HN  UNL d   1      -1.964  -0.722  -0.293  1.00  0.00     0.197 HD
ENDBRANCH   1   4
BRANCH   1  15
ATOM     15  N   UNL d   1       0.382   1.346  -0.834  0.00  0.00    -0.206 NA
ATOM     16  C   UNL d   1       0.559   2.701  -0.230  0.00  0.00     0.109 C 
ATOM     17  C   UNL d   1       0.314   3.845  -1.204  0.00  0.00     0.041 C 
ATOM     18  C   UNL d   1       1.058   3.682  -2.525  0.00  0.00     0.091 C 
ATOM     19  C   UNL d   1       0.683   2.341  -3.146  0.00  0.00     0.041 C 
ATOM     20  C   UNL d   1       0.929   1.163  -2.221  0.00  0.00     0.109 C 
BRANCH  18  21
ATOM     21  N   UNL d   1       2.494   3.955  -2.447  0.00  0.00    -0.362 N 
ATOM     22  C   UNL d   1       3.453   3.247  -1.770  0.00  0.00     0.091 A 
ATOM     23  C   UNL d   1       4.674   3.850  -1.971  0.00  0.00     0.019 A 
ATOM     24  C   UNL d   1       4.453   4.979  -2.785  0.00  0.00     0.019 A 
ATOM     25  C   UNL d   1       3.104   5.025  -3.062  0.00  0.00     0.091 A 
ENDBRANCH  18  21
ENDBRANCH   1  15
TORSDOF 3
