REMARK  4 active torsions:
REMARK  status: ('A' for Active; 'I' for Inactive)
REMARK    1  A    between atoms: O_4  and  C_1 
REMARK       I    between atoms: N_6  and  C_1 
REMARK    2  A    between atoms: N_2  and  N_6 
REMARK    3  A    between atoms: C_9  and  O_4 
REMARK    4  A    between atoms: C_8  and  C_10 
ROOT
ATOM      1  N   UNL d   1      -1.171  -0.621   1.014  0.00  0.00    -0.307 N 
ATOM      2  HN  UNL d   1      -0.181  -0.869   1.003  1.00  0.00     0.186 HD
ATOM      3  C   UNL d   1      -1.926  -0.959   2.023  0.00  0.00     0.119 C 
ENDROOT
BRANCH   1   4
ATOM      4  N   UNL d   1      -1.722   0.067  -0.024  0.00  0.00    -0.246 N 
ATOM      5  C   UNL d   1      -1.188   0.094  -1.293  0.00  0.00     0.380 C 
ATOM      6  O   UNL d   1      -1.703   0.774  -2.177  0.00  0.00    -0.237 OA
ATOM      7  H   UNL d   1      -2.537   0.646   0.132  0.00  0.00     0.192 HD
BRANCH   5   8
ATOM      8  O   UNL d   1      -0.116  -0.723  -1.454  0.00  0.00    -0.293 OA
BRANCH   8   9
ATOM      9  C   UNL d   1       0.537  -0.849  -2.745  0.00  0.00     0.061 C 
ATOM     10  C   UNL d   1       1.109   0.494  -3.215  0.00  0.00     0.046 C 
ATOM     11  C   UNL d   1       1.697  -1.831  -2.514  0.00  0.00     0.046 C 
ATOM     12  C   UNL d   1      -0.406  -1.457  -3.790  0.00  0.00     0.046 C 
ENDBRANCH   8   9
ENDBRANCH   5   8
ENDBRANCH   1   4
BRANCH   3  13
ATOM     13  C   UNL d   1      -3.406  -0.914   2.167  0.00  0.00    -0.008 A 
ATOM     14  C   UNL d   1      -4.016  -0.762   3.447  0.00  0.00    -0.014 A 
ATOM     15  C   UNL d   1      -5.434  -0.816   3.517  0.00  0.00    -0.025 A 
ATOM     16  C   UNL d   1      -3.320  -0.564   4.666  0.00  0.00     0.013 A 
ATOM     17  C   UNL d   1      -6.093  -0.697   4.752  0.00  0.00     0.012 A 
ATOM     18  C   UNL d   1      -6.195  -1.005   2.352  0.00  0.00     0.012 A 
ATOM     19  C   UNL d   1      -5.375  -0.525   5.932  0.00  0.00     0.001 A 
ATOM     20  C   UNL d   1      -3.991  -0.459   5.890  0.00  0.00     0.001 A 
ATOM     21  C   UNL d   1      -5.578  -1.178   1.118  0.00  0.00     0.002 A 
ATOM     22  C   UNL d   1      -4.193  -1.159   1.030  0.00  0.00     0.014 A 
ENDBRANCH   3  13
TORSDOF 4
