REMARK  3 active torsions:
REMARK  status: ('A' for Active; 'I' for Inactive)
REMARK    1  A    between atoms: N_11  and  C_2 
REMARK    2  A    between atoms: C_13  and  N_11 
REMARK    3  A    between atoms: C_14  and  N_11 
ROOT
ATOM      1  C   UNL d   1       0.195   0.692  -0.482  0.00  0.00     0.042 A 
ATOM      2  C   UNL d   1       1.424   1.280  -0.070  0.00  0.00     0.117 A 
ATOM      3  C   UNL d   1       0.029  -0.659  -0.202  0.00  0.00     0.088 A 
ATOM      4  N   UNL d   1       2.332   0.450   0.511  0.00  0.00    -0.338 N 
ATOM      5  HN  UNL d   1       3.248   0.809   0.781  1.00  0.00     0.168 HD
ATOM      6  N   UNL d   1       0.902  -1.468   0.417  0.00  0.00    -0.346 N 
ATOM      7  HN  UNL d   1       0.722  -2.451   0.622  1.00  0.00     0.167 HD
ATOM      8  S   UNL d   1      -1.463  -1.285  -0.744  0.00  0.00    -0.083 SA
ATOM      9  C   UNL d   1      -0.960   1.180  -1.196  0.00  0.00     0.025 A 
ATOM     10  C   UNL d   1       2.030  -0.838   0.731  0.00  0.00     0.182 A 
ATOM     11  C   UNL d   1      -1.925   0.218  -1.400  0.00  0.00     0.053 A 
ENDROOT
BRANCH   2  12
ATOM     12  N   UNL d   1       1.789   2.611  -0.282  0.00  0.00    -0.367 N 
BRANCH  12  13
ATOM     13  C   UNL d   1       0.830   3.680  -0.003  0.00  0.00     0.120 C 
ATOM     14  C   UNL d   1       0.611   4.532  -1.246  0.00  0.00     0.026 C 
ENDBRANCH  12  13
BRANCH  12  15
ATOM     15  C   UNL d   1       3.219   2.933  -0.161  0.00  0.00     0.120 C 
ATOM     16  C   UNL d   1       3.693   3.119   1.276  0.00  0.00     0.026 C 
ENDBRANCH  12  15
ENDBRANCH   2  12
TORSDOF 3
