REMARK  6 active torsions:
REMARK  status: ('A' for Active; 'I' for Inactive)
REMARK    1  A    between atoms: C_10  and  N_6 
REMARK    2  A    between atoms: C_9  and  N_16 
REMARK    3  A    between atoms: N_12  and  C_9 
REMARK    4  A    between atoms: C_11  and  C_10 
REMARK       I    between atoms: N_17  and  C_11 
REMARK    5  A    between atoms: C_13  and  N_12 
REMARK    6  A    between atoms: N_16  and  N_17 
ROOT
ATOM      1  C   UNL d   1       2.929   0.819  -0.075  0.00  0.00     0.257 C 
ATOM      2  N   UNL d   1       3.449   0.655  -1.333  0.00  0.00    -0.266 N 
ATOM      3  O   UNL d   1       3.558   0.392   0.894  0.00  0.00    -0.270 OA
ATOM      4  H   UNL d   1       4.327   0.138  -1.405  0.00  0.00     0.190 HD
ENDROOT
BRANCH   1   5
ATOM      5  C   UNL d   1       1.608   1.520   0.090  0.00  0.00     0.272 C 
BRANCH   5   6
ATOM      6  N   UNL d   1       0.580   0.575   0.443  0.00  0.00    -0.194 N 
ATOM      7  N   UNL d   1      -0.330   0.839   1.395  0.00  0.00    -0.115 N 
ATOM      8  C   UNL d   1      -0.953  -0.343   1.462  0.00  0.00     0.709 C 
ATOM      9  HN  UNL d   1      -0.499   1.698   1.919  1.00  0.00     0.207 HD
ATOM     10  N   UNL d   1      -0.532  -1.210   0.478  0.00  0.00    -0.113 N 
ATOM     11  N   UNL d   1      -1.854  -0.708   2.396  0.00  0.00    -0.211 N 
ATOM     12  N   UNL d   1       0.407  -0.582  -0.216  0.00  0.00     0.011 NA
ATOM     13  HN  UNL d   1      -0.878  -2.156   0.314  1.00  0.00     0.203 HD
ATOM     14  C   UNL d   1      -2.710   0.294   3.033  0.00  0.00     0.167 C 
ATOM     15  C   UNL d   1      -2.342  -2.082   2.493  0.00  0.00     0.167 C 
ATOM     16  C   UNL d   1      -3.016  -0.130   4.476  0.00  0.00     0.188 C 
ATOM     17  O   UNL d   1      -3.565  -1.458   4.534  0.00  0.00    -0.388 OA
ATOM     18  C   UNL d   1      -2.639  -2.402   3.968  0.00  0.00     0.188 C 
ENDBRANCH   5   6
ENDBRANCH   1   5
BRANCH   2  19
ATOM     19  N   UNL d   1       2.805   0.971  -2.544  0.00  0.00    -0.273 N 
ATOM     20  H   UNL d   1       1.790   0.899  -2.550  0.00  0.00     0.189 HD
BRANCH  19  21
ATOM     21  C   UNL d   1       3.379   0.486  -3.723  0.00  0.00     0.191 C 
ATOM     22  S   UNL d   1       4.951  -0.093  -3.836  0.00  0.00    -0.039 SA
BRANCH  21  23
ATOM     23  N   UNL d   1       2.497   0.610  -4.786  0.00  0.00    -0.330 N 
ATOM     24  H   UNL d   1       2.174   1.553  -4.977  0.00  0.00     0.168 HD
BRANCH  23  25
ATOM     25  C   UNL d   1       2.328  -0.320  -5.834  0.00  0.00     0.073 A 
ATOM     26  C   UNL d   1       1.872   0.135  -7.079  0.00  0.00     0.145 A 
ATOM     27  C   UNL d   1       1.661  -0.743  -8.134  0.00  0.00     0.086 A 
ATOM     28  F   UNL d   1       1.646   1.446  -7.263  0.00  0.00    -0.204 F 
ATOM     29  C   UNL d   1       1.881  -2.099  -7.930  0.00  0.00     0.119 A 
ATOM     30  C   UNL d   1       2.299  -2.582  -6.696  0.00  0.00     0.044 A 
ATOM     31  F   UNL d   1       1.674  -2.959  -8.935  0.00  0.00    -0.206 F 
ATOM     32  C   UNL d   1       2.521  -1.692  -5.644  0.00  0.00     0.036 A 
ENDBRANCH  23  25
ENDBRANCH  21  23
ENDBRANCH  19  21
ENDBRANCH   2  19
TORSDOF 6
