REMARK  2 active torsions:
REMARK  status: ('A' for Active; 'I' for Inactive)
REMARK    1  A    between atoms: N_2  and  C_1 
REMARK       I    between atoms: C_3  and  N_2 
REMARK    2  A    between atoms: C_8  and  C_3 
ROOT
ATOM      1  C   UNL d   1      -2.455   0.132  -0.060  0.00  0.00     0.113 A 
ATOM      2  C   UNL d   1      -1.575   1.117  -0.517  0.00  0.00     0.147 A 
ATOM      3  C   UNL d   1      -1.899  -1.100   0.313  0.00  0.00     0.147 A 
ATOM      4  C   UNL d   1      -0.528  -1.347   0.273  0.00  0.00     0.064 A 
ATOM      5  C   UNL d   1      -0.196   0.889  -0.562  0.00  0.00     0.064 A 
ATOM      6  C   UNL d   1       0.321  -0.338  -0.158  0.00  0.00     0.017 A 
ATOM      7  F   UNL d   1      -1.992   2.311  -0.948  0.00  0.00    -0.204 F 
ATOM      8  F   UNL d   1      -2.712  -2.082   0.738  0.00  0.00    -0.204 F 
ATOM      9 BR   UNL d   1       2.186  -0.630  -0.194  0.00  0.00    -0.051 Br
ENDROOT
BRANCH   1  10
ATOM     10  N   UNL d   1      -3.861   0.236   0.087  0.00  0.00    -0.320 N 
ATOM     11  C   UNL d   1      -4.692   1.326  -0.102  0.00  0.00     0.255 C 
ATOM     12  O   UNL d   1      -4.326   2.432  -0.493  0.00  0.00    -0.270 OA
ATOM     13  H   UNL d   1      -4.311  -0.610   0.437  0.00  0.00     0.169 HD
BRANCH  11  14
ATOM     14  C   UNL d   1      -6.176   1.089   0.228  0.00  0.00     0.270 C 
ATOM     15 CL   UNL d   1      -6.527  -0.607   0.653  0.00  0.00    -0.098 Cl
ATOM     16 CL   UNL d   1      -6.642   2.145   1.581  0.00  0.00    -0.098 Cl
ENDBRANCH  11  14
ENDBRANCH   1  10
TORSDOF 2
