REMARK  5 active torsions:
REMARK  status: ('A' for Active; 'I' for Inactive)
REMARK    1  A    between atoms: C_3  and  O_5 
REMARK       I    between atoms: N_13  and  C_3 
REMARK    2  A    between atoms: O_5  and  C_4 
REMARK    3  A    between atoms: S_12  and  C_6 
REMARK    4  A    between atoms: C_7  and  C_11 
REMARK    5  A    between atoms: C_11  and  S_12 
ROOT
ATOM      1  N   UNL d   1       1.788   0.043   0.046  0.00  0.00    -0.317 N 
ATOM      2  HN  UNL d   1       2.792   0.010   0.219  1.00  0.00     0.170 HD
ATOM      3  C   UNL d   1       1.093  -1.042  -0.377  0.00  0.00     0.156 A 
ATOM      4  C   UNL d   1       1.067   1.168   0.226  0.00  0.00     0.146 A 
ATOM      5  N   UNL d   1      -0.265   1.261   0.053  0.00  0.00    -0.341 N 
ATOM      6  HN  UNL d   1      -0.764   2.131   0.240  1.00  0.00     0.167 HD
ATOM      7  C   UNL d   1      -0.258  -1.017  -0.637  0.00  0.00     0.081 A 
ATOM      8  C   UNL d   1      -0.912   0.163  -0.374  0.00  0.00     0.011 A 
ATOM      9  C   UNL d   1      -2.412   0.192  -0.400  0.00  0.00     0.068 C 
ENDROOT
BRANCH   4  10
ATOM     10  S   UNL d   1       1.823   2.639   0.895  0.00  0.00    -0.089 SA
BRANCH  10  11
ATOM     11  C   UNL d   1       3.450   2.597   0.095  0.00  0.00     0.126 C 
BRANCH  11  12
ATOM     12  C   UNL d   1       4.217   3.895   0.284  0.00  0.00     0.012 A 
ATOM     13  C   UNL d   1       4.122   4.900  -0.687  0.00  0.00     0.125 A 
ATOM     14  F   UNL d   1       3.346   4.707  -1.767  0.00  0.00    -0.205 F 
ATOM     15  C   UNL d   1       4.822   6.102  -0.590  0.00  0.00     0.043 A 
ATOM     16  C   UNL d   1       5.647   6.337   0.507  0.00  0.00     0.005 A 
ATOM     17  C   UNL d   1       5.745   5.365   1.500  0.00  0.00     0.024 A 
ATOM     18  C   UNL d   1       5.032   4.158   1.398  0.00  0.00     0.044 A 
ATOM     19 CL   UNL d   1       5.210   3.025   2.690  0.00  0.00    -0.084 Cl
ENDBRANCH  11  12
ENDBRANCH  10  11
ENDBRANCH   4  10
BRANCH   3  20
ATOM     20  O   UNL d   1       1.828  -2.273  -0.370  0.00  0.00    -0.244 OA
BRANCH  20  21
ATOM     21  C   UNL d   1       1.324  -3.514  -0.796  0.00  0.00     0.368 C 
ATOM     22  N   UNL d   1       2.123  -4.602  -0.450  0.00  0.00    -0.336 N 
ATOM     23  C   UNL d   1       1.631  -5.942  -0.727  0.00  0.00     0.154 C 
ATOM     24  C   UNL d   1       3.263  -4.503   0.444  0.00  0.00     0.154 C 
ATOM     25  O   UNL d   1       0.271  -3.656  -1.410  0.00  0.00    -0.238 OA
ENDBRANCH  20  21
ENDBRANCH   3  20
TORSDOF 5
