REMARK  6 active torsions:
REMARK  status: ('A' for Active; 'I' for Inactive)
REMARK    1  A    between atoms: C_8  and  C_1 
REMARK    2  A    between atoms: C_7  and  C_2 
REMARK    3  A    between atoms: C_9  and  C_3 
REMARK    4  A    between atoms: O_14  and  C_7 
REMARK    5  A    between atoms: O_15  and  C_8 
REMARK    6  A    between atoms: O_21  and  C_18 
ROOT
ATOM      1  C   UNL d   1      -1.236  -1.064   0.098  0.00  0.00     0.052 C 
ATOM      2  C   UNL d   1       1.328  -1.007   0.079  0.00  0.00     0.052 C 
ATOM      3  C   UNL d   1       0.065  -1.854  -0.109  0.00  0.00     0.100 C 
ATOM      4  C   UNL d   1      -1.217   0.290   0.058  0.00  0.00     0.018 C 
ATOM      5  C   UNL d   1       1.241   0.345   0.044  0.00  0.00     0.018 C 
ATOM      6  N   UNL d   1      -0.002   0.949  -0.086  0.00  0.00    -0.362 N 
ATOM      7  C   UNL d   1      -2.407   1.212   0.168  0.00  0.00     0.069 C 
ATOM      8  C   UNL d   1       2.420   1.281   0.137  0.00  0.00     0.069 C 
ATOM      9  H   UNL d   1      -0.026   1.965  -0.041  0.00  0.00     0.165 HD
ENDROOT
BRANCH   3  10
ATOM     10  C   UNL d   1       0.053  -2.505  -1.502  0.00  0.00    -0.044 A 
ATOM     11  C   UNL d   1      -0.019  -3.900  -1.639  0.00  0.00     0.011 A 
ATOM     12  C   UNL d   1      -0.051  -4.486  -2.907  0.00  0.00     0.037 A 
ATOM     13  C   UNL d   1      -0.013  -3.682  -4.044  0.00  0.00     0.065 A 
ATOM     14  C   UNL d   1       0.056  -2.302  -3.934  0.00  0.00     0.037 A 
ATOM     15  C   UNL d   1       0.086  -1.715  -2.668  0.00  0.00     0.011 A 
BRANCH  13  16
ATOM     16  O   UNL d   1      -0.047  -4.295  -5.261  0.00  0.00    -0.361 OA
ATOM     17  H   UNL d   1      -0.023  -3.611  -5.951  0.00  0.00     0.217 HD
ENDBRANCH  13  16
ENDBRANCH   3  10
BRANCH   2  18
ATOM     18  C   UNL d   1       2.626  -1.702   0.319  0.00  0.00     0.291 C 
ATOM     19  O   UNL d   1       3.716  -1.152   0.374  0.00  0.00    -0.260 OA
BRANCH  18  20
ATOM     20  O   UNL d   1       2.434  -3.032   0.520  0.00  0.00    -0.323 OA
ATOM     21  C   UNL d   1       3.635  -3.758   0.791  0.00  0.00     0.213 C 
ENDBRANCH  18  20
ENDBRANCH   2  18
BRANCH   1  22
ATOM     22  C   UNL d   1      -2.480  -1.859   0.297  0.00  0.00     0.291 C 
ATOM     23  O   UNL d   1      -3.604  -1.508  -0.025  0.00  0.00    -0.260 OA
BRANCH  22  24
ATOM     24  O   UNL d   1      -2.183  -3.035   0.912  0.00  0.00    -0.323 OA
ATOM     25  C   UNL d   1      -3.308  -3.884   1.145  0.00  0.00     0.213 C 
ENDBRANCH  22  24
ENDBRANCH   1  22
TORSDOF 6
