REMARK  2 active torsions:
REMARK  status: ('A' for Active; 'I' for Inactive)
REMARK    1  A    between atoms: C_7  and  C_1 
REMARK    2  A    between atoms: C_8  and  C_2 
REMARK       I    between atoms: N_10  and  C_7 
ROOT
ATOM      1  C   UNL d   1       0.026  -1.271  -0.567  0.00  0.00     0.115 A 
ATOM      2  C   UNL d   1       1.269  -0.912  -0.057  0.00  0.00     0.079 A 
ATOM      3  N   UNL d   1       0.124   0.941   0.532  0.00  0.00    -0.060 NA
ATOM      4  N   UNL d   1       1.292   0.328   0.585  0.00  0.00    -0.291 N 
ATOM      5  HN  UNL d   1       2.117   0.716   1.041  1.00  0.00     0.183 HD
ATOM      6  S   UNL d   1      -1.030   0.060  -0.286  0.00  0.00     0.007 SA
ENDROOT
BRANCH   2   7
ATOM      7  C   UNL d   1       2.500  -1.693  -0.119  0.00  0.00    -0.007 A 
ATOM      8  C   UNL d   1       2.853  -2.446  -1.247  0.00  0.00     0.014 A 
ATOM      9  C   UNL d   1       4.028  -3.205  -1.258  0.00  0.00     0.001 A 
ATOM     10  C   UNL d   1       4.881  -3.188  -0.156  0.00  0.00     0.000 A 
ATOM     11  C   UNL d   1       4.567  -2.406   0.952  0.00  0.00     0.001 A 
ATOM     12  C   UNL d   1       3.384  -1.664   0.971  0.00  0.00     0.014 A 
ENDBRANCH   2   7
BRANCH   1  13
ATOM     13  C   UNL d   1      -0.513  -2.436  -1.221  0.00  0.00     0.259 C 
ATOM     14  O   UNL d   1      -1.443  -2.419  -2.023  0.00  0.00    -0.267 OA
ATOM     15  N   UNL d   1       0.029  -3.643  -0.886  0.00  0.00    -0.365 N 
ATOM     16  H   UNL d   1       0.724  -3.767  -0.162  0.00  0.00     0.159 HD
ATOM     17  H   UNL d   1      -0.378  -4.466  -1.311  0.00  0.00     0.159 HD
ENDBRANCH   1  13
TORSDOF 2
