REMARK  5 active torsions:
REMARK  status: ('A' for Active; 'I' for Inactive)
REMARK    1  A    between atoms: N_4  and  C_1 
REMARK    2  A    between atoms: C_9  and  C_2 
REMARK    3  A    between atoms: S_3  and  N_8 
REMARK    4  A    between atoms: C_15  and  S_3 
REMARK    5  A    between atoms: N_8  and  N_10 
REMARK       I    between atoms: N_10  and  C_9 
ROOT
ATOM      1  C   UNL d   1      -2.079  -0.784   0.107  0.00  0.00     0.098 A 
ATOM      2  C   UNL d   1      -1.003  -1.669   0.029  0.00  0.00     0.075 A 
ATOM      3  S   UNL d   1      -1.588   0.840   0.303  0.00  0.00    -0.075 SA
ATOM      4  C   UNL d   1       0.259  -0.919   0.051  0.00  0.00    -0.026 A 
ATOM      5  C   UNL d   1       0.040   0.446   0.106  0.00  0.00    -0.008 A 
ATOM      6  C   UNL d   1       1.671  -1.443  -0.079  0.00  0.00     0.041 C 
ATOM      7  C   UNL d   1       1.083   1.522   0.055  0.00  0.00     0.047 C 
ATOM      8  C   UNL d   1       2.708  -0.394   0.357  0.00  0.00     0.005 C 
ATOM      9  C   UNL d   1       2.453   0.950  -0.328  0.00  0.00     0.005 C 
ENDROOT
BRANCH   2  10
ATOM     10  C   UNL d   1      -1.132  -3.124  -0.159  0.00  0.00     0.274 C 
ATOM     11  N   UNL d   1      -0.231  -3.874   0.572  0.00  0.00    -0.256 N 
ATOM     12  H   UNL d   1       0.388  -3.454   1.258  0.00  0.00     0.191 HD
ATOM     13  O   UNL d   1      -1.984  -3.640  -0.878  0.00  0.00    -0.266 OA
BRANCH  11  14
ATOM     14  N   UNL d   1      -0.244  -5.327   0.507  0.00  0.00    -0.220 N 
ATOM     15  H   UNL d   1      -0.950  -5.802  -0.065  0.00  0.00     0.200 HD
BRANCH  14  16
ATOM     16  S   UNL d   1       0.680  -6.180   1.632  0.00  0.00     0.276 S 
ATOM     17  O   UNL d   1       2.069  -5.838   1.397  0.00  0.00    -0.199 OA
ATOM     18  O   UNL d   1       0.078  -5.953   2.932  0.00  0.00    -0.199 OA
BRANCH  16  19
ATOM     19  C   UNL d   1       0.422  -7.873   1.185  0.00  0.00     0.081 A 
ATOM     20  C   UNL d   1       1.348  -8.521   0.363  0.00  0.00     0.026 A 
ATOM     21  C   UNL d   1       1.187  -9.879   0.081  0.00  0.00     0.008 A 
ATOM     22  C   UNL d   1       0.114 -10.597   0.625  0.00  0.00    -0.062 A 
ATOM     23  C   UNL d   1      -0.802  -9.938   1.456  0.00  0.00     0.008 A 
ATOM     24  C   UNL d   1      -0.025 -12.065   0.338  0.00  0.00     0.048 C 
ATOM     25  C   UNL d   1      -0.648  -8.579   1.741  0.00  0.00     0.026 A 
ENDBRANCH  16  19
ENDBRANCH  14  16
ENDBRANCH  11  14
ENDBRANCH   2  10
BRANCH   1  26
ATOM     26  N   UNL d   1      -3.475  -1.011   0.185  0.00  0.00    -0.313 N 
ATOM     27  C   UNL d   1      -4.125  -1.960   0.992  0.00  0.00     0.013 A 
ATOM     28  C   UNL d   1      -5.493  -1.775   0.892  0.00  0.00     0.027 A 
ATOM     29  C   UNL d   1      -3.467  -2.945   1.893  0.00  0.00     0.068 C 
ATOM     30  C   UNL d   1      -5.721  -0.707   0.016  0.00  0.00     0.027 A 
ATOM     31  C   UNL d   1      -4.494  -0.260  -0.431  0.00  0.00     0.013 A 
ATOM     32  C   UNL d   1      -4.317   0.803  -1.470  0.00  0.00     0.068 C 
ENDBRANCH   1  26
TORSDOF 5
