REMARK  3 active torsions:
REMARK  status: ('A' for Active; 'I' for Inactive)
REMARK    1  A    between atoms: N_2  and  S_1 
REMARK    2  A    between atoms: C_4  and  S_1 
REMARK    3  A    between atoms: C_3  and  N_2 
ROOT
ATOM      1  S   UNL d   1       0.834  -0.033   0.137  0.00  0.00     0.248 S 
ATOM      2  O   UNL d   1       0.042  -0.499   1.256  0.00  0.00    -0.205 OA
ATOM      3  O   UNL d   1       2.264  -0.243   0.118  0.00  0.00    -0.205 OA
ENDROOT
BRANCH   1   4
ATOM      4  N   UNL d   1       0.545   1.634  -0.099  0.00  0.00    -0.165 NA
ATOM      5  H   UNL d   1       1.092   1.959  -0.901  0.00  0.00     0.147 HD
BRANCH   4   6
ATOM      6  C   UNL d   1      -0.833   2.019  -0.076  0.00  0.00     0.111 A 
ATOM      7  N   UNL d   1      -1.716   2.013   0.978  0.00  0.00    -0.285 N 
ATOM      8  N   UNL d   1      -2.963   2.382   0.612  0.00  0.00    -0.309 N 
ATOM      9  C   UNL d   1      -1.434   1.823   2.380  0.00  0.00     0.179 C 
ATOM     10  C   UNL d   1      -2.835   2.709  -0.675  0.00  0.00     0.110 A 
ATOM     11  HN  UNL d   1      -3.806   2.405   1.186  1.00  0.00     0.186 HD
ATOM     12  C   UNL d   1      -1.521   2.535  -1.149  0.00  0.00     0.063 A 
ENDBRANCH   4   6
ENDBRANCH   1   4
BRANCH   1  13
ATOM     13  C   UNL d   1       0.158  -0.750  -1.347  0.00  0.00     0.096 A 
ATOM     14  C   UNL d   1       0.775  -0.577  -2.591  0.00  0.00     0.059 A 
ATOM     15  C   UNL d   1       0.241  -1.208  -3.719  0.00  0.00     0.067 A 
ATOM     16 CL   UNL d   1       2.138   0.449  -2.856  0.00  0.00    -0.083 Cl
ATOM     17  C   UNL d   1      -0.907  -1.982  -3.601  0.00  0.00     0.118 A 
ATOM     18  C   UNL d   1      -1.543  -2.138  -2.376  0.00  0.00     0.044 A 
ATOM     19  F   UNL d   1      -1.414  -2.576  -4.688  0.00  0.00    -0.206 F 
ATOM     20  C   UNL d   1      -1.008  -1.527  -1.241  0.00  0.00     0.029 A 
ENDBRANCH   1  13
TORSDOF 3
