REMARK  2 active torsions:
REMARK  status: ('A' for Active; 'I' for Inactive)
REMARK    1  A    between atoms: C_10  and  C_1 
REMARK    2  A    between atoms: N_4  and  C_9 
ROOT
ATOM      1  C   UNL d   1      -2.425   1.557   0.016  0.00  0.00     0.051 A 
ATOM      2  C   UNL d   1      -3.138   0.254  -0.000  0.00  0.00     0.299 A 
ATOM      3  C   UNL d   1      -1.083   1.613   0.030  0.00  0.00     0.033 A 
ATOM      4  C   UNL d   1      -0.259   0.401   0.022  0.00  0.00     0.010 A 
ATOM      5  O   UNL d   1      -2.345  -0.883   0.019  0.00  0.00    -0.274 OA
ATOM      6  C   UNL d   1      -0.936  -0.820   0.022  0.00  0.00     0.090 A 
ATOM      7  C   UNL d   1       1.167   0.403   0.009  0.00  0.00    -0.013 A 
ATOM      8  O   UNL d   1      -4.360   0.182  -0.027  0.00  0.00    -0.259 OA
ATOM      9  C   UNL d   1      -0.268  -2.039   0.019  0.00  0.00     0.039 A 
ATOM     10  C   UNL d   1       1.847  -0.848  -0.005  0.00  0.00    -0.025 A 
ATOM     11  C   UNL d   1       1.121  -2.048   0.004  0.00  0.00     0.015 A 
ATOM     12  C   UNL d   1       1.970   1.571   0.005  0.00  0.00     0.013 A 
ATOM     13  C   UNL d   1       3.251  -0.889  -0.031  0.00  0.00     0.012 A 
ATOM     14  C   UNL d   1       3.366   1.511  -0.021  0.00  0.00     0.001 A 
ATOM     15  C   UNL d   1       4.006   0.281  -0.042  0.00  0.00     0.001 A 
ENDROOT
BRANCH   1  16
ATOM     16  C   UNL d   1      -3.175   2.828   0.018  0.00  0.00    -0.020 A 
ATOM     17  C   UNL d   1      -3.502   3.462  -1.190  0.00  0.00     0.015 A 
ATOM     18  C   UNL d   1      -4.143   4.706  -1.189  0.00  0.00     0.037 A 
ATOM     19  C   UNL d   1      -4.488   5.305   0.029  0.00  0.00     0.102 A 
ATOM     20  C   UNL d   1      -4.175   4.678   1.242  0.00  0.00     0.037 A 
ATOM     21  C   UNL d   1      -3.517   3.443   1.232  0.00  0.00     0.015 A 
BRANCH  19  22
ATOM     22  N   UNL d   1      -5.203   6.589   0.033  0.00  0.00    -0.116 N 
ATOM     23  O   UNL d   1      -5.477   7.100  -1.062  0.00  0.00    -0.532 OA
ATOM     24  O   UNL d   1      -5.492   7.085   1.132  0.00  0.00    -0.532 OA
ENDBRANCH  19  22
ENDBRANCH   1  16
TORSDOF 2
