REMARK  4 active torsions:
REMARK  status: ('A' for Active; 'I' for Inactive)
REMARK    1  A    between atoms: C_6  and  N_1 
REMARK    2  A    between atoms: N_8  and  C_6 
REMARK    3  A    between atoms: C_10  and  N_9 
REMARK    4  A    between atoms: C_15  and  C_10 
ROOT
ATOM      1  N   UNL d   1       3.291  -2.448  -0.035  0.00  0.00     0.110 N 
ATOM      2  N   UNL d   1       4.530   0.329  -0.036  0.00  0.00     0.096 N 
ATOM      3  C   UNL d   1       3.793  -1.778   1.185  0.00  0.00     0.305 C 
ATOM      4  C   UNL d   1       4.031  -1.907  -1.196  0.00  0.00     0.305 C 
ATOM      5  C   UNL d   1       3.807  -0.232   1.120  0.00  0.00     0.303 C 
ATOM      6  C   UNL d   1       4.124  -0.360  -1.278  0.00  0.00     0.303 C 
ENDROOT
BRANCH   1   7
ATOM      7  C   UNL d   1       1.835  -2.279  -0.224  0.00  0.00     0.418 C 
BRANCH   7   8
ATOM      8  N   UNL d   1       1.101  -2.953   0.848  0.00  0.00    -0.245 N 
ATOM      9  N   UNL d   1       0.486  -2.213   1.799  0.00  0.00    -0.018 NA
ATOM     10  N   UNL d   1      -0.124  -3.051   2.626  0.00  0.00    -0.282 N 
ATOM     11  C   UNL d   1       0.082  -4.324   2.171  0.00  0.00     0.074 A 
ATOM     12  HN  UNL d   1      -0.656  -2.791   3.457  1.00  0.00     0.184 HD
ATOM     13  C   UNL d   1       0.857  -4.293   1.016  0.00  0.00     0.078 A 
ATOM     14  C   UNL d   1      -0.356  -5.557   2.682  0.00  0.00     0.033 A 
ATOM     15  C   UNL d   1       1.220  -5.449   0.315  0.00  0.00     0.033 A 
ATOM     16  C   UNL d   1       0.767  -6.669   0.836  0.00  0.00     0.002 A 
ATOM     17  C   UNL d   1      -0.003  -6.726   1.998  0.00  0.00     0.002 A 
ENDBRANCH   7   8
ENDBRANCH   1   7
BRANCH   2  18
ATOM     18  C   UNL d   1       5.988   0.328   0.187  0.00  0.00     0.311 C 
BRANCH  18  19
ATOM     19  C   UNL d   1       6.748   1.085  -0.886  0.00  0.00    -0.030 A 
ATOM     20  C   UNL d   1       6.457   2.432  -1.155  0.00  0.00     0.009 A 
ATOM     21  C   UNL d   1       7.090   3.099  -2.204  0.00  0.00     0.001 A 
ATOM     22  C   UNL d   1       8.030   2.433  -2.987  0.00  0.00     0.000 A 
ATOM     23  C   UNL d   1       8.357   1.107  -2.705  0.00  0.00     0.001 A 
ATOM     24  C   UNL d   1       7.725   0.438  -1.656  0.00  0.00     0.009 A 
ENDBRANCH  18  19
ENDBRANCH   2  18
TORSDOF 4
