REMARK  10 active torsions:
REMARK  status: ('A' for Active; 'I' for Inactive)
REMARK    1  A    between atoms: C_12  and  N_1 
REMARK    2  A    between atoms: N_2  and  C_11 
REMARK    3  A    between atoms: C_11  and  C_16 
REMARK    4  A    between atoms: C_15  and  C_12 
REMARK    5  A    between atoms: N_13  and  C_18 
REMARK    6  A    between atoms: C_17  and  N_14 
REMARK    7  A    between atoms: C_18  and  C_15 
REMARK    8  A    between atoms: O_24  and  C_15 
REMARK    9  A    between atoms: C_16  and  C_17 
REMARK   10  A    between atoms: O_23  and  C_16 
ROOT
ATOM      1  N   UNL d   1       1.606  -1.840   2.350  0.00  0.00     0.094 N 
ATOM      2  N   UNL d   1       0.981   1.135   2.080  0.00  0.00     0.094 N 
ATOM      3  C   UNL d   1       1.235  -1.183   1.088  0.00  0.00     0.302 C 
ATOM      4  C   UNL d   1       0.990   0.443   3.397  0.00  0.00     0.302 C 
ATOM      5  C   UNL d   1       1.676   0.291   1.090  0.00  0.00     0.302 C 
ATOM      6  C   UNL d   1       0.951  -1.130   3.466  0.00  0.00     0.302 C 
ENDROOT
BRANCH   1   7
ATOM      7  C   UNL d   1       1.285  -3.286   2.289  0.00  0.00     0.305 C 
BRANCH   7   8
ATOM      8  C   UNL d   1       2.341  -4.217   2.947  0.00  0.00     0.164 C 
BRANCH   8   9
ATOM      9  C   UNL d   1       2.351  -5.635   2.322  0.00  0.00     0.163 C 
BRANCH   9  10
ATOM     10  N   UNL d   1       2.805  -5.661   0.938  0.00  0.00    -0.343 N 
ATOM     11  C   UNL d   1       4.128  -5.548   0.554  0.00  0.00     0.046 A 
ATOM     12  C   UNL d   1       4.134  -5.342  -0.826  0.00  0.00     0.003 A 
ATOM     13  C   UNL d   1       5.316  -5.569   1.305  0.00  0.00     0.030 A 
ATOM     14  C   UNL d   1       5.364  -5.095  -1.473  0.00  0.00     0.014 A 
ATOM     15  C   UNL d   1       2.784  -5.442  -1.283  0.00  0.00     0.003 A 
ATOM     16  C   UNL d   1       6.548  -5.091  -0.731  0.00  0.00     0.001 A 
ATOM     17  C   UNL d   1       6.523  -5.341   0.637  0.00  0.00     0.002 A 
ATOM     18  C   UNL d   1       1.977  -5.695  -0.171  0.00  0.00     0.046 A 
ATOM     19  C   UNL d   1       2.180  -5.339  -2.555  0.00  0.00     0.014 A 
ATOM     20  C   UNL d   1       0.586  -5.872  -0.294  0.00  0.00     0.030 A 
ATOM     21  C   UNL d   1       0.014  -5.764  -1.566  0.00  0.00     0.002 A 
ATOM     22  C   UNL d   1       0.797  -5.497  -2.683  0.00  0.00     0.001 A 
ENDBRANCH   9  10
ENDBRANCH   8   9
BRANCH   8  23
ATOM     23  O   UNL d   1       2.081  -4.344   4.356  0.00  0.00    -0.392 OA
ATOM     24  H   UNL d   1       1.190  -4.717   4.471  0.00  0.00     0.210 HD
ENDBRANCH   8  23
ENDBRANCH   7   8
ENDBRANCH   1   7
BRANCH   2  25
ATOM     25  C   UNL d   1      -0.347   1.607   1.608  0.00  0.00     0.305 C 
BRANCH  25  26
ATOM     26  C   UNL d   1      -0.200   2.764   0.546  0.00  0.00     0.164 C 
BRANCH  26  27
ATOM     27  C   UNL d   1      -1.435   2.937  -0.387  0.00  0.00     0.163 C 
BRANCH  27  28
ATOM     28  N   UNL d   1      -2.183   4.176  -0.583  0.00  0.00    -0.343 N 
ATOM     29  C   UNL d   1      -3.571   4.172  -0.781  0.00  0.00     0.046 A 
ATOM     30  C   UNL d   1      -3.932   5.404  -1.339  0.00  0.00     0.003 A 
ATOM     31  C   UNL d   1      -4.547   3.171  -0.584  0.00  0.00     0.030 A 
ATOM     32  C   UNL d   1      -5.266   5.643  -1.709  0.00  0.00     0.014 A 
ATOM     33  C   UNL d   1      -2.739   6.185  -1.446  0.00  0.00     0.003 A 
ATOM     34  C   UNL d   1      -6.222   4.642  -1.544  0.00  0.00     0.001 A 
ATOM     35  C   UNL d   1      -5.865   3.424  -0.983  0.00  0.00     0.002 A 
ATOM     36  C   UNL d   1      -1.666   5.400  -1.008  0.00  0.00     0.046 A 
ATOM     37  C   UNL d   1      -2.501   7.484  -1.946  0.00  0.00     0.014 A 
ATOM     38  C   UNL d   1      -0.350   5.894  -1.090  0.00  0.00     0.030 A 
ATOM     39  C   UNL d   1      -0.139   7.191  -1.581  0.00  0.00     0.002 A 
ATOM     40  C   UNL d   1      -1.200   7.981  -2.007  0.00  0.00     0.001 A 
ENDBRANCH  27  28
ENDBRANCH  26  27
BRANCH  26  41
ATOM     41  O   UNL d   1       0.210   3.942   1.232  0.00  0.00    -0.392 OA
ATOM     42  H   UNL d   1       0.995   3.674   1.753  0.00  0.00     0.210 HD
ENDBRANCH  26  41
ENDBRANCH  25  26
ENDBRANCH   2  25
TORSDOF 10
