REMARK  5 active torsions:
REMARK  status: ('A' for Active; 'I' for Inactive)
REMARK    1  A    between atoms: N_2  and  C_1 
REMARK    2  A    between atoms: N_10  and  C_1 
REMARK    3  A    between atoms: C_3  and  N_2 
REMARK    4  A    between atoms: C_6  and  C_13 
REMARK    5  A    between atoms: C_13  and  N_10 
ROOT
ATOM      1  N   UNL d   1       0.310  -0.670  -0.869  0.00  0.00    -0.331 N 
ATOM      2  H   UNL d   1       0.527  -1.654  -0.768  0.00  0.00     0.168 HD
ENDROOT
BRANCH   1   3
ATOM      3  C   UNL d   1       1.111   0.167  -0.144  0.00  0.00     0.172 C 
ATOM      4  S   UNL d   1       0.742   1.671   0.483  0.00  0.00    -0.041 SA
BRANCH   3   5
ATOM      5  N   UNL d   1       2.370  -0.302   0.118  0.00  0.00    -0.367 N 
ATOM      6  H   UNL d   1       2.948   0.365   0.616  0.00  0.00     0.161 HD
BRANCH   5   7
ATOM      7  C   UNL d   1       3.051  -1.470  -0.415  0.00  0.00     0.126 C 
BRANCH   7   8
ATOM      8  C   UNL d   1       3.640  -1.162  -1.754  0.00  0.00     0.003 A 
ATOM      9  C   UNL d   1       2.832  -1.255  -3.025  0.00  0.00     0.007 A 
ATOM     10  C   UNL d   1       3.892  -2.280  -2.735  0.00  0.00     0.007 A 
ENDBRANCH   7   8
ENDBRANCH   5   7
ENDBRANCH   3   5
ENDBRANCH   1   3
BRANCH   1  11
ATOM     11  C   UNL d   1      -0.845  -0.438  -1.651  0.00  0.00     0.073 A 
ATOM     12  C   UNL d   1      -1.552  -1.574  -2.079  0.00  0.00     0.145 A 
ATOM     13  C   UNL d   1      -2.670  -1.481  -2.900  0.00  0.00     0.086 A 
ATOM     14  F   UNL d   1      -1.131  -2.792  -1.699  0.00  0.00    -0.204 F 
ATOM     15  C   UNL d   1      -3.086  -0.225  -3.311  0.00  0.00     0.119 A 
ATOM     16  C   UNL d   1      -2.400   0.919  -2.920  0.00  0.00     0.044 A 
ATOM     17  F   UNL d   1      -4.153  -0.113  -4.112  0.00  0.00    -0.206 F 
ATOM     18  C   UNL d   1      -1.273   0.814  -2.095  0.00  0.00     0.036 A 
ENDBRANCH   1  11
TORSDOF 5
