REMARK  4 active torsions:
REMARK  status: ('A' for Active; 'I' for Inactive)
REMARK    1  A    between atoms: C_5  and  C_1 
REMARK    2  A    between atoms: N_6  and  C_2 
REMARK       I    between atoms: C_7  and  N_6 
REMARK       I    between atoms: N_10  and  C_7 
REMARK    3  A    between atoms: C_18  and  N_10 
REMARK    4  A    between atoms: C_19  and  N_10 
ROOT
ATOM      1  C   UNL d   1      -1.568  -0.777   0.220  0.00  0.00     0.097 A 
ATOM      2  C   UNL d   1      -0.137  -0.973   0.139  0.00  0.00     0.097 A 
ATOM      3  N   UNL d   1      -1.835   0.495   0.575  0.00  0.00    -0.258 N 
ATOM      4  HN  UNL d   1      -2.758   0.911   0.700  1.00  0.00     0.195 HD
ATOM      5  C   UNL d   1       0.395   0.247   0.525  0.00  0.00     0.101 A 
ATOM      6  O   UNL d   1      -0.634   1.118   0.733  0.00  0.00    -0.240 OA
ATOM      7  C   UNL d   1       1.716   0.872   0.717  0.00  0.00     0.081 C 
ENDROOT
BRANCH   2   8
ATOM      8  N   UNL d   1       0.486  -2.162  -0.270  0.00  0.00    -0.304 N 
ATOM      9  C   UNL d   1       1.466  -2.827   0.465  0.00  0.00     0.323 C 
ATOM     10  N   UNL d   1       1.633  -4.177   0.025  0.00  0.00    -0.335 N 
ATOM     11  O   UNL d   1       2.039  -2.346   1.445  0.00  0.00    -0.247 OA
ATOM     12  H   UNL d   1      -0.173  -2.811  -0.655  0.00  0.00     0.171 HD
BRANCH  10  13
ATOM     13  C   UNL d   1       1.157  -4.685  -1.269  0.00  0.00     0.123 C 
ATOM     14  C   UNL d   1       2.072  -5.689  -1.958  0.00  0.00     0.026 C 
ENDBRANCH  10  13
BRANCH  10  15
ATOM     15  C   UNL d   1       2.146  -5.160   1.006  0.00  0.00     0.123 C 
ATOM     16  C   UNL d   1       1.100  -6.187   1.449  0.00  0.00     0.026 C 
ENDBRANCH  10  15
ENDBRANCH   2   8
BRANCH   1  17
ATOM     17  C   UNL d   1      -2.690  -1.722   0.095  0.00  0.00     0.038 A 
ATOM     18  C   UNL d   1      -2.681  -2.973   0.751  0.00  0.00     0.048 A 
ATOM     19 CL   UNL d   1      -1.421  -3.497   1.807  0.00  0.00    -0.083 Cl
ATOM     20  C   UNL d   1      -3.780  -3.845   0.698  0.00  0.00     0.025 A 
ATOM     21  C   UNL d   1      -4.957  -3.452   0.079  0.00  0.00     0.003 A 
ATOM     22  C   UNL d   1      -5.014  -2.208  -0.534  0.00  0.00     0.025 A 
ATOM     23  C   UNL d   1      -3.888  -1.367  -0.567  0.00  0.00     0.048 A 
ATOM     24 CL   UNL d   1      -4.089   0.104  -1.464  0.00  0.00    -0.083 Cl
ENDBRANCH   1  17
TORSDOF 4
