REMARK  6 active torsions:
REMARK  status: ('A' for Active; 'I' for Inactive)
REMARK    1  A    between atoms: S_7  and  C_1 
REMARK    2  A    between atoms: C_9  and  N_2 
REMARK    3  A    between atoms: C_8  and  S_7 
REMARK    4  A    between atoms: C_12  and  C_8 
REMARK    5  A    between atoms: C_13  and  C_8 
REMARK    6  A    between atoms: N_11  and  C_10 
ROOT
ATOM      1  C   UNL d   1       0.006  -1.343  -0.382  0.00  0.00     0.178 A 
ATOM      2  N   UNL d   1      -0.748  -0.307  -0.926  0.00  0.00    -0.219 N 
ATOM      3  N   UNL d   1       1.221  -0.900  -0.139  0.00  0.00    -0.264 N 
ATOM      4  HN  UNL d   1       1.993  -1.424   0.273  1.00  0.00     0.186 HD
ATOM      5  N   UNL d   1       1.241   0.405  -0.550  0.00  0.00    -0.006 NA
ATOM      6  N   UNL d   1       0.079   0.759  -1.078  0.00  0.00     0.001 NA
ENDROOT
BRANCH   1   7
ATOM      7  S   UNL d   1      -0.509  -3.001  -0.288  0.00  0.00    -0.077 SA
BRANCH   7   8
ATOM      8  C   UNL d   1       1.001  -3.899   0.222  0.00  0.00     0.121 C 
BRANCH   8   9
ATOM      9  C   UNL d   1       1.431  -3.579   1.651  0.00  0.00    -0.040 A 
ATOM     10  C   UNL d   1       0.576  -3.755   2.753  0.00  0.00     0.009 A 
ATOM     11  C   UNL d   1       1.003  -3.449   4.051  0.00  0.00     0.001 A 
ATOM     12  C   UNL d   1       2.284  -2.964   4.263  0.00  0.00     0.000 A 
ATOM     13  C   UNL d   1       3.150  -2.787   3.187  0.00  0.00     0.001 A 
ATOM     14  C   UNL d   1       2.729  -3.098   1.891  0.00  0.00     0.009 A 
ENDBRANCH   8   9
BRANCH   8  15
ATOM     15  C   UNL d   1       0.864  -5.409  -0.020  0.00  0.00    -0.040 A 
ATOM     16  C   UNL d   1       1.842  -6.087  -0.770  0.00  0.00     0.009 A 
ATOM     17  C   UNL d   1       1.784  -7.475  -0.939  0.00  0.00     0.001 A 
ATOM     18  C   UNL d   1       0.753  -8.209  -0.359  0.00  0.00     0.000 A 
ATOM     19  C   UNL d   1      -0.237  -7.556   0.367  0.00  0.00     0.001 A 
ATOM     20  C   UNL d   1      -0.188  -6.169   0.525  0.00  0.00     0.009 A 
ENDBRANCH   8  15
ENDBRANCH   7   8
ENDBRANCH   1   7
BRANCH   2  21
ATOM     21  C   UNL d   1      -2.092  -0.266  -1.380  0.00  0.00     0.057 A 
ATOM     22  C   UNL d   1      -3.064  -1.105  -0.847  0.00  0.00     0.033 A 
ATOM     23  C   UNL d   1      -4.338  -1.165  -1.426  0.00  0.00     0.031 A 
ATOM     24  C   UNL d   1      -4.687  -0.416  -2.562  0.00  0.00     0.029 A 
ATOM     25  C   UNL d   1      -3.729   0.515  -2.996  0.00  0.00     0.031 A 
ATOM     26  C   UNL d   1      -2.454   0.609  -2.408  0.00  0.00     0.033 A 
BRANCH  24  27
ATOM     27  N   UNL d   1      -5.948  -0.572  -3.149  0.00  0.00    -0.390 N 
ATOM     28  C   UNL d   1      -6.463  -1.943  -3.275  0.00  0.00     0.149 C 
ATOM     29  C   UNL d   1      -6.337   0.283  -4.271  0.00  0.00     0.149 C 
ENDBRANCH  24  27
ENDBRANCH   2  21
TORSDOF 6
