REMARK  4 active torsions:
REMARK  status: ('A' for Active; 'I' for Inactive)
REMARK    1  A    between atoms: C_16  and  C_5 
REMARK    2  A    between atoms: C_17  and  C_5 
REMARK    3  A    between atoms: C_11  and  N_6 
REMARK    4  A    between atoms: C_8  and  C_9 
ROOT
ATOM      1  C   UNL d   1      -0.471  -1.002  -0.275  0.00  0.00     0.146 C 
ATOM      2  S   UNL d   1       1.283  -1.121  -0.438  0.00  0.00    -0.057 SA
ATOM      3  N   UNL d   1      -0.828   0.301  -0.019  0.00  0.00    -0.356 N 
ATOM      4  C   UNL d   1       1.492   0.594  -0.169  0.00  0.00     0.005 C 
ATOM      5  C   UNL d   1       0.165   1.338  -0.316  0.00  0.00     0.064 C 
ATOM      6  N   UNL d   1      -1.353  -1.940  -0.399  0.00  0.00    -0.337 N 
ATOM      7  HN  UNL d   1      -2.337  -1.705  -0.269  1.00  0.00     0.168 HD
ATOM      8  C   UNL d   1       2.685   1.078   0.206  0.00  0.00     0.029 C 
ATOM      9  H   UNL d   1      -1.805   0.506  -0.182  0.00  0.00     0.162 HD
ENDROOT
BRANCH   6  10
ATOM     10  C   UNL d   1      -1.014  -3.269  -0.705  0.00  0.00     0.034 A 
ATOM     11  C   UNL d   1      -0.081  -4.011   0.018  0.00  0.00     0.030 A 
ATOM     12  C   UNL d   1       0.235  -5.323  -0.349  0.00  0.00     0.010 A 
ATOM     13  C   UNL d   1      -0.430  -5.975  -1.402  0.00  0.00    -0.051 A 
ATOM     14  C   UNL d   1      -1.415  -5.243  -2.082  0.00  0.00     0.010 A 
ATOM     15  C   UNL d   1      -1.698  -3.912  -1.737  0.00  0.00     0.030 A 
BRANCH  13  16
ATOM     16  C   UNL d   1      -0.062  -7.426  -1.760  0.00  0.00    -0.024 C 
ATOM     17  C   UNL d   1      -1.009  -8.076  -2.792  0.00  0.00     0.019 C 
ATOM     18  C   UNL d   1       1.363  -7.454  -2.352  0.00  0.00     0.019 C 
ATOM     19  C   UNL d   1      -0.101  -8.311  -0.494  0.00  0.00     0.019 C 
ENDBRANCH  13  16
ENDBRANCH   6  10
BRANCH   5  20
ATOM     20  C   UNL d   1      -0.045   2.532   0.649  0.00  0.00     0.032 C 
ATOM     21  C   UNL d   1       0.008   2.198   2.137  0.00  0.00     0.008 C 
ENDBRANCH   5  20
BRANCH   5  22
ATOM     22  C   UNL d   1      -0.059   1.783  -1.791  0.00  0.00     0.032 C 
ATOM     23  C   UNL d   1       0.957   2.778  -2.338  0.00  0.00     0.008 C 
ENDBRANCH   5  22
TORSDOF 4
