REMARK  3 active torsions:
REMARK  status: ('A' for Active; 'I' for Inactive)
REMARK    1  A    between atoms: C_5  and  C_1 
REMARK    2  A    between atoms: O_3  and  C_2 
REMARK    3  A    between atoms: C_4  and  O_3 
ROOT
ATOM      1  C   UNL d   1       1.401  -0.229   0.214  0.00  0.00     0.043 A 
ATOM      2  C   UNL d   1       0.475  -1.278   0.223  0.00  0.00     0.093 A 
ATOM      3  C   UNL d   1       0.935   1.087   0.062  0.00  0.00     0.018 A 
ATOM      4  C   UNL d   1      -0.899  -1.011   0.139  0.00  0.00     0.038 A 
ATOM      5  C   UNL d   1      -0.433   1.350  -0.042  0.00  0.00     0.001 A 
ATOM      6  C   UNL d   1      -1.348   0.301   0.001  0.00  0.00     0.003 A 
ENDROOT
BRANCH   2   7
ATOM      7  O   UNL d   1       0.896  -2.606   0.398  0.00  0.00    -0.278 OA
BRANCH   7   8
ATOM      8  C   UNL d   1       0.488  -3.525  -0.568  0.00  0.00     0.260 C 
ATOM      9  O   UNL d   1      -0.075  -3.275  -1.623  0.00  0.00    -0.265 OA
ATOM     10  C   UNL d   1       0.848  -4.905  -0.103  0.00  0.00     0.126 C 
ENDBRANCH   7   8
ENDBRANCH   2   7
BRANCH   1  11
ATOM     11  C   UNL d   1       2.871  -0.410   0.345  0.00  0.00     0.158 C 
ATOM     12  O   UNL d   1       3.628   0.367  -0.237  0.00  0.00    -0.293 OA
ATOM     13  C   UNL d   1       3.415  -1.512   1.211  0.00  0.00     0.097 C 
ENDBRANCH   1  11
TORSDOF 3
