REMARK  8 active torsions:
REMARK  status: ('A' for Active; 'I' for Inactive)
REMARK    1  A    between atoms: S_2  and  C_1 
REMARK    2  A    between atoms: N_7  and  S_2 
REMARK    3  A    between atoms: C_14  and  C_3 
REMARK    4  A    between atoms: C_22  and  C_4 
REMARK    5  A    between atoms: C_8  and  N_13 
REMARK    6  A    between atoms: C_9  and  C_10 
REMARK    7  A    between atoms: O_30  and  C_14 
REMARK    8  A    between atoms: C_34  and  O_30 
ROOT
ATOM      1  S   UNL d   1      -3.318  -1.516  -0.130  0.00  0.00     0.264 S 
ATOM      2  O   UNL d   1      -3.130  -2.424   0.974  0.00  0.00    -0.200 OA
ATOM      3  O   UNL d   1      -4.390  -0.549  -0.086  0.00  0.00    -0.200 OA
ENDROOT
BRANCH   1   4
ATOM      4  C   UNL d   1      -1.852  -0.597  -0.183  0.00  0.00     0.133 A 
ATOM      5  C   UNL d   1      -0.520  -1.109   0.030  0.00  0.00     0.095 A 
ATOM      6  C   UNL d   1       0.327  -0.031  -0.163  0.00  0.00     0.068 A 
ATOM      7  C   UNL d   1       1.795   0.179  -0.141  0.00  0.00     0.078 C 
ATOM      8  O   UNL d   1      -0.396   1.089  -0.412  0.00  0.00    -0.312 OA
ATOM      9  C   UNL d   1      -1.724   0.775  -0.371  0.00  0.00     0.110 A 
BRANCH   5  10
ATOM     10  C   UNL d   1      -0.099  -2.458   0.393  0.00  0.00     0.297 C 
ATOM     11  O   UNL d   1      -0.748  -3.463   0.144  0.00  0.00    -0.259 OA
BRANCH  10  12
ATOM     12  O   UNL d   1       1.081  -2.479   1.067  0.00  0.00    -0.318 OA
BRANCH  12  13
ATOM     13  C   UNL d   1       1.365  -3.722   1.734  0.00  0.00     0.174 C 
ATOM     14  C   UNL d   1       0.650  -3.711   3.071  0.00  0.00     0.034 C 
ENDBRANCH  12  13
ENDBRANCH  10  12
ENDBRANCH   5  10
BRANCH   9  15
ATOM     15  C   UNL d   1      -2.589   1.947  -0.489  0.00  0.00    -0.001 A 
ATOM     16  C   UNL d   1      -3.704   2.124   0.339  0.00  0.00     0.014 A 
ATOM     17  C   UNL d   1      -4.532   3.243   0.213  0.00  0.00     0.001 A 
ATOM     18  C   UNL d   1      -4.216   4.241  -0.701  0.00  0.00     0.000 A 
ATOM     19  C   UNL d   1      -3.075   4.117  -1.490  0.00  0.00     0.001 A 
ATOM     20  C   UNL d   1      -2.273   2.975  -1.391  0.00  0.00     0.014 A 
ENDBRANCH   9  15
ENDBRANCH   1   4
BRANCH   1  21
ATOM     21  N   UNL d   1      -3.542  -2.357  -1.559  0.00  0.00    -0.304 N 
ATOM     22  C   UNL d   1      -2.991  -3.720  -1.713  0.00  0.00     0.150 C 
ATOM     23  C   UNL d   1      -1.715  -3.667  -2.552  0.00  0.00     0.117 C 
ATOM     24  N   UNL d   1      -2.087  -3.141  -3.877  0.00  0.00    -0.265 NA
ATOM     25  C   UNL d   1      -2.489  -1.728  -3.795  0.00  0.00     0.117 C 
ATOM     26  C   UNL d   1      -3.725  -1.617  -2.848  0.00  0.00     0.150 C 
BRANCH  24  27
ATOM     27  C   UNL d   1      -1.194  -3.574  -4.853  0.00  0.00     0.104 A 
ATOM     28  N   UNL d   1      -0.264  -2.720  -5.342  0.00  0.00    -0.354 N 
ATOM     29  C   UNL d   1       0.643  -3.212  -6.229  0.00  0.00     0.105 A 
ATOM     30  HN  UNL d   1      -0.243  -1.742  -5.055  1.00  0.00     0.166 HD
ATOM     31  C   UNL d   1       0.676  -4.528  -6.673  0.00  0.00     0.065 A 
ATOM     32  C   UNL d   1      -0.281  -5.401  -6.163  0.00  0.00     0.044 A 
ATOM     33  C   UNL d   1      -1.228  -4.925  -5.268  0.00  0.00     0.073 A 
ATOM     34 CL   UNL d   1      -2.441  -6.042  -4.730  0.00  0.00    -0.081 Cl
BRANCH  31  35
ATOM     35  C   UNL d   1       1.685  -4.981  -7.682  0.00  0.00     0.418 C 
ATOM     36  F   UNL d   1       1.504  -6.274  -8.076  0.00  0.00    -0.166 F 
ATOM     37  F   UNL d   1       1.645  -4.239  -8.822  0.00  0.00    -0.166 F 
ATOM     38  F   UNL d   1       2.959  -4.907  -7.223  0.00  0.00    -0.166 F 
ENDBRANCH  31  35
ENDBRANCH  24  27
ENDBRANCH   1  21
TORSDOF 8
