REMARK  8 active torsions:
REMARK  status: ('A' for Active; 'I' for Inactive)
REMARK    1  A    between atoms: O_11  and  C_7 
REMARK    2  A    between atoms: O_12  and  C_8 
REMARK    3  A    between atoms: O_13  and  C_9 
REMARK    4  A    between atoms: O_14  and  C_10 
REMARK    5  A    between atoms: C_15  and  O_11 
REMARK    6  A    between atoms: C_16  and  O_12 
REMARK    7  A    between atoms: C_17  and  O_13 
REMARK    8  A    between atoms: C_18  and  O_14 
ROOT
ATOM      1  C   UNL d   1      -1.250  -0.660  -0.124  0.00  0.00     0.066 A 
ATOM      2  C   UNL d   1      -1.210   0.732   0.034  0.00  0.00     0.066 A 
ATOM      3  C   UNL d   1       1.327  -0.735  -0.188  0.00  0.00     0.066 A 
ATOM      4  C   UNL d   1       1.364   0.645   0.052  0.00  0.00     0.066 A 
ATOM      5  C   UNL d   1       0.012  -1.412  -0.353  0.00  0.00     0.200 C 
ATOM      6  C   UNL d   1       0.097   1.407   0.218  0.00  0.00     0.200 C 
ATOM      7  C   UNL d   1      -2.422   1.457   0.065  0.00  0.00     0.094 A 
ATOM      8  C   UNL d   1      -2.506  -1.304  -0.115  0.00  0.00     0.094 A 
ATOM      9  C   UNL d   1       2.549  -1.435  -0.315  0.00  0.00     0.094 A 
ATOM     10  C   UNL d   1       2.615   1.304   0.121  0.00  0.00     0.094 A 
ATOM     11  O   UNL d   1      -0.035  -2.571  -0.748  0.00  0.00    -0.286 OA
ATOM     12  O   UNL d   1       0.124   2.582   0.563  0.00  0.00    -0.286 OA
ATOM     13  C   UNL d   1       3.811   0.605  -0.025  0.00  0.00     0.041 A 
ATOM     14  C   UNL d   1      -3.698  -0.571  -0.074  0.00  0.00     0.041 A 
ATOM     15  C   UNL d   1       3.777  -0.763  -0.236  0.00  0.00     0.041 A 
ATOM     16  C   UNL d   1      -3.656   0.805   0.022  0.00  0.00     0.041 A 
ENDROOT
BRANCH   7  17
ATOM     17  O   UNL d   1      -2.451   2.852   0.246  0.00  0.00    -0.278 OA
BRANCH  17  18
ATOM     18  C   UNL d   1      -3.244   3.568  -0.649  0.00  0.00     0.260 C 
ATOM     19  O   UNL d   1      -3.653   3.169  -1.735  0.00  0.00    -0.265 OA
ATOM     20  C   UNL d   1      -3.577   4.904  -0.061  0.00  0.00     0.126 C 
ENDBRANCH  17  18
ENDBRANCH   7  17
BRANCH   8  21
ATOM     21  O   UNL d   1      -2.631  -2.700  -0.220  0.00  0.00    -0.278 OA
BRANCH  21  22
ATOM     22  C   UNL d   1      -3.429  -3.297   0.759  0.00  0.00     0.260 C 
ATOM     23  O   UNL d   1      -3.771  -2.803   1.822  0.00  0.00    -0.265 OA
ATOM     24  C   UNL d   1      -3.864  -4.646   0.268  0.00  0.00     0.126 C 
ENDBRANCH  21  22
ENDBRANCH   8  21
BRANCH  10  25
ATOM     25  O   UNL d   1       2.639   2.719   0.189  0.00  0.00    -0.278 OA
BRANCH  25  26
ATOM     26  C   UNL d   1       3.635   3.448   0.838  0.00  0.00     0.260 C 
ATOM     27  O   UNL d   1       4.584   2.992   1.458  0.00  0.00    -0.265 OA
ATOM     28  C   UNL d   1       3.370   4.914   0.662  0.00  0.00     0.126 C 
ENDBRANCH  25  26
ENDBRANCH  10  25
BRANCH   9  29
ATOM     29  O   UNL d   1       2.587  -2.793  -0.692  0.00  0.00    -0.278 OA
BRANCH  29  30
ATOM     30  C   UNL d   1       3.472  -3.616   0.004  0.00  0.00     0.260 C 
ATOM     31  O   UNL d   1       3.943  -3.396   1.110  0.00  0.00    -0.265 OA
ATOM     32  C   UNL d   1       3.804  -4.819  -0.830  0.00  0.00     0.126 C 
ENDBRANCH  29  30
ENDBRANCH   9  29
TORSDOF 8
