REMARK  5 active torsions:
REMARK  status: ('A' for Active; 'I' for Inactive)
REMARK       I    between atoms: N_3  and  C_1 
REMARK    1  A    between atoms: C_4  and  C_1 
REMARK    2  A    between atoms: C_2  and  C_8 
REMARK    3  A    between atoms: C_5  and  N_3 
REMARK    4  A    between atoms: C_7  and  C_6 
REMARK    5  A    between atoms: O_18  and  C_7 
ROOT
ATOM      1  C   UNL d   1       1.022  -0.052  -0.141  0.00  0.00     0.257 C 
ATOM      2  N   UNL d   1       0.487   1.081   0.435  0.00  0.00    -0.321 N 
ATOM      3  O   UNL d   1       2.102  -0.140  -0.707  0.00  0.00    -0.267 OA
ATOM      4  H   UNL d   1      -0.384   1.009   0.954  0.00  0.00     0.169 HD
ENDROOT
BRANCH   2   5
ATOM      5  C   UNL d   1       1.086   2.365   0.487  0.00  0.00     0.057 A 
ATOM      6  C   UNL d   1       2.265   2.683  -0.199  0.00  0.00     0.047 A 
ATOM      7  C   UNL d   1       2.871   3.943  -0.065  0.00  0.00     0.050 A 
ATOM      8  C   UNL d   1       2.267   4.904   0.758  0.00  0.00     0.018 A 
ATOM      9  C   UNL d   1       1.069   4.618   1.415  0.00  0.00     0.027 A 
ATOM     10  C   UNL d   1       0.480   3.361   1.273  0.00  0.00     0.060 A 
ATOM     11 CL   UNL d   1      -1.000   3.050   2.115  0.00  0.00    -0.082 Cl
BRANCH   7  12
ATOM     12  C   UNL d   1       4.165   4.253  -0.780  0.00  0.00     0.417 C 
ATOM     13  F   UNL d   1       4.608   3.243  -1.579  0.00  0.00    -0.166 F 
ATOM     14  F   UNL d   1       4.063   5.346  -1.585  0.00  0.00    -0.166 F 
ATOM     15  F   UNL d   1       5.182   4.519   0.085  0.00  0.00    -0.166 F 
ENDBRANCH   7  12
ENDBRANCH   2   5
BRANCH   1  16
ATOM     16  C   UNL d   1       0.203  -1.283  -0.063  0.00  0.00     0.049 A 
ATOM     17  C   UNL d   1      -1.175  -1.349  -0.302  0.00  0.00     0.053 A 
ATOM     18  C   UNL d   1      -1.826  -2.590  -0.171  0.00  0.00     0.019 A 
ATOM     19  C   UNL d   1      -1.115  -3.748   0.153  0.00  0.00     0.001 A 
ATOM     20  C   UNL d   1       0.260  -3.685   0.352  0.00  0.00     0.001 A 
ATOM     21  C   UNL d   1       0.915  -2.460   0.243  0.00  0.00     0.018 A 
BRANCH  17  22
ATOM     22  C   UNL d   1      -2.048  -0.207  -0.667  0.00  0.00     0.177 C 
ATOM     23  O   UNL d   1      -3.197  -0.131  -0.257  0.00  0.00    -0.646 OA
BRANCH  22  24
ATOM     24  O   UNL d   1      -1.525   0.710  -1.502  0.00  0.00    -0.773 OA
ATOM     25  H   UNL d   1      -0.616   0.568  -1.833  0.00  0.00     0.167 HD
ENDBRANCH  22  24
ENDBRANCH  17  22
ENDBRANCH   1  16
TORSDOF 5
