REMARK  1 active torsions:
REMARK  status: ('A' for Active; 'I' for Inactive)
REMARK    1  A    between atoms: C_6  and  C_1 
ROOT
ATOM      1  C   UNL d   1      -1.800  -0.421   0.036  0.00  0.00     0.209 A 
ATOM      2  N   UNL d   1      -0.518  -0.876  -0.003  0.00  0.00    -0.308 N 
ATOM      3  N   UNL d   1      -1.889   0.889   0.036  0.00  0.00    -0.279 N 
ATOM      4  HN  UNL d   1      -2.737   1.454   0.061  1.00  0.00     0.188 HD
ATOM      5  C   UNL d   1       0.269   0.254  -0.025  0.00  0.00     0.194 A 
ATOM      6  N   UNL d   1      -0.602   1.327  -0.002  0.00  0.00    -0.274 N 
ATOM      7  S   UNL d   1       1.918   0.404  -0.067  0.00  0.00    -0.039 SA
ATOM      8  C   UNL d   1      -0.001  -2.235  -0.036  0.00  0.00     0.160 C 
ATOM      9  H   UNL d   1      -0.359   2.312  -0.009  0.00  0.00     0.189 HD
ENDROOT
BRANCH   1  10
ATOM     10  C   UNL d   1      -3.048  -1.298   0.080  0.00  0.00     0.450 C 
ATOM     11  F   UNL d   1      -2.804  -2.636   0.079  0.00  0.00    -0.163 F 
ATOM     12  F   UNL d   1      -3.794  -1.061   1.195  0.00  0.00    -0.163 F 
ATOM     13  F   UNL d   1      -3.867  -1.071  -0.984  0.00  0.00    -0.163 F 
ENDBRANCH   1  10
TORSDOF 1
