REMARK  5 active torsions:
REMARK  status: ('A' for Active; 'I' for Inactive)
REMARK    1  A    between atoms: C_10  and  C_2 
REMARK    2  A    between atoms: S_12  and  C_5 
REMARK    3  A    between atoms: C_9  and  C_15 
REMARK    4  A    between atoms: C_15  and  S_12 
REMARK    5  A    between atoms: C_13  and  C_14 
ROOT
ATOM      1  N   UNL d   1      -0.958  -0.016   0.570  0.00  0.00    -0.320 N 
ATOM      2  C   UNL d   1      -0.323   1.055  -0.012  0.00  0.00     0.132 A 
ATOM      3  N   UNL d   1       0.777   0.604  -0.593  0.00  0.00    -0.283 N 
ATOM      4  HN  UNL d   1       1.422   1.158  -1.157  1.00  0.00     0.188 HD
ATOM      5  C   UNL d   1      -0.132  -1.082   0.408  0.00  0.00     0.161 A 
ATOM      6  N   UNL d   1       0.907  -0.739  -0.309  0.00  0.00    -0.278 N 
ATOM      7  HN  UNL d   1       1.670  -1.350  -0.602  1.00  0.00     0.189 HD
ATOM      8  H   UNL d   1      -1.838  -0.013   1.060  0.00  0.00     0.169 HD
ENDROOT
BRANCH   2   9
ATOM      9  C   UNL d   1      -0.792   2.438   0.032  0.00  0.00     0.009 A 
ATOM     10  C   UNL d   1      -1.619   2.910   1.056  0.00  0.00     0.016 A 
ATOM     11  C   UNL d   1      -2.018   4.255   1.094  0.00  0.00     0.009 A 
ATOM     12  C   UNL d   1      -1.612   5.176   0.110  0.00  0.00    -0.051 A 
ATOM     13  C   UNL d   1      -0.779   4.689  -0.910  0.00  0.00     0.009 A 
ATOM     14  C   UNL d   1      -0.373   3.347  -0.945  0.00  0.00     0.016 A 
BRANCH  12  15
ATOM     15  C   UNL d   1      -2.083   6.641   0.174  0.00  0.00    -0.024 C 
ATOM     16  C   UNL d   1      -1.556   7.515  -0.986  0.00  0.00     0.019 C 
ATOM     17  C   UNL d   1      -3.626   6.688   0.118  0.00  0.00     0.019 C 
ATOM     18  C   UNL d   1      -1.609   7.297   1.489  0.00  0.00     0.019 C 
ENDBRANCH  12  15
ENDBRANCH   2   9
BRANCH   5  19
ATOM     19  S   UNL d   1      -0.482  -2.603   1.131  0.00  0.00    -0.088 SA
BRANCH  19  20
ATOM     20  C   UNL d   1       1.208  -3.267   1.274  0.00  0.00     0.122 C 
BRANCH  20  21
ATOM     21  C   UNL d   1       1.227  -4.645   1.899  0.00  0.00    -0.027 A 
ATOM     22  C   UNL d   1       1.290  -4.855   3.285  0.00  0.00     0.042 A 
ATOM     23  C   UNL d   1       1.321  -6.153   3.814  0.00  0.00     0.048 A 
ATOM     24 CL   UNL d   1       1.339  -3.542   4.409  0.00  0.00    -0.084 Cl
ATOM     25  C   UNL d   1       1.282  -7.247   2.957  0.00  0.00     0.035 A 
ATOM     26  C   UNL d   1       1.206  -7.064   1.581  0.00  0.00     0.024 A 
ATOM     27 CL   UNL d   1       1.328  -8.841   3.604  0.00  0.00    -0.084 Cl
ATOM     28  C   UNL d   1       1.175  -5.771   1.054  0.00  0.00     0.011 A 
ENDBRANCH  20  21
ENDBRANCH  19  20
ENDBRANCH   5  19
TORSDOF 5
