REMARK  2 active torsions:
REMARK  status: ('A' for Active; 'I' for Inactive)
REMARK    1  A    between atoms: C_10  and  C_3 
REMARK    2  A    between atoms: C_6  and  C_5 
ROOT
ATOM      1  N   UNL d   1      -0.461   1.636  -0.774  0.00  0.00    -0.358 N 
ATOM      2  HN  UNL d   1      -0.281   2.224  -1.588  1.00  0.00     0.166 HD
ATOM      3  C   UNL d   1      -1.604   1.726  -0.157  0.00  0.00     0.021 C 
ATOM      4  S   UNL d   1      -1.221  -1.462  -0.491  0.00  0.00    -0.118 SA
ATOM      5  C   UNL d   1      -2.366  -0.554   0.637  0.00  0.00     0.091 C 
ATOM      6  C   UNL d   1      -1.959   0.868   1.046  0.00  0.00     0.078 C 
ATOM      7  C   UNL d   1       0.531   0.738  -0.332  0.00  0.00     0.049 A 
ATOM      8  C   UNL d   1       0.335  -0.648  -0.166  0.00  0.00     0.028 A 
ATOM      9  C   UNL d   1       1.809   1.269  -0.106  0.00  0.00     0.031 A 
ATOM     10  C   UNL d   1       1.411  -1.463   0.218  0.00  0.00     0.021 A 
ATOM     11  C   UNL d   1       2.871   0.453   0.288  0.00  0.00     0.002 A 
ATOM     12  C   UNL d   1       2.671  -0.914   0.450  0.00  0.00     0.002 A 
ENDROOT
BRANCH   3  13
ATOM     13  C   UNL d   1      -2.628   2.677  -0.691  0.00  0.00    -0.013 A 
ATOM     14  C   UNL d   1      -2.677   2.895  -2.074  0.00  0.00     0.025 A 
ATOM     15  C   UNL d   1      -3.665   3.717  -2.641  0.00  0.00    -0.025 A 
ATOM     16  C   UNL d   1      -3.747   3.911  -4.029  0.00  0.00     0.012 A 
ATOM     17  C   UNL d   1      -4.605   4.352  -1.798  0.00  0.00    -0.026 A 
ATOM     18  C   UNL d   1      -4.748   4.714  -4.578  0.00  0.00     0.001 A 
ATOM     19  C   UNL d   1      -5.674   5.338  -3.748  0.00  0.00     0.001 A 
ATOM     20  C   UNL d   1      -5.602   5.162  -2.365  0.00  0.00     0.012 A 
ATOM     21  C   UNL d   1      -4.524   4.157  -0.411  0.00  0.00     0.013 A 
ATOM     22  C   UNL d   1      -3.543   3.327   0.140  0.00  0.00     0.014 A 
ENDBRANCH   3  13
BRANCH   5  23
ATOM     23  C   UNL d   1      -3.787  -0.613   0.095  0.00  0.00    -0.037 A 
ATOM     24  C   UNL d   1      -4.904  -0.841   0.881  0.00  0.00     0.057 A 
ATOM     25  S   UNL d   1      -6.364  -0.853  -0.009  0.00  0.00    -0.113 SA
ATOM     26  C   UNL d   1      -5.539  -0.549  -1.470  0.00  0.00     0.050 A 
ATOM     27  C   UNL d   1      -4.181  -0.429  -1.278  0.00  0.00     0.016 A 
ENDBRANCH   5  23
TORSDOF 2
