REMARK  2 active torsions:
REMARK  status: ('A' for Active; 'I' for Inactive)
REMARK    1  A    between atoms: C_2  and  C_1 
REMARK       I    between atoms: N_3  and  C_1 
REMARK    2  A    between atoms: C_4  and  N_3 
ROOT
ATOM      1  C   UNL d   1      -1.235   1.216   0.339  0.00  0.00     0.037 A 
ATOM      2  C   UNL d   1      -2.111   0.150   0.565  0.00  0.00     0.053 A 
ATOM      3  C   UNL d   1      -1.762   2.503   0.185  0.00  0.00     0.053 A 
ATOM      4  C   UNL d   1      -3.490   0.358   0.579  0.00  0.00     0.037 A 
ATOM      5  C   UNL d   1      -3.146   2.697   0.193  0.00  0.00     0.037 A 
ATOM      6  C   UNL d   1      -4.017   1.628   0.380  0.00  0.00     0.048 A 
ATOM      7 CL   UNL d   1      -4.550  -0.973   0.839  0.00  0.00    -0.084 Cl
ATOM      8 CL   UNL d   1      -3.786   4.277  -0.053  0.00  0.00    -0.084 Cl
ENDROOT
BRANCH   1   9
ATOM      9  N   UNL d   1       0.168   1.059   0.250  0.00  0.00    -0.327 N 
ATOM     10  C   UNL d   1       0.833  -0.139   0.088  0.00  0.00     0.226 C 
ATOM     11  O   UNL d   1       0.322  -1.244  -0.045  0.00  0.00    -0.273 OA
ATOM     12  H   UNL d   1       0.722   1.903   0.189  0.00  0.00     0.169 HD
BRANCH  10  13
ATOM     13  C   UNL d   1       2.321  -0.010   0.022  0.00  0.00     0.078 A 
ATOM     14  C   UNL d   1       3.072  -0.613  -1.144  0.00  0.00     0.015 A 
ATOM     15  C   UNL d   1       3.183  -1.238   0.215  0.00  0.00     0.015 A 
ENDBRANCH  10  13
ENDBRANCH   1   9
TORSDOF 2
