REMARK  8 active torsions:
REMARK  status: ('A' for Active; 'I' for Inactive)
REMARK    1  A    between atoms: S_18  and  C_3 
REMARK    2  A    between atoms: C_4  and  N_10 
REMARK       I    between atoms: N_10  and  C_15 
REMARK    3  A    between atoms: C_14  and  C_12 
REMARK    4  A    between atoms: C_17  and  C_14 
REMARK    5  A    between atoms: C_15  and  C_22 
REMARK    6  A    between atoms: O_23  and  C_17 
REMARK    7  A    between atoms: C_22  and  S_18 
REMARK    8  A    between atoms: C_26  and  O_23 
ROOT
ATOM      1  N   UNL d   1       5.026   4.570  -0.356  0.00  0.00    -0.306 N 
ATOM      2  C   UNL d   1       5.528   3.296  -0.216  0.00  0.00     0.233 C 
ATOM      3  O   UNL d   1       6.712   2.995  -0.094  0.00  0.00    -0.272 OA
ATOM      4  H   UNL d   1       4.060   4.713  -0.608  0.00  0.00     0.171 HD
ENDROOT
BRANCH   2   5
ATOM      5  C   UNL d   1       4.475   2.204  -0.108  0.00  0.00     0.185 C 
BRANCH   5   6
ATOM      6  S   UNL d   1       3.003   2.489  -1.135  0.00  0.00    -0.084 SA
BRANCH   6   7
ATOM      7  C   UNL d   1       2.033   1.145  -0.602  0.00  0.00     0.148 A 
ATOM      8  N   UNL d   1       0.780   1.161  -1.130  0.00  0.00    -0.303 N 
ATOM      9  C   UNL d   1      -0.176   0.237  -0.799  0.00  0.00     0.259 A 
ATOM     10  H   UNL d   1       0.522   1.881  -1.786  0.00  0.00     0.171 HD
ATOM     11  C   UNL d   1       0.239  -0.785   0.180  0.00  0.00     0.059 A 
ATOM     12  O   UNL d   1      -1.303   0.261  -1.279  0.00  0.00    -0.267 OA
ATOM     13  C   UNL d   1      -0.662  -1.743   0.654  0.00  0.00     0.019 A 
ATOM     14  C   UNL d   1       1.564  -0.747   0.625  0.00  0.00     0.049 A 
ATOM     15  C   UNL d   1      -0.228  -2.689   1.582  0.00  0.00     0.001 A 
ATOM     16  C   UNL d   1       1.100  -2.683   2.013  0.00  0.00     0.002 A 
ATOM     17  C   UNL d   1       1.991  -1.717   1.535  0.00  0.00     0.030 A 
ATOM     18  N   UNL d   1       2.466   0.253   0.222  0.00  0.00    -0.336 N 
ATOM     19  HN  UNL d   1       3.426   0.273   0.567  1.00  0.00     0.168 HD
ENDBRANCH   6   7
ENDBRANCH   5   6
ENDBRANCH   2   5
BRANCH   1  20
ATOM     20  C   UNL d   1       5.823   5.671  -0.229  0.00  0.00     0.151 A 
ATOM     21  N   UNL d   1       7.064   5.743   0.174  0.00  0.00    -0.339 N 
ATOM     22  C   UNL d   1       7.476   7.064   0.217  0.00  0.00     0.027 A 
ATOM     23  HN  UNL d   1       7.645   4.942   0.422  1.00  0.00     0.168 HD
ATOM     24  C   UNL d   1       6.525   7.970  -0.225  0.00  0.00     0.078 A 
ATOM     25  S   UNL d   1       5.066   7.151  -0.611  0.00  0.00    -0.064 SA
BRANCH  22  26
ATOM     26  C   UNL d   1       8.864   7.350   0.684  0.00  0.00     0.168 C 
BRANCH  26  27
ATOM     27  C   UNL d   1       8.912   8.347   1.818  0.00  0.00     0.264 C 
ATOM     28  O   UNL d   1       7.958   8.946   2.299  0.00  0.00    -0.265 OA
BRANCH  27  29
ATOM     29  O   UNL d   1      10.216   8.561   2.168  0.00  0.00    -0.322 OA
BRANCH  29  30
ATOM     30  C   UNL d   1      10.447   9.703   3.005  0.00  0.00     0.174 C 
ATOM     31  C   UNL d   1      10.608  10.924   2.117  0.00  0.00     0.034 C 
ENDBRANCH  29  30
ENDBRANCH  27  29
ENDBRANCH  26  27
ENDBRANCH  22  26
ENDBRANCH   1  20
TORSDOF 8
