REMARK  6 active torsions:
REMARK  status: ('A' for Active; 'I' for Inactive)
REMARK    1  A    between atoms: C_9  and  C_1 
REMARK    2  A    between atoms: N_6  and  C_9 
REMARK    3  A    between atoms: C_11  and  N_6 
REMARK    4  A    between atoms: C_7  and  C_8 
REMARK    5  A    between atoms: C_8  and  C_11 
REMARK    6  A    between atoms: O_10  and  C_8 
ROOT
ATOM      1  C   UNL d   1       1.502   5.575  -0.157  0.00  0.00     0.179 C 
ENDROOT
BRANCH   1   2
ATOM      2  C   UNL d   1       2.505   5.138  -1.220  0.00  0.00    -0.028 A 
ATOM      3  C   UNL d   1       3.357   6.090  -1.810  0.00  0.00     0.010 A 
ATOM      4  C   UNL d   1       4.334   5.717  -2.739  0.00  0.00     0.001 A 
ATOM      5  C   UNL d   1       4.500   4.378  -3.078  0.00  0.00     0.000 A 
ATOM      6  C   UNL d   1       3.688   3.416  -2.489  0.00  0.00     0.001 A 
ATOM      7  C   UNL d   1       2.703   3.794  -1.572  0.00  0.00     0.010 A 
ENDBRANCH   1   2
BRANCH   1   8
ATOM      8  C   UNL d   1       0.195   4.743   0.021  0.00  0.00     0.306 C 
BRANCH   8   9
ATOM      9  N   UNL d   1       0.288   3.329   0.383  0.00  0.00     0.092 N 
ATOM     10  H   UNL d   1      -0.648   2.932   0.468  0.00  0.00     0.316 HD
BRANCH   9  11
ATOM     11  C   UNL d   1       1.003   3.081   1.632  0.00  0.00     0.334 C 
BRANCH  11  12
ATOM     12  C   UNL d   1       1.162   1.612   1.806  0.00  0.00     0.080 A 
ATOM     13  O   UNL d   1       0.165   0.957   2.466  0.00  0.00    -0.325 OA
ATOM     14  C   UNL d   1       0.493  -0.361   2.463  0.00  0.00     0.142 A 
ATOM     15  C   UNL d   1       1.687  -0.563   1.814  0.00  0.00     0.027 A 
ATOM     16  C   UNL d   1       2.124   0.714   1.388  0.00  0.00     0.036 A 
ENDBRANCH  11  12
ENDBRANCH   9  11
ENDBRANCH   8   9
ENDBRANCH   1   8
BRANCH   1  17
ATOM     17  O   UNL d   1       1.073   6.923  -0.429  0.00  0.00    -0.389 OA
ATOM     18  H   UNL d   1       0.789   6.935  -1.361  0.00  0.00     0.210 HD
ENDBRANCH   1  17
TORSDOF 6
