REMARK  4 active torsions:
REMARK  status: ('A' for Active; 'I' for Inactive)
REMARK    1  A    between atoms: C_2  and  C_1 
REMARK    2  A    between atoms: C_3  and  C_2 
REMARK    3  A    between atoms: C_10  and  C_4 
REMARK    4  A    between atoms: O_16  and  C_11 
ROOT
ATOM      1  C   UNL d   1       0.976   0.087   0.077  0.00  0.00     0.091 C 
ATOM      2  C   UNL d   1       0.318   0.537  -1.010  0.00  0.00     0.038 C 
ATOM      3  C   UNL d   1       0.300  -0.321   1.265  0.00  0.00     0.103 C 
ATOM      4  N   UNL d   1      -0.232  -0.644   2.245  0.00  0.00    -0.191 NA
ENDROOT
BRANCH   1   5
ATOM      5  C   UNL d   1       2.475   0.022  -0.005  0.00  0.00     0.174 C 
ATOM      6  O   UNL d   1       3.100   0.452  -0.969  0.00  0.00    -0.291 OA
BRANCH   5   7
ATOM      7  C   UNL d   1       3.195  -0.647   1.125  0.00  0.00     0.061 A 
ATOM      8  C   UNL d   1       4.704  -0.680   1.205  0.00  0.00     0.013 A 
ATOM      9  C   UNL d   1       3.952  -1.927   0.847  0.00  0.00     0.013 A 
ENDBRANCH   5   7
ENDBRANCH   1   5
BRANCH   2  10
ATOM     10  C   UNL d   1      -1.145   0.631  -1.089  0.00  0.00    -0.035 A 
ATOM     11  C   UNL d   1      -1.817   1.751  -0.588  0.00  0.00     0.014 A 
ATOM     12  C   UNL d   1      -3.217   1.805  -0.601  0.00  0.00     0.037 A 
ATOM     13  C   UNL d   1      -3.956   0.740  -1.118  0.00  0.00     0.068 A 
ATOM     14  C   UNL d   1      -3.281  -0.372  -1.627  0.00  0.00     0.037 A 
ATOM     15  C   UNL d   1      -1.885  -0.430  -1.616  0.00  0.00     0.014 A 
BRANCH  13  16
ATOM     16  O   UNL d   1      -5.319   0.658  -1.183  0.00  0.00    -0.356 OA
ATOM     17  C   UNL d   1      -6.062   1.759  -0.675  0.00  0.00     0.210 C 
ENDBRANCH  13  16
ENDBRANCH   2  10
TORSDOF 4
