REMARK  6 active torsions:
REMARK  status: ('A' for Active; 'I' for Inactive)
REMARK    1  A    between atoms: C_8  and  C_1 
REMARK    2  A    between atoms: C_9  and  C_2 
REMARK    3  A    between atoms: C_11  and  C_3 
REMARK    4  A    between atoms: N_7  and  C_10 
REMARK    5  A    between atoms: O_21  and  C_8 
REMARK    6  A    between atoms: O_20  and  C_9 
ROOT
ATOM      1  C   UNL d   1      -1.276  -1.004   0.090  0.00  0.00     0.052 C 
ATOM      2  C   UNL d   1       1.284  -1.005   0.119  0.00  0.00     0.052 C 
ATOM      3  C   UNL d   1       0.010  -1.827  -0.092  0.00  0.00     0.100 C 
ATOM      4  C   UNL d   1      -1.225   0.349   0.010  0.00  0.00     0.018 C 
ATOM      5  C   UNL d   1       1.230   0.348   0.052  0.00  0.00     0.018 C 
ATOM      6  N   UNL d   1       0.008   0.976  -0.124  0.00  0.00    -0.362 N 
ATOM      7  C   UNL d   1      -2.395   1.303   0.036  0.00  0.00     0.069 C 
ATOM      8  C   UNL d   1       2.432   1.254   0.154  0.00  0.00     0.069 C 
ATOM      9  H   UNL d   1       0.006   1.995  -0.089  0.00  0.00     0.165 HD
ENDROOT
BRANCH   3  10
ATOM     10  C   UNL d   1       0.055  -2.489  -1.482  0.00  0.00    -0.044 A 
ATOM     11  C   UNL d   1       0.009  -3.888  -1.609  0.00  0.00     0.011 A 
ATOM     12  C   UNL d   1       0.077  -4.492  -2.867  0.00  0.00     0.036 A 
ATOM     13  C   UNL d   1       0.192  -3.696  -4.016  0.00  0.00     0.102 A 
ATOM     14  C   UNL d   1       0.232  -2.303  -3.910  0.00  0.00     0.036 A 
ATOM     15  C   UNL d   1       0.158  -1.708  -2.650  0.00  0.00     0.011 A 
BRANCH  13  16
ATOM     16  N   UNL d   1       0.281  -4.325  -5.338  0.00  0.00    -0.116 N 
ATOM     17  O   UNL d   1       0.376  -3.581  -6.327  0.00  0.00    -0.532 OA
ATOM     18  O   UNL d   1       0.249  -5.562  -5.393  0.00  0.00    -0.532 OA
ENDBRANCH  13  16
ENDBRANCH   3  10
BRANCH   2  19
ATOM     19  C   UNL d   1       2.570  -1.718   0.337  0.00  0.00     0.291 C 
ATOM     20  O   UNL d   1       3.674  -1.258   0.088  0.00  0.00    -0.260 OA
BRANCH  19  21
ATOM     21  O   UNL d   1       2.350  -2.940   0.887  0.00  0.00    -0.323 OA
ATOM     22  C   UNL d   1       3.551  -3.658   1.181  0.00  0.00     0.213 C 
ENDBRANCH  19  21
ENDBRANCH   2  19
BRANCH   1  23
ATOM     23  C   UNL d   1      -2.487  -1.824   0.377  0.00  0.00     0.291 C 
ATOM     24  O   UNL d   1      -2.588  -3.006   0.083  0.00  0.00    -0.260 OA
BRANCH  23  25
ATOM     25  O   UNL d   1      -3.405  -1.129   1.094  0.00  0.00    -0.323 OA
ATOM     26  C   UNL d   1      -4.607  -1.848   1.379  0.00  0.00     0.213 C 
ENDBRANCH  23  25
ENDBRANCH   1  23
TORSDOF 6
