REMARK  4 active torsions:
REMARK  status: ('A' for Active; 'I' for Inactive)
REMARK    1  A    between atoms: O_11  and  N_4 
REMARK    2  A    between atoms: C_6  and  C_10 
REMARK    3  A    between atoms: C_8  and  O_11 
REMARK    4  A    between atoms: C_12  and  C_8 
ROOT
ATOM      1  O   UNL d   1       7.019  -3.144  -0.148  0.00  0.00    -0.195 OA
ENDROOT
BRANCH   1   2
ATOM      2  C   UNL d   1       6.824  -3.810  -1.329  0.00  0.00     0.315 C 
ATOM      3  O   UNL d   1       7.394  -4.825  -1.708  0.00  0.00    -0.257 OA
BRANCH   2   4
ATOM      4  C   UNL d   1       5.813  -3.119  -2.181  0.00  0.00     0.042 A 
ATOM      5  C   UNL d   1       5.046  -2.029  -1.745  0.00  0.00     0.034 A 
ATOM      6  C   UNL d   1       4.133  -1.404  -2.618  0.00  0.00     0.048 A 
ATOM      7  C   UNL d   1       4.001  -1.884  -3.931  0.00  0.00     0.016 A 
ATOM      8  C   UNL d   1       4.754  -2.971  -4.367  0.00  0.00     0.002 A 
ATOM      9  C   UNL d   1       5.652  -3.586  -3.495  0.00  0.00     0.018 A 
BRANCH   6  10
ATOM     10  C   UNL d   1       3.298  -0.226  -2.175  0.00  0.00     0.417 C 
ATOM     11  F   UNL d   1       3.502   0.126  -0.875  0.00  0.00    -0.166 F 
ATOM     12  F   UNL d   1       3.545   0.893  -2.909  0.00  0.00    -0.166 F 
ATOM     13  F   UNL d   1       1.962  -0.464  -2.292  0.00  0.00    -0.166 F 
ENDBRANCH   6  10
ENDBRANCH   2   4
ENDBRANCH   1   2
BRANCH   1  14
ATOM     14  N   UNL d   1       8.169  -3.657   0.474  0.00  0.00    -0.264 N 
ATOM     15  C   UNL d   1       8.275  -3.339   1.725  0.00  0.00     0.027 C 
ATOM     16  C   UNL d   1       9.466  -3.827   2.555  0.00  0.00    -0.002 C 
ATOM     17  C   UNL d   1       7.317  -2.549   2.615  0.00  0.00    -0.003 C 
ATOM     18  C   UNL d   1       9.550  -2.700   3.588  0.00  0.00     0.021 C 
ATOM     19  C   UNL d   1       8.921  -4.998   3.389  0.00  0.00     0.015 C 
ATOM     20  C   UNL d   1      10.746  -4.096   1.802  0.00  0.00     0.021 C 
ATOM     21  C   UNL d   1       8.069  -2.800   3.976  0.00  0.00     0.000 C 
ATOM     22  C   UNL d   1       8.015  -4.286   4.413  0.00  0.00     0.007 C 
ATOM     23  C   UNL d   1       7.313  -1.061   2.244  0.00  0.00     0.021 C 
ATOM     24  C   UNL d   1       5.887  -3.087   2.639  0.00  0.00     0.021 C 
ATOM     25  HN  UNL d   1       8.858  -4.229  -0.016  1.00  0.00     0.194 HD
ENDBRANCH   1  14
TORSDOF 4
