REMARK  6 active torsions:
REMARK  status: ('A' for Active; 'I' for Inactive)
REMARK    1  A    between atoms: C_2  and  C_1 
REMARK       I    between atoms: C_3  and  N_16 
REMARK       I    between atoms: N_4  and  C_3 
REMARK    2  A    between atoms: C_7  and  N_4 
REMARK    3  A    between atoms: N_17  and  C_8 
REMARK    4  A    between atoms: N_16  and  C_21 
REMARK    5  A    between atoms: C_23  and  N_17 
REMARK    6  A    between atoms: C_21  and  C_23 
ROOT
ATOM      1  C   UNL d   1      -1.383   6.936   3.242  0.00  0.00     0.144 C 
ENDROOT
BRANCH   1   2
ATOM      2  N   UNL d   1      -2.506   7.406   4.046  0.00  0.00    -0.341 N 
ATOM      3  C   UNL d   1      -3.796   7.248   3.637  0.00  0.00     0.320 C 
ATOM      4  N   UNL d   1      -4.774   7.524   4.536  0.00  0.00    -0.307 N 
ATOM      5  O   UNL d   1      -4.093   6.722   2.571  0.00  0.00    -0.247 OA
ATOM      6  H   UNL d   1      -5.601   6.960   4.362  0.00  0.00     0.170 HD
ATOM      7  H   UNL d   1      -2.323   7.906   4.902  0.00  0.00     0.164 HD
BRANCH   4   8
ATOM      8  C   UNL d   1      -4.777   8.262   5.733  0.00  0.00     0.058 A 
ATOM      9  C   UNL d   1      -5.510   7.776   6.828  0.00  0.00     0.060 A 
ATOM     10 CL   UNL d   1      -6.178   6.180   6.815  0.00  0.00    -0.082 Cl
ATOM     11  C   UNL d   1      -5.677   8.553   7.975  0.00  0.00     0.026 A 
ATOM     12  C   UNL d   1      -5.145   9.839   8.021  0.00  0.00     0.002 A 
ATOM     13  C   UNL d   1      -4.412  10.330   6.939  0.00  0.00     0.002 A 
ATOM     14  C   UNL d   1      -4.209   9.537   5.800  0.00  0.00     0.031 A 
ENDBRANCH   4   8
ENDBRANCH   1   2
BRANCH   1  15
ATOM     15  C   UNL d   1      -1.372   5.415   2.962  0.00  0.00     0.141 C 
BRANCH  15  16
ATOM     16  N   UNL d   1      -0.167   5.019   2.254  0.00  0.00    -0.375 N 
ATOM     17  H   UNL d   1       0.548   5.698   2.020  0.00  0.00     0.161 HD
BRANCH  16  18
ATOM     18  C   UNL d   1       0.157   3.744   1.878  0.00  0.00     0.100 A 
ATOM     19  C   UNL d   1      -0.668   2.643   2.084  0.00  0.00     0.049 A 
ATOM     20  C   UNL d   1      -0.236   1.371   1.692  0.00  0.00     0.021 A 
ATOM     21  C   UNL d   1       1.015   1.218   1.098  0.00  0.00     0.063 A 
ATOM     22  C   UNL d   1       1.763   2.368   0.912  0.00  0.00     0.106 A 
ATOM     23  N   UNL d   1       1.359   3.609   1.289  0.00  0.00    -0.352 N 
ATOM     24  HN  UNL d   1       1.954   4.422   1.129  1.00  0.00     0.166 HD
BRANCH  21  25
ATOM     25  C   UNL d   1       1.537  -0.124   0.695  0.00  0.00     0.418 C 
ATOM     26  F   UNL d   1       2.775  -0.085   0.130  0.00  0.00    -0.166 F 
ATOM     27  F   UNL d   1       0.735  -0.750  -0.210  0.00  0.00    -0.166 F 
ATOM     28  F   UNL d   1       1.640  -0.978   1.751  0.00  0.00    -0.166 F 
ENDBRANCH  21  25
ENDBRANCH  16  18
ENDBRANCH  15  16
ENDBRANCH   1  15
TORSDOF 6
