REMARK  3 active torsions:
REMARK  status: ('A' for Active; 'I' for Inactive)
REMARK    1  A    between atoms: C_8  and  C_4 
REMARK    2  A    between atoms: O_16  and  C_9 
REMARK    3  A    between atoms: O_19  and  C_14 
ROOT
ATOM      1  C   UNL d   1      -1.442   0.122   0.297  0.00  0.00     0.115 C 
ATOM      2  C   UNL d   1      -0.801  -1.157   0.628  0.00  0.00     0.302 C 
ATOM      3  C   UNL d   1      -1.020   1.341   0.996  0.00  0.00     0.302 C 
ATOM      4  C   UNL d   1      -2.388   0.100  -0.662  0.00  0.00     0.038 C 
ATOM      5  O   UNL d   1       0.387  -1.054   1.262  0.00  0.00    -0.280 OA
ATOM      6  O   UNL d   1       0.246   1.320   1.457  0.00  0.00    -0.280 OA
ATOM      7  C   UNL d   1       1.078   0.192   1.188  0.00  0.00     0.175 C 
ATOM      8  O   UNL d   1      -1.751   2.300   1.197  0.00  0.00    -0.259 OA
ATOM      9  O   UNL d   1      -1.288  -2.245   0.358  0.00  0.00    -0.259 OA
ATOM     10  C   UNL d   1       1.771   0.339  -0.171  0.00  0.00     0.080 C 
ATOM     11  C   UNL d   1       2.132   0.178   2.293  0.00  0.00     0.080 C 
ENDROOT
BRANCH   4  12
ATOM     12  C   UNL d   1      -3.096   1.268  -1.199  0.00  0.00    -0.002 A 
ATOM     13  C   UNL d   1      -2.551   2.124  -2.171  0.00  0.00     0.081 A 
ATOM     14  C   UNL d   1      -3.251   3.271  -2.576  0.00  0.00     0.074 A 
ATOM     15  C   UNL d   1      -4.507   3.555  -2.038  0.00  0.00     0.070 A 
ATOM     16  C   UNL d   1      -5.064   2.685  -1.102  0.00  0.00     0.038 A 
ATOM     17  C   UNL d   1      -4.363   1.555  -0.677  0.00  0.00     0.017 A 
BRANCH  13  18
ATOM     18  O   UNL d   1      -1.299   1.973  -2.715  0.00  0.00    -0.355 OA
ATOM     19  C   UNL d   1      -1.117   0.738  -3.405  0.00  0.00     0.210 C 
ENDBRANCH  13  18
BRANCH  15  20
ATOM     20  O   UNL d   1      -5.290   4.628  -2.365  0.00  0.00    -0.356 OA
ATOM     21  C   UNL d   1      -4.603   5.773  -2.855  0.00  0.00     0.210 C 
ENDBRANCH  15  20
ENDBRANCH   4  12
TORSDOF 3
