REMARK  1 active torsions:
REMARK  status: ('A' for Active; 'I' for Inactive)
REMARK    1  A    between atoms: C_9  and  N_8 
ROOT
ATOM      1  C   UNL d   1       2.135   0.895  -1.201  0.00  0.00     0.165 A 
ATOM      2  S   UNL d   1       0.533   1.519  -1.022  0.00  0.00    -0.038 SA
ATOM      3  N   UNL d   1       2.514   0.828  -2.461  0.00  0.00    -0.279 N 
ATOM      4  HN  UNL d   1       3.441   0.518  -2.752  1.00  0.00     0.189 HD
ATOM      5  N   UNL d   1       1.536   1.218  -3.348  0.00  0.00    -0.296 N 
ATOM      6  HN  UNL d   1       1.653   1.224  -4.361  1.00  0.00     0.187 HD
ATOM      7  C   UNL d   1       0.434   1.580  -2.733  0.00  0.00     0.066 A 
ATOM      8  N   UNL d   1       2.863   0.558  -0.107  0.00  0.00    -0.335 N 
ATOM      9  C   UNL d   1      -0.807   2.001  -3.430  0.00  0.00     0.078 C 
ATOM     10  H   UNL d   1       2.486   0.788   0.802  0.00  0.00     0.168 HD
ENDROOT
BRANCH   8  11
ATOM     11  C   UNL d   1       3.960  -0.325  -0.073  0.00  0.00     0.036 A 
ATOM     12  C   UNL d   1       4.258  -1.221  -1.107  0.00  0.00     0.071 A 
ATOM     13  C   UNL d   1       5.380  -2.040  -1.033  0.00  0.00     0.118 A 
ATOM     14  F   UNL d   1       5.626  -2.911  -2.021  0.00  0.00    -0.206 F 
ATOM     15  C   UNL d   1       6.247  -1.974   0.048  0.00  0.00     0.042 A 
ATOM     16  C   UNL d   1       5.985  -1.073   1.075  0.00  0.00     0.005 A 
ATOM     17  C   UNL d   1       4.851  -0.256   1.013  0.00  0.00     0.029 A 
ENDBRANCH   8  11
TORSDOF 1
