REMARK  0 active torsions:
REMARK  status: ('A' for Active; 'I' for Inactive)
ROOT
ATOM      1  C   UNL d   1      -0.281  -0.219  -0.064  0.00  0.00     0.037 A 
ATOM      2  C   UNL d   1       0.716  -1.327  -0.045  0.00  0.00     0.195 A 
ATOM      3  C   UNL d   1       0.451   0.985  -0.058  0.00  0.00    -0.010 A 
ATOM      4  C   UNL d   1       2.052  -0.694  -0.015  0.00  0.00     0.026 A 
ATOM      5  C   UNL d   1       1.868   0.694  -0.045  0.00  0.00    -0.011 A 
ATOM      6  C   UNL d   1      -1.680  -0.262  -0.047  0.00  0.00    -0.011 A 
ATOM      7  C   UNL d   1      -0.209   2.199  -0.029  0.00  0.00     0.014 A 
ATOM      8  O   UNL d   1       0.506  -2.524  -0.043  0.00  0.00    -0.287 OA
ATOM      9  C   UNL d   1      -2.349   0.986   0.022  0.00  0.00    -0.025 A 
ATOM     10  C   UNL d   1      -1.608   2.192   0.022  0.00  0.00     0.013 A 
ATOM     11  C   UNL d   1       3.297  -1.291   0.051  0.00  0.00     0.016 A 
ATOM     12  C   UNL d   1       2.971   1.532  -0.035  0.00  0.00     0.013 A 
ATOM     13  C   UNL d   1      -2.443  -1.447  -0.085  0.00  0.00     0.013 A 
ATOM     14  C   UNL d   1      -3.750   1.007   0.097  0.00  0.00     0.012 A 
ATOM     15  C   UNL d   1       4.245   0.953   0.024  0.00  0.00     0.001 A 
ATOM     16  C   UNL d   1       4.407  -0.445   0.074  0.00  0.00     0.001 A 
ATOM     17  C   UNL d   1      -3.836  -1.402  -0.032  0.00  0.00     0.001 A 
ATOM     18  C   UNL d   1      -4.488  -0.178   0.072  0.00  0.00     0.001 A 
ENDROOT
TORSDOF 0
