REMARK  8 active torsions:
REMARK  status: ('A' for Active; 'I' for Inactive)
REMARK    1  A    between atoms: C_8  and  C_1 
REMARK    2  A    between atoms: C_10  and  C_2 
REMARK    3  A    between atoms: N_5  and  C_9 
REMARK    4  A    between atoms: O_19  and  C_8 
REMARK    5  A    between atoms: C_18  and  C_10 
REMARK    6  A    between atoms: C_13  and  C_18 
REMARK    7  A    between atoms: O_20  and  C_13 
REMARK    8  A    between atoms: C_21  and  O_19 
ROOT
ATOM      1  C   UNL d   1      -2.416  -0.203  -0.042  0.00  0.00     0.116 A 
ATOM      2  C   UNL d   1      -1.570  -1.309  -0.017  0.00  0.00    -0.012 A 
ATOM      3  N   UNL d   1      -1.620   0.914   0.073  0.00  0.00    -0.350 N 
ATOM      4  C   UNL d   1      -0.223  -0.810  -0.010  0.00  0.00     0.002 A 
ATOM      5  C   UNL d   1      -0.290   0.581   0.039  0.00  0.00     0.043 A 
ATOM      6  C   UNL d   1       1.048  -1.418  -0.045  0.00  0.00     0.050 A 
ATOM      7  C   UNL d   1       2.194  -0.603  -0.027  0.00  0.00     0.103 A 
ATOM      8  C   UNL d   1       0.841   1.407   0.050  0.00  0.00     0.033 A 
ATOM      9  C   UNL d   1       2.095   0.791   0.015  0.00  0.00     0.038 A 
ATOM     10  H   UNL d   1      -1.985   1.856   0.113  0.00  0.00     0.166 HD
ENDROOT
BRANCH   2  11
ATOM     11  C   UNL d   1      -1.991  -2.753  -0.021  0.00  0.00     0.052 C 
BRANCH  11  12
ATOM     12  C   UNL d   1      -1.581  -3.533   1.227  0.00  0.00     0.115 C 
BRANCH  12  13
ATOM     13  C   UNL d   1      -2.241  -3.045   2.497  0.00  0.00     0.139 C 
ATOM     14  O   UNL d   1      -3.058  -2.143   2.586  0.00  0.00    -0.650 OA
BRANCH  13  15
ATOM     15  O   UNL d   1      -1.829  -3.748   3.581  0.00  0.00    -0.776 OA
ATOM     16  H   UNL d   1      -1.183  -4.450   3.377  0.00  0.00     0.167 HD
ENDBRANCH  13  15
ENDBRANCH  12  13
ENDBRANCH  11  12
ENDBRANCH   2  11
BRANCH   1  17
ATOM     17  C   UNL d   1      -3.855  -0.132  -0.185  0.00  0.00     0.310 C 
ATOM     18  O   UNL d   1      -4.576  -1.019  -0.621  0.00  0.00    -0.258 OA
BRANCH  17  19
ATOM     19  O   UNL d   1      -4.269   1.128   0.135  0.00  0.00    -0.317 OA
BRANCH  19  20
ATOM     20  C   UNL d   1      -5.630   1.439  -0.196  0.00  0.00     0.175 C 
ATOM     21  C   UNL d   1      -5.627   2.196  -1.508  0.00  0.00     0.034 C 
ENDBRANCH  19  20
ENDBRANCH  17  19
ENDBRANCH   1  17
BRANCH   7  22
ATOM     22  N   UNL d   1       3.520  -1.235  -0.048  0.00  0.00    -0.116 N 
ATOM     23  O   UNL d   1       3.567  -2.474   0.002  0.00  0.00    -0.532 OA
ATOM     24  O   UNL d   1       4.512  -0.496  -0.109  0.00  0.00    -0.532 OA
ENDBRANCH   7  22
TORSDOF 8
