REMARK  4 active torsions:
REMARK  status: ('A' for Active; 'I' for Inactive)
REMARK    1  A    between atoms: N_5  and  C_1 
REMARK    2  A    between atoms: C_3  and  N_4 
REMARK    3  A    between atoms: N_7  and  C_3 
REMARK    4  A    between atoms: C_12  and  N_7 
ROOT
ATOM      1  N   UNL d   1       2.252   5.446   0.292  0.00  0.00    -0.356 N 
ATOM      2  N   UNL d   1       2.040   2.588   0.092  0.00  0.00    -0.266 NA
ATOM      3  C   UNL d   1       1.550   4.669   1.323  0.00  0.00     0.140 C 
ATOM      4  C   UNL d   1       3.287   4.676  -0.415  0.00  0.00     0.140 C 
ATOM      5  C   UNL d   1       0.952   3.391   0.702  0.00  0.00     0.117 C 
ATOM      6  C   UNL d   1       2.745   3.345  -0.973  0.00  0.00     0.117 C 
ENDROOT
BRANCH   1   7
ATOM      7  C   UNL d   1       2.389   6.815   0.390  0.00  0.00     0.174 C 
ATOM      8  S   UNL d   1       2.965   7.614   1.740  0.00  0.00    -0.041 SA
BRANCH   7   9
ATOM      9  N   UNL d   1       2.159   7.525  -0.764  0.00  0.00    -0.331 N 
ATOM     10  H   UNL d   1       2.608   8.432  -0.810  0.00  0.00     0.168 HD
BRANCH   9  11
ATOM     11  C   UNL d   1       1.378   7.113  -1.865  0.00  0.00     0.073 A 
ATOM     12  C   UNL d   1       0.254   6.278  -1.742  0.00  0.00     0.145 A 
ATOM     13  C   UNL d   1      -0.401   5.781  -2.863  0.00  0.00     0.086 A 
ATOM     14  F   UNL d   1      -0.269   5.994  -0.541  0.00  0.00    -0.204 F 
ATOM     15  C   UNL d   1       0.050   6.155  -4.117  0.00  0.00     0.119 A 
ATOM     16  C   UNL d   1       1.097   7.060  -4.265  0.00  0.00     0.044 A 
ATOM     17  F   UNL d   1      -0.536   5.642  -5.207  0.00  0.00    -0.206 F 
ATOM     18  C   UNL d   1       1.750   7.561  -3.133  0.00  0.00     0.036 A 
ENDBRANCH   9  11
ENDBRANCH   7   9
ENDBRANCH   1   7
BRANCH   2  19
ATOM     19  C   UNL d   1       1.584   1.349  -0.396  0.00  0.00     0.096 A 
ATOM     20  C   UNL d   1       2.433   0.223  -0.438  0.00  0.00     0.037 A 
ATOM     21  C   UNL d   1       1.886  -0.946  -0.942  0.00  0.00     0.088 A 
ATOM     22  C   UNL d   1       3.795   0.011  -0.028  0.00  0.00     0.025 A 
ATOM     23  S   UNL d   1       3.001  -2.237  -0.969  0.00  0.00    -0.083 SA
ATOM     24  N   UNL d   1       0.628  -1.116  -1.378  0.00  0.00    -0.346 N 
ATOM     25  C   UNL d   1       4.228  -1.274  -0.268  0.00  0.00     0.053 A 
ATOM     26  C   UNL d   1      -0.096   0.000  -1.266  0.00  0.00     0.182 A 
ATOM     27  HN  UNL d   1       0.267  -1.994  -1.751  1.00  0.00     0.167 HD
ATOM     28  N   UNL d   1       0.302   1.199  -0.810  0.00  0.00    -0.342 N 
ATOM     29  HN  UNL d   1      -0.349   1.984  -0.776  1.00  0.00     0.167 HD
ENDBRANCH   2  19
TORSDOF 4
