REMARK  4 active torsions:
REMARK  status: ('A' for Active; 'I' for Inactive)
REMARK    1  A    between atoms: C_2  and  S_1 
REMARK    2  A    between atoms: N_3  and  S_1 
REMARK    3  A    between atoms: C_11  and  C_14 
REMARK    4  A    between atoms: O_20  and  C_15 
ROOT
ATOM      1  N   UNL d   1       0.748  -0.735   1.502  0.00  0.00    -0.307 N 
ATOM      2  C   UNL d   1      -0.367  -0.078   2.208  0.00  0.00     0.136 C 
ATOM      3  C   UNL d   1       0.948  -2.187   1.559  0.00  0.00     0.136 C 
ATOM      4  C   UNL d   1      -1.102  -2.451   3.025  0.00  0.00     0.024 C 
ATOM      5  C   UNL d   1      -1.201  -0.931   3.160  0.00  0.00     0.030 C 
ATOM      6  C   UNL d   1       0.364  -2.821   2.805  0.00  0.00     0.030 C 
ENDROOT
BRANCH   1   7
ATOM      7  S   UNL d   1       1.413   0.084   0.154  0.00  0.00     0.262 S 
ATOM      8  O   UNL d   1       1.290   1.504   0.369  0.00  0.00    -0.200 OA
ATOM      9  O   UNL d   1       2.719  -0.499  -0.091  0.00  0.00    -0.200 OA
BRANCH   7  10
ATOM     10  C   UNL d   1       0.385  -0.401  -1.229  0.00  0.00     0.102 A 
ATOM     11  C   UNL d   1      -0.725   0.322  -1.660  0.00  0.00     0.059 A 
ATOM     12  C   UNL d   1      -1.430  -0.110  -2.799  0.00  0.00     0.050 A 
ATOM     13 CL   UNL d   1      -1.372   1.723  -0.893  0.00  0.00    -0.083 Cl
ATOM     14  C   UNL d   1      -1.027  -1.242  -3.514  0.00  0.00     0.041 A 
ATOM     15  C   UNL d   1       0.102  -1.960  -3.112  0.00  0.00    -0.039 A 
ATOM     16 CL   UNL d   1      -1.975  -1.694  -4.883  0.00  0.00    -0.084 Cl
ATOM     17  C   UNL d   1       0.801  -1.526  -1.971  0.00  0.00     0.035 A 
ATOM     18  C   UNL d   1       0.592  -3.198  -3.815  0.00  0.00     0.050 C 
ENDBRANCH   7  10
ENDBRANCH   1   7
BRANCH   4  19
ATOM     19  C   UNL d   1      -2.060  -3.111   2.040  0.00  0.00    -0.021 A 
ATOM     20  C   UNL d   1      -2.737  -4.311   2.344  0.00  0.00     0.074 A 
ATOM     21  C   UNL d   1      -3.655  -4.868   1.443  0.00  0.00     0.037 A 
ATOM     22  C   UNL d   1      -3.904  -4.260   0.215  0.00  0.00     0.003 A 
ATOM     23  C   UNL d   1      -3.247  -3.080  -0.108  0.00  0.00     0.001 A 
ATOM     24  C   UNL d   1      -2.339  -2.516   0.793  0.00  0.00     0.010 A 
BRANCH  20  25
ATOM     25  O   UNL d   1      -2.696  -4.927   3.570  0.00  0.00    -0.355 OA
ATOM     26  C   UNL d   1      -1.437  -5.501   3.903  0.00  0.00     0.210 C 
ENDBRANCH  20  25
ENDBRANCH   4  19
TORSDOF 4
