REMARK  4 active torsions:
REMARK  status: ('A' for Active; 'I' for Inactive)
REMARK    1  A    between atoms: C_2  and  C_1 
REMARK    2  A    between atoms: O_10  and  C_2 
REMARK    3  A    between atoms: O_12  and  C_9 
REMARK    4  A    between atoms: C_13  and  O_10 
ROOT
ATOM      1  C   UNL d   1       0.170   1.258  -0.074  0.00  0.00     0.062 A 
ATOM      2  N   UNL d   1      -3.092  -0.208   0.019  0.00  0.00    -0.191 NA
ATOM      3  C   UNL d   1      -1.942  -0.084  -0.038  0.00  0.00     0.100 C 
ATOM      4  C   UNL d   1      -0.512   0.029  -0.071  0.00  0.00     0.061 A 
ATOM      5  C   UNL d   1       1.578   1.272   0.003  0.00  0.00     0.055 A 
ATOM      6  C   UNL d   1       0.226  -1.165  -0.037  0.00  0.00     0.026 A 
ATOM      7  C   UNL d   1       2.303   0.078   0.052  0.00  0.00     0.069 A 
ATOM      8  C   UNL d   1       1.621  -1.136   0.020  0.00  0.00     0.038 A 
ENDROOT
BRANCH   1   9
ATOM      9  C   UNL d   1      -0.502   2.589  -0.067  0.00  0.00     0.294 C 
ATOM     10  O   UNL d   1      -0.004   3.571   0.461  0.00  0.00    -0.259 OA
BRANCH   9  11
ATOM     11  O   UNL d   1      -1.702   2.540  -0.687  0.00  0.00    -0.318 OA
BRANCH  11  12
ATOM     12  C   UNL d   1      -2.643   3.561  -0.311  0.00  0.00     0.174 C 
ATOM     13  C   UNL d   1      -2.990   4.463  -1.476  0.00  0.00     0.034 C 
ENDBRANCH  11  12
ENDBRANCH   9  11
ENDBRANCH   1   9
BRANCH   7  14
ATOM     14  O   UNL d   1       3.662  -0.037   0.137  0.00  0.00    -0.356 OA
ATOM     15  C   UNL d   1       4.414   1.169   0.188  0.00  0.00     0.210 C 
ENDBRANCH   7  14
TORSDOF 4
