REMARK  5 active torsions:
REMARK  status: ('A' for Active; 'I' for Inactive)
REMARK    1  A    between atoms: C_6  and  N_1 
REMARK    2  A    between atoms: N_8  and  C_6 
REMARK    3  A    between atoms: C_11  and  N_7 
REMARK    4  A    between atoms: C_15  and  C_11 
REMARK    5  A    between atoms: C_16  and  C_11 
ROOT
ATOM      1  N   UNL d   1      -4.248  -1.521  -0.124  0.00  0.00    -0.397 N 
ATOM      2  N   UNL d   1      -2.128  -3.595   0.118  0.00  0.00     0.109 N 
ATOM      3  C   UNL d   1      -3.588  -1.732   1.162  0.00  0.00     0.148 C 
ATOM      4  C   UNL d   1      -3.330  -1.759  -1.236  0.00  0.00     0.148 C 
ATOM      5  C   UNL d   1      -2.987  -3.160   1.243  0.00  0.00     0.294 C 
ATOM      6  C   UNL d   1      -2.806  -3.223  -1.156  0.00  0.00     0.294 C 
ENDROOT
BRANCH   2   7
ATOM      7  C   UNL d   1      -0.787  -3.011   0.140  0.00  0.00     0.405 C 
BRANCH   7   8
ATOM      8  N   UNL d   1       0.109  -3.421   1.194  0.00  0.00    -0.285 N 
ATOM      9  C   UNL d   1       1.304  -2.680   1.362  0.00  0.00     0.294 A 
ATOM     10  C   UNL d   1       2.182  -3.421   2.431  0.00  0.00     0.280 A 
ATOM     11  O   UNL d   1       1.606  -1.656   0.759  0.00  0.00    -0.266 OA
ATOM     12  O   UNL d   1       2.360  -2.648   3.624  0.00  0.00    -0.342 OA
ATOM     13  O   UNL d   1       3.453  -3.837   1.920  0.00  0.00    -0.342 OA
ATOM     14  C   UNL d   1       1.338  -4.627   2.728  0.00  0.00     0.040 A 
ATOM     15  C   UNL d   1       3.734  -2.821   3.964  0.00  0.00     0.198 C 
ATOM     16  C   UNL d   1       4.403  -3.054   2.639  0.00  0.00     0.198 C 
ATOM     17  C   UNL d   1       0.160  -4.602   1.962  0.00  0.00     0.051 A 
ATOM     18  C   UNL d   1       1.617  -5.655   3.620  0.00  0.00     0.015 A 
ATOM     19  C   UNL d   1      -0.741  -5.646   2.067  0.00  0.00     0.030 A 
ATOM     20  C   UNL d   1      -0.480  -6.674   2.987  0.00  0.00     0.002 A 
ATOM     21  C   UNL d   1       0.685  -6.678   3.760  0.00  0.00     0.001 A 
ENDBRANCH   7   8
ENDBRANCH   2   7
BRANCH   1  22
ATOM     22  C   UNL d   1      -5.171  -0.378  -0.208  0.00  0.00     0.145 C 
BRANCH  22  23
ATOM     23  C   UNL d   1      -4.549   0.958  -0.639  0.00  0.00    -0.031 A 
ATOM     24  C   UNL d   1      -4.515   1.370  -1.984  0.00  0.00     0.009 A 
ATOM     25  C   UNL d   1      -4.048   2.640  -2.339  0.00  0.00     0.001 A 
ATOM     26  C   UNL d   1      -3.586   3.514  -1.360  0.00  0.00     0.000 A 
ATOM     27  C   UNL d   1      -3.587   3.118  -0.024  0.00  0.00     0.001 A 
ATOM     28  C   UNL d   1      -4.059   1.851   0.334  0.00  0.00     0.009 A 
ENDBRANCH  22  23
BRANCH  22  29
ATOM     29  C   UNL d   1      -6.473  -0.731  -0.964  0.00  0.00    -0.031 A 
ATOM     30  C   UNL d   1      -6.676  -1.982  -1.578  0.00  0.00     0.009 A 
ATOM     31  C   UNL d   1      -7.856  -2.267  -2.270  0.00  0.00     0.001 A 
ATOM     32  C   UNL d   1      -8.869  -1.318  -2.337  0.00  0.00     0.000 A 
ATOM     33  C   UNL d   1      -8.713  -0.090  -1.704  0.00  0.00     0.001 A 
ATOM     34  C   UNL d   1      -7.529   0.200  -1.017  0.00  0.00     0.009 A 
ENDBRANCH  22  29
ENDBRANCH   1  22
TORSDOF 5
