REMARK  3 active torsions:
REMARK  status: ('A' for Active; 'I' for Inactive)
REMARK    1  A    between atoms: C_2  and  S_1 
REMARK    2  A    between atoms: C_4  and  S_1 
REMARK    3  A    between atoms: C_10  and  C_4 
ROOT
ATOM      1  N   UNL d   1      -0.841   2.743  -5.867  0.00  0.00    -0.191 NA
ATOM      2  C   UNL d   1      -0.197   1.996  -5.256  0.00  0.00     0.099 C 
ATOM      3  C   UNL d   1       0.886  -0.378  -2.564  0.00  0.00    -0.042 A 
ATOM      4  C   UNL d   1       0.596   1.060  -4.512  0.00  0.00     0.045 A 
ATOM      5  C   UNL d   1       0.126   0.551  -3.293  0.00  0.00     0.030 A 
ATOM      6  C   UNL d   1       2.601  -0.275  -4.285  0.00  0.00     0.002 A 
ATOM      7  C   UNL d   1       2.130  -0.782  -3.073  0.00  0.00     0.008 A 
ATOM      8  C   UNL d   1       1.836   0.644  -5.005  0.00  0.00     0.022 A 
ENDROOT
BRANCH   3   9
ATOM      9  C   UNL d   1       0.370  -0.940  -1.260  0.00  0.00     0.185 C 
BRANCH   9  10
ATOM     10  S   UNL d   1       0.942   0.064   0.105  0.00  0.00     0.195 S 
ATOM     11  O   UNL d   1       2.387  -0.068   0.212  0.00  0.00    -0.221 OA
ATOM     12  O   UNL d   1       0.314   1.372   0.029  0.00  0.00    -0.221 OA
BRANCH  10  13
ATOM     13  C   UNL d   1       0.267  -0.740   1.549  0.00  0.00     0.128 A 
ATOM     14  N   UNL d   1      -0.544  -1.798   1.290  0.00  0.00    -0.357 N 
ATOM     15  C   UNL d   1      -0.990  -2.469   2.374  0.00  0.00     0.089 A 
ATOM     16  HN  UNL d   1      -0.799  -2.068   0.341  1.00  0.00     0.166 HD
ATOM     17  C   UNL d   1      -0.655  -2.138   3.680  0.00  0.00     0.017 A 
ATOM     18  C   UNL d   1       0.174  -1.039   3.900  0.00  0.00     0.004 A 
ATOM     19  C   UNL d   1       0.650  -0.315   2.812  0.00  0.00     0.042 A 
ENDBRANCH  10  13
ENDBRANCH   9  10
ENDBRANCH   3   9
TORSDOF 3
