REMARK  2 active torsions:
REMARK  status: ('A' for Active; 'I' for Inactive)
REMARK    1  A    between atoms: C_4  and  N_1 
REMARK    2  A    between atoms: C_17  and  C_9 
ROOT
ATOM      1  N   UNL d   1       0.662   1.228  -0.405  0.00  0.00    -0.252 N 
ATOM      2  C   UNL d   1       1.415   0.107  -0.062  0.00  0.00     0.232 C 
ATOM      3  C   UNL d   1      -0.651   1.268   0.057  0.00  0.00     0.232 C 
ATOM      4  C   UNL d   1       0.700  -1.223  -0.242  0.00  0.00     0.113 C 
ATOM      5  C   UNL d   1      -1.449   0.014  -0.197  0.00  0.00     0.113 C 
ATOM      6  C   UNL d   1      -0.735  -1.247   0.292  0.00  0.00    -0.028 C 
ATOM      7  O   UNL d   1       2.581   0.102   0.329  0.00  0.00    -0.273 OA
ATOM      8  O   UNL d   1      -1.181   2.224   0.622  0.00  0.00    -0.273 OA
ATOM      9  C   UNL d   1      -0.736  -1.283   1.833  0.00  0.00     0.016 C 
ENDROOT
BRANCH   1  10
ATOM     10  C   UNL d   1       1.275   2.465  -0.845  0.00  0.00     0.047 A 
ATOM     11  C   UNL d   1       2.664   2.659  -0.931  0.00  0.00     0.057 A 
ATOM     12  C   UNL d   1       3.201   3.862  -1.413  0.00  0.00     0.074 A 
ATOM     13 CL   UNL d   1       4.910   4.063  -1.474  0.00  0.00    -0.081 Cl
ATOM     14  C   UNL d   1       2.359   4.880  -1.848  0.00  0.00     0.138 A 
ATOM     15  C   UNL d   1       0.987   4.706  -1.818  0.00  0.00     0.046 A 
ATOM     16  F   UNL d   1       2.855   6.034  -2.318  0.00  0.00    -0.204 F 
ATOM     17  C   UNL d   1       0.454   3.511  -1.328  0.00  0.00     0.033 A 
ENDBRANCH   1  10
BRANCH   6  18
ATOM     18  C   UNL d   1      -1.509  -2.467  -0.281  0.00  0.00     0.005 C 
ATOM     19  C   UNL d   1      -0.924  -3.835   0.041  0.00  0.00     0.006 C 
ENDBRANCH   6  18
TORSDOF 2
