REMARK  4 active torsions:
REMARK  status: ('A' for Active; 'I' for Inactive)
REMARK    1  A    between atoms: C_9  and  C_1 
REMARK    2  A    between atoms: C_2  and  C_8 
REMARK    3  A    between atoms: N_7  and  C_9 
REMARK    4  A    between atoms: C_8  and  N_7 
ROOT
ATOM      1  N   UNL d   1      -1.357   3.023  -0.068  0.00  0.00     0.092 N 
ATOM      2  H   UNL d   1      -1.943   2.715   0.710  0.00  0.00     0.316 HD
ENDROOT
BRANCH   1   3
ATOM      3  C   UNL d   1      -0.086   2.295   0.010  0.00  0.00     0.313 C 
BRANCH   3   4
ATOM      4  C   UNL d   1      -0.290   0.804  -0.093  0.00  0.00     0.030 A 
ATOM      5  C   UNL d   1      -0.998   0.059   0.864  0.00  0.00     0.045 A 
ATOM      6 CL   UNL d   1      -1.680   0.796   2.273  0.00  0.00    -0.084 Cl
ATOM      7  C   UNL d   1      -1.170  -1.324   0.718  0.00  0.00     0.024 A 
ATOM      8  C   UNL d   1      -0.622  -1.990  -0.377  0.00  0.00     0.005 A 
ATOM      9  C   UNL d   1       0.103  -1.272  -1.323  0.00  0.00     0.043 A 
ATOM     10  C   UNL d   1       0.262   0.105  -1.175  0.00  0.00     0.126 A 
ATOM     11  F   UNL d   1       0.982   0.758  -2.099  0.00  0.00    -0.205 F 
ENDBRANCH   3   4
ENDBRANCH   1   3
BRANCH   1  12
ATOM     12  C   UNL d   1      -1.139   4.464   0.069  0.00  0.00     0.313 C 
BRANCH  12  13
ATOM     13  C   UNL d   1      -2.450   5.206   0.127  0.00  0.00     0.030 A 
ATOM     14  C   UNL d   1      -3.054   5.413   1.375  0.00  0.00     0.126 A 
ATOM     15  F   UNL d   1      -2.454   4.963   2.487  0.00  0.00    -0.205 F 
ATOM     16  C   UNL d   1      -4.272   6.077   1.506  0.00  0.00     0.043 A 
ATOM     17  C   UNL d   1      -4.923   6.548   0.372  0.00  0.00     0.005 A 
ATOM     18  C   UNL d   1      -4.351   6.346  -0.883  0.00  0.00     0.024 A 
ATOM     19  C   UNL d   1      -3.125   5.675  -1.007  0.00  0.00     0.045 A 
ATOM     20 CL   UNL d   1      -2.496   5.467  -2.603  0.00  0.00    -0.084 Cl
ENDBRANCH  12  13
ENDBRANCH   1  12
TORSDOF 4
