REMARK  8 active torsions:
REMARK  status: ('A' for Active; 'I' for Inactive)
REMARK    1  A    between atoms: C_3  and  N_1 
REMARK    2  A    between atoms: N_4  and  C_2 
REMARK    3  A    between atoms: C_6  and  N_4 
REMARK    4  A    between atoms: C_21  and  N_5 
REMARK    5  A    between atoms: N_11  and  C_24 
REMARK    6  A    between atoms: C_28  and  C_21 
REMARK    7  A    between atoms: C_24  and  C_29 
REMARK    8  A    between atoms: C_29  and  C_28 
ROOT
ATOM      1  C   UNL d   1       2.395  -0.921  -3.820  0.00  0.00     0.021 C 
ENDROOT
BRANCH   1   2
ATOM      2  C   UNL d   1       3.114   0.358  -4.254  0.00  0.00     0.122 C 
BRANCH   2   3
ATOM      3  N   UNL d   1       4.478   0.462  -3.745  0.00  0.00    -0.367 N 
ATOM      4  C   UNL d   1       5.282   1.556  -3.837  0.00  0.00     0.172 C 
ATOM      5  S   UNL d   1       4.734   3.134  -3.928  0.00  0.00    -0.041 SA
ATOM      6  H   UNL d   1       4.889  -0.365  -3.331  0.00  0.00     0.161 HD
BRANCH   4   7
ATOM      7  N   UNL d   1       6.635   1.368  -3.824  0.00  0.00    -0.333 N 
ATOM      8  H   UNL d   1       7.136   2.245  -3.715  0.00  0.00     0.168 HD
BRANCH   7   9
ATOM      9  C   UNL d   1       7.449   0.239  -4.061  0.00  0.00     0.035 A 
ATOM     10  C   UNL d   1       6.973  -0.996  -4.500  0.00  0.00     0.036 A 
ATOM     11  C   UNL d   1       7.823  -2.104  -4.608  0.00  0.00    -0.059 A 
ATOM     12  C   UNL d   1       7.263  -3.454  -4.946  0.00  0.00     0.048 C 
ATOM     13  C   UNL d   1       9.195  -1.936  -4.405  0.00  0.00     0.013 A 
ATOM     14  C   UNL d   1       9.714  -0.681  -4.069  0.00  0.00    -0.059 A 
ATOM     15  C   UNL d   1       8.832   0.394  -3.877  0.00  0.00     0.036 A 
ATOM     16  C   UNL d   1      11.195  -0.515  -3.894  0.00  0.00     0.048 C 
ENDBRANCH   7   9
ENDBRANCH   4   7
ENDBRANCH   2   3
ENDBRANCH   1   2
BRANCH   1  17
ATOM     17  C   UNL d   1       2.231  -1.085  -2.304  0.00  0.00     0.032 C 
BRANCH  17  18
ATOM     18  C   UNL d   1       1.505   0.097  -1.647  0.00  0.00     0.272 C 
BRANCH  18  19
ATOM     19  N   UNL d   1       1.425   0.012  -0.177  0.00  0.00     0.091 N 
ATOM     20  C   UNL d   1       2.763   0.007   0.469  0.00  0.00     0.292 C 
ATOM     21  C   UNL d   1       3.594   1.294   0.256  0.00  0.00     0.153 C 
ATOM     22  N   UNL d   1       2.822   2.466   0.689  0.00  0.00    -0.377 N 
ATOM     23  C   UNL d   1       1.435   2.555   0.208  0.00  0.00     0.153 C 
ATOM     24  C   UNL d   1       0.697   1.199   0.359  0.00  0.00     0.292 C 
BRANCH  22  25
ATOM     25  C   UNL d   1       3.350   3.334   1.622  0.00  0.00     0.031 A 
ATOM     26  C   UNL d   1       2.583   3.842   2.677  0.00  0.00     0.053 A 
ATOM     27  C   UNL d   1       3.147   4.689   3.635  0.00  0.00     0.036 A 
ATOM     28 CL   UNL d   1       2.176   5.267   4.935  0.00  0.00    -0.084 Cl
ATOM     29  C   UNL d   1       4.485   5.061   3.556  0.00  0.00     0.024 A 
ATOM     30  C   UNL d   1       5.263   4.579   2.514  0.00  0.00     0.004 A 
ATOM     31  C   UNL d   1       4.698   3.727   1.559  0.00  0.00     0.029 A 
ENDBRANCH  22  25
ENDBRANCH  18  19
ENDBRANCH  17  18
ENDBRANCH   1  17
TORSDOF 8
