REMARK  4 active torsions:
REMARK  status: ('A' for Active; 'I' for Inactive)
REMARK    1  A    between atoms: C_3  and  C_1 
REMARK    2  A    between atoms: C_2  and  C_3 
REMARK    3  A    between atoms: C_7  and  C_4 
REMARK    4  A    between atoms: O_19  and  C_16 
ROOT
ATOM      1  C   UNL d   1       2.324  -0.472   1.386  0.00  0.00     0.096 C 
ATOM      2  C   UNL d   1       2.244   0.478   2.338  0.00  0.00     0.045 C 
ATOM      3  C   UNL d   1       2.197  -1.865   1.658  0.00  0.00     0.103 C 
ATOM      4  N   UNL d   1       2.141  -3.007   1.866  0.00  0.00    -0.191 NA
ENDROOT
BRANCH   1   5
ATOM      5  C   UNL d   1       2.651   0.010   0.007  0.00  0.00     0.204 C 
ATOM      6  O   UNL d   1       2.398   1.158  -0.344  0.00  0.00    -0.286 OA
BRANCH   5   7
ATOM      7  C   UNL d   1       3.388  -0.903  -0.913  0.00  0.00     0.035 A 
ATOM      8  C   UNL d   1       3.055  -1.032  -2.270  0.00  0.00     0.025 A 
ATOM      9  C   UNL d   1       3.793  -1.898  -3.083  0.00  0.00     0.023 A 
ATOM     10 BR   UNL d   1       1.604  -0.122  -3.089  0.00  0.00    -0.050 Br
ATOM     11  C   UNL d   1       4.851  -2.638  -2.549  0.00  0.00     0.038 A 
ATOM     12  C   UNL d   1       5.203  -2.505  -1.207  0.00  0.00     0.069 A 
ATOM     13  C   UNL d   1       4.490  -1.616  -0.402  0.00  0.00     0.053 A 
BRANCH  12  14
ATOM     14  O   UNL d   1       6.255  -3.278  -0.804  0.00  0.00    -0.356 OA
ATOM     15  C   UNL d   1       6.561  -3.280   0.587  0.00  0.00     0.210 C 
ENDBRANCH  12  14
ENDBRANCH   5   7
ENDBRANCH   1   5
BRANCH   2  16
ATOM     16  C   UNL d   1       2.129   0.161   3.719  0.00  0.00     0.006 A 
ATOM     17  S   UNL d   1       3.507   0.350   4.732  0.00  0.00    -0.102 SA
ATOM     18  C   UNL d   1       2.675  -0.251   6.096  0.00  0.00     0.050 A 
ATOM     19  C   UNL d   1       1.364  -0.552   5.809  0.00  0.00     0.008 A 
ATOM     20  C   UNL d   1       1.046  -0.307   4.440  0.00  0.00     0.019 A 
ENDBRANCH   2  16
TORSDOF 4
