REMARK  5 active torsions:
REMARK  status: ('A' for Active; 'I' for Inactive)
REMARK    1  A    between atoms: C_7  and  C_1 
REMARK    2  A    between atoms: N_11  and  C_3 
REMARK    3  A    between atoms: C_10  and  C_4 
REMARK    4  A    between atoms: O_15  and  C_7 
REMARK    5  A    between atoms: C_21  and  O_15 
ROOT
ATOM      1  C   UNL d   1      -1.416  -1.460  -0.070  0.00  0.00     0.060 C 
ATOM      2  C   UNL d   1       0.823  -0.322   0.244  0.00  0.00     0.080 C 
ATOM      3  C   UNL d   1       0.169   0.856   0.224  0.00  0.00     0.138 C 
ATOM      4  C   UNL d   1       0.067  -1.645   0.219  0.00  0.00     0.108 C 
ATOM      5  C   UNL d   1      -1.974  -0.228  -0.053  0.00  0.00     0.064 C 
ATOM      6  O   UNL d   1      -1.211   0.912   0.157  0.00  0.00    -0.302 OA
ATOM      7  C   UNL d   1       2.251  -0.341   0.310  0.00  0.00     0.100 C 
ATOM      8  N   UNL d   1       3.407  -0.327   0.324  0.00  0.00    -0.191 NA
ATOM      9  C   UNL d   1      -3.427   0.135  -0.197  0.00  0.00     0.077 C 
ENDROOT
BRANCH   4  10
ATOM     10  C   UNL d   1       0.763  -2.679  -0.677  0.00  0.00    -0.044 A 
ATOM     11  C   UNL d   1       1.251  -3.870  -0.103  0.00  0.00     0.010 A 
ATOM     12  C   UNL d   1       1.931  -4.814  -0.876  0.00  0.00     0.024 A 
ATOM     13  C   UNL d   1       2.137  -4.573  -2.230  0.00  0.00     0.034 A 
ATOM     14  C   UNL d   1       1.660  -3.403  -2.818  0.00  0.00     0.024 A 
ATOM     15 CL   UNL d   1       2.988  -5.727  -3.182  0.00  0.00    -0.084 Cl
ATOM     16  C   UNL d   1       0.969  -2.461  -2.049  0.00  0.00     0.010 A 
ENDBRANCH   4  10
BRANCH   3  17
ATOM     17  N   UNL d   1       0.743   2.103   0.280  0.00  0.00    -0.282 NA
ATOM     18  H   UNL d   1       0.130   2.832  -0.077  0.00  0.00     0.126 HD
ATOM     19  H   UNL d   1       1.700   2.174  -0.056  0.00  0.00     0.126 HD
ENDBRANCH   3  17
BRANCH   1  20
ATOM     20  C   UNL d   1      -2.191  -2.702  -0.326  0.00  0.00     0.292 C 
ATOM     21  O   UNL d   1      -1.920  -3.789   0.162  0.00  0.00    -0.259 OA
BRANCH  20  22
ATOM     22  O   UNL d   1      -3.109  -2.461  -1.286  0.00  0.00    -0.318 OA
BRANCH  22  23
ATOM     23  C   UNL d   1      -3.614  -3.582  -2.021  0.00  0.00     0.174 C 
ATOM     24  C   UNL d   1      -2.924  -3.533  -3.371  0.00  0.00     0.034 C 
ENDBRANCH  22  23
ENDBRANCH  20  22
ENDBRANCH   1  20
TORSDOF 5
