REMARK  4 active torsions:
REMARK  status: ('A' for Active; 'I' for Inactive)
REMARK    1  A    between atoms: C_9  and  N_6 
REMARK    2  A    between atoms: C_10  and  C_9 
REMARK    3  A    between atoms: O_12  and  C_10 
REMARK    4  A    between atoms: C_15  and  O_12 
ROOT
ATOM      1  C   UNL d   1      -0.184  -1.361   0.200  0.00  0.00     0.709 A 
ATOM      2  N   UNL d   1       1.016  -0.871   0.531  0.00  0.00    -0.115 N 
ATOM      3  HN  UNL d   1       1.782  -1.308   1.044  1.00  0.00     0.207 HD
ATOM      4  N   UNL d   1      -0.993  -0.411  -0.384  0.00  0.00    -0.113 N 
ATOM      5  HN  UNL d   1      -1.963  -0.536  -0.672  1.00  0.00     0.203 HD
ATOM      6  N   UNL d   1       0.928   0.358  -0.003  0.00  0.00    -0.194 N 
ATOM      7  N   UNL d   1      -0.271   0.695  -0.501  0.00  0.00     0.011 NA
ATOM      8  N   UNL d   1      -0.602  -2.634   0.367  0.00  0.00    -0.215 N 
ATOM      9  C   UNL d   1       0.372  -3.709   0.524  0.00  0.00     0.141 C 
ATOM     10  C   UNL d   1      -1.810  -3.107  -0.299  0.00  0.00     0.141 C 
ATOM     11  C   UNL d   1      -0.156  -4.819  -0.381  0.00  0.00     0.022 C 
ATOM     12  C   UNL d   1      -1.660  -4.627  -0.310  0.00  0.00     0.022 C 
ENDROOT
BRANCH   6  13
ATOM     13  C   UNL d   1       2.043   1.264  -0.017  0.00  0.00     0.278 C 
BRANCH  13  14
ATOM     14  C   UNL d   1       2.989   0.901  -1.123  0.00  0.00     0.280 C 
ATOM     15  O   UNL d   1       2.831   0.031  -1.965  0.00  0.00    -0.263 OA
BRANCH  14  16
ATOM     16  O   UNL d   1       4.109   1.683  -1.024  0.00  0.00    -0.320 OA
BRANCH  16  17
ATOM     17  C   UNL d   1       5.226   1.254  -1.819  0.00  0.00     0.174 C 
ATOM     18  C   UNL d   1       6.073   0.322  -0.973  0.00  0.00     0.034 C 
ENDBRANCH  16  17
ENDBRANCH  14  16
ENDBRANCH  13  14
ENDBRANCH   6  13
TORSDOF 4
