REMARK  3 active torsions:
REMARK  status: ('A' for Active; 'I' for Inactive)
REMARK    1  A    between atoms: C_3  and  C_1 
REMARK    2  A    between atoms: N_7  and  C_2 
REMARK       I    between atoms: N_9  and  C_3 
REMARK    3  A    between atoms: N_10  and  N_9 
ROOT
ATOM      1  C   UNL d   1       0.197   1.390  -0.009  0.00  0.00     0.100 A 
ATOM      2  C   UNL d   1       1.461   0.800   0.003  0.00  0.00     0.052 A 
ATOM      3  S   UNL d   1      -1.049   0.184  -0.063  0.00  0.00    -0.094 SA
ATOM      4  C   UNL d   1       1.360  -0.633  -0.024  0.00  0.00     0.038 A 
ATOM      5  C   UNL d   1       0.066  -1.092  -0.062  0.00  0.00     0.053 A 
ENDROOT
BRANCH   1   6
ATOM      6  C   UNL d   1      -0.233   2.788   0.014  0.00  0.00     0.274 C 
ATOM      7  O   UNL d   1       0.341   3.706   0.608  0.00  0.00    -0.266 OA
ATOM      8  N   UNL d   1      -1.412   3.054  -0.689  0.00  0.00    -0.289 N 
ATOM      9  H   UNL d   1      -1.843   2.309  -1.235  0.00  0.00     0.183 HD
BRANCH   8  10
ATOM     10  N   UNL d   1      -1.958   4.359  -0.729  0.00  0.00    -0.247 NA
ATOM     11  H   UNL d   1      -1.264   4.978  -0.285  0.00  0.00     0.143 HD
ATOM     12  H   UNL d   1      -2.758   4.384  -0.092  0.00  0.00     0.143 HD
ENDBRANCH   8  10
ENDBRANCH   1   6
BRANCH   2  13
ATOM     13  N   UNL d   1       2.680   1.428  -0.005  0.00  0.00    -0.388 N 
ATOM     14  C   UNL d   1       3.871   0.799  -0.570  0.00  0.00     0.149 C 
ATOM     15  C   UNL d   1       2.940   2.627   0.787  0.00  0.00     0.149 C 
ENDBRANCH   2  13
TORSDOF 3
