REMARK  6 active torsions:
REMARK  status: ('A' for Active; 'I' for Inactive)
REMARK    1  A    between atoms: C_2  and  C_15 
REMARK    2  A    between atoms: N_10  and  C_3 
REMARK    3  A    between atoms: C_12  and  C_7 
REMARK    4  A    between atoms: N_13  and  N_10 
REMARK    5  A    between atoms: C_16  and  C_12 
REMARK    6  A    between atoms: O_20  and  C_16 
ROOT
ATOM      1  N   UNL d   1       3.585  -0.372   0.026  0.00  0.00    -0.280 N 
ATOM      2  HN  UNL d   1       4.545  -0.717   0.007  1.00  0.00     0.189 HD
ENDROOT
BRANCH   1   3
ATOM      3  C   UNL d   1       2.550  -1.139   0.049  0.00  0.00     0.162 A 
ATOM      4  N   UNL d   1       1.266  -0.722   0.085  0.00  0.00    -0.305 N 
ATOM      5  C   UNL d   1       0.275  -1.655   0.034  0.00  0.00     0.238 A 
ATOM      6  H   UNL d   1       1.080   0.270   0.122  0.00  0.00     0.171 HD
ATOM      7  C   UNL d   1       0.830  -3.066  -0.051  0.00  0.00     0.157 A 
ATOM      8  O   UNL d   1      -0.915  -1.376   0.007  0.00  0.00    -0.272 OA
ATOM      9  S   UNL d   1       2.651  -2.865   0.013  0.00  0.00    -0.077 SA
BRANCH   7  10
ATOM     10  C   UNL d   1       0.385  -3.707  -1.360  0.00  0.00     0.135 C 
BRANCH  10  11
ATOM     11  C   UNL d   1       0.826  -5.144  -1.445  0.00  0.00     0.141 C 
ATOM     12  O   UNL d   1       0.888  -5.901  -0.490  0.00  0.00    -0.650 OA
BRANCH  11  13
ATOM     13  O   UNL d   1       1.106  -5.545  -2.704  0.00  0.00    -0.776 OA
ATOM     14  H   UNL d   1       1.008  -4.859  -3.391  0.00  0.00     0.167 HD
ENDBRANCH  11  13
ENDBRANCH  10  11
ENDBRANCH   7  10
ENDBRANCH   1   3
BRANCH   1  15
ATOM     15  N   UNL d   1       3.248   0.984   0.030  0.00  0.00    -0.302 N 
ATOM     16  C   UNL d   1       4.274   1.784   0.033  0.00  0.00     0.033 C 
ATOM     17  C   UNL d   1       5.706   1.291   0.044  0.00  0.00     0.070 C 
ATOM     18  HN  UNL d   1       2.284   1.317   0.031  1.00  0.00     0.186 HD
BRANCH  16  19
ATOM     19  C   UNL d   1       3.973   3.223   0.033  0.00  0.00     0.006 A 
ATOM     20  C   UNL d   1       4.812   4.159   0.610  0.00  0.00     0.064 A 
ATOM     21  S   UNL d   1       4.228   5.751   0.490  0.00  0.00    -0.100 SA
ATOM     22  C   UNL d   1       2.812   5.247  -0.341  0.00  0.00     0.016 A 
ATOM     23  C   UNL d   1       2.791   3.861  -0.530  0.00  0.00    -0.006 A 
ATOM     24  C   UNL d   1       1.770   6.079  -0.800  0.00  0.00     0.019 A 
ATOM     25  C   UNL d   1       1.676   3.322  -1.228  0.00  0.00     0.014 A 
ATOM     26  C   UNL d   1       0.635   4.140  -1.679  0.00  0.00     0.001 A 
ATOM     27  C   UNL d   1       0.684   5.507  -1.464  0.00  0.00     0.001 A 
ENDBRANCH  16  19
ENDBRANCH   1  15
TORSDOF 6
