REMARK  3 active torsions:
REMARK  status: ('A' for Active; 'I' for Inactive)
REMARK    1  A    between atoms: N_2  and  C_1 
REMARK    2  A    between atoms: O_5  and  C_1 
REMARK    3  A    between atoms: C_4  and  N_2 
ROOT
ATOM      1  C   UNL d   1       0.864   2.042  -1.674  0.00  0.00     0.034 A 
ATOM      2  C   UNL d   1       1.816   4.178  -3.201  0.00  0.00     0.116 A 
ATOM      3  F   UNL d   1       2.273   5.202  -3.934  0.00  0.00    -0.206 F 
ATOM      4  C   UNL d   1       0.482   3.358  -1.374  0.00  0.00     0.032 A 
ATOM      5  C   UNL d   1       1.752   1.817  -2.731  0.00  0.00     0.032 A 
ATOM      6  C   UNL d   1       0.947   4.425  -2.147  0.00  0.00     0.044 A 
ATOM      7  C   UNL d   1       2.225   2.887  -3.496  0.00  0.00     0.044 A 
ENDROOT
BRANCH   1   8
ATOM      8  N   UNL d   1       0.386   1.022  -0.827  0.00  0.00    -0.328 N 
ATOM      9  H   UNL d   1      -0.022   1.326   0.048  0.00  0.00     0.169 HD
BRANCH   8  10
ATOM     10  C   UNL d   1       0.307  -0.334  -1.026  0.00  0.00     0.214 C 
ATOM     11  S   UNL d   1       0.269  -1.224  -2.429  0.00  0.00    -0.033 SA
BRANCH  10  12
ATOM     12  O   UNL d   1       0.070  -1.038   0.110  0.00  0.00    -0.332 OA
ATOM     13  C   UNL d   1       0.987  -0.868   1.201  0.00  0.00     0.212 C 
ENDBRANCH  10  12
ENDBRANCH   8  10
ENDBRANCH   1   8
TORSDOF 3
