REMARK  1 active torsions:
REMARK  status: ('A' for Active; 'I' for Inactive)
REMARK    1  A    between atoms: C_7  and  C_3 
ROOT
ATOM      1  C   UNL d   1       1.856   0.472   0.106  0.00  0.00    -0.002 A 
ATOM      2  C   UNL d   1       0.814   1.537   0.261  0.00  0.00     0.189 A 
ATOM      3  C   UNL d   1       3.139   0.771  -0.129  0.00  0.00     0.024 C 
ATOM      4  C   UNL d   1      -0.446   0.848   0.568  0.00  0.00     0.021 A 
ATOM      5  C   UNL d   1      -0.227  -0.530   0.590  0.00  0.00    -0.040 A 
ATOM      6  C   UNL d   1       1.200  -0.873   0.290  0.00  0.00     0.082 A 
ATOM      7  O   UNL d   1       0.969   2.734   0.148  0.00  0.00    -0.287 OA
ATOM      8  C   UNL d   1      -1.687   1.408   0.812  0.00  0.00     0.016 A 
ATOM      9  C   UNL d   1      -1.271  -1.397   0.865  0.00  0.00     0.008 A 
ATOM     10  C   UNL d   1      -2.743   0.536   1.089  0.00  0.00     0.001 A 
ATOM     11  C   UNL d   1      -2.535  -0.855   1.115  0.00  0.00     0.001 A 
ENDROOT
BRANCH   3  12
ATOM     12  C   UNL d   1       4.185  -0.250  -0.265  0.00  0.00    -0.014 A 
ATOM     13  C   UNL d   1       4.919  -0.739   0.830  0.00  0.00     0.045 A 
ATOM     14  C   UNL d   1       5.933  -1.683   0.640  0.00  0.00     0.048 A 
ATOM     15 CL   UNL d   1       4.605  -0.210   2.446  0.00  0.00    -0.083 Cl
ATOM     16  C   UNL d   1       6.206  -2.150  -0.642  0.00  0.00     0.035 A 
ATOM     17  C   UNL d   1       5.468  -1.698  -1.734  0.00  0.00     0.024 A 
ATOM     18 CL   UNL d   1       7.469  -3.293  -0.882  0.00  0.00    -0.084 Cl
ATOM     19  C   UNL d   1       4.459  -0.750  -1.546  0.00  0.00     0.015 A 
ENDBRANCH   3  12
TORSDOF 1
