REMARK  7 active torsions:
REMARK  status: ('A' for Active; 'I' for Inactive)
REMARK    1  A    between atoms: N_9  and  C_1 
REMARK    2  A    between atoms: C_5  and  C_4 
REMARK       I    between atoms: N_13  and  C_5 
REMARK    3  A    between atoms: O_19  and  C_8 
REMARK    4  A    between atoms: O_20  and  C_10 
REMARK    5  A    between atoms: C_21  and  N_13 
REMARK    6  A    between atoms: C_17  and  C_24 
REMARK    7  A    between atoms: C_24  and  C_21 
ROOT
ATOM      1  C   UNL d   1       0.005  -3.363  -0.024  0.00  0.00     0.251 C 
ATOM      2  O   UNL d   1      -1.076  -3.928  -0.092  0.00  0.00    -0.268 OA
ATOM      3  N   UNL d   1       1.207  -4.039   0.085  0.00  0.00    -0.357 N 
ATOM      4  H   UNL d   1       2.080  -3.542  -0.020  0.00  0.00     0.162 HD
ENDROOT
BRANCH   3   5
ATOM      5  C   UNL d   1       1.222  -5.496   0.100  0.00  0.00     0.127 C 
BRANCH   5   6
ATOM      6  C   UNL d   1       2.641  -6.064   0.117  0.00  0.00     0.058 C 
BRANCH   6   7
ATOM      7  C   UNL d   1       2.667  -7.571   0.217  0.00  0.00    -0.054 A 
ATOM      8  C   UNL d   1       2.667  -8.197   1.476  0.00  0.00     0.046 A 
ATOM      9  C   UNL d   1       2.723  -9.596   1.601  0.00  0.00     0.102 A 
ATOM     10  C   UNL d   1       2.745 -10.379   0.435  0.00  0.00     0.101 A 
ATOM     11  C   UNL d   1       2.744  -9.754  -0.819  0.00  0.00     0.040 A 
ATOM     12  C   UNL d   1       2.697  -8.364  -0.931  0.00  0.00     0.010 A 
BRANCH   9  13
ATOM     13  O   UNL d   1       2.796 -10.241   2.808  0.00  0.00    -0.353 OA
ATOM     14  C   UNL d   1       2.812  -9.452   3.990  0.00  0.00     0.210 C 
ENDBRANCH   9  13
BRANCH  10  15
ATOM     15  O   UNL d   1       2.833 -11.746   0.355  0.00  0.00    -0.353 OA
ATOM     16  C   UNL d   1       2.199 -12.491   1.387  0.00  0.00     0.210 C 
ENDBRANCH  10  15
ENDBRANCH   6   7
ENDBRANCH   5   6
ENDBRANCH   3   5
BRANCH   1  17
ATOM     17  C   UNL d   1       0.065  -1.875  -0.092  0.00  0.00     0.037 A 
ATOM     18  C   UNL d   1       1.094  -1.131   0.478  0.00  0.00     0.061 A 
ATOM     19  C   UNL d   1       1.072   0.268   0.397  0.00  0.00     0.146 A 
ATOM     20  C   UNL d   1       0.040   0.995  -0.235  0.00  0.00     0.107 A 
ATOM     21  F   UNL d   1       2.127   0.910   0.928  0.00  0.00    -0.204 F 
ATOM     22  C   UNL d   1      -0.985   0.198  -0.784  0.00  0.00     0.146 A 
ATOM     23  C   UNL d   1      -0.982  -1.200  -0.719  0.00  0.00     0.061 A 
ATOM     24  F   UNL d   1      -2.054   0.768  -1.364  0.00  0.00    -0.204 F 
BRANCH  20  25
ATOM     25  N   UNL d   1       0.036   2.383  -0.309  0.00  0.00    -0.385 N 
ATOM     26  C   UNL d   1       0.633   3.217   0.727  0.00  0.00     0.149 C 
ATOM     27  C   UNL d   1      -0.602   3.101  -1.408  0.00  0.00     0.149 C 
ENDBRANCH  20  25
ENDBRANCH   1  17
TORSDOF 7
