REMARK  6 active torsions:
REMARK  status: ('A' for Active; 'I' for Inactive)
REMARK    1  A    between atoms: C_2  and  C_1 
REMARK       I    between atoms: N_7  and  C_1 
REMARK    2  A    between atoms: C_3  and  C_5 
REMARK    3  A    between atoms: C_4  and  C_6 
REMARK    4  A    between atoms: C_8  and  N_7 
REMARK    5  A    between atoms: O_22  and  C_13 
REMARK    6  A    between atoms: O_21  and  C_14 
ROOT
ATOM      1  C   UNL d   1       0.645  -3.611   3.479  0.00  0.00     0.050 A 
ATOM      2  C   UNL d   1       1.146  -1.418   4.419  0.00  0.00     0.050 A 
ATOM      3  C   UNL d   1       0.625  -1.636   2.037  0.00  0.00     0.036 A 
ATOM      4  C   UNL d   1       0.999  -2.803   4.571  0.00  0.00     0.032 A 
ATOM      5  C   UNL d   1       0.995  -0.854   3.139  0.00  0.00     0.045 A 
ATOM      6  C   UNL d   1       0.424  -3.009   2.223  0.00  0.00     0.045 A 
ENDROOT
BRANCH   3   7
ATOM      7  N   UNL d   1       0.384  -1.065   0.759  0.00  0.00    -0.323 N 
ATOM      8  C   UNL d   1       0.984   0.096   0.290  0.00  0.00     0.261 C 
ATOM      9  O   UNL d   1       1.962   0.630   0.822  0.00  0.00    -0.267 OA
ATOM     10  H   UNL d   1      -0.242  -1.555   0.135  0.00  0.00     0.169 HD
BRANCH   8  11
ATOM     11  C   UNL d   1       0.407   0.734  -0.934  0.00  0.00     0.098 A 
ATOM     12  C   UNL d   1      -0.957   1.094  -0.965  0.00  0.00     0.086 A 
ATOM     13  C   UNL d   1      -1.443   1.874  -2.026  0.00  0.00     0.038 A 
ATOM     14  C   UNL d   1      -0.595   2.311  -3.038  0.00  0.00     0.005 A 
ATOM     15  C   UNL d   1       0.747   1.948  -3.021  0.00  0.00     0.038 A 
ATOM     16  C   UNL d   1       1.263   1.176  -1.970  0.00  0.00     0.086 A 
BRANCH  12  17
ATOM     17  O   UNL d   1      -1.765   0.664   0.059  0.00  0.00    -0.355 OA
ATOM     18  C   UNL d   1      -2.936   1.441   0.302  0.00  0.00     0.210 C 
ENDBRANCH  12  17
BRANCH  16  19
ATOM     19  O   UNL d   1       2.582   0.793  -1.935  0.00  0.00    -0.355 OA
ATOM     20  C   UNL d   1       3.497   1.633  -2.636  0.00  0.00     0.210 C 
ENDBRANCH  16  19
ENDBRANCH   8  11
ENDBRANCH   3   7
BRANCH   2  21
ATOM     21  C   UNL d   1       1.413  -0.529   5.612  0.00  0.00     0.417 C 
ATOM     22  F   UNL d   1       1.445  -1.214   6.792  0.00  0.00    -0.166 F 
ATOM     23  F   UNL d   1       2.596   0.135   5.536  0.00  0.00    -0.166 F 
ATOM     24  F   UNL d   1       0.451   0.423   5.772  0.00  0.00    -0.166 F 
ENDBRANCH   2  21
BRANCH   1  25
ATOM     25  C   UNL d   1       0.507  -5.106   3.648  0.00  0.00     0.417 C 
ATOM     26  F   UNL d   1       0.675  -5.526   4.932  0.00  0.00    -0.166 F 
ATOM     27  F   UNL d   1      -0.719  -5.561   3.267  0.00  0.00    -0.166 F 
ATOM     28  F   UNL d   1       1.413  -5.802   2.908  0.00  0.00    -0.166 F 
ENDBRANCH   1  25
TORSDOF 6
