REMARK  7 active torsions:
REMARK  status: ('A' for Active; 'I' for Inactive)
REMARK    1  A    between atoms: C_2  and  C_1 
REMARK    2  A    between atoms: S_3  and  C_1 
REMARK    3  A    between atoms: C_4  and  C_1 
REMARK    4  A    between atoms: C_7  and  S_3 
REMARK    5  A    between atoms: C_5  and  C_4 
REMARK    6  A    between atoms: C_6  and  C_5 
REMARK    7  A    between atoms: N_17  and  C_13 
ROOT
ATOM      1  C   UNL d   1       1.027   0.284  -0.405  0.00  0.00     0.097 C 
ENDROOT
BRANCH   1   2
ATOM      2  C   UNL d   1       0.635   1.657  -1.013  0.00  0.00     0.017 A 
ATOM      3  C   UNL d   1      -0.427   1.927  -1.911  0.00  0.00     0.044 A 
ATOM      4 CL   UNL d   1      -1.286   0.770  -2.868  0.00  0.00    -0.084 Cl
ATOM      5  C   UNL d   1      -0.898   3.242  -2.127  0.00  0.00     0.024 A 
ATOM      6  C   UNL d   1      -0.329   4.333  -1.490  0.00  0.00     0.005 A 
ATOM      7  C   UNL d   1       0.762   4.118  -0.673  0.00  0.00     0.043 A 
ATOM      8  C   UNL d   1       1.226   2.818  -0.452  0.00  0.00     0.125 A 
ATOM      9  F   UNL d   1       2.273   2.732   0.378  0.00  0.00    -0.205 F 
ENDBRANCH   1   2
BRANCH   1  10
ATOM     10  S   UNL d   1       0.377  -1.260  -1.179  0.00  0.00    -0.118 SA
BRANCH  10  11
ATOM     11  C   UNL d   1       1.322  -1.625  -2.664  0.00  0.00     0.022 A 
ATOM     12  C   UNL d   1       0.979  -2.820  -3.353  0.00  0.00     0.022 A 
ATOM     13  C   UNL d   1       1.713  -3.211  -4.479  0.00  0.00     0.024 A 
ATOM     14  C   UNL d   1       2.813  -2.470  -4.900  0.00  0.00     0.002 A 
ATOM     15  C   UNL d   1       3.143  -1.291  -4.240  0.00  0.00     0.001 A 
ATOM     16  C   UNL d   1       2.385  -0.857  -3.147  0.00  0.00     0.020 A 
BRANCH  12  17
ATOM     17  N   UNL d   1      -0.223  -3.506  -3.074  0.00  0.00    -0.302 NA
ATOM     18  H   UNL d   1      -0.571  -3.287  -2.139  0.00  0.00     0.124 HD
ATOM     19  H   UNL d   1      -0.206  -4.498  -3.278  0.00  0.00     0.124 HD
ENDBRANCH  12  17
ENDBRANCH  10  11
ENDBRANCH   1  10
BRANCH   1  20
ATOM     20  C   UNL d   1       2.487   0.095   0.091  0.00  0.00     0.104 C 
BRANCH  20  21
ATOM     21  C   UNL d   1       2.758  -1.200   0.831  0.00  0.00     0.161 C 
ATOM     22  O   UNL d   1       1.961  -1.687   1.634  0.00  0.00    -0.292 OA
BRANCH  21  23
ATOM     23  C   UNL d   1       4.074  -1.865   0.635  0.00  0.00     0.010 A 
ATOM     24  C   UNL d   1       5.234  -1.132   0.354  0.00  0.00     0.023 A 
ATOM     25  C   UNL d   1       6.469  -1.780   0.166  0.00  0.00    -0.039 A 
ATOM     26  C   UNL d   1       7.692  -0.963  -0.142  0.00  0.00     0.050 C 
ATOM     27  C   UNL d   1       6.514  -3.177   0.280  0.00  0.00     0.040 A 
ATOM     28  C   UNL d   1       5.365  -3.909   0.584  0.00  0.00     0.025 A 
ATOM     29 CL   UNL d   1       7.992  -4.049   0.059  0.00  0.00    -0.084 Cl
ATOM     30  C   UNL d   1       4.145  -3.257   0.765  0.00  0.00     0.017 A 
ENDBRANCH  21  23
ENDBRANCH  20  21
ENDBRANCH   1  20
TORSDOF 7
