REMARK  2 active torsions:
REMARK  status: ('A' for Active; 'I' for Inactive)
REMARK    1  A    between atoms: C_2  and  C_1 
REMARK       I    between atoms: N_7  and  C_2 
REMARK    2  A    between atoms: C_8  and  C_5 
ROOT
ATOM      1  C   UNL d   1      -0.314  -1.294   0.089  0.00  0.00     0.064 A 
ATOM      2  C   UNL d   1      -1.579  -0.680   0.327  0.00  0.00     0.057 A 
ATOM      3  C   UNL d   1       0.568  -0.232  -0.052  0.00  0.00     0.065 A 
ATOM      4  C   UNL d   1      -1.423   0.681   0.181  0.00  0.00     0.087 A 
ATOM      5  O   UNL d   1      -0.108   0.954  -0.041  0.00  0.00    -0.314 OA
ATOM      6  C   UNL d   1       2.036  -0.121  -0.191  0.00  0.00     0.077 C 
ENDROOT
BRANCH   1   7
ATOM      7  C   UNL d   1       0.045  -2.707   0.127  0.00  0.00     0.256 C 
ATOM      8  N   UNL d   1      -0.903  -3.636  -0.279  0.00  0.00    -0.348 N 
ATOM      9  C   UNL d   1      -2.068  -3.465  -1.131  0.00  0.00     0.126 C 
ATOM     10  C   UNL d   1      -0.690  -5.049  -0.015  0.00  0.00     0.126 C 
ATOM     11  C   UNL d   1      -2.966  -4.604  -0.683  0.00  0.00     0.021 C 
ATOM     12  C   UNL d   1      -1.975  -5.743  -0.467  0.00  0.00     0.021 C 
ATOM     13  O   UNL d   1       1.140  -3.069   0.553  0.00  0.00    -0.267 OA
ENDBRANCH   1   7
BRANCH   4  14
ATOM     14  C   UNL d   1      -2.347   1.809   0.244  0.00  0.00    -0.002 A 
ATOM     15  C   UNL d   1      -3.730   1.579   0.346  0.00  0.00     0.016 A 
ATOM     16  C   UNL d   1      -4.634   2.642   0.433  0.00  0.00     0.024 A 
ATOM     17  C   UNL d   1      -4.161   3.950   0.415  0.00  0.00     0.034 A 
ATOM     18  C   UNL d   1      -2.796   4.202   0.300  0.00  0.00     0.024 A 
ATOM     19 CL   UNL d   1      -5.270   5.258   0.541  0.00  0.00    -0.084 Cl
ATOM     20  C   UNL d   1      -1.895   3.135   0.213  0.00  0.00     0.016 A 
ENDBRANCH   4  14
TORSDOF 2
