REMARK  4 active torsions:
REMARK  status: ('A' for Active; 'I' for Inactive)
REMARK    1  A    between atoms: N_8  and  C_6 
REMARK    2  A    between atoms: N_15  and  N_9 
REMARK    3  A    between atoms: C_11  and  C_14 
REMARK    4  A    between atoms: C_13  and  N_15 
ROOT
ATOM      1  N   UNL d   1      -3.175  -1.223   0.045  0.00  0.00    -0.298 N 
ATOM      2  H   UNL d   1      -2.625  -0.452  -0.370  0.00  0.00     0.187 HD
ENDROOT
BRANCH   1   3
ATOM      3  C   UNL d   1      -4.576  -1.156  -0.082  0.00  0.00     0.081 A 
ATOM      4  C   UNL d   1      -5.241  -0.291  -0.976  0.00  0.00     0.131 A 
ATOM      5  C   UNL d   1      -6.652  -0.243  -1.028  0.00  0.00     0.054 A 
ATOM      6  C   UNL d   1      -7.430  -1.063  -0.198  0.00  0.00     0.050 A 
ATOM      7  C   UNL d   1      -6.777  -1.964   0.649  0.00  0.00     0.018 A 
ATOM      8  C   UNL d   1      -5.380  -2.014   0.694  0.00  0.00     0.034 A 
BRANCH   4   9
ATOM      9  N   UNL d   1      -4.496   0.574  -1.907  0.00  0.00    -0.113 N 
ATOM     10  O   UNL d   1      -5.153   1.250  -2.713  0.00  0.00    -0.532 OA
ATOM     11  O   UNL d   1      -3.258   0.587  -1.844  0.00  0.00    -0.532 OA
ENDBRANCH   4   9
BRANCH   6  12
ATOM     12  C   UNL d   1      -8.938  -0.982  -0.195  0.00  0.00     0.417 C 
ATOM     13  F   UNL d   1      -9.431  -0.044  -1.049  0.00  0.00    -0.166 F 
ATOM     14  F   UNL d   1      -9.525  -2.157  -0.547  0.00  0.00    -0.166 F 
ATOM     15  F   UNL d   1      -9.433  -0.665   1.033  0.00  0.00    -0.166 F 
ENDBRANCH   6  12
ENDBRANCH   1   3
BRANCH   1  16
ATOM     16  N   UNL d   1      -2.596  -2.354   0.513  0.00  0.00    -0.291 N 
ATOM     17  C   UNL d   1      -1.309  -2.362   0.728  0.00  0.00     0.185 A 
ATOM     18  C   UNL d   1      -0.693  -3.669   1.190  0.00  0.00     0.283 A 
ATOM     19  C   UNL d   1      -0.397  -1.162   0.559  0.00  0.00     0.283 A 
ATOM     20  N   UNL d   1       0.659  -3.629   1.407  0.00  0.00    -0.273 N 
ATOM     21  O   UNL d   1      -1.352  -4.683   1.350  0.00  0.00    -0.265 OA
ATOM     22  C   UNL d   1       1.488  -2.566   1.236  0.00  0.00     0.330 A 
ATOM     23  H   UNL d   1       1.090  -4.489   1.722  0.00  0.00     0.173 HD
ATOM     24  N   UNL d   1       0.930  -1.404   0.799  0.00  0.00    -0.273 N 
ATOM     25  O   UNL d   1       2.688  -2.644   1.473  0.00  0.00    -0.246 OA
ATOM     26  H   UNL d   1       1.556  -0.615   0.700  0.00  0.00     0.173 HD
ATOM     27  O   UNL d   1      -0.816  -0.058   0.245  0.00  0.00    -0.265 OA
ATOM     28  HN  UNL d   1      -3.157  -3.186   0.695  1.00  0.00     0.187 HD
ENDBRANCH   1  16
TORSDOF 4
