REMARK  5 active torsions:
REMARK  status: ('A' for Active; 'I' for Inactive)
REMARK    1  A    between atoms: C_2  and  N_1 
REMARK    2  A    between atoms: C_7  and  N_3 
REMARK    3  A    between atoms: C_11  and  C_4 
REMARK    4  A    between atoms: C_10  and  C_7 
REMARK    5  A    between atoms: O_12  and  C_11 
ROOT
ATOM      1  N   UNL d   1      -1.509  -0.021   0.157  0.00  0.00    -0.377 N 
ATOM      2  N   UNL d   1       1.420   0.046  -0.415  0.00  0.00     0.095 N 
ATOM      3  C   UNL d   1      -0.768  -1.265  -0.128  0.00  0.00     0.153 C 
ATOM      4  C   UNL d   1      -0.863   1.210  -0.347  0.00  0.00     0.153 C 
ATOM      5  C   UNL d   1       0.652   1.252  -0.017  0.00  0.00     0.292 C 
ATOM      6  C   UNL d   1       0.740  -1.125   0.182  0.00  0.00     0.292 C 
ENDROOT
BRANCH   1   7
ATOM      7  C   UNL d   1      -2.541   0.010   1.089  0.00  0.00     0.038 A 
ATOM      8  C   UNL d   1      -3.587  -0.952   1.151  0.00  0.00    -0.008 A 
ATOM      9  C   UNL d   1      -4.614  -0.813   2.117  0.00  0.00     0.011 A 
ATOM     10  C   UNL d   1      -4.649   0.258   3.001  0.00  0.00     0.001 A 
ATOM     11  C   UNL d   1      -3.642   1.204   2.953  0.00  0.00     0.002 A 
ATOM     12  C   UNL d   1      -2.608   1.072   2.020  0.00  0.00     0.030 A 
BRANCH   8  13
ATOM     13  C   UNL d   1      -3.732  -2.144   0.223  0.00  0.00     0.205 C 
BRANCH  13  14
ATOM     14  O   UNL d   1      -3.684  -1.797  -1.153  0.00  0.00    -0.396 OA
ATOM     15  H   UNL d   1      -3.555  -0.830  -1.186  0.00  0.00     0.209 HD
ENDBRANCH  13  14
ENDBRANCH   8  13
ENDBRANCH   1   7
BRANCH   2  16
ATOM     16  C   UNL d   1       1.537  -0.035  -1.883  0.00  0.00     0.311 C 
BRANCH  16  17
ATOM     17  C   UNL d   1       2.277  -1.257  -2.389  0.00  0.00    -0.030 A 
ATOM     18  C   UNL d   1       1.621  -2.192  -3.211  0.00  0.00     0.009 A 
ATOM     19  C   UNL d   1       2.292  -3.318  -3.674  0.00  0.00     0.001 A 
ATOM     20  C   UNL d   1       3.623  -3.533  -3.326  0.00  0.00     0.000 A 
ATOM     21  C   UNL d   1       4.287  -2.613  -2.515  0.00  0.00     0.001 A 
ATOM     22  C   UNL d   1       3.617  -1.481  -2.049  0.00  0.00     0.009 A 
ENDBRANCH  16  17
ENDBRANCH   2  16
TORSDOF 5
