REMARK  6 active torsions:
REMARK  status: ('A' for Active; 'I' for Inactive)
REMARK    1  A    between atoms: C_2  and  C_1 
REMARK       I    between atoms: N_6  and  C_2 
REMARK    2  A    between atoms: C_21  and  N_6 
REMARK    3  A    between atoms: C_10  and  C_20 
REMARK    4  A    between atoms: S_12  and  C_22 
REMARK    5  A    between atoms: C_20  and  S_12 
REMARK    6  A    between atoms: C_22  and  C_21 
ROOT
ATOM      1  C   UNL d   1       1.299   2.317   1.009  0.00  0.00     0.257 C 
ATOM      2  O   UNL d   1       1.352   2.773   2.143  0.00  0.00    -0.267 OA
ATOM      3  N   UNL d   1       1.286   3.142  -0.100  0.00  0.00    -0.356 N 
ATOM      4  H   UNL d   1       1.264   2.744  -1.032  0.00  0.00     0.162 HD
ENDROOT
BRANCH   3   5
ATOM      5  C   UNL d   1       1.234   4.583   0.029  0.00  0.00     0.133 C 
BRANCH   5   6
ATOM      6  C   UNL d   1       2.618   5.215   0.169  0.00  0.00     0.093 C 
BRANCH   6   7
ATOM      7  S   UNL d   1       2.535   7.034   0.306  0.00  0.00    -0.163 SA
BRANCH   7   8
ATOM      8  C   UNL d   1       1.637   7.175   1.886  0.00  0.00     0.112 C 
BRANCH   8   9
ATOM      9  C   UNL d   1       1.357   8.615   2.234  0.00  0.00    -0.049 A 
ATOM     10  C   UNL d   1       0.184   9.239   1.776  0.00  0.00     0.009 A 
ATOM     11  C   UNL d   1      -0.081  10.571   2.098  0.00  0.00     0.024 A 
ATOM     12  C   UNL d   1       0.829  11.288   2.870  0.00  0.00     0.034 A 
ATOM     13  C   UNL d   1       2.000  10.686   3.325  0.00  0.00     0.024 A 
ATOM     14 CL   UNL d   1       0.506  12.932   3.264  0.00  0.00    -0.084 Cl
ATOM     15  C   UNL d   1       2.265   9.353   3.006  0.00  0.00     0.009 A 
ENDBRANCH   8   9
ENDBRANCH   7   8
ENDBRANCH   6   7
ENDBRANCH   5   6
ENDBRANCH   3   5
BRANCH   1  16
ATOM     16  C   UNL d   1       1.236   0.850   0.762  0.00  0.00     0.108 A 
ATOM     17  C   UNL d   1       1.221  -0.040   1.841  0.00  0.00     0.135 A 
ATOM     18  F   UNL d   1       1.259   0.392   3.110  0.00  0.00    -0.205 F 
ATOM     19  C   UNL d   1       1.162  -1.421   1.639  0.00  0.00     0.043 A 
ATOM     20  C   UNL d   1       1.113  -1.939   0.347  0.00  0.00     0.006 A 
ATOM     21  C   UNL d   1       1.120  -1.068  -0.738  0.00  0.00     0.043 A 
ATOM     22  C   UNL d   1       1.180   0.310  -0.525  0.00  0.00     0.135 A 
ATOM     23  F   UNL d   1       1.177   1.100  -1.611  0.00  0.00    -0.205 F 
ENDBRANCH   1  16
TORSDOF 6
