REMARK  3 active torsions:
REMARK  status: ('A' for Active; 'I' for Inactive)
REMARK       I    between atoms: N_2  and  C_1 
REMARK    1  A    between atoms: C_3  and  C_1 
REMARK    2  A    between atoms: C_11  and  N_2 
REMARK    3  A    between atoms: C_4  and  C_5 
ROOT
ATOM      1  C   UNL d   1       1.105  -0.041  -0.060  0.00  0.00     0.256 C 
ATOM      2  N   UNL d   1       2.471  -0.002  -0.282  0.00  0.00    -0.323 N 
ATOM      3  O   UNL d   1       0.514  -0.729   0.763  0.00  0.00    -0.267 OA
ATOM      4  H   UNL d   1       2.815   0.746  -0.872  0.00  0.00     0.169 HD
ENDROOT
BRANCH   1   5
ATOM      5  C   UNL d   1       0.316   0.921  -0.875  0.00  0.00     0.032 A 
ATOM      6  C   UNL d   1       0.630   1.191  -2.208  0.00  0.00     0.017 A 
ATOM      7  C   UNL d   1      -0.113   2.141  -2.919  0.00  0.00     0.009 A 
ATOM      8  C   UNL d   1      -1.180   2.841  -2.321  0.00  0.00    -0.051 A 
ATOM      9  C   UNL d   1      -1.505   2.515  -0.994  0.00  0.00     0.009 A 
ATOM     10  C   UNL d   1      -0.769   1.564  -0.279  0.00  0.00     0.017 A 
BRANCH   8  11
ATOM     11  C   UNL d   1      -1.927   3.933  -3.109  0.00  0.00    -0.024 C 
ATOM     12  C   UNL d   1      -3.047   4.626  -2.300  0.00  0.00     0.019 C 
ATOM     13  C   UNL d   1      -0.926   5.032  -3.530  0.00  0.00     0.019 C 
ATOM     14  C   UNL d   1      -2.579   3.330  -4.371  0.00  0.00     0.019 C 
ENDBRANCH   8  11
ENDBRANCH   1   5
BRANCH   2  15
ATOM     15  C   UNL d   1       3.454  -0.792   0.348  0.00  0.00     0.035 A 
ATOM     16  C   UNL d   1       3.162  -1.892   1.159  0.00  0.00     0.031 A 
ATOM     17  C   UNL d   1       4.189  -2.621   1.766  0.00  0.00     0.021 A 
ATOM     18  C   UNL d   1       5.516  -2.251   1.561  0.00  0.00     0.011 A 
ATOM     19  C   UNL d   1       5.824  -1.167   0.744  0.00  0.00     0.021 A 
ATOM     20 BR   UNL d   1       6.903  -3.226   2.396  0.00  0.00    -0.051 Br
ATOM     21  C   UNL d   1       4.794  -0.444   0.134  0.00  0.00     0.031 A 
ENDBRANCH   2  15
TORSDOF 3
