REMARK  8 active torsions:
REMARK  status: ('A' for Active; 'I' for Inactive)
REMARK    1  A    between atoms: N_6  and  C_1 
REMARK    2  A    between atoms: N_9  and  C_1 
REMARK    3  A    between atoms: N_2  and  N_6 
REMARK    4  A    between atoms: C_4  and  C_8 
REMARK    5  A    between atoms: C_14  and  N_9 
REMARK    6  A    between atoms: C_11  and  C_14 
REMARK    7  A    between atoms: C_15  and  C_11 
REMARK    8  A    between atoms: O_12  and  C_15 
ROOT
ATOM      1  N   UNL d   1       0.193   0.089  -1.123  0.00  0.00    -0.277 N 
ATOM      2  H   UNL d   1       0.682  -0.110  -1.995  0.00  0.00     0.189 HD
ENDROOT
BRANCH   1   3
ATOM      3  N   UNL d   1      -1.104   0.502  -1.166  0.00  0.00    -0.309 N 
ATOM      4  C   UNL d   1      -1.650   0.529  -2.340  0.00  0.00     0.120 C 
ATOM      5  HN  UNL d   1      -1.614   0.773  -0.325  1.00  0.00     0.186 HD
BRANCH   4   6
ATOM      6  C   UNL d   1      -3.006   1.092  -2.530  0.00  0.00     0.002 A 
ATOM      7  C   UNL d   1      -3.684   0.996  -3.751  0.00  0.00     0.045 A 
ATOM      8 CL   UNL d   1      -3.053   0.137  -5.111  0.00  0.00    -0.083 Cl
ATOM      9  C   UNL d   1      -4.934   1.609  -3.902  0.00  0.00     0.024 A 
ATOM     10  C   UNL d   1      -5.507   2.318  -2.843  0.00  0.00     0.002 A 
ATOM     11  C   UNL d   1      -4.839   2.406  -1.624  0.00  0.00     0.001 A 
ATOM     12  C   UNL d   1      -3.595   1.793  -1.466  0.00  0.00     0.014 A 
ENDBRANCH   4   6
ENDBRANCH   1   3
BRANCH   1  13
ATOM     13  C   UNL d   1       0.883   0.025   0.063  0.00  0.00     0.186 C 
ATOM     14  S   UNL d   1       0.210  -0.057   1.593  0.00  0.00    -0.040 SA
BRANCH  13  15
ATOM     15  N   UNL d   1       2.249   0.053  -0.031  0.00  0.00    -0.366 N 
ATOM     16  H   UNL d   1       2.708   0.038   0.873  0.00  0.00     0.161 HD
BRANCH  15  17
ATOM     17  C   UNL d   1       3.021   0.555  -1.155  0.00  0.00     0.124 C 
BRANCH  17  18
ATOM     18  C   UNL d   1       3.802  -0.539  -1.873  0.00  0.00     0.046 C 
BRANCH  18  19
ATOM     19  C   UNL d   1       2.933  -1.660  -2.432  0.00  0.00     0.168 C 
BRANCH  19  20
ATOM     20  O   UNL d   1       1.895  -1.119  -3.253  0.00  0.00    -0.396 OA
ATOM     21  C   UNL d   1       1.125  -2.161  -3.849  0.00  0.00     0.201 C 
ENDBRANCH  19  20
ENDBRANCH  18  19
ENDBRANCH  17  18
ENDBRANCH  15  17
ENDBRANCH  13  15
ENDBRANCH   1  13
TORSDOF 8
