REMARK  5 active torsions:
REMARK  status: ('A' for Active; 'I' for Inactive)
REMARK    1  A    between atoms: C_7  and  C_1 
REMARK    2  A    between atoms: O_16  and  C_7 
REMARK    3  A    between atoms: N_9  and  N_8 
REMARK    4  A    between atoms: C_12  and  C_11 
REMARK    5  A    between atoms: C_23  and  O_16 
ROOT
ATOM      1  C   UNL d   1      -0.077   1.324  -0.020  0.00  0.00     0.109 A 
ATOM      2  C   UNL d   1      -0.232   2.693  -0.080  0.00  0.00     0.153 A 
ATOM      3  N   UNL d   1       2.006   2.298  -0.073  0.00  0.00    -0.302 N 
ATOM      4  HN  UNL d   1       3.014   2.449  -0.088  1.00  0.00     0.186 HD
ATOM      5  N   UNL d   1       1.028   3.217  -0.088  0.00  0.00    -0.283 N 
ATOM      6  C   UNL d   1       1.340   1.134  -0.035  0.00  0.00     0.042 A 
ATOM      7  N   UNL d   1      -1.306   3.514  -0.122  0.00  0.00    -0.283 N 
ATOM      8  C   UNL d   1       2.110  -0.136  -0.000  0.00  0.00     0.071 C 
ATOM      9  H   UNL d   1       1.256   4.203  -0.097  0.00  0.00     0.188 HD
ATOM     10  H   UNL d   1      -2.234   3.098   0.014  0.00  0.00     0.188 HD
ENDROOT
BRANCH   1  11
ATOM     11  C   UNL d   1      -1.150   0.356   0.081  0.00  0.00     0.299 C 
ATOM     12  O   UNL d   1      -2.332   0.668   0.161  0.00  0.00    -0.259 OA
BRANCH  11  13
ATOM     13  O   UNL d   1      -0.682  -0.922   0.164  0.00  0.00    -0.318 OA
BRANCH  13  14
ATOM     14  C   UNL d   1      -1.595  -1.894   0.689  0.00  0.00     0.174 C 
ATOM     15  C   UNL d   1      -1.462  -1.896   2.201  0.00  0.00     0.034 C 
ENDBRANCH  13  14
ENDBRANCH  11  13
ENDBRANCH   1  11
BRANCH   7  16
ATOM     16  N   UNL d   1      -1.147   4.855  -0.028  0.00  0.00    -0.303 N 
ATOM     17  C   UNL d   1      -2.063   5.655  -0.494  0.00  0.00     0.032 C 
ATOM     18  C   UNL d   1      -3.324   5.206  -1.205  0.00  0.00     0.070 C 
ATOM     19  HN  UNL d   1      -0.309   5.240   0.408  1.00  0.00     0.186 HD
BRANCH  17  20
ATOM     20  C   UNL d   1      -1.816   7.136  -0.365  0.00  0.00    -0.013 A 
ATOM     21  C   UNL d   1      -0.656   7.578   0.292  0.00  0.00     0.015 A 
ATOM     22  C   UNL d   1      -0.373   8.942   0.406  0.00  0.00     0.020 A 
ATOM     23  C   UNL d   1      -1.252   9.873  -0.135  0.00  0.00     0.011 A 
ATOM     24  C   UNL d   1      -2.410   9.454  -0.786  0.00  0.00     0.020 A 
ATOM     25 BR   UNL d   1      -0.870  11.718   0.010  0.00  0.00    -0.051 Br
ATOM     26  C   UNL d   1      -2.694   8.087  -0.902  0.00  0.00     0.015 A 
ENDBRANCH  17  20
ENDBRANCH   7  16
TORSDOF 5
