REMARK  6 active torsions:
REMARK  status: ('A' for Active; 'I' for Inactive)
REMARK    1  A    between atoms: C_3  and  C_5 
REMARK       I    between atoms: N_9  and  C_3 
REMARK    2  A    between atoms: O_13  and  C_4 
REMARK    3  A    between atoms: O_14  and  C_6 
REMARK    4  A    between atoms: C_15  and  N_9 
REMARK    5  A    between atoms: C_11  and  C_16 
REMARK    6  A    between atoms: C_16  and  C_15 
ROOT
ATOM      1  N   UNL d   1       4.490   0.112   1.404  0.00  0.00    -0.197 NA
ATOM      2  C   UNL d   1       5.233  -0.741   1.137  0.00  0.00     0.068 C 
ATOM      3  C   UNL d   1       6.198  -1.795   0.841  0.00  0.00     0.226 C 
ENDROOT
BRANCH   3   4
ATOM      4  C   UNL d   1       6.653  -1.687  -0.592  0.00  0.00     0.230 C 
ATOM      5  O   UNL d   1       6.072  -2.268  -1.505  0.00  0.00    -0.273 OA
ATOM      6  N   UNL d   1       7.775  -0.905  -0.791  0.00  0.00    -0.360 N 
ATOM      7  H   UNL d   1       8.179  -0.377  -0.028  0.00  0.00     0.162 HD
BRANCH   6   8
ATOM      8  C   UNL d   1       8.345  -0.739  -2.115  0.00  0.00     0.127 C 
BRANCH   8   9
ATOM      9  C   UNL d   1       7.708   0.415  -2.905  0.00  0.00     0.058 C 
BRANCH   9  10
ATOM     10  C   UNL d   1       8.250   0.593  -4.309  0.00  0.00    -0.054 A 
ATOM     11  C   UNL d   1       8.637  -0.505  -5.095  0.00  0.00     0.046 A 
ATOM     12  C   UNL d   1       9.143  -0.354  -6.394  0.00  0.00     0.102 A 
ATOM     13  C   UNL d   1       9.198   0.933  -6.951  0.00  0.00     0.101 A 
ATOM     14  C   UNL d   1       8.796   2.033  -6.182  0.00  0.00     0.040 A 
ATOM     15  C   UNL d   1       8.321   1.868  -4.878  0.00  0.00     0.010 A 
BRANCH  12  16
ATOM     16  O   UNL d   1       9.610  -1.405  -7.137  0.00  0.00    -0.353 OA
ATOM     17  C   UNL d   1       9.625  -2.694  -6.536  0.00  0.00     0.210 C 
ENDBRANCH  12  16
BRANCH  13  18
ATOM     18  O   UNL d   1       9.654   1.276  -8.198  0.00  0.00    -0.353 OA
ATOM     19  C   UNL d   1       9.454   0.318  -9.231  0.00  0.00     0.210 C 
ENDBRANCH  13  18
ENDBRANCH   9  10
ENDBRANCH   8   9
ENDBRANCH   6   8
ENDBRANCH   3   4
TORSDOF 6
