REMARK  8 active torsions:
REMARK  status: ('A' for Active; 'I' for Inactive)
REMARK    1  A    between atoms: N_14  and  C_2 
REMARK    2  A    between atoms: C_8  and  C_6 
REMARK    3  A    between atoms: O_17  and  C_11 
REMARK    4  A    between atoms: O_18  and  C_13 
REMARK    5  A    between atoms: C_21  and  N_14 
REMARK    6  A    between atoms: C_19  and  C_21 
REMARK    7  A    between atoms: C_22  and  C_19 
REMARK    8  A    between atoms: O_20  and  C_22 
ROOT
ATOM      1  C   UNL d   1      -1.399  -0.350  -0.028  0.00  0.00     0.140 C 
ATOM      2  C   UNL d   1      -0.536  -1.381  -0.174  0.00  0.00     0.074 C 
ATOM      3  S   UNL d   1       1.144  -1.129  -0.596  0.00  0.00    -0.086 SA
ATOM      4  C   UNL d   1      -1.000   1.078  -0.093  0.00  0.00     0.265 C 
ATOM      5  N   UNL d   1       0.303   1.417  -0.243  0.00  0.00    -0.339 N 
ATOM      6  C   UNL d   1       1.454   0.572  -0.123  0.00  0.00     0.186 C 
ATOM      7  C   UNL d   1      -2.801  -0.599   0.112  0.00  0.00     0.107 C 
ATOM      8  N   UNL d   1      -3.941  -0.807   0.189  0.00  0.00    -0.191 NA
ATOM      9  O   UNL d   1      -1.826   1.985  -0.011  0.00  0.00    -0.267 OA
ATOM     10  H   UNL d   1       0.461   2.417  -0.224  0.00  0.00     0.164 HD
ENDROOT
BRANCH   2  11
ATOM     11  N   UNL d   1      -0.964  -2.719  -0.111  0.00  0.00    -0.286 NA
ATOM     12  H   UNL d   1      -0.411  -3.241  -0.795  0.00  0.00     0.128 HD
BRANCH  11  13
ATOM     13  C   UNL d   1      -0.878  -3.444   1.172  0.00  0.00     0.095 C 
BRANCH  13  14
ATOM     14  C   UNL d   1      -2.232  -4.044   1.535  0.00  0.00     0.041 C 
BRANCH  14  15
ATOM     15  C   UNL d   1      -2.162  -4.845   2.831  0.00  0.00     0.168 C 
BRANCH  15  16
ATOM     16  O   UNL d   1      -1.723  -3.992   3.887  0.00  0.00    -0.396 OA
ATOM     17  C   UNL d   1      -1.645  -4.679   5.129  0.00  0.00     0.201 C 
ENDBRANCH  15  16
ENDBRANCH  14  15
ENDBRANCH  13  14
ENDBRANCH  11  13
ENDBRANCH   2  11
BRANCH   6  18
ATOM     18  C   UNL d   1       2.195   0.712   1.198  0.00  0.00    -0.022 A 
ATOM     19  C   UNL d   1       1.550   1.043   2.405  0.00  0.00     0.049 A 
ATOM     20  C   UNL d   1       2.274   1.187   3.597  0.00  0.00     0.101 A 
ATOM     21  C   UNL d   1       3.661   0.985   3.581  0.00  0.00     0.099 A 
ATOM     22  C   UNL d   1       4.318   0.645   2.403  0.00  0.00     0.040 A 
ATOM     23  C   UNL d   1       3.590   0.512   1.221  0.00  0.00     0.013 A 
BRANCH  20  24
ATOM     24  O   UNL d   1       1.732   1.523   4.810  0.00  0.00    -0.353 OA
ATOM     25  C   UNL d   1       0.332   1.751   4.865  0.00  0.00     0.210 C 
ENDBRANCH  20  24
BRANCH  21  26
ATOM     26  O   UNL d   1       4.373   1.124   4.742  0.00  0.00    -0.358 OA
ATOM     27  H   UNL d   1       5.309   0.934   4.571  0.00  0.00     0.217 HD
ENDBRANCH  21  26
ENDBRANCH   6  18
TORSDOF 8
