REMARK  4 active torsions:
REMARK  status: ('A' for Active; 'I' for Inactive)
REMARK    1  A    between atoms: S_2  and  C_1 
REMARK    2  A    between atoms: N_10  and  S_2 
REMARK    3  A    between atoms: C_7  and  C_4 
REMARK    4  A    between atoms: O_13  and  C_7 
ROOT
ATOM      1  C   UNL d   1      -0.115   1.115   0.003  0.00  0.00     0.146 A 
ATOM      2  N   UNL d   1       0.695  -0.011  -0.009  0.00  0.00    -0.336 N 
ATOM      3  C   UNL d   1      -0.080  -1.166   0.001  0.00  0.00     0.111 A 
ATOM      4  C   UNL d   1      -1.424   0.659   0.012  0.00  0.00     0.046 A 
ATOM      5  C   UNL d   1      -1.402  -0.749   0.011  0.00  0.00     0.039 A 
ATOM      6  C   UNL d   1       2.147  -0.015  -0.031  0.00  0.00     0.157 C 
ENDROOT
BRANCH   1   7
ATOM      7  S   UNL d   1       0.523   2.775   0.002  0.00  0.00     0.255 S 
ATOM      8  O   UNL d   1       1.195   2.907   1.270  0.00  0.00    -0.205 OA
ATOM      9  O   UNL d   1       1.174   2.915  -1.277  0.00  0.00    -0.205 OA
BRANCH   7  10
ATOM     10  N   UNL d   1      -0.804   3.790   0.017  0.00  0.00    -0.224 NA
ATOM     11  H   UNL d   1      -1.318   3.752   0.894  0.00  0.00     0.136 HD
ATOM     12  H   UNL d   1      -1.355   3.732  -0.837  0.00  0.00     0.136 HD
ENDBRANCH   7  10
ENDBRANCH   1   7
BRANCH   3  13
ATOM     13  C   UNL d   1       0.427  -2.527  -0.001  0.00  0.00     0.309 C 
ATOM     14  O   UNL d   1       1.607  -2.856  -0.011  0.00  0.00    -0.258 OA
BRANCH  13  15
ATOM     15  O   UNL d   1      -0.619  -3.403   0.012  0.00  0.00    -0.321 OA
ATOM     16  C   UNL d   1      -0.243  -4.780   0.015  0.00  0.00     0.213 C 
ENDBRANCH  13  15
ENDBRANCH   3  13
TORSDOF 4
