REMARK  4 active torsions:
REMARK  status: ('A' for Active; 'I' for Inactive)
REMARK    1  A    between atoms: O_2  and  S_1 
REMARK    2  A    between atoms: C_3  and  S_1 
REMARK    3  A    between atoms: C_14  and  O_2 
REMARK    4  A    between atoms: C_4  and  C_9 
ROOT
ATOM      1  C   UNL d   1       1.520   3.796  -3.772  0.00  0.00    -0.035 A 
ATOM      2  C   UNL d   1       0.212   3.283  -3.784  0.00  0.00     0.012 A 
ATOM      3  C   UNL d   1       2.460   3.172  -2.937  0.00  0.00     0.012 A 
ATOM      4  C   UNL d   1       0.823   1.543  -2.204  0.00  0.00     0.089 A 
ATOM      5  C   UNL d   1      -0.134   2.171  -3.003  0.00  0.00     0.039 A 
ATOM      6  C   UNL d   1       2.116   2.062  -2.161  0.00  0.00     0.039 A 
ENDROOT
BRANCH   4   7
ATOM      7  O   UNL d   1       0.406   0.454  -1.476  0.00  0.00    -0.229 OA
BRANCH   7   8
ATOM      8  S   UNL d   1       1.455  -0.741  -1.092  0.00  0.00     0.303 S 
ATOM      9  O   UNL d   1       2.400  -0.253  -0.102  0.00  0.00    -0.193 OA
ATOM     10  O   UNL d   1       1.923  -1.373  -2.309  0.00  0.00    -0.193 OA
BRANCH   8  11
ATOM     11  C   UNL d   1       0.450  -1.953  -0.246  0.00  0.00     0.087 A 
ATOM     12  C   UNL d   1      -0.171  -2.972  -0.981  0.00  0.00     0.029 A 
ATOM     13  C   UNL d   1      -0.840  -3.993  -0.304  0.00  0.00     0.044 A 
ATOM     14  C   UNL d   1      -0.875  -3.992   1.088  0.00  0.00     0.116 A 
ATOM     15  C   UNL d   1      -0.261  -2.982   1.823  0.00  0.00     0.044 A 
ATOM     16  F   UNL d   1      -1.497  -4.988   1.732  0.00  0.00    -0.206 F 
ATOM     17  C   UNL d   1       0.409  -1.956   1.156  0.00  0.00     0.029 A 
ENDBRANCH   8  11
ENDBRANCH   7   8
ENDBRANCH   4   7
BRANCH   1  18
ATOM     18  C   UNL d   1       1.894   4.981  -4.644  0.00  0.00     0.141 C 
ATOM     19  S   UNL d   1       3.216   4.563  -5.835  0.00  0.00    -0.148 SA
ATOM     20  C   UNL d   1       4.187   6.075  -5.626  0.00  0.00     0.085 C 
ATOM     21  C   UNL d   1       4.113   6.487  -4.170  0.00  0.00     0.085 C 
ATOM     22  S   UNL d   1       2.375   6.444  -3.664  0.00  0.00    -0.148 SA
ENDBRANCH   1  18
TORSDOF 4
