REMARK  3 active torsions:
REMARK  status: ('A' for Active; 'I' for Inactive)
REMARK       I    between atoms: C_2  and  N_1 
REMARK       I    between atoms: N_6  and  C_2 
REMARK    1  A    between atoms: C_11  and  C_4 
REMARK    2  A    between atoms: C_14  and  N_6 
REMARK    3  A    between atoms: O_20  and  C_17 
ROOT
ATOM      1  N   UNL d   1      -2.519   0.298  -0.226  0.00  0.00    -0.321 N 
ATOM      2  C   UNL d   1      -3.373   0.445  -1.308  0.00  0.00     0.319 C 
ATOM      3  C   UNL d   1      -0.136   0.737   0.067  0.00  0.00    -0.017 A 
ATOM      4  C   UNL d   1      -1.535   1.286   0.273  0.00  0.00     0.156 C 
ATOM      5  C   UNL d   1       0.107  -0.611  -0.139  0.00  0.00    -0.007 A 
ATOM      6  N   UNL d   1      -3.417   1.687  -1.899  0.00  0.00    -0.335 N 
ATOM      7  C   UNL d   1      -2.309  -1.085   0.251  0.00  0.00     0.134 C 
ATOM      8  S   UNL d   1       1.762  -0.976  -0.255  0.00  0.00    -0.106 SA
ATOM      9  C   UNL d   1      -0.964  -1.657  -0.240  0.00  0.00     0.067 C 
ATOM     10  C   UNL d   1       1.090   1.480   0.102  0.00  0.00     0.018 A 
ATOM     11  C   UNL d   1       2.193   0.666  -0.039  0.00  0.00     0.051 A 
ATOM     12  O   UNL d   1      -4.051  -0.488  -1.732  0.00  0.00    -0.247 OA
ATOM     13  H   UNL d   1      -3.177   2.450  -1.293  0.00  0.00     0.165 HD
ENDROOT
BRANCH   4  14
ATOM     14  C   UNL d   1      -1.672   1.595   1.773  0.00  0.00    -0.031 A 
ATOM     15  C   UNL d   1      -2.480   2.671   2.183  0.00  0.00     0.012 A 
ATOM     16  C   UNL d   1      -2.585   3.032   3.539  0.00  0.00     0.037 A 
ATOM     17  C   UNL d   1      -1.895   2.319   4.517  0.00  0.00     0.068 A 
ATOM     18  C   UNL d   1      -1.128   1.223   4.134  0.00  0.00     0.037 A 
ATOM     19  C   UNL d   1      -1.024   0.862   2.788  0.00  0.00     0.012 A 
BRANCH  17  20
ATOM     20  O   UNL d   1      -1.879   2.574   5.859  0.00  0.00    -0.356 OA
ATOM     21  C   UNL d   1      -2.600   3.711   6.313  0.00  0.00     0.210 C 
ENDBRANCH  17  20
ENDBRANCH   4  14
BRANCH   6  22
ATOM     22  C   UNL d   1      -4.378   2.057  -2.962  0.00  0.00     0.023 C 
ATOM     23  C   UNL d   1      -5.813   2.037  -2.408  0.00  0.00     0.037 C 
ATOM     24  C   UNL d   1      -4.044   3.491  -3.424  0.00  0.00     0.037 C 
ATOM     25  C   UNL d   1      -4.289   1.146  -4.202  0.00  0.00     0.037 C 
ENDBRANCH   6  22
TORSDOF 3
