REMARK  8 active torsions:
REMARK  status: ('A' for Active; 'I' for Inactive)
REMARK    1  A    between atoms: N_2  and  C_1 
REMARK    2  A    between atoms: C_3  and  C_1 
REMARK    3  A    between atoms: C_5  and  C_1 
REMARK    4  A    between atoms: O_8  and  C_1 
REMARK       I    between atoms: C_4  and  N_2 
REMARK    5  A    between atoms: C_7  and  C_4 
REMARK    6  A    between atoms: O_13  and  C_5 
REMARK    7  A    between atoms: C_16  and  O_8 
REMARK    8  A    between atoms: C_17  and  O_13 
ROOT
ATOM      1  C   UNL d   1       1.030   0.058  -0.061  0.00  0.00     0.327 C 
ENDROOT
BRANCH   1   2
ATOM      2  N   UNL d   1       0.542   1.427   0.239  0.00  0.00    -0.309 N 
ATOM      3  C   UNL d   1       0.656   2.443  -0.678  0.00  0.00     0.254 C 
ATOM      4  O   UNL d   1       1.188   2.299  -1.774  0.00  0.00    -0.268 OA
ATOM      5  H   UNL d   1      -0.117   1.516   1.004  0.00  0.00     0.166 HD
BRANCH   3   6
ATOM      6  C   UNL d   1       0.096   3.767  -0.299  0.00  0.00     0.032 A 
ATOM      7  C   UNL d   1       0.018   4.178   1.038  0.00  0.00     0.017 A 
ATOM      8  C   UNL d   1      -0.435   5.463   1.346  0.00  0.00     0.001 A 
ATOM      9  C   UNL d   1      -0.813   6.337   0.327  0.00  0.00     0.000 A 
ATOM     10  C   UNL d   1      -0.748   5.929  -1.005  0.00  0.00     0.001 A 
ATOM     11  C   UNL d   1      -0.293   4.647  -1.318  0.00  0.00     0.017 A 
ENDBRANCH   3   6
ENDBRANCH   1   2
BRANCH   1  12
ATOM     12  C   UNL d   1       0.385  -0.574  -1.358  0.00  0.00     0.448 C 
ATOM     13  F   UNL d   1      -0.554   0.239  -1.916  0.00  0.00    -0.166 F 
ATOM     14  F   UNL d   1       1.297  -0.852  -2.320  0.00  0.00    -0.166 F 
ATOM     15  F   UNL d   1      -0.278  -1.737  -1.120  0.00  0.00    -0.166 F 
ENDBRANCH   1  12
BRANCH   1  16
ATOM     16  C   UNL d   1       0.574  -0.928   1.049  0.00  0.00     0.325 C 
ATOM     17  O   UNL d   1       0.953  -2.081   1.181  0.00  0.00    -0.259 OA
BRANCH  16  18
ATOM     18  O   UNL d   1      -0.377  -0.334   1.839  0.00  0.00    -0.318 OA
BRANCH  18  19
ATOM     19  C   UNL d   1      -1.315  -1.236   2.446  0.00  0.00     0.174 C 
ATOM     20  C   UNL d   1      -2.471  -1.367   1.473  0.00  0.00     0.034 C 
ENDBRANCH  18  19
ENDBRANCH  16  18
ENDBRANCH   1  16
BRANCH   1  21
ATOM     21  O   UNL d   1       2.462   0.098  -0.149  0.00  0.00    -0.346 OA
BRANCH  21  22
ATOM     22  C   UNL d   1       3.139   0.553   1.018  0.00  0.00     0.167 C 
ATOM     23  C   UNL d   1       4.628   0.540   0.732  0.00  0.00     0.033 C 
ENDBRANCH  21  22
ENDBRANCH   1  21
TORSDOF 8
