REMARK  5 active torsions:
REMARK  status: ('A' for Active; 'I' for Inactive)
REMARK    1  A    between atoms: C_7  and  C_1 
REMARK    2  A    between atoms: C_5  and  C_2 
REMARK    3  A    between atoms: C_4  and  C_7 
REMARK    4  A    between atoms: C_6  and  C_4 
REMARK       I    between atoms: N_13  and  C_5 
REMARK    5  A    between atoms: O_14  and  C_6 
ROOT
ATOM      1  C   UNL d   1       1.053   0.152  -0.174  0.00  0.00    -0.040 C 
ATOM      2  C   UNL d   1       1.037  -1.262  -0.227  0.00  0.00     0.044 C 
ATOM      3  C   UNL d   1      -0.178  -1.970  -0.055  0.00  0.00    -0.045 C 
ATOM      4  C   UNL d   1      -0.185   0.821  -0.156  0.00  0.00     0.015 C 
ATOM      5  C   UNL d   1      -1.383  -1.255   0.035  0.00  0.00     0.014 C 
ATOM      6  C   UNL d   1      -1.397   0.136  -0.051  0.00  0.00    -0.061 C 
ATOM      7  C   UNL d   1      -0.239  -3.473   0.007  0.00  0.00     0.049 C 
ATOM      8  C   UNL d   1      -2.679   0.913   0.002  0.00  0.00     0.048 C 
ENDROOT
BRANCH   1   9
ATOM      9  C   UNL d   1       2.306   1.008  -0.149  0.00  0.00     0.059 C 
BRANCH   9  10
ATOM     10  C   UNL d   1       2.661   1.740   1.198  0.00  0.00     0.042 C 
ATOM     11  C   UNL d   1       3.759   2.775   0.873  0.00  0.00     0.026 C 
ATOM     12  C   UNL d   1       1.496   2.530   1.825  0.00  0.00     0.026 C 
BRANCH  10  13
ATOM     13  C   UNL d   1       3.099   0.686   2.228  0.00  0.00     0.148 C 
ATOM     14  O   UNL d   1       2.410  -0.278   2.539  0.00  0.00    -0.649 OA
BRANCH  13  15
ATOM     15  O   UNL d   1       4.306   0.847   2.802  0.00  0.00    -0.776 OA
ATOM     16  H   UNL d   1       4.832   1.624   2.550  0.00  0.00     0.167 HD
ENDBRANCH  13  15
ENDBRANCH  10  13
ENDBRANCH   9  10
ENDBRANCH   1   9
BRANCH   2  17
ATOM     17  C   UNL d   1       2.238  -2.046  -0.625  0.00  0.00     0.250 C 
ATOM     18  O   UNL d   1       2.245  -2.725  -1.638  0.00  0.00    -0.268 OA
ATOM     19  N   UNL d   1       3.317  -2.002   0.207  0.00  0.00    -0.366 N 
ATOM     20  H   UNL d   1       3.204  -1.690   1.172  0.00  0.00     0.159 HD
ATOM     21  H   UNL d   1       4.066  -2.647   0.000  0.00  0.00     0.159 HD
ENDBRANCH   2  17
TORSDOF 5
