REMARK  8 active torsions:
REMARK  status: ('A' for Active; 'I' for Inactive)
REMARK    1  A    between atoms: C_2  and  C_1 
REMARK    2  A    between atoms: O_6  and  C_1 
REMARK    3  A    between atoms: N_3  and  O_6 
REMARK    4  A    between atoms: C_8  and  C_5 
REMARK    5  A    between atoms: N_18  and  C_5 
REMARK    6  A    between atoms: C_9  and  S_15 
REMARK    7  A    between atoms: S_15  and  C_20 
REMARK    8  A    between atoms: C_20  and  C_19 
ROOT
ATOM      1  C   UNL d   1      -1.064   1.513   3.348  0.00  0.00     0.004 A 
ATOM      2  C   UNL d   1       0.033   2.347   3.088  0.00  0.00     0.022 A 
ATOM      3  C   UNL d   1       0.679   3.033   4.130  0.00  0.00    -0.048 A 
ATOM      4  C   UNL d   1      -1.525   1.362   4.658  0.00  0.00     0.015 A 
ATOM      5  C   UNL d   1      -0.884   2.030   5.705  0.00  0.00     0.002 A 
ATOM      6  C   UNL d   1       0.207   2.862   5.441  0.00  0.00     0.008 A 
ENDROOT
BRANCH   1   7
ATOM      7  C   UNL d   1      -1.748   0.803   2.217  0.00  0.00     0.109 C 
ATOM      8  N   UNL d   1      -3.014   0.537   2.338  0.00  0.00    -0.246 N 
ATOM      9  HN  UNL d   1      -3.570   0.760   3.164  1.00  0.00     0.196 HD
BRANCH   8  10
ATOM     10  O   UNL d   1      -3.529  -0.101   1.183  0.00  0.00    -0.193 OA
BRANCH  10  11
ATOM     11  C   UNL d   1      -4.879  -0.340   1.339  0.00  0.00     0.322 C 
ATOM     12  O   UNL d   1      -5.537  -0.073   2.341  0.00  0.00    -0.257 OA
BRANCH  11  13
ATOM     13  C   UNL d   1      -5.452  -0.983   0.163  0.00  0.00     0.082 A 
ATOM     14  S   UNL d   1      -4.579  -1.257  -1.287  0.00  0.00    -0.096 SA
ATOM     15  C   UNL d   1      -5.924  -1.996  -2.046  0.00  0.00     0.050 A 
ATOM     16  C   UNL d   1      -7.024  -2.037  -1.221  0.00  0.00     0.009 A 
ATOM     17  C   UNL d   1      -6.753  -1.447   0.047  0.00  0.00     0.026 A 
ENDBRANCH  11  13
ENDBRANCH  10  11
ENDBRANCH   8  10
BRANCH   7  18
ATOM     18  N   UNL d   1      -0.998   0.460   1.115  0.00  0.00    -0.286 NA
ATOM     19  H   UNL d   1      -1.458  -0.233   0.534  0.00  0.00     0.125 HD
ATOM     20  H   UNL d   1      -0.031   0.219   1.309  0.00  0.00     0.125 HD
ENDBRANCH   7  18
ENDBRANCH   1   7
BRANCH   3  21
ATOM     21  C   UNL d   1       1.813   3.987   3.829  0.00  0.00     0.119 C 
BRANCH  21  22
ATOM     22  S   UNL d   1       3.394   3.456   4.562  0.00  0.00    -0.108 SA
BRANCH  22  23
ATOM     23  C   UNL d   1       4.405   4.873   4.166  0.00  0.00     0.069 A 
ATOM     24  N   UNL d   1       3.905   5.804   3.322  0.00  0.00    -0.361 N 
ATOM     25  C   UNL d   1       4.682   6.875   3.047  0.00  0.00     0.089 A 
ATOM     26  HN  UNL d   1       2.978   5.701   2.909  1.00  0.00     0.165 HD
ATOM     27  C   UNL d   1       5.946   7.067   3.576  0.00  0.00     0.017 A 
ATOM     28  C   UNL d   1       6.449   6.098   4.435  0.00  0.00     0.004 A 
ATOM     29  C   UNL d   1       5.670   4.981   4.734  0.00  0.00     0.037 A 
ENDBRANCH  22  23
ENDBRANCH  21  22
ENDBRANCH   3  21
TORSDOF 8
