REMARK  4 active torsions:
REMARK  status: ('A' for Active; 'I' for Inactive)
REMARK    1  A    between atoms: C_11  and  C_1 
REMARK    2  A    between atoms: C_2  and  C_10 
REMARK    3  A    between atoms: S_9  and  C_11 
REMARK    4  A    between atoms: C_10  and  S_9 
ROOT
ATOM      1  S   UNL d   1      -0.596  -3.830   0.892  0.00  0.00    -0.160 SA
ENDROOT
BRANCH   1   2
ATOM      2  C   UNL d   1       0.861  -3.144   0.030  0.00  0.00     0.114 C 
BRANCH   2   3
ATOM      3  C   UNL d   1       0.873  -1.643   0.018  0.00  0.00    -0.031 A 
ATOM      4  C   UNL d   1       1.334  -0.875   1.070  0.00  0.00     0.059 A 
ATOM      5  S   UNL d   1       1.162   0.796   0.803  0.00  0.00    -0.101 SA
ATOM      6  C   UNL d   1       0.480   0.550  -0.755  0.00  0.00     0.015 A 
ATOM      7  C   UNL d   1       0.429  -0.808  -1.085  0.00  0.00    -0.011 A 
ATOM      8  C   UNL d   1       0.016   1.546  -1.638  0.00  0.00     0.019 A 
ATOM      9  C   UNL d   1      -0.059  -1.151  -2.373  0.00  0.00     0.013 A 
ATOM     10  C   UNL d   1      -0.519  -0.166  -3.253  0.00  0.00     0.001 A 
ATOM     11  C   UNL d   1      -0.493   1.169  -2.881  0.00  0.00     0.001 A 
ENDBRANCH   2   3
ENDBRANCH   1   2
BRANCH   1  12
ATOM     12  C   UNL d   1      -1.906  -3.371  -0.288  0.00  0.00     0.116 C 
BRANCH  12  13
ATOM     13  C   UNL d   1      -3.249  -3.964   0.080  0.00  0.00    -0.005 A 
ATOM     14  C   UNL d   1      -4.125  -3.295   0.960  0.00  0.00     0.042 A 
ATOM     15 CL   UNL d   1      -3.719  -1.777   1.687  0.00  0.00    -0.084 Cl
ATOM     16  C   UNL d   1      -5.381  -3.828   1.282  0.00  0.00     0.024 A 
ATOM     17  C   UNL d   1      -5.789  -5.041   0.741  0.00  0.00     0.003 A 
ATOM     18  C   UNL d   1      -4.938  -5.729  -0.118  0.00  0.00     0.024 A 
ATOM     19  C   UNL d   1      -3.681  -5.201  -0.441  0.00  0.00     0.042 A 
ATOM     20 CL   UNL d   1      -2.701  -6.138  -1.519  0.00  0.00    -0.084 Cl
ENDBRANCH  12  13
ENDBRANCH   1  12
TORSDOF 4
