REMARK  11 active torsions:
REMARK  status: ('A' for Active; 'I' for Inactive)
REMARK    1  A    between atoms: C_8  and  C_1 
REMARK    2  A    between atoms: N_11  and  C_3 
REMARK    3  A    between atoms: C_9  and  C_4 
REMARK    4  A    between atoms: C_10  and  C_4 
REMARK    5  A    between atoms: C_12  and  C_5 
REMARK    6  A    between atoms: C_7  and  N_11 
REMARK    7  A    between atoms: O_16  and  C_8 
REMARK    8  A    between atoms: O_18  and  C_9 
REMARK    9  A    between atoms: O_17  and  C_10 
REMARK   10  A    between atoms: C_23  and  O_17 
REMARK   11  A    between atoms: C_22  and  O_18 
ROOT
ATOM      1  N   UNL d   1       2.501   1.643  -0.038  0.00  0.00    -0.363 N 
ATOM      2  H   UNL d   1       2.417   2.665  -0.013  0.00  0.00     0.165 HD
ENDROOT
BRANCH   1   3
ATOM      3  C   UNL d   1       3.815   1.190   0.009  0.00  0.00     0.112 C 
ATOM      4  C   UNL d   1       5.010   1.812   0.032  0.00  0.00     0.129 C 
BRANCH   4   5
ATOM      5  C   UNL d   1       5.196   3.278   0.025  0.00  0.00     0.300 C 
ATOM      6  O   UNL d   1       6.258   3.839  -0.185  0.00  0.00    -0.259 OA
BRANCH   5   7
ATOM      7  O   UNL d   1       4.035   3.898   0.368  0.00  0.00    -0.318 OA
BRANCH   7   8
ATOM      8  C   UNL d   1       4.176   5.251   0.824  0.00  0.00     0.174 C 
ATOM      9  C   UNL d   1       4.446   5.212   2.317  0.00  0.00     0.034 C 
ENDBRANCH   7   8
ENDBRANCH   5   7
ENDBRANCH   4   5
BRANCH   4  10
ATOM     10  C   UNL d   1       6.168   0.893   0.188  0.00  0.00     0.300 C 
ATOM     11  O   UNL d   1       6.159  -0.287  -0.142  0.00  0.00    -0.259 OA
BRANCH  10  12
ATOM     12  O   UNL d   1       7.148   1.488   0.914  0.00  0.00    -0.318 OA
BRANCH  12  13
ATOM     13  C   UNL d   1       8.101   0.612   1.535  0.00  0.00     0.174 C 
ATOM     14  C   UNL d   1       7.642   0.385   2.964  0.00  0.00     0.034 C 
ENDBRANCH  12  13
ENDBRANCH  10  12
ENDBRANCH   4  10
ENDBRANCH   1   3
BRANCH   1  15
ATOM     15  C   UNL d   1       1.364   0.876  -0.029  0.00  0.00     0.056 A 
ATOM     16  C   UNL d   1       0.059   1.345  -0.033  0.00  0.00     0.107 A 
ATOM     17  S   UNL d   1      -1.065   0.033  -0.006  0.00  0.00    -0.086 SA
ATOM     18  C   UNL d   1       0.154  -1.163  -0.015  0.00  0.00    -0.007 A 
ATOM     19  C   UNL d   1       1.394  -0.560  -0.029  0.00  0.00     0.046 A 
BRANCH  16  20
ATOM     20  C   UNL d   1      -0.543   2.671  -0.064  0.00  0.00     0.302 C 
ATOM     21  O   UNL d   1      -1.742   2.908  -0.144  0.00  0.00    -0.259 OA
BRANCH  20  22
ATOM     22  O   UNL d   1       0.406   3.657  -0.000  0.00  0.00    -0.322 OA
ATOM     23  C   UNL d   1      -0.165   4.973  -0.055  0.00  0.00     0.213 C 
ENDBRANCH  20  22
ENDBRANCH  16  20
BRANCH  18  24
ATOM     24  C   UNL d   1      -0.188  -2.656  -0.015  0.00  0.00    -0.018 C 
ATOM     25  C   UNL d   1      -0.986  -3.023  -1.280  0.00  0.00     0.020 C 
ATOM     26  C   UNL d   1       1.094  -3.521  -0.005  0.00  0.00     0.020 C 
ATOM     27  C   UNL d   1      -1.002  -3.022   1.241  0.00  0.00     0.020 C 
ENDBRANCH  18  24
ENDBRANCH   1  15
TORSDOF 11
