REMARK  8 active torsions:
REMARK  status: ('A' for Active; 'I' for Inactive)
REMARK    1  A    between atoms: C_5  and  C_1 
REMARK    2  A    between atoms: C_6  and  C_2 
REMARK    3  A    between atoms: C_3  and  N_7 
REMARK    4  A    between atoms: N_8  and  C_4 
REMARK    5  A    between atoms: O_23  and  C_5 
REMARK    6  A    between atoms: O_22  and  C_6 
REMARK       I    between atoms: N_7  and  C_10 
REMARK       I    between atoms: C_9  and  N_8 
REMARK    7  A    between atoms: C_13  and  C_9 
REMARK    8  A    between atoms: C_10  and  C_13 
ROOT
ATOM      1  C   UNL d   1       1.743   3.035   0.146  0.00  0.00     0.206 C 
ENDROOT
BRANCH   1   2
ATOM      2  C   UNL d   1       0.703   2.205   0.839  0.00  0.00     0.231 C 
ATOM      3  N   UNL d   1       1.157   1.574   1.976  0.00  0.00    -0.325 N 
ATOM      4  H   UNL d   1       2.164   1.528   2.142  0.00  0.00     0.169 HD
ATOM      5  O   UNL d   1      -0.418   2.088   0.342  0.00  0.00    -0.273 OA
BRANCH   3   6
ATOM      6  C   UNL d   1       0.372   0.752   2.789  0.00  0.00     0.058 A 
ATOM      7  C   UNL d   1       0.934  -0.199   3.631  0.00  0.00     0.106 A 
ATOM      8  S   UNL d   1      -0.270  -1.074   4.485  0.00  0.00    -0.094 SA
ATOM      9  C   UNL d   1      -1.532  -0.192   3.753  0.00  0.00     0.053 A 
ATOM     10  C   UNL d   1      -1.055   0.756   2.877  0.00  0.00     0.038 A 
BRANCH   7  11
ATOM     11  C   UNL d   1       2.351  -0.498   3.766  0.00  0.00     0.302 C 
ATOM     12  O   UNL d   1       3.235   0.154   3.218  0.00  0.00    -0.259 OA
BRANCH  11  13
ATOM     13  O   UNL d   1       2.571  -1.607   4.526  0.00  0.00    -0.322 OA
ATOM     14  C   UNL d   1       3.932  -2.036   4.615  0.00  0.00     0.213 C 
ENDBRANCH  11  13
ENDBRANCH   7  11
ENDBRANCH   3   6
ENDBRANCH   1   2
BRANCH   1  15
ATOM     15  C   UNL d   1       2.579   2.277  -0.852  0.00  0.00     0.231 C 
ATOM     16  N   UNL d   1       1.905   1.363  -1.643  0.00  0.00    -0.325 N 
ATOM     17  H   UNL d   1       0.886   1.387  -1.683  0.00  0.00     0.169 HD
ATOM     18  O   UNL d   1       3.777   2.548  -0.945  0.00  0.00    -0.273 OA
BRANCH  16  19
ATOM     19  C   UNL d   1       2.546   0.452  -2.493  0.00  0.00     0.058 A 
ATOM     20  C   UNL d   1       1.910  -0.261  -3.506  0.00  0.00     0.106 A 
ATOM     21  S   UNL d   1       3.016  -1.287  -4.346  0.00  0.00    -0.094 SA
ATOM     22  C   UNL d   1       4.320  -0.817  -3.366  0.00  0.00     0.053 A 
ATOM     23  C   UNL d   1       3.938   0.109  -2.426  0.00  0.00     0.038 A 
BRANCH  20  24
ATOM     24  C   UNL d   1       0.541  -0.265  -3.986  0.00  0.00     0.302 C 
ATOM     25  O   UNL d   1       0.140  -0.765  -5.032  0.00  0.00    -0.259 OA
BRANCH  24  26
ATOM     26  O   UNL d   1      -0.281   0.380  -3.099  0.00  0.00    -0.322 OA
ATOM     27  C   UNL d   1      -1.660   0.391  -3.486  0.00  0.00     0.213 C 
ENDBRANCH  24  26
ENDBRANCH  20  24
ENDBRANCH  16  19
ENDBRANCH   1  15
TORSDOF 8
