REMARK  4 active torsions:
REMARK  status: ('A' for Active; 'I' for Inactive)
REMARK    1  A    between atoms: C_9  and  C_3 
REMARK    2  A    between atoms: O_12  and  C_4 
REMARK    3  A    between atoms: S_11  and  C_5 
REMARK    4  A    between atoms: C_10  and  C_9 
ROOT
ATOM      1  N   UNL d   1      -0.520   1.357  -0.276  0.00  0.00    -0.317 N 
ATOM      2  HN  UNL d   1      -0.951   2.277  -0.361  1.00  0.00     0.170 HD
ATOM      3  C   UNL d   1      -0.731  -1.045  -0.134  0.00  0.00     0.019 A 
ATOM      4  C   UNL d   1      -1.243   0.233  -0.280  0.00  0.00     0.150 A 
ATOM      5  C   UNL d   1       0.801   1.202  -0.154  0.00  0.00     0.146 A 
ATOM      6  N   UNL d   1       1.423   0.016  -0.075  0.00  0.00    -0.340 N 
ATOM      7  HN  UNL d   1       2.439  -0.044  -0.021  1.00  0.00     0.167 HD
ATOM      8  C   UNL d   1       0.657  -1.096  -0.068  0.00  0.00     0.018 A 
ATOM      9  C   UNL d   1       1.408  -2.394   0.024  0.00  0.00     0.069 C 
ENDROOT
BRANCH   3  10
ATOM     10  C   UNL d   1      -1.602  -2.264  -0.004  0.00  0.00     0.078 C 
BRANCH  10  11
ATOM     11  C   UNL d   1      -1.963  -3.014  -1.271  0.00  0.00    -0.089 C 
ATOM     12  C   UNL d   1      -1.577  -2.693  -2.517  0.00  0.00     0.014 C 
ATOM     13  C   UNL d   1      -2.825  -4.232  -1.046  0.00  0.00     0.043 C 
ENDBRANCH  10  11
ENDBRANCH   3  10
BRANCH   4  14
ATOM     14  O   UNL d   1      -2.583   0.456  -0.442  0.00  0.00    -0.346 OA
ATOM     15  H   UNL d   1      -2.941  -0.295  -0.942  0.00  0.00     0.219 HD
ENDBRANCH   4  14
BRANCH   5  16
ATOM     16  S   UNL d   1       1.847   2.638  -0.081  0.00  0.00    -0.098 SA
ATOM     17  C   UNL d   1       0.605   3.952  -0.148  0.00  0.00     0.099 C 
ENDBRANCH   5  16
TORSDOF 4
