REMARK  5 active torsions:
REMARK  status: ('A' for Active; 'I' for Inactive)
REMARK    1  A    between atoms: N_12  and  C_1 
REMARK    2  A    between atoms: C_8  and  C_4 
REMARK    3  A    between atoms: O_17  and  C_8 
REMARK    4  A    between atoms: C_9  and  N_12 
REMARK    5  A    between atoms: C_20  and  O_17 
ROOT
ATOM      1  C   UNL d   1      -6.322   0.518   0.032  0.00  0.00     0.135 C 
ATOM      2  C   UNL d   1      -4.985   0.659   0.024  0.00  0.00     0.119 C 
ATOM      3  C   UNL d   1      -7.182   1.645   0.061  0.00  0.00     0.107 C 
ATOM      4  N   UNL d   1      -7.832   2.608   0.075  0.00  0.00    -0.191 NA
ENDROOT
BRANCH   1   5
ATOM      5  C   UNL d   1      -6.893  -0.845  -0.083  0.00  0.00     0.305 C 
ATOM      6  O   UNL d   1      -6.233  -1.867  -0.188  0.00  0.00    -0.258 OA
BRANCH   5   7
ATOM      7  O   UNL d   1      -8.246  -0.769  -0.155  0.00  0.00    -0.317 OA
BRANCH   7   8
ATOM      8  C   UNL d   1      -8.916  -1.921  -0.685  0.00  0.00     0.174 C 
ATOM      9  C   UNL d   1      -8.968  -1.780  -2.196  0.00  0.00     0.034 C 
ENDBRANCH   7   8
ENDBRANCH   5   7
ENDBRANCH   1   5
BRANCH   2  10
ATOM     10  N   UNL d   1      -4.242   1.825   0.040  0.00  0.00    -0.345 N 
ATOM     11  H   UNL d   1      -4.766   2.697   0.042  0.00  0.00     0.167 HD
BRANCH  10  12
ATOM     12  C   UNL d   1      -2.892   1.933   0.014  0.00  0.00     0.149 A 
ATOM     13  N   UNL d   1      -2.042   0.934  -0.003  0.00  0.00    -0.335 N 
ATOM     14  C   UNL d   1      -0.741   1.407  -0.013  0.00  0.00     0.051 A 
ATOM     15  HN  UNL d   1      -2.302  -0.052  -0.008  1.00  0.00     0.168 HD
ATOM     16  C   UNL d   1       0.428   0.616  -0.023  0.00  0.00     0.034 A 
ATOM     17  C   UNL d   1      -0.611   2.797  -0.009  0.00  0.00     0.038 A 
ATOM     18  C   UNL d   1       1.683   1.234  -0.026  0.00  0.00     0.044 A 
ATOM     19  C   UNL d   1       1.774   2.618  -0.022  0.00  0.00     0.117 A 
ATOM     20  C   UNL d   1       0.641   3.429  -0.014  0.00  0.00     0.063 A 
ATOM     21  F   UNL d   1       2.984   3.194  -0.024  0.00  0.00    -0.206 F 
ATOM     22  S   UNL d   1      -2.178   3.500   0.005  0.00  0.00    -0.052 SA
ENDBRANCH  10  12
ENDBRANCH   2  10
TORSDOF 5
