REMARK  2 active torsions:
REMARK  status: ('A' for Active; 'I' for Inactive)
REMARK    1  A    between atoms: C_10  and  C_4 
REMARK    2  A    between atoms: C_16  and  C_6 
ROOT
ATOM      1  N   UNL d   1      -1.000  -2.497  -3.325  0.00  0.00    -0.197 NA
ATOM      2  C   UNL d   1      -0.614  -2.487  -2.228  0.00  0.00     0.065 C 
ATOM      3  C   UNL d   1      -0.148  -2.514  -0.834  0.00  0.00     0.188 C 
ENDROOT
BRANCH   3   4
ATOM      4  C   UNL d   1       0.149  -1.127  -0.357  0.00  0.00     0.064 A 
ATOM      5  N   UNL d   1       1.329  -0.548  -0.445  0.00  0.00    -0.352 N 
ATOM      6  C   UNL d   1       1.275   0.740   0.071  0.00  0.00     0.049 A 
ATOM      7  HN  UNL d   1       2.164  -0.984  -0.836  1.00  0.00     0.166 HD
ATOM      8  C   UNL d   1       0.037   1.113   0.556  0.00  0.00     0.081 A 
ATOM      9  S   UNL d   1      -1.079  -0.176   0.386  0.00  0.00    -0.085 SA
BRANCH   6  10
ATOM     10  C   UNL d   1       2.437   1.621   0.037  0.00  0.00    -0.008 A 
ATOM     11  C   UNL d   1       3.370   1.494  -0.999  0.00  0.00     0.022 A 
ATOM     12  C   UNL d   1       4.501   2.339  -1.114  0.00  0.00    -0.042 A 
ATOM     13  C   UNL d   1       5.469   2.131  -2.284  0.00  0.00    -0.020 C 
ATOM     14  C   UNL d   1       4.667   3.374  -0.168  0.00  0.00    -0.043 A 
ATOM     15  C   UNL d   1       6.787   2.913  -2.087  0.00  0.00     0.015 C 
ATOM     16  C   UNL d   1       4.769   2.580  -3.586  0.00  0.00     0.020 C 
ATOM     17  C   UNL d   1       5.872   0.644  -2.433  0.00  0.00     0.020 C 
ATOM     18  C   UNL d   1       6.557   4.333  -1.603  0.00  0.00     0.015 C 
ATOM     19  C   UNL d   1       5.813   4.392  -0.248  0.00  0.00    -0.020 C 
ATOM     20  C   UNL d   1       6.802   4.128   0.908  0.00  0.00     0.020 C 
ATOM     21  C   UNL d   1       5.279   5.839  -0.115  0.00  0.00     0.020 C 
ATOM     22  C   UNL d   1       3.749   3.457   0.901  0.00  0.00     0.009 A 
ATOM     23  C   UNL d   1       2.652   2.599   1.004  0.00  0.00     0.014 A 
ENDBRANCH   6  10
ENDBRANCH   3   4
TORSDOF 2
