REMARK  5 active torsions:
REMARK  status: ('A' for Active; 'I' for Inactive)
REMARK    1  A    between atoms: C_10  and  C_4 
REMARK    2  A    between atoms: C_23  and  C_6 
REMARK    3  A    between atoms: C_13  and  C_17 
REMARK    4  A    between atoms: O_24  and  C_23 
REMARK    5  A    between atoms: C_25  and  O_24 
ROOT
ATOM      1  N   UNL d   1       1.321  -0.517  -0.473  0.00  0.00    -0.351 N 
ATOM      2  HN  UNL d   1       2.132  -0.931  -0.933  1.00  0.00     0.166 HD
ATOM      3  C   UNL d   1       1.281   0.759   0.068  0.00  0.00     0.049 A 
ATOM      4  C   UNL d   1       0.160  -1.119  -0.306  0.00  0.00     0.075 A 
ATOM      5  S   UNL d   1      -1.057  -0.166   0.454  0.00  0.00    -0.084 SA
ATOM      6  C   UNL d   1       0.055   1.129   0.586  0.00  0.00     0.082 A 
ENDROOT
BRANCH   3   7
ATOM      7  C   UNL d   1       2.444   1.638   0.028  0.00  0.00    -0.008 A 
ATOM      8  C   UNL d   1       3.383   1.501  -1.001  0.00  0.00     0.022 A 
ATOM      9  C   UNL d   1       4.513   2.345  -1.116  0.00  0.00    -0.042 A 
ATOM     10  C   UNL d   1       5.486   2.130  -2.282  0.00  0.00    -0.020 C 
ATOM     11  C   UNL d   1       4.675   3.387  -0.176  0.00  0.00    -0.043 A 
ATOM     12  C   UNL d   1       6.801   2.916  -2.080  0.00  0.00     0.015 C 
ATOM     13  C   UNL d   1       4.792   2.577  -3.588  0.00  0.00     0.020 C 
ATOM     14  C   UNL d   1       5.890   0.643  -2.426  0.00  0.00     0.020 C 
ATOM     15  C   UNL d   1       6.558   4.341  -1.615  0.00  0.00     0.015 C 
ATOM     16  C   UNL d   1       5.822   4.402  -0.257  0.00  0.00    -0.020 C 
ATOM     17  C   UNL d   1       6.816   4.128   0.893  0.00  0.00     0.020 C 
ATOM     18  C   UNL d   1       5.295   5.851  -0.116  0.00  0.00     0.020 C 
ATOM     19  C   UNL d   1       3.753   3.478   0.889  0.00  0.00     0.009 A 
ATOM     20  C   UNL d   1       2.657   2.620   0.992  0.00  0.00     0.014 A 
ENDBRANCH   3   7
BRANCH   4  21
ATOM     21  C   UNL d   1      -0.165  -2.509  -0.767  0.00  0.00     0.240 C 
BRANCH  21  22
ATOM     22  O   UNL d   1       0.055  -3.389   0.339  0.00  0.00    -0.345 OA
BRANCH  22  23
ATOM     23  C   UNL d   1      -0.078  -4.720   0.053  0.00  0.00     0.069 A 
ATOM     24  C   UNL d   1       0.728  -5.583   0.795  0.00  0.00     0.037 A 
ATOM     25  C   UNL d   1       0.680  -6.964   0.578  0.00  0.00     0.012 A 
ATOM     26  C   UNL d   1      -0.190  -7.511  -0.379  0.00  0.00    -0.035 A 
ATOM     27  C   UNL d   1      -1.030  -6.632  -1.086  0.00  0.00     0.012 A 
ATOM     28  C   UNL d   1      -0.974  -5.252  -0.873  0.00  0.00     0.037 A 
BRANCH  26  29
ATOM     29  C   UNL d   1      -0.192  -9.003  -0.638  0.00  0.00     0.141 C 
ATOM     30  S   UNL d   1       0.246  -9.398  -2.364  0.00  0.00    -0.148 SA
ATOM     31  C   UNL d   1      -0.797 -10.864  -2.498  0.00  0.00     0.085 C 
ATOM     32  C   UNL d   1      -2.113 -10.553  -1.814  0.00  0.00     0.085 C 
ATOM     33  S   UNL d   1      -1.775  -9.797  -0.201  0.00  0.00    -0.148 SA
ENDBRANCH  26  29
ENDBRANCH  22  23
ENDBRANCH  21  22
ENDBRANCH   4  21
TORSDOF 5
