REMARK  2 active torsions:
REMARK  status: ('A' for Active; 'I' for Inactive)
REMARK    1  A    between atoms: C_17  and  C_9 
REMARK    2  A    between atoms: C_18  and  C_9 
ROOT
ATOM      1  C   UNL d   1      -0.846  -0.243  -0.001  0.00  0.00     0.280 A 
ATOM      2  C   UNL d   1       0.600   0.218  -0.001  0.00  0.00     0.043 A 
ATOM      3  C   UNL d   1      -0.621  -1.830   0.001  0.00  0.00     0.290 A 
ATOM      4  N   UNL d   1       0.748  -2.067   0.019  0.00  0.00    -0.321 N 
ATOM      5  C   UNL d   1       1.463  -0.881   0.015  0.00  0.00     0.047 A 
ATOM      6  O   UNL d   1      -1.449   0.280  -1.175  0.00  0.00    -0.343 OA
ATOM      7  O   UNL d   1      -1.445   0.270   1.183  0.00  0.00    -0.343 OA
ATOM      8  C   UNL d   1       1.117   1.506  -0.020  0.00  0.00     0.057 A 
ATOM      9  C   UNL d   1      -3.571   0.556   0.021  0.00  0.00     0.002 C 
ATOM     10  O   UNL d   1      -1.476  -2.705  -0.013  0.00  0.00    -0.267 OA
ATOM     11  C   UNL d   1      -2.838  -0.034   1.238  0.00  0.00     0.184 C 
ATOM     12  C   UNL d   1      -2.848  -0.002  -1.224  0.00  0.00     0.184 C 
ATOM     13  C   UNL d   1       2.839  -0.753   0.017  0.00  0.00     0.033 A 
ATOM     14  C   UNL d   1       2.504   1.650  -0.022  0.00  0.00     0.117 A 
ATOM     15  C   UNL d   1       3.362   0.541  -0.002  0.00  0.00     0.044 A 
ATOM     16  F   UNL d   1       3.035   2.881  -0.045  0.00  0.00    -0.206 F 
ATOM     17  H   UNL d   1       1.142  -2.995   0.025  0.00  0.00     0.169 HD
ENDROOT
BRANCH   9  18
ATOM     18  C   UNL d   1      -5.079   0.183   0.014  0.00  0.00     0.009 C 
ATOM     19  C   UNL d   1      -5.420  -1.302  -0.044  0.00  0.00     0.006 C 
ENDBRANCH   9  18
BRANCH   9  20
ATOM     20  C   UNL d   1      -3.427   2.115  -0.008  0.00  0.00     0.009 C 
ATOM     21  C   UNL d   1      -4.006   2.864   1.188  0.00  0.00     0.006 C 
ENDBRANCH   9  20
TORSDOF 2
