REMARK  4 active torsions:
REMARK  status: ('A' for Active; 'I' for Inactive)
REMARK    1  A    between atoms: N_5  and  C_2 
REMARK    2  A    between atoms: C_10  and  C_16 
REMARK    3  A    between atoms: O_20  and  C_10 
REMARK    4  A    between atoms: C_22  and  O_20 
ROOT
ATOM      1  C   UNL d   1       2.000  -0.360  -0.687  0.00  0.00     0.070 A 
ATOM      2  C   UNL d   1       1.486  -1.433   0.071  0.00  0.00     0.103 A 
ATOM      3  S   UNL d   1       3.001  -0.369  -2.091  0.00  0.00    -0.096 SA
ATOM      4  C   UNL d   1       1.748   0.951  -0.281  0.00  0.00     0.060 A 
ATOM      5  C   UNL d   1       2.409   1.930  -1.100  0.00  0.00    -0.027 A 
ATOM      6  C   UNL d   1       3.089   1.331  -2.141  0.00  0.00     0.059 A 
ATOM      7  N   UNL d   1       0.735  -1.113   1.154  0.00  0.00    -0.342 N 
ATOM      8  HN  UNL d   1       0.336  -1.847   1.740  1.00  0.00     0.167 HD
ATOM      9  N   UNL d   1       0.987   1.245   0.802  0.00  0.00    -0.351 N 
ATOM     10  HN  UNL d   1       0.788   2.201   1.096  1.00  0.00     0.166 HD
ATOM     11  C   UNL d   1       0.521   0.177   1.447  0.00  0.00     0.182 A 
ATOM     12  C   UNL d   1       2.392   3.402  -0.853  0.00  0.00     0.051 C 
ENDROOT
BRANCH   2  13
ATOM     13  N   UNL d   1       1.817  -2.776  -0.178  0.00  0.00    -0.268 NA
ATOM     14  C   UNL d   1       1.706  -3.625   1.014  0.00  0.00     0.098 C 
ATOM     15  C   UNL d   1       2.396  -4.961   0.729  0.00  0.00     0.029 C 
ATOM     16  C   UNL d   1       1.810  -5.649  -0.513  0.00  0.00     0.088 C 
ATOM     17  C   UNL d   1       1.810  -4.673  -1.703  0.00  0.00     0.029 C 
ATOM     18  C   UNL d   1       1.140  -3.337  -1.354  0.00  0.00     0.098 C 
BRANCH  16  19
ATOM     19  C   UNL d   1       0.410  -6.186  -0.247  0.00  0.00     0.263 C 
ATOM     20  O   UNL d   1      -0.563  -5.984  -0.963  0.00  0.00    -0.265 OA
BRANCH  19  21
ATOM     21  O   UNL d   1       0.388  -6.919   0.902  0.00  0.00    -0.322 OA
BRANCH  21  22
ATOM     22  C   UNL d   1      -0.904  -7.180   1.463  0.00  0.00     0.174 C 
ATOM     23  C   UNL d   1      -1.314  -8.625   1.262  0.00  0.00     0.034 C 
ENDBRANCH  21  22
ENDBRANCH  19  21
ENDBRANCH  16  19
ENDBRANCH   2  13
TORSDOF 4
