REMARK  2 active torsions:
REMARK  status: ('A' for Active; 'I' for Inactive)
REMARK       I    between atoms: C_5  and  N_1 
REMARK    1  A    between atoms: C_4  and  C_5 
REMARK    2  A    between atoms: C_15  and  C_6 
ROOT
ATOM      1  N   UNL d   1      -0.354   1.106  -0.011  0.00  0.00    -0.230 N 
ATOM      2  N   UNL d   1       0.934   0.686  -0.035  0.00  0.00    -0.290 N 
ATOM      3  HN  UNL d   1       1.772   1.267  -0.058  1.00  0.00     0.188 HD
ATOM      4  C   UNL d   1      -0.678   2.488  -0.043  0.00  0.00     0.286 C 
ATOM      5  C   UNL d   1       0.875  -0.654  -0.023  0.00  0.00     0.073 A 
ATOM      6  C   UNL d   1      -0.473  -1.114   0.010  0.00  0.00    -0.015 A 
ATOM      7  C   UNL d   1      -1.224   0.042   0.078  0.00  0.00     0.129 A 
ATOM      8  O   UNL d   1      -1.833   2.770   0.277  0.00  0.00    -0.265 OA
ATOM      9  C   UNL d   1      -1.011  -2.497  -0.002  0.00  0.00     0.052 C 
ENDROOT
BRANCH   4  10
ATOM     10  C   UNL d   1       0.273   3.508  -0.432  0.00  0.00     0.116 A 
ATOM     11  C   UNL d   1       0.422   4.818   0.002  0.00  0.00     0.046 A 
ATOM     12  N   UNL d   1       1.394   5.545  -0.684  0.00  0.00    -0.298 N 
ATOM     13  C   UNL d   1      -0.303   5.519   1.089  0.00  0.00     0.071 C 
ATOM     14  N   UNL d   1       1.968   4.832  -1.634  0.00  0.00    -0.269 N 
ATOM     15  HN  UNL d   1       1.633   6.514  -0.476  1.00  0.00     0.187 HD
ATOM     16  S   UNL d   1       1.370   3.280  -1.731  0.00  0.00     0.009 SA
ATOM     17  HN  UNL d   1       2.702   5.193  -2.245  1.00  0.00     0.195 HD
ENDBRANCH   4  10
BRANCH   5  18
ATOM     18  C   UNL d   1       2.152  -1.458  -0.042  0.00  0.00     0.033 A 
ATOM     19  S   UNL d   1       2.264  -3.158  -0.154  0.00  0.00    -0.100 SA
ATOM     20  C   UNL d   1       3.971  -3.127  -0.104  0.00  0.00     0.050 A 
ATOM     21  C   UNL d   1       4.458  -1.845   0.011  0.00  0.00     0.008 A 
ATOM     22  C   UNL d   1       3.407  -0.881   0.039  0.00  0.00     0.021 A 
ENDBRANCH   5  18
TORSDOF 2
