REMARK  7 active torsions:
REMARK  status: ('A' for Active; 'I' for Inactive)
REMARK    1  A    between atoms: C_15  and  C_3 
REMARK       I    between atoms: C_6  and  N_10 
REMARK    2  A    between atoms: C_11  and  C_6 
REMARK    3  A    between atoms: C_7  and  C_12 
REMARK    4  A    between atoms: O_13  and  C_7 
REMARK    5  A    between atoms: N_10  and  C_14 
REMARK    6  A    between atoms: C_12  and  C_11 
REMARK    7  A    between atoms: C_14  and  C_15 
ROOT
ATOM      1  C   UNL d   1      -0.968  -3.717   0.089  0.00  0.00     0.127 C 
ENDROOT
BRANCH   1   2
ATOM      2  N   UNL d   1      -0.035  -3.804  -1.024  0.00  0.00    -0.361 N 
ATOM      3  C   UNL d   1       0.974  -4.737  -1.015  0.00  0.00     0.218 C 
ATOM      4  O   UNL d   1       1.096  -5.591  -0.142  0.00  0.00    -0.274 OA
ATOM      5  H   UNL d   1       0.022  -3.020  -1.663  0.00  0.00     0.162 HD
BRANCH   3   6
ATOM      6  C   UNL d   1       1.950  -4.600  -2.162  0.00  0.00     0.113 C 
BRANCH   6   7
ATOM      7  C   UNL d   1       2.601  -5.947  -2.454  0.00  0.00     0.119 C 
BRANCH   7   8
ATOM      8  C   UNL d   1       3.550  -5.866  -3.617  0.00  0.00     0.139 C 
ATOM      9  O   UNL d   1       3.810  -4.851  -4.244  0.00  0.00    -0.650 OA
BRANCH   8  10
ATOM     10  O   UNL d   1       4.105  -7.066  -3.911  0.00  0.00    -0.776 OA
ATOM     11  H   UNL d   1       3.809  -7.788  -3.322  0.00  0.00     0.167 HD
ENDBRANCH   8  10
ENDBRANCH   7   8
ENDBRANCH   6   7
ENDBRANCH   3   6
ENDBRANCH   1   2
BRANCH   1  12
ATOM     12  C   UNL d   1      -2.002  -2.597  -0.063  0.00  0.00     0.060 C 
BRANCH  12  13
ATOM     13  C   UNL d   1      -1.452  -1.197  -0.017  0.00  0.00    -0.029 A 
ATOM     14  C   UNL d   1      -0.129  -0.802   0.069  0.00  0.00     0.096 A 
ATOM     15  N   UNL d   1      -0.078   0.564   0.069  0.00  0.00    -0.365 N 
ATOM     16  C   UNL d   1      -1.345   1.086   0.006  0.00  0.00     0.042 A 
ATOM     17  H   UNL d   1       0.768   1.117   0.120  0.00  0.00     0.165 HD
ATOM     18  C   UNL d   1      -2.232   0.011  -0.042  0.00  0.00    -0.002 A 
ATOM     19  C   UNL d   1      -1.764   2.422  -0.005  0.00  0.00     0.030 A 
ATOM     20  C   UNL d   1      -3.614   0.289  -0.098  0.00  0.00     0.014 A 
ATOM     21  C   UNL d   1      -4.051   1.620  -0.102  0.00  0.00     0.001 A 
ATOM     22  C   UNL d   1      -3.137   2.670  -0.058  0.00  0.00     0.002 A 
ENDBRANCH  12  13
ENDBRANCH   1  12
TORSDOF 7
