REMARK  9 active torsions:
REMARK  status: ('A' for Active; 'I' for Inactive)
REMARK       I    between atoms: N_11  and  C1_1 
REMARK    1  A    between atoms: O1_2  and  C1_1 
REMARK    2  A    between atoms: C7_4  and  O1_2 
REMARK    3  A    between atoms: C_8  and  CA_13 
REMARK       I    between atoms: N_9  and  C_8 
REMARK    4  A    between atoms: CA_10  and  N_9 
REMARK    5  A    between atoms: C_12  and  CA_10 
REMARK    6  A    between atoms: CB_15  and  CA_10 
REMARK    7  A    between atoms: CA_13  and  N_11 
REMARK    8  A    between atoms: OXT_17  and  C_12 
REMARK    9  A    between atoms: CG_18  and  CB_15 
ROOT
ATOM      1  C   ALA d   1       1.673  -1.916   2.274  0.00  0.00     0.240 C 
ATOM      2  N   ALA d   1       1.504  -2.819   3.295  0.00  0.00    -0.345 N 
ATOM      3  O   ALA d   1       2.393  -0.928   2.421  0.00  0.00    -0.271 OA
ATOM      4  H   ALA d   1       0.643  -3.364   3.300  0.00  0.00     0.163 HD
ENDROOT
BRANCH   2   5
ATOM      5  CA  ALA d   1       2.301  -2.806   4.537  0.00  0.00     0.186 C 
BRANCH   5   6
ATOM      6  C   ALA d   1       1.587  -2.048   5.670  0.00  0.00     0.163 C 
ATOM      7  O   ALA d   1       1.794  -2.233   6.862  0.00  0.00    -0.648 OA
BRANCH   6   8
ATOM      8  OXT ALA d   1       0.769  -1.058   5.241  0.00  0.00    -0.775 OA
ATOM      9  HXT ALA d   1       0.815  -0.968   4.268  0.00  0.00     0.167 HD
ENDBRANCH   6   8
ENDBRANCH   5   6
BRANCH   5  10
ATOM     10  CB  ALA d   1       2.636  -4.237   4.997  0.00  0.00     0.074 C 
BRANCH  10  11
ATOM     11  CG  ALA d   1       3.460  -4.999   3.981  0.00  0.00    -0.056 A 
ATOM     12  CD1 ALA d   1       4.743  -4.557   3.628  0.00  0.00     0.007 A 
ATOM     13  CE1 ALA d   1       5.479  -5.225   2.648  0.00  0.00     0.001 A 
ATOM     14  CZ  ALA d   1       4.949  -6.352   2.025  0.00  0.00     0.000 A 
ATOM     15  CE2 ALA d   1       3.688  -6.819   2.391  0.00  0.00     0.001 A 
ATOM     16  CD2 ALA d   1       2.946  -6.149   3.365  0.00  0.00     0.007 A 
ENDBRANCH  10  11
ENDBRANCH   5  10
ENDBRANCH   2   5
BRANCH   1  17
ATOM     17  CA  ALA d   1       0.737  -2.070   1.053  0.00  0.00     0.174 C 
ATOM     18  CB  ALA d   1       0.470  -3.508   0.615  0.00  0.00     0.042 C 
BRANCH  17  19
ATOM     19  N   ALA d   1      -0.486  -1.306   1.262  0.00  0.00    -0.324 N 
ATOM     20  C1  <1> d   1      -1.423  -1.632   2.189  0.00  0.00     0.362 C 
ATOM     21  O2  <1> d   1      -1.264  -2.506   3.032  0.00  0.00    -0.238 OA
ATOM     22  H   ALA d   1      -0.737  -0.572   0.612  0.00  0.00     0.165 HD
BRANCH  20  23
ATOM     23  O1  <1> d   1      -2.511  -0.845   2.033  0.00  0.00    -0.294 OA
BRANCH  23  24
ATOM     24  C7  <1> d   1      -3.641  -0.971   2.939  0.00  0.00     0.061 C 
ATOM     25  C10 <1> d   1      -3.239  -0.557   4.359  0.00  0.00     0.046 C 
ATOM     26  C11 <1> d   1      -4.705   0.011   2.419  0.00  0.00     0.046 C 
ATOM     27  C12 <1> d   1      -4.246  -2.379   2.900  0.00  0.00     0.046 C 
ENDBRANCH  23  24
ENDBRANCH  20  23
ENDBRANCH  17  19
ENDBRANCH   1  17
TORSDOF 9
