REMARK  2 active torsions:
REMARK  status: ('A' for Active; 'I' for Inactive)
REMARK    1  A    between atoms: N_2  and  C_1 
REMARK       I    between atoms: C_7  and  N_2 
REMARK    2  A    between atoms: C_9  and  C_7 
ROOT
ATOM      1  N   UNL d   1       1.922  -1.599   0.385  0.00  0.00    -0.305 N 
ATOM      2  C   UNL d   1       1.814  -3.007   0.120  0.00  0.00     0.281 C 
ATOM      3  O   UNL d   1       0.782  -3.508  -0.298  0.00  0.00    -0.265 OA
ATOM      4  H   UNL d   1       2.869  -1.265   0.525  0.00  0.00     0.171 HD
ENDROOT
BRANCH   1   5
ATOM      5  C   UNL d   1       0.873  -0.685   0.306  0.00  0.00     0.143 C 
ATOM      6  C   UNL d   1      -0.488  -0.847   0.482  0.00  0.00     0.073 C 
ATOM      7  C   UNL d   1      -1.070   0.396   0.186  0.00  0.00     0.130 C 
ATOM      8 BR   UNL d   1      -1.526  -2.269   1.127  0.00  0.00    -0.045 Br
ATOM      9  N   UNL d   1      -0.151   1.327  -0.072  0.00  0.00    -0.307 N 
ATOM     10  N   UNL d   1       1.015   0.676   0.102  0.00  0.00    -0.280 N 
ATOM     11  HN  UNL d   1      -0.297   2.301  -0.338  1.00  0.00     0.186 HD
ATOM     12  C   UNL d   1       2.227   1.461   0.102  0.00  0.00     0.179 C 
ENDBRANCH   1   5
BRANCH   2  13
ATOM     13  C   UNL d   1       3.057  -3.706   0.322  0.00  0.00     0.142 A 
ATOM     14  O   UNL d   1       4.199  -2.979   0.558  0.00  0.00    -0.317 OA
ATOM     15  C   UNL d   1       5.221  -3.871   0.668  0.00  0.00     0.143 A 
ATOM     16  C   UNL d   1       4.758  -5.158   0.528  0.00  0.00     0.027 A 
ATOM     17  C   UNL d   1       3.364  -5.054   0.304  0.00  0.00     0.045 A 
ENDBRANCH   2  13
TORSDOF 2
