REMARK  3 active torsions:
REMARK  status: ('A' for Active; 'I' for Inactive)
REMARK       I    between atoms: C_2  and  N_1 
REMARK    1  A    between atoms: C_5  and  C_2 
REMARK    2  A    between atoms: C_14  and  C_6 
REMARK    3  A    between atoms: C_15  and  C_8 
ROOT
ATOM      1  N   UNL d   1       0.989  -0.699  -0.137  0.00  0.00    -0.223 N 
ATOM      2  C   UNL d   1       2.261  -1.347  -0.196  0.00  0.00     0.286 C 
ATOM      3  N   UNL d   1       0.977   0.669  -0.177  0.00  0.00    -0.294 N 
ATOM      4  HN  UNL d   1       1.780   1.284  -0.305  1.00  0.00     0.187 HD
ATOM      5  C   UNL d   1      -0.311  -1.212  -0.010  0.00  0.00     0.047 A 
ATOM      6  C   UNL d   1      -1.129  -0.093   0.057  0.00  0.00     0.055 A 
ATOM      7  C   UNL d   1      -0.295   1.038  -0.017  0.00  0.00     0.036 A 
ATOM      8  O   UNL d   1       2.341  -2.460   0.313  0.00  0.00    -0.265 OA
ENDROOT
BRANCH   2   9
ATOM      9  C   UNL d   1       3.422  -0.740  -0.814  0.00  0.00     0.112 A 
ATOM     10  C   UNL d   1       4.775  -0.917  -0.555  0.00  0.00     0.043 A 
ATOM     11  N   UNL d   1       5.623  -0.255  -1.438  0.00  0.00    -0.296 N 
ATOM     12  C   UNL d   1       5.413  -1.714   0.524  0.00  0.00     0.071 C 
ATOM     13  N   UNL d   1       4.955   0.401  -2.370  0.00  0.00    -0.061 NA
ATOM     14  HN  UNL d   1       6.641  -0.274  -1.374  1.00  0.00     0.183 HD
ATOM     15  S   UNL d   1       3.303   0.250  -2.209  0.00  0.00     0.007 SA
ENDBRANCH   2   9
BRANCH   5  16
ATOM     16  C   UNL d   1      -0.728  -2.686  -0.036  0.00  0.00    -0.006 C 
ATOM     17  C   UNL d   1      -0.362  -3.405   1.274  0.00  0.00     0.021 C 
ATOM     18  C   UNL d   1      -2.273  -2.798  -0.165  0.00  0.00     0.021 C 
ATOM     19  C   UNL d   1      -0.154  -3.417  -1.265  0.00  0.00     0.021 C 
ENDBRANCH   5  16
BRANCH   7  20
ATOM     20  C   UNL d   1      -0.690   2.510   0.001  0.00  0.00    -0.007 C 
ATOM     21  C   UNL d   1      -0.863   3.020  -1.442  0.00  0.00     0.021 C 
ATOM     22  C   UNL d   1      -2.020   2.723   0.758  0.00  0.00     0.021 C 
ATOM     23  C   UNL d   1       0.381   3.373   0.704  0.00  0.00     0.021 C 
ENDBRANCH   7  20
TORSDOF 3
