REMARK  1 active torsions:
REMARK  status: ('A' for Active; 'I' for Inactive)
REMARK    1  A    between atoms: C_9  and  C_3 
ROOT
ATOM      1  N   UNL d   1       2.192   1.196   0.034  0.00  0.00    -0.380 N 
ATOM      2  HN  UNL d   1       2.986   1.783   0.287  1.00  0.00     0.160 HD
ATOM      3  C   UNL d   1       1.008   1.485   0.460  0.00  0.00     0.051 C 
ATOM      4  C   UNL d   1      -0.229   0.708   0.134  0.00  0.00     0.018 A 
ATOM      5  N   UNL d   1       0.859  -1.513   0.378  0.00  0.00    -0.325 N 
ATOM      6  C   UNL d   1      -0.267  -0.695   0.200  0.00  0.00     0.047 A 
ATOM      7  C   UNL d   1       2.144  -1.245  -0.015  0.00  0.00     0.239 C 
ATOM      8  C   UNL d   1       2.387   0.025  -0.811  0.00  0.00     0.223 C 
ATOM      9  O   UNL d   1       3.024  -2.082   0.189  0.00  0.00    -0.271 OA
ATOM     10  C   UNL d   1      -1.410   1.419  -0.140  0.00  0.00     0.016 A 
ATOM     11  C   UNL d   1      -1.500  -1.353   0.092  0.00  0.00     0.030 A 
ATOM     12  C   UNL d   1      -2.625   0.749  -0.286  0.00  0.00     0.001 A 
ATOM     13  C   UNL d   1      -2.672  -0.635  -0.157  0.00  0.00     0.002 A 
ATOM     14  H   UNL d   1       0.733  -2.469   0.688  0.00  0.00     0.169 HD
ENDROOT
BRANCH   3  15
ATOM     15  C   UNL d   1       0.899   2.677   1.367  0.00  0.00    -0.009 A 
ATOM     16  C   UNL d   1       1.779   3.752   1.184  0.00  0.00     0.014 A 
ATOM     17  C   UNL d   1       1.725   4.859   2.032  0.00  0.00     0.001 A 
ATOM     18  C   UNL d   1       0.797   4.894   3.073  0.00  0.00     0.000 A 
ATOM     19  C   UNL d   1      -0.071   3.821   3.271  0.00  0.00     0.001 A 
ATOM     20  C   UNL d   1      -0.016   2.709   2.427  0.00  0.00     0.014 A 
ENDBRANCH   3  15
TORSDOF 1
