REMARK  1 active torsions:
REMARK  status: ('A' for Active; 'I' for Inactive)
REMARK    1  A    between atoms: C_8  and  C_1 
ROOT
ATOM      1  C   UNL d   1      -0.543  -1.661  -0.656  0.00  0.00     0.049 C 
ATOM      2  C   UNL d   1       0.578  -0.742  -0.349  0.00  0.00     0.006 A 
ATOM      3  C   UNL d   1      -0.791   1.290  -0.936  0.00  0.00     0.232 C 
ATOM      4  C   UNL d   1       0.440   0.640  -0.466  0.00  0.00     0.038 A 
ATOM      5  N   UNL d   1      -1.666  -1.647  -0.023  0.00  0.00    -0.387 N 
ATOM      6  HN  UNL d   1      -2.403  -2.295  -0.304  1.00  0.00     0.159 HD
ATOM      7  N   UNL d   1      -1.735   1.581   0.021  0.00  0.00    -0.257 NA
ATOM      8  O   UNL d   1      -0.833   1.783  -2.055  0.00  0.00    -0.274 OA
ATOM      9  C   UNL d   1       1.780  -1.283   0.128  0.00  0.00     0.015 A 
ATOM     10  C   UNL d   1      -1.912  -0.727   1.089  0.00  0.00     0.134 C 
ATOM     11  C   UNL d   1       1.512   1.484  -0.141  0.00  0.00     0.017 A 
ATOM     12  C   UNL d   1      -2.591   0.547   0.591  0.00  0.00     0.115 C 
ATOM     13  C   UNL d   1       2.838  -0.438   0.472  0.00  0.00     0.001 A 
ATOM     14  C   UNL d   1       2.707   0.943   0.333  0.00  0.00     0.001 A 
ATOM     15  H   UNL d   1      -2.302   2.341  -0.332  0.00  0.00     0.130 HD
ENDROOT
BRANCH   1  16
ATOM     16  C   UNL d   1      -0.347  -2.699  -1.724  0.00  0.00    -0.009 A 
ATOM     17  C   UNL d   1      -1.075  -3.895  -1.641  0.00  0.00     0.014 A 
ATOM     18  C   UNL d   1      -0.902  -4.898  -2.597  0.00  0.00     0.001 A 
ATOM     19  C   UNL d   1      -0.006  -4.710  -3.647  0.00  0.00     0.000 A 
ATOM     20  C   UNL d   1       0.711  -3.516  -3.746  0.00  0.00     0.001 A 
ATOM     21  C   UNL d   1       0.542  -2.511  -2.789  0.00  0.00     0.014 A 
ENDBRANCH   1  16
TORSDOF 1
