REMARK  7 active torsions:
REMARK  status: ('A' for Active; 'I' for Inactive)
REMARK    1  A    between atoms: C_11  and  C_1 
REMARK    2  A    between atoms: N_14  and  C_1 
REMARK    3  A    between atoms: O_9  and  N_2 
REMARK    4  A    between atoms: C_6  and  O_8 
REMARK    5  A    between atoms: C_7  and  O_9 
REMARK    6  A    between atoms: C_18  and  C_7 
REMARK    7  A    between atoms: O_8  and  C_11 
ROOT
ATOM      1  C   UNL d   1       1.032  -0.227   0.129  0.00  0.00     0.100 C 
ATOM      2  N   UNL d   1       2.096  -0.740   0.668  0.00  0.00    -0.249 N 
ATOM      3  HN  UNL d   1       2.468  -0.465   1.576  1.00  0.00     0.196 HD
ENDROOT
BRANCH   1   4
ATOM      4  C   UNL d   1       0.361   0.931   0.883  0.00  0.00     0.247 C 
BRANCH   4   5
ATOM      5  O   UNL d   1      -1.040   0.910   0.641  0.00  0.00    -0.343 OA
BRANCH   5   6
ATOM      6  C   UNL d   1      -1.849   1.761   1.349  0.00  0.00     0.091 A 
ATOM      7  C   UNL d   1      -1.558   3.008   1.929  0.00  0.00     0.069 A 
ATOM      8  C   UNL d   1      -2.575   3.745   2.557  0.00  0.00     0.050 A 
ATOM      9 CL   UNL d   1      -0.019   3.789   1.896  0.00  0.00    -0.081 Cl
ATOM     10  C   UNL d   1      -3.875   3.254   2.610  0.00  0.00     0.035 A 
ATOM     11  C   UNL d   1      -4.179   2.023   2.045  0.00  0.00     0.026 A 
ATOM     12 CL   UNL d   1      -5.112   4.184   3.361  0.00  0.00    -0.084 Cl
ATOM     13  C   UNL d   1      -3.171   1.287   1.416  0.00  0.00     0.040 A 
ENDBRANCH   5   6
ENDBRANCH   4   5
ENDBRANCH   1   4
BRANCH   1  14
ATOM     14  N   UNL d   1       0.496  -0.600  -1.083  0.00  0.00    -0.289 NA
ATOM     15  H   UNL d   1       0.769  -1.524  -1.393  0.00  0.00     0.125 HD
ATOM     16  H   UNL d   1      -0.494  -0.397  -1.189  0.00  0.00     0.125 HD
ENDBRANCH   1  14
BRANCH   2  17
ATOM     17  O   UNL d   1       2.671  -1.725  -0.159  0.00  0.00    -0.199 OA
BRANCH  17  18
ATOM     18  C   UNL d   1       3.880  -2.121   0.371  0.00  0.00     0.280 C 
ATOM     19  O   UNL d   1       4.381  -1.745   1.423  0.00  0.00    -0.263 OA
BRANCH  18  20
ATOM     20  C   UNL d   1       4.522  -3.107  -0.578  0.00  0.00     0.108 C 
ATOM     21  C   UNL d   1       5.819  -3.669  -0.018  0.00  0.00     0.015 C 
ENDBRANCH  18  20
ENDBRANCH  17  18
ENDBRANCH   2  17
TORSDOF 7
