REMARK  5 active torsions:
REMARK  status: ('A' for Active; 'I' for Inactive)
REMARK    1  A    between atoms: C_5  and  C_1 
REMARK    2  A    between atoms: C_2  and  C_4 
REMARK    3  A    between atoms: N_3  and  C_8 
REMARK    4  A    between atoms: O_13  and  C_7 
REMARK    5  A    between atoms: C_24  and  O_13 
ROOT
ATOM      1  C   UNL d   1       2.902  -5.172   3.239  0.00  0.00     0.051 A 
ATOM      2  C   UNL d   1       0.704  -4.097   3.230  0.00  0.00     0.051 A 
ATOM      3  C   UNL d   1       1.831  -4.574   3.924  0.00  0.00     0.032 A 
ATOM      4  C   UNL d   1       1.749  -4.759   1.141  0.00  0.00     0.077 A 
ATOM      5  C   UNL d   1       2.828  -5.296   1.845  0.00  0.00     0.053 A 
ATOM      6  C   UNL d   1       0.676  -4.194   1.831  0.00  0.00     0.053 A 
ENDROOT
BRANCH   4   7
ATOM      7  O   UNL d   1       1.659  -4.784  -0.234  0.00  0.00    -0.311 OA
BRANCH   7   8
ATOM      8  C   UNL d   1       2.802  -4.553  -0.969  0.00  0.00     0.076 A 
ATOM      9  C   UNL d   1       2.916  -5.240  -2.176  0.00  0.00     0.039 A 
ATOM     10  C   UNL d   1       4.056  -5.081  -2.974  0.00  0.00     0.033 A 
ATOM     11  C   UNL d   1       5.096  -4.230  -2.570  0.00  0.00     0.038 A 
ATOM     12  C   UNL d   1       4.954  -3.515  -1.372  0.00  0.00     0.033 A 
ATOM     13  C   UNL d   1       3.802  -3.656  -0.592  0.00  0.00     0.039 A 
BRANCH  11  14
ATOM     14  N   UNL d   1       6.275  -4.081  -3.366  0.00  0.00    -0.333 N 
ATOM     15  C   UNL d   1       7.416  -3.373  -3.027  0.00  0.00     0.096 A 
ATOM     16  C   UNL d   1       8.323  -3.441  -4.062  0.00  0.00     0.019 A 
ATOM     17  C   UNL d   1       7.740  -4.224  -5.074  0.00  0.00     0.019 A 
ATOM     18  C   UNL d   1       6.498  -4.614  -4.624  0.00  0.00     0.096 A 
ENDBRANCH  11  14
ENDBRANCH   7   8
ENDBRANCH   4   7
BRANCH   2  19
ATOM     19  C   UNL d   1      -0.463  -3.478   3.962  0.00  0.00     0.417 C 
ATOM     20  F   UNL d   1      -0.262  -3.365   5.304  0.00  0.00    -0.166 F 
ATOM     21  F   UNL d   1      -1.609  -4.197   3.814  0.00  0.00    -0.166 F 
ATOM     22  F   UNL d   1      -0.747  -2.222   3.521  0.00  0.00    -0.166 F 
ENDBRANCH   2  19
BRANCH   1  23
ATOM     23  C   UNL d   1       4.144  -5.638   3.958  0.00  0.00     0.417 C 
ATOM     24  F   UNL d   1       4.082  -5.482   5.308  0.00  0.00    -0.166 F 
ATOM     25  F   UNL d   1       4.413  -6.954   3.741  0.00  0.00    -0.166 F 
ATOM     26  F   UNL d   1       5.253  -4.957   3.554  0.00  0.00    -0.166 F 
ENDBRANCH   1  23
TORSDOF 5
