REMARK  5 active torsions:
REMARK  status: ('A' for Active; 'I' for Inactive)
REMARK    1  A    between atoms: C_3  and  C_1 
REMARK    2  A    between atoms: C_6  and  C_1 
REMARK    3  A    between atoms: C_4  and  C_2 
REMARK       I    between atoms: N_5  and  C_3 
REMARK    4  A    between atoms: C_7  and  N_5 
REMARK    5  A    between atoms: N_8  and  C_6 
ROOT
ATOM      1  C   UNL d   1       1.066   0.075  -0.005  0.00  0.00     0.095 C 
ATOM      2  C   UNL d   1       0.389   1.224   0.198  0.00  0.00     0.043 C 
ENDROOT
BRANCH   1   3
ATOM      3  C   UNL d   1       0.291  -1.191  -0.226  0.00  0.00     0.265 C 
ATOM      4  N   UNL d   1       1.048  -2.318  -0.495  0.00  0.00    -0.320 N 
ATOM      5  H   UNL d   1       2.050  -2.277  -0.351  0.00  0.00     0.169 HD
ATOM      6  O   UNL d   1      -0.929  -1.174  -0.086  0.00  0.00    -0.267 OA
BRANCH   4   7
ATOM      7  C   UNL d   1       0.533  -3.616  -0.751  0.00  0.00     0.074 A 
ATOM      8  C   UNL d   1      -0.758  -3.892  -1.232  0.00  0.00     0.146 A 
ATOM      9  C   UNL d   1      -1.209  -5.201  -1.388  0.00  0.00     0.086 A 
ATOM     10  F   UNL d   1      -1.575  -2.917  -1.653  0.00  0.00    -0.204 F 
ATOM     11  C   UNL d   1      -0.357  -6.251  -1.088  0.00  0.00     0.119 A 
ATOM     12  C   UNL d   1       0.946  -6.013  -0.669  0.00  0.00     0.044 A 
ATOM     13  F   UNL d   1      -0.787  -7.512  -1.221  0.00  0.00    -0.206 F 
ATOM     14  C   UNL d   1       1.396  -4.697  -0.513  0.00  0.00     0.036 A 
ENDBRANCH   4   7
ENDBRANCH   1   3
BRANCH   1  15
ATOM     15  C   UNL d   1       2.586   0.075  -0.005  0.00  0.00    -0.031 C 
BRANCH  15  16
ATOM     16  N   UNL d   1       3.847   0.075  -0.005  0.00  0.00    -0.365 N 
ATOM     17  HN2 UNL d   1       2.827   0.075  -0.005  1.00  0.00     0.165 HD
ATOM     18  HN1 UNL d   1       4.867   0.075  -0.005  1.00  0.00     0.165 HD
ENDBRANCH  15  16
ENDBRANCH   1  15
BRANCH   2  19
ATOM     19  C   UNL d   1       1.047   2.516   0.452  0.00  0.00     0.026 A 
ATOM     20  C   UNL d   1       1.429   3.318  -0.631  0.00  0.00     0.128 A 
ATOM     21  F   UNL d   1       1.150   2.928  -1.884  0.00  0.00    -0.205 F 
ATOM     22  C   UNL d   1       2.121   4.513  -0.445  0.00  0.00     0.043 A 
ATOM     23  C   UNL d   1       2.446   4.930   0.843  0.00  0.00     0.005 A 
ATOM     24  C   UNL d   1       2.067   4.153   1.939  0.00  0.00     0.025 A 
ATOM     25  C   UNL d   1       1.371   2.954   1.746  0.00  0.00     0.047 A 
ATOM     26 CL   UNL d   1       0.951   2.030   3.146  0.00  0.00    -0.083 Cl
ENDBRANCH   2  19
TORSDOF 5
