REMARK  4 active torsions:
REMARK  status: ('A' for Active; 'I' for Inactive)
REMARK    1  A    between atoms: C_2  and  S_1 
REMARK    2  A    between atoms: C_4  and  S_1 
REMARK    3  A    between atoms: C_3  and  C_2 
REMARK       I    between atoms: N_8  and  C_3 
REMARK    4  A    between atoms: N_12  and  N_8 
ROOT
ATOM      1  S   UNL d   1       0.991   0.033   0.027  0.00  0.00     0.184 S 
ATOM      2  O   UNL d   1       0.439  -0.969  -0.871  0.00  0.00    -0.222 OA
ATOM      3  O   UNL d   1       2.426   0.220   0.119  0.00  0.00    -0.222 OA
ENDROOT
BRANCH   1   4
ATOM      4  C   UNL d   1       0.377  -0.315   1.639  0.00  0.00     0.249 C 
BRANCH   4   5
ATOM      5  C   UNL d   1      -1.119  -0.297   1.650  0.00  0.00     0.245 C 
ATOM      6  O   UNL d   1      -1.753   0.492   2.350  0.00  0.00    -0.271 OA
ATOM      7  N   UNL d   1      -1.731  -1.282   0.884  0.00  0.00    -0.293 N 
ATOM      8  H   UNL d   1      -1.206  -1.718   0.115  0.00  0.00     0.183 HD
BRANCH   7   9
ATOM      9  N   UNL d   1      -3.141  -1.288   0.792  0.00  0.00    -0.247 NA
ATOM     10  H   UNL d   1      -3.490  -0.483   1.332  0.00  0.00     0.143 HD
ATOM     11  H   UNL d   1      -3.488  -2.104   1.305  0.00  0.00     0.143 HD
ENDBRANCH   7   9
ENDBRANCH   4   5
ENDBRANCH   1   4
BRANCH   1  12
ATOM     12  C   UNL d   1       0.292   1.608  -0.396  0.00  0.00     0.059 A 
ATOM     13  C   UNL d   1       0.688   2.737   0.331  0.00  0.00     0.025 A 
ATOM     14  C   UNL d   1       0.100   3.970   0.052  0.00  0.00     0.025 A 
ATOM     15  C   UNL d   1      -0.861   4.070  -0.955  0.00  0.00     0.034 A 
ATOM     16  C   UNL d   1      -1.231   2.947  -1.698  0.00  0.00     0.025 A 
ATOM     17 CL   UNL d   1      -1.599   5.589  -1.278  0.00  0.00    -0.084 Cl
ATOM     18  C   UNL d   1      -0.651   1.707  -1.422  0.00  0.00     0.025 A 
ENDBRANCH   1  12
TORSDOF 4
