REMARK  2 active torsions:
REMARK  status: ('A' for Active; 'I' for Inactive)
REMARK       I    between atoms: N_2  and  C_1 
REMARK       I    between atoms: N_3  and  C_1 
REMARK    1  A    between atoms: C_8  and  N_2 
REMARK    2  A    between atoms: C_9  and  N_3 
ROOT
ATOM      1  C   UNL d   1       1.149   0.005   0.130  0.00  0.00     0.325 C 
ATOM      2  N   UNL d   1       0.569  -0.713  -0.904  0.00  0.00    -0.309 N 
ATOM      3  N   UNL d   1       0.238   0.854   0.742  0.00  0.00    -0.309 N 
ATOM      4  O   UNL d   1       2.326  -0.079   0.460  0.00  0.00    -0.247 OA
ATOM      5  H   UNL d   1      -0.308  -0.356  -1.252  0.00  0.00     0.170 HD
ATOM      6  H   UNL d   1      -0.727   0.557   0.728  0.00  0.00     0.170 HD
ENDROOT
BRANCH   2   7
ATOM      7  C   UNL d   1       1.234  -1.671  -1.708  0.00  0.00     0.038 A 
ATOM      8  C   UNL d   1       2.468  -2.232  -1.370  0.00  0.00     0.054 A 
ATOM      9  C   UNL d   1       3.106  -3.136  -2.226  0.00  0.00     0.042 A 
ATOM     10 CL   UNL d   1       4.644  -3.757  -1.739  0.00  0.00    -0.084 Cl
ATOM     11  C   UNL d   1       2.512  -3.514  -3.436  0.00  0.00    -0.040 A 
ATOM     12  C   UNL d   1       1.258  -2.977  -3.758  0.00  0.00     0.011 A 
ATOM     13  C   UNL d   1       3.188  -4.472  -4.375  0.00  0.00     0.050 C 
ATOM     14  C   UNL d   1       0.623  -2.068  -2.901  0.00  0.00     0.030 A 
ENDBRANCH   2   7
BRANCH   3  15
ATOM     15  C   UNL d   1       0.588   1.871   1.661  0.00  0.00     0.038 A 
ATOM     16  C   UNL d   1       1.878   2.406   1.737  0.00  0.00     0.054 A 
ATOM     17  C   UNL d   1       2.186   3.408   2.661  0.00  0.00     0.042 A 
ATOM     18 CL   UNL d   1       3.809   4.003   2.694  0.00  0.00    -0.084 Cl
ATOM     19  C   UNL d   1       1.204   3.911   3.522  0.00  0.00    -0.040 A 
ATOM     20  C   UNL d   1      -0.095   3.387   3.431  0.00  0.00     0.011 A 
ATOM     21  C   UNL d   1       1.512   4.993   4.518  0.00  0.00     0.050 C 
ATOM     22  C   UNL d   1      -0.402   2.382   2.503  0.00  0.00     0.030 A 
ENDBRANCH   3  15
TORSDOF 2
