REMARK  8 active torsions:
REMARK  status: ('A' for Active; 'I' for Inactive)
REMARK    1  A    between atoms: C_2  and  S_1 
REMARK    2  A    between atoms: C_6  and  S_1 
REMARK    3  A    between atoms: C_11  and  C_2 
REMARK    4  A    between atoms: C_5  and  C_10 
REMARK       I    between atoms: N_7  and  C_5 
REMARK    5  A    between atoms: C_12  and  N_7 
REMARK    6  A    between atoms: S_9  and  C_11 
REMARK    7  A    between atoms: C_10  and  S_9 
REMARK    8  A    between atoms: C_15  and  C_12 
ROOT
ATOM      1  C   UNL d   1       1.248  -0.292  -2.832  0.00  0.00     0.089 C 
ENDROOT
BRANCH   1   2
ATOM      2  S   UNL d   1       1.428  -1.469  -4.232  0.00  0.00    -0.159 SA
BRANCH   2   3
ATOM      3  C   UNL d   1       1.436  -0.289  -5.623  0.00  0.00     0.176 C 
BRANCH   3   4
ATOM      4  C   UNL d   1       1.479  -0.935  -7.003  0.00  0.00     0.227 C 
ATOM      5  N   UNL d   1       1.971  -2.215  -7.095  0.00  0.00    -0.356 N 
ATOM      6  H   UNL d   1       2.263  -2.670  -6.234  0.00  0.00     0.162 HD
ATOM      7  O   UNL d   1       1.123  -0.292  -7.992  0.00  0.00    -0.273 OA
BRANCH   5   8
ATOM      8  C   UNL d   1       2.057  -2.939  -8.359  0.00  0.00     0.080 C 
ATOM      9  C   UNL d   1       1.603  -4.384  -8.158  0.00  0.00     0.032 C 
BRANCH   8  10
ATOM     10  C   UNL d   1       3.478  -2.913  -8.948  0.00  0.00     0.020 C 
ATOM     11  C   UNL d   1       3.928  -1.530  -9.395  0.00  0.00     0.007 C 
ENDBRANCH   8  10
ENDBRANCH   5   8
ENDBRANCH   3   4
ENDBRANCH   2   3
ENDBRANCH   1   2
BRANCH   1  12
ATOM     12  C   UNL d   1      -0.142   0.322  -2.765  0.00  0.00     0.156 C 
BRANCH  12  13
ATOM     13  S   UNL d   1      -0.295   1.349  -1.315  0.00  0.00     0.176 S 
ATOM     14  O   UNL d   1       0.670   2.425  -1.423  0.00  0.00    -0.223 OA
ATOM     15  O   UNL d   1      -0.323   0.487  -0.148  0.00  0.00    -0.223 OA
BRANCH  13  16
ATOM     16  C   UNL d   1      -1.915   2.066  -1.492  0.00  0.00     0.059 A 
ATOM     17  C   UNL d   1      -3.022   1.426  -0.929  0.00  0.00     0.023 A 
ATOM     18  C   UNL d   1      -4.287   2.003  -1.059  0.00  0.00     0.002 A 
ATOM     19  C   UNL d   1      -4.439   3.212  -1.741  0.00  0.00     0.000 A 
ATOM     20  C   UNL d   1      -3.326   3.855  -2.285  0.00  0.00     0.002 A 
ATOM     21  C   UNL d   1      -2.058   3.287  -2.158  0.00  0.00     0.023 A 
ENDBRANCH  13  16
ENDBRANCH  12  13
ENDBRANCH   1  12
TORSDOF 8
