REMARK  10 active torsions:
REMARK  status: ('A' for Active; 'I' for Inactive)
REMARK    1  A    between atoms: N_8  and  C_1 
REMARK    2  A    between atoms: N_11  and  C_1 
REMARK    3  A    between atoms: O_13  and  C_2 
REMARK    4  A    between atoms: C_3  and  C_9 
REMARK    5  A    between atoms: N_4  and  N_8 
REMARK    6  A    between atoms: C_18  and  N_11 
REMARK    7  A    between atoms: O_15  and  C_12 
REMARK    8  A    between atoms: C_16  and  C_18 
REMARK    9  A    between atoms: C_19  and  C_16 
REMARK   10  A    between atoms: O_17  and  C_19 
ROOT
ATOM      1  N   UNL d   1      -1.103  -0.385  -1.107  0.00  0.00    -0.309 N 
ATOM      2  HN  UNL d   1      -1.636   0.188  -0.453  1.00  0.00     0.186 HD
ATOM      3  C   UNL d   1      -1.670  -1.001  -2.094  0.00  0.00     0.121 C 
ENDROOT
BRANCH   1   4
ATOM      4  N   UNL d   1       0.242  -0.544  -0.991  0.00  0.00    -0.277 N 
ATOM      5  H   UNL d   1       0.774  -1.058  -1.688  0.00  0.00     0.189 HD
BRANCH   4   6
ATOM      6  C   UNL d   1       0.935   0.106   0.010  0.00  0.00     0.186 C 
ATOM      7  S   UNL d   1       2.596   0.022   0.060  0.00  0.00    -0.040 SA
BRANCH   6   8
ATOM      8  N   UNL d   1       0.117   0.804   0.861  0.00  0.00    -0.366 N 
ATOM      9  H   UNL d   1      -0.854   0.518   0.797  0.00  0.00     0.161 HD
BRANCH   8  10
ATOM     10  C   UNL d   1       0.508   1.773   1.867  0.00  0.00     0.124 C 
BRANCH  10  11
ATOM     11  C   UNL d   1      -0.653   2.707   2.202  0.00  0.00     0.046 C 
BRANCH  11  12
ATOM     12  C   UNL d   1      -0.208   3.845   3.111  0.00  0.00     0.168 C 
BRANCH  12  13
ATOM     13  O   UNL d   1       0.783   4.612   2.430  0.00  0.00    -0.396 OA
ATOM     14  C   UNL d   1       1.318   5.644   3.245  0.00  0.00     0.201 C 
ENDBRANCH  12  13
ENDBRANCH  11  12
ENDBRANCH  10  11
ENDBRANCH   8  10
ENDBRANCH   6   8
ENDBRANCH   4   6
ENDBRANCH   1   4
BRANCH   3  15
ATOM     15  C   UNL d   1      -3.131  -0.908  -2.257  0.00  0.00     0.014 A 
ATOM     16  C   UNL d   1      -3.876   0.110  -1.644  0.00  0.00     0.080 A 
ATOM     17  C   UNL d   1      -5.261   0.119  -1.739  0.00  0.00     0.074 A 
ATOM     18  C   UNL d   1      -5.902  -0.899  -2.436  0.00  0.00     0.068 A 
ATOM     19  C   UNL d   1      -5.178  -1.906  -3.071  0.00  0.00     0.037 A 
ATOM     20  C   UNL d   1      -3.780  -1.907  -2.990  0.00  0.00     0.018 A 
BRANCH  16  21
ATOM     21  O   UNL d   1      -3.300   1.129  -0.932  0.00  0.00    -0.360 OA
ATOM     22  H   UNL d   1      -2.336   0.957  -0.897  0.00  0.00     0.217 HD
ENDBRANCH  16  21
BRANCH  18  23
ATOM     23  O   UNL d   1      -7.265  -0.885  -2.465  0.00  0.00    -0.361 OA
ATOM     24  H   UNL d   1      -7.582  -1.700  -2.885  0.00  0.00     0.217 HD
ENDBRANCH  18  23
ENDBRANCH   3  15
TORSDOF 10
