REMARK  1 active torsions:
REMARK  status: ('A' for Active; 'I' for Inactive)
REMARK    1  A    between atoms: C_6  and  C_1 
ROOT
ATOM      1  C   UNL d   1       1.733   1.278  -0.054  0.00  0.00     0.118 A 
ATOM      2  N   UNL d   1       0.505   1.715  -0.005  0.00  0.00    -0.349 N 
ATOM      3  HN  UNL d   1       0.310   2.716   0.014  1.00  0.00     0.166 HD
ATOM      4  C   UNL d   1       2.066  -0.231  -0.032  0.00  0.00     0.274 A 
ATOM      5  N   UNL d   1       0.985  -1.079  -0.036  0.00  0.00    -0.320 N 
ATOM      6  C   UNL d   1      -0.545   0.783   0.019  0.00  0.00     0.059 A 
ATOM      7  C   UNL d   1      -0.325  -0.601  -0.011  0.00  0.00     0.061 A 
ATOM      8  O   UNL d   1       3.211  -0.659  -0.001  0.00  0.00    -0.266 OA
ATOM      9  C   UNL d   1      -1.859   1.251   0.050  0.00  0.00     0.032 A 
ATOM     10  C   UNL d   1      -1.390  -1.503  -0.015  0.00  0.00     0.032 A 
ATOM     11  C   UNL d   1      -2.933   0.356   0.043  0.00  0.00     0.002 A 
ATOM     12  C   UNL d   1      -2.697  -1.019   0.008  0.00  0.00     0.002 A 
ATOM     13  H   UNL d   1       1.181  -2.070  -0.027  0.00  0.00     0.169 HD
ENDROOT
BRANCH   1  14
ATOM     14  C   UNL d   1       2.848   2.210  -0.153  0.00  0.00     0.037 A 
ATOM     15  S   UNL d   1       2.691   3.797   0.492  0.00  0.00    -0.100 SA
ATOM     16  C   UNL d   1       4.274   4.228   0.015  0.00  0.00     0.050 A 
ATOM     17  C   UNL d   1       4.913   3.201  -0.638  0.00  0.00     0.008 A 
ATOM     18  C   UNL d   1       4.093   2.039  -0.733  0.00  0.00     0.022 A 
ENDBRANCH   1  14
TORSDOF 1
