REMARK  2 active torsions:
REMARK  status: ('A' for Active; 'I' for Inactive)
REMARK    1  A    between atoms: C_6  and  C_3 
REMARK    2  A    between atoms: C_8  and  C_4 
ROOT
ATOM      1  N   UNL d   1       1.406  -0.598  -0.030  0.00  0.00    -0.349 N 
ATOM      2  HN  UNL d   1       2.288  -1.109  -0.039  1.00  0.00     0.166 HD
ATOM      3  C   UNL d   1       0.212  -1.160  -0.008  0.00  0.00     0.085 A 
ATOM      4  C   UNL d   1       1.295   0.786  -0.038  0.00  0.00     0.050 A 
ATOM      5  S   UNL d   1      -1.106  -0.046  -0.023  0.00  0.00    -0.081 SA
ATOM      6  C   UNL d   1      -0.002   1.260  -0.019  0.00  0.00     0.082 A 
ENDROOT
BRANCH   3   7
ATOM      7  C   UNL d   1      -0.024  -2.615  -0.015  0.00  0.00     0.000 A 
ATOM      8  C   UNL d   1      -1.168  -3.197   0.558  0.00  0.00     0.033 A 
ATOM      9  C   UNL d   1      -1.354  -4.580   0.527  0.00  0.00     0.013 A 
ATOM     10 BR   UNL d   1      -2.907  -5.331   1.303  0.00  0.00    -0.051 Br
ATOM     11  C   UNL d   1      -0.410  -5.412  -0.067  0.00  0.00     0.038 A 
ATOM     12  C   UNL d   1       0.731  -4.846  -0.627  0.00  0.00     0.013 A 
ATOM     13  C   UNL d   1       0.931  -3.463  -0.600  0.00  0.00     0.033 A 
ATOM     14 BR   UNL d   1       2.024  -5.963  -1.435  0.00  0.00    -0.051 Br
ENDBRANCH   3   7
BRANCH   4  15
ATOM     15  C   UNL d   1       2.473   1.647  -0.035  0.00  0.00    -0.009 A 
ATOM     16  C   UNL d   1       2.446   2.936  -0.593  0.00  0.00     0.015 A 
ATOM     17  C   UNL d   1       3.582   3.750  -0.564  0.00  0.00     0.024 A 
ATOM     18  C   UNL d   1       4.756   3.282   0.020  0.00  0.00     0.034 A 
ATOM     19  C   UNL d   1       4.806   2.002   0.569  0.00  0.00     0.024 A 
ATOM     20 CL   UNL d   1       6.151   4.288   0.061  0.00  0.00    -0.084 Cl
ATOM     21  C   UNL d   1       3.669   1.187   0.536  0.00  0.00     0.015 A 
ENDBRANCH   4  15
TORSDOF 2
