REMARK  4 active torsions:
REMARK  status: ('A' for Active; 'I' for Inactive)
REMARK    1  A    between atoms: C_2  and  C_1 
REMARK       I    between atoms: N_3  and  C_1 
REMARK    2  A    between atoms: C_10  and  N_3 
REMARK    3  A    between atoms: C_11  and  N_4 
REMARK    4  A    between atoms: C_16  and  C_11 
ROOT
ATOM      1  N   UNL d   1      -1.984  -1.076  -3.650  0.00  0.00     0.092 N 
ATOM      2  C   UNL d   1      -1.218  -1.113  -0.793  0.00  0.00     0.088 C 
ATOM      3  C   UNL d   1      -1.709  -2.360  -1.541  0.00  0.00     0.055 C 
ATOM      4  C   UNL d   1      -1.762   0.133  -1.494  0.00  0.00     0.055 C 
ATOM      5  C   UNL d   1      -1.413  -2.288  -3.039  0.00  0.00     0.275 C 
ATOM      6  C   UNL d   1      -1.457   0.130  -2.995  0.00  0.00     0.275 C 
ENDROOT
BRANCH   2   7
ATOM      7  N   UNL d   1       0.238  -1.051  -0.672  0.00  0.00    -0.352 N 
ATOM      8  C   UNL d   1       0.980  -1.966   0.047  0.00  0.00     0.258 C 
ATOM      9  O   UNL d   1       0.442  -2.886   0.667  0.00  0.00    -0.267 OA
ATOM     10  H   UNL d   1       0.727  -0.222  -0.983  0.00  0.00     0.163 HD
BRANCH   8  11
ATOM     11  C   UNL d   1       2.428  -1.795   0.012  0.00  0.00     0.072 A 
ATOM     12  S   UNL d   1       3.193  -0.573  -0.917  0.00  0.00    -0.097 SA
ATOM     13  C   UNL d   1       4.755  -1.151  -0.526  0.00  0.00     0.050 A 
ATOM     14  C   UNL d   1       4.705  -2.221   0.339  0.00  0.00     0.009 A 
ATOM     15  C   UNL d   1       3.365  -2.581   0.659  0.00  0.00     0.025 A 
ENDBRANCH   8  11
ENDBRANCH   2   7
BRANCH   1  16
ATOM     16  C   UNL d   1      -1.702  -1.080  -5.102  0.00  0.00     0.311 C 
BRANCH  16  17
ATOM     17  C   UNL d   1      -2.297   0.096  -5.849  0.00  0.00    -0.030 A 
ATOM     18  C   UNL d   1      -1.464   1.032  -6.482  0.00  0.00     0.009 A 
ATOM     19  C   UNL d   1      -2.008   2.143  -7.130  0.00  0.00     0.001 A 
ATOM     20  C   UNL d   1      -3.389   2.322  -7.166  0.00  0.00     0.000 A 
ATOM     21  C   UNL d   1      -4.228   1.389  -6.557  0.00  0.00     0.001 A 
ATOM     22  C   UNL d   1      -3.685   0.284  -5.899  0.00  0.00     0.009 A 
ENDBRANCH  16  17
ENDBRANCH   1  16
TORSDOF 4
