REMARK  4 active torsions:
REMARK  status: ('A' for Active; 'I' for Inactive)
REMARK    1  A    between atoms: C_2  and  C_1 
REMARK       I    between atoms: N_9  and  C_2 
REMARK    2  A    between atoms: C_20  and  C_5 
REMARK    3  A    between atoms: C_8  and  C_6 
REMARK    4  A    between atoms: C_7  and  N_10 
ROOT
ATOM      1  C   UNL d   1       0.237  -2.597   0.431  0.00  0.00     0.258 C 
ATOM      2  N   UNL d   1      -0.628  -3.654   0.132  0.00  0.00    -0.346 N 
ATOM      3  N   UNL d   1      -2.754  -5.500  -0.299  0.00  0.00    -0.266 NA
ATOM      4  O   UNL d   1       0.387  -1.665  -0.353  0.00  0.00    -0.267 OA
ATOM      5  C   UNL d   1      -1.414  -3.598  -1.115  0.00  0.00     0.141 C 
ATOM      6  C   UNL d   1      -0.631  -4.987   0.763  0.00  0.00     0.141 C 
ATOM      7  C   UNL d   1      -2.842  -4.158  -0.918  0.00  0.00     0.117 C 
ATOM      8  C   UNL d   1      -2.079  -5.466   1.008  0.00  0.00     0.117 C 
ENDROOT
BRANCH   1   9
ATOM      9  C   UNL d   1       0.939  -2.601   1.702  0.00  0.00     0.092 C 
ATOM     10  C   UNL d   1       2.289  -2.203   2.006  0.00  0.00     0.083 C 
ATOM     11  N   UNL d   1       2.521  -2.357   3.324  0.00  0.00    -0.259 N 
ATOM     12  O   UNL d   1       1.344  -2.738   3.899  0.00  0.00    -0.241 OA
ATOM     13  HN  UNL d   1       3.410  -2.215   3.803  1.00  0.00     0.195 HD
ATOM     14  C   UNL d   1       0.386  -2.843   2.951  0.00  0.00     0.090 C 
ATOM     15  C   UNL d   1      -0.961  -3.144   3.475  0.00  0.00     0.080 C 
BRANCH  10  16
ATOM     16  C   UNL d   1       3.385  -1.690   1.167  0.00  0.00    -0.006 A 
ATOM     17  C   UNL d   1       3.533  -2.016  -0.185  0.00  0.00     0.014 A 
ATOM     18  C   UNL d   1       4.625  -1.529  -0.918  0.00  0.00     0.001 A 
ATOM     19  C   UNL d   1       5.581  -0.715  -0.312  0.00  0.00     0.000 A 
ATOM     20  C   UNL d   1       5.445  -0.373   1.028  0.00  0.00     0.001 A 
ATOM     21  C   UNL d   1       4.356  -0.855   1.757  0.00  0.00     0.014 A 
ENDBRANCH  10  16
ENDBRANCH   1   9
BRANCH   3  22
ATOM     22  C   UNL d   1      -3.931  -6.237  -0.344  0.00  0.00     0.097 A 
ATOM     23  C   UNL d   1      -4.252  -6.968  -1.488  0.00  0.00     0.086 A 
ATOM     24  C   UNL d   1      -5.445  -7.714  -1.493  0.00  0.00     0.021 A 
ATOM     25  C   UNL d   1      -6.258  -7.737  -0.371  0.00  0.00     0.018 A 
ATOM     26  C   UNL d   1      -5.850  -7.007   0.726  0.00  0.00     0.089 A 
ATOM     27  N   UNL d   1      -4.717  -6.268   0.758  0.00  0.00    -0.356 N 
ATOM     28  HN  UNL d   1      -4.461  -5.745   1.596  1.00  0.00     0.166 HD
BRANCH  23  29
ATOM     29  C   UNL d   1      -3.370  -7.015  -2.702  0.00  0.00     0.420 C 
ATOM     30  F   UNL d   1      -2.111  -6.512  -2.578  0.00  0.00    -0.166 F 
ATOM     31  F   UNL d   1      -3.192  -8.294  -3.153  0.00  0.00    -0.166 F 
ATOM     32  F   UNL d   1      -3.924  -6.340  -3.753  0.00  0.00    -0.166 F 
ENDBRANCH  23  29
ENDBRANCH   3  22
TORSDOF 4
