REMARK  2 active torsions:
REMARK  status: ('A' for Active; 'I' for Inactive)
REMARK    1  A    between atoms: N_3  and  C_1 
REMARK       I    between atoms: C_7  and  N_3 
REMARK    2  A    between atoms: C_11  and  C_7 
ROOT
ATOM      1  N   UNL d   1      -0.551  -5.219   1.488  0.00  0.00    -0.197 NA
ATOM      2  C   UNL d   1      -1.353  -4.741   0.798  0.00  0.00     0.068 C 
ATOM      3  C   UNL d   1      -2.296  -4.127  -0.134  0.00  0.00     0.226 C 
ENDROOT
BRANCH   3   4
ATOM      4  C   UNL d   1      -1.892  -2.713  -0.514  0.00  0.00     0.236 C 
ATOM      5  N   UNL d   1      -0.554  -2.561  -0.849  0.00  0.00    -0.311 N 
ATOM      6  H   UNL d   1       0.101  -3.263  -0.514  0.00  0.00     0.170 HD
ATOM      7  O   UNL d   1      -2.739  -1.821  -0.553  0.00  0.00    -0.272 OA
BRANCH   5   8
ATOM      8  C   UNL d   1       0.026  -1.337  -1.149  0.00  0.00     0.125 A 
ATOM      9  N   UNL d   1      -0.507  -0.248  -1.810  0.00  0.00    -0.281 N 
ATOM     10  N   UNL d   1       0.350   0.802  -1.856  0.00  0.00    -0.308 N 
ATOM     11  C   UNL d   1      -1.700  -0.142  -2.617  0.00  0.00     0.179 C 
ATOM     12  C   UNL d   1       1.457   0.348  -1.273  0.00  0.00     0.111 A 
ATOM     13  HN  UNL d   1       0.184   1.729  -2.248  1.00  0.00     0.186 HD
ATOM     14  C   UNL d   1       1.328  -0.984  -0.856  0.00  0.00     0.068 A 
ENDBRANCH   5   8
ENDBRANCH   3   4
TORSDOF 2
