REMARK  1 active torsions:
REMARK  status: ('A' for Active; 'I' for Inactive)
REMARK    1  A    between atoms: C_7  and  C_3 
ROOT
ATOM      1  N   UNL d   1       1.635  -1.186  -0.010  0.00  0.00    -0.334 N 
ATOM      2  HN  UNL d   1       1.979  -2.145  -0.039  1.00  0.00     0.168 HD
ATOM      3  C   UNL d   1       2.338  -0.066   0.021  0.00  0.00     0.159 A 
ATOM      4  O   UNL d   1       1.583   1.080   0.056  0.00  0.00    -0.291 OA
ATOM      5  C   UNL d   1       0.332  -0.753   0.005  0.00  0.00     0.069 A 
ATOM      6  C   UNL d   1       0.297   0.630   0.043  0.00  0.00     0.104 A 
ATOM      7  C   UNL d   1      -0.878  -1.459  -0.014  0.00  0.00     0.039 A 
ATOM      8  C   UNL d   1      -0.860   1.396   0.060  0.00  0.00     0.040 A 
ATOM      9  C   UNL d   1      -2.084  -0.730   0.005  0.00  0.00    -0.060 A 
ATOM     10  C   UNL d   1      -2.062   0.677   0.038  0.00  0.00     0.009 A 
ATOM     11  C   UNL d   1      -3.405  -1.445  -0.015  0.00  0.00     0.048 C 
ENDROOT
BRANCH   3  12
ATOM     12  C   UNL d   1       3.788   0.114   0.009  0.00  0.00     0.015 A 
ATOM     13  C   UNL d   1       4.631  -1.003  -0.111  0.00  0.00     0.017 A 
ATOM     14  C   UNL d   1       6.021  -0.853  -0.133  0.00  0.00     0.025 A 
ATOM     15  C   UNL d   1       6.582   0.418  -0.034  0.00  0.00     0.034 A 
ATOM     16  C   UNL d   1       5.765   1.539   0.088  0.00  0.00     0.025 A 
ATOM     17 CL   UNL d   1       8.291   0.607  -0.064  0.00  0.00    -0.084 Cl
ATOM     18  C   UNL d   1       4.375   1.386   0.109  0.00  0.00     0.017 A 
ENDBRANCH   3  12
TORSDOF 1
