REMARK  4 active torsions:
REMARK  status: ('A' for Active; 'I' for Inactive)
REMARK    1  A    between atoms: C_4  and  C_1 
REMARK       I    between atoms: N_8  and  C_4 
REMARK    2  A    between atoms: C_16  and  N_8 
REMARK    3  A    between atoms: C_10  and  C_19 
REMARK    4  A    between atoms: C_19  and  C_16 
ROOT
ATOM      1  C   UNL d   1       3.529  -1.447   0.008  0.00  0.00     0.258 C 
ATOM      2  O   UNL d   1       3.751  -2.658   0.010  0.00  0.00    -0.267 OA
ATOM      3  N   UNL d   1       4.577  -0.541  -0.004  0.00  0.00    -0.356 N 
ATOM      4  H   UNL d   1       4.364   0.448  -0.028  0.00  0.00     0.162 HD
ENDROOT
BRANCH   1   5
ATOM      5  C   UNL d   1       2.173  -0.915   0.015  0.00  0.00     0.074 A 
ATOM      6  S   UNL d   1       1.807   0.751   0.019  0.00  0.00    -0.084 SA
ATOM      7  C   UNL d   1       0.102   0.469   0.032  0.00  0.00     0.016 A 
ATOM      8  C   UNL d   1      -0.930   1.429   0.043  0.00  0.00     0.019 A 
ATOM      9  C   UNL d   1      -0.183  -0.898   0.031  0.00  0.00    -0.018 A 
ATOM     10  C   UNL d   1      -2.260   0.997   0.053  0.00  0.00     0.001 A 
ATOM     11  C   UNL d   1      -2.564  -0.357   0.051  0.00  0.00     0.001 A 
ATOM     12  C   UNL d   1      -1.539  -1.306   0.040  0.00  0.00     0.013 A 
ATOM     13  C   UNL d   1       1.019  -1.673   0.020  0.00  0.00     0.037 A 
ENDBRANCH   1   5
BRANCH   3  14
ATOM     14  C   UNL d   1       5.946  -1.024  -0.033  0.00  0.00     0.127 C 
BRANCH  14  15
ATOM     15  C   UNL d   1       6.993   0.089  -0.041  0.00  0.00     0.058 C 
BRANCH  15  16
ATOM     16  C   UNL d   1       8.402  -0.459  -0.096  0.00  0.00    -0.057 A 
ATOM     17  C   UNL d   1       9.018  -0.714  -1.331  0.00  0.00     0.009 A 
ATOM     18  C   UNL d   1      10.319  -1.222  -1.385  0.00  0.00     0.024 A 
ATOM     19  C   UNL d   1      11.011  -1.484  -0.206  0.00  0.00     0.034 A 
ATOM     20  C   UNL d   1      10.410  -1.250   1.028  0.00  0.00     0.024 A 
ATOM     21 CL   UNL d   1      12.617  -2.099  -0.274  0.00  0.00    -0.084 Cl
ATOM     22  C   UNL d   1       9.108  -0.742   1.083  0.00  0.00     0.009 A 
ENDBRANCH  15  16
ENDBRANCH  14  15
ENDBRANCH   3  14
TORSDOF 4
