REMARK  7 active torsions:
REMARK  status: ('A' for Active; 'I' for Inactive)
REMARK    1  A    between atoms: N_2  and  S_1 
REMARK    2  A    between atoms: C_6  and  S_1 
REMARK    3  A    between atoms: C_5  and  N_2 
REMARK       I    between atoms: C_3  and  N_10 
REMARK    4  A    between atoms: C_4  and  C_3 
REMARK    5  A    between atoms: O_7  and  C_12 
REMARK    6  A    between atoms: C_11  and  O_7 
REMARK    7  A    between atoms: N_10  and  C_21 
ROOT
ATOM      1  N   UNL d   1       0.328  -1.196  -0.760  0.00  0.00    -0.278 N 
ATOM      2  H   UNL d   1       1.337  -1.320  -0.806  0.00  0.00     0.179 HD
ENDROOT
BRANCH   1   3
ATOM      3  S   UNL d   1      -0.127   0.369  -0.343  0.00  0.00     0.263 S 
ATOM      4  O   UNL d   1      -1.456   0.637  -0.849  0.00  0.00    -0.200 OA
ATOM      5  O   UNL d   1       0.995   1.217  -0.685  0.00  0.00    -0.200 OA
BRANCH   3   6
ATOM      6  C   UNL d   1      -0.224   0.328   1.435  0.00  0.00     0.080 A 
ATOM      7  C   UNL d   1       0.902   0.598   2.219  0.00  0.00     0.027 A 
ATOM      8  C   UNL d   1       0.801   0.538   3.618  0.00  0.00     0.031 A 
ATOM      9  C   UNL d   1      -0.416   0.213   4.238  0.00  0.00     0.034 A 
ATOM     10  C   UNL d   1      -1.541   0.007   3.434  0.00  0.00     0.031 A 
ATOM     11  C   UNL d   1      -1.452   0.069   2.041  0.00  0.00     0.027 A 
BRANCH   9  12
ATOM     12  N   UNL d   1      -0.425   0.075   5.645  0.00  0.00    -0.327 N 
ATOM     13  C   UNL d   1      -1.487  -0.349   6.423  0.00  0.00     0.226 C 
ATOM     14  O   UNL d   1      -2.628  -0.573   6.045  0.00  0.00    -0.273 OA
ATOM     15  H   UNL d   1       0.453   0.230   6.120  0.00  0.00     0.169 HD
BRANCH  13  16
ATOM     16  C   UNL d   1      -1.193  -0.606   7.871  0.00  0.00     0.078 A 
ATOM     17  C   UNL d   1      -0.142   0.104   8.684  0.00  0.00     0.015 A 
ATOM     18  C   UNL d   1       0.059  -1.335   8.298  0.00  0.00     0.015 A 
ENDBRANCH  13  16
ENDBRANCH   9  12
ENDBRANCH   3   6
ENDBRANCH   1   3
BRANCH   1  19
ATOM     19  C   UNL d   1      -0.461  -2.318  -0.376  0.00  0.00     0.076 A 
ATOM     20  C   UNL d   1      -1.512  -2.804  -1.171  0.00  0.00     0.103 A 
ATOM     21  C   UNL d   1      -2.155  -3.996  -0.795  0.00  0.00     0.039 A 
ATOM     22  C   UNL d   1      -1.846  -4.621   0.412  0.00  0.00     0.003 A 
ATOM     23  C   UNL d   1      -0.853  -4.094   1.231  0.00  0.00     0.002 A 
ATOM     24  C   UNL d   1      -0.143  -2.964   0.825  0.00  0.00     0.033 A 
BRANCH  20  25
ATOM     25  O   UNL d   1      -1.834  -2.136  -2.339  0.00  0.00    -0.307 OA
BRANCH  25  26
ATOM     26  C   UNL d   1      -3.148  -2.175  -2.771  0.00  0.00     0.098 A 
ATOM     27  C   UNL d   1      -3.413  -2.402  -4.128  0.00  0.00     0.069 A 
ATOM     28  C   UNL d   1      -4.733  -2.497  -4.583  0.00  0.00     0.050 A 
ATOM     29 CL   UNL d   1      -2.139  -2.605  -5.274  0.00  0.00    -0.081 Cl
ATOM     30  C   UNL d   1      -5.785  -2.360  -3.680  0.00  0.00     0.035 A 
ATOM     31  C   UNL d   1      -5.535  -2.093  -2.336  0.00  0.00     0.026 A 
ATOM     32 CL   UNL d   1      -7.409  -2.524  -4.226  0.00  0.00    -0.084 Cl
ATOM     33  C   UNL d   1      -4.218  -1.972  -1.887  0.00  0.00     0.041 A 
ENDBRANCH  25  26
ENDBRANCH  20  25
ENDBRANCH   1  19
TORSDOF 7
