REMARK  7 active torsions:
REMARK  status: ('A' for Active; 'I' for Inactive)
REMARK    1  A    between atoms: S_2  and  N_1 
REMARK    2  A    between atoms: S_3  and  N_1 
REMARK    3  A    between atoms: C_4  and  N_1 
REMARK    4  A    between atoms: C_6  and  S_2 
REMARK    5  A    between atoms: C_7  and  S_3 
REMARK       I    between atoms: C_14  and  N_16 
REMARK       I    between atoms: C_15  and  N_17 
REMARK    6  A    between atoms: N_16  and  C_26 
REMARK    7  A    between atoms: N_17  and  C_27 
ROOT
ATOM      1  N   UNL d   1       1.072   0.099  -0.007  0.00  0.00    -0.154 N 
ENDROOT
BRANCH   1   2
ATOM      2  S   UNL d   1       0.189   1.507   0.001  0.00  0.00     0.278 S 
ATOM      3  O   UNL d   1      -0.140   1.829  -1.373  0.00  0.00    -0.199 OA
ATOM      4  O   UNL d   1      -0.854   1.423   1.001  0.00  0.00    -0.199 OA
BRANCH   2   5
ATOM      5  C   UNL d   1       1.287   2.797   0.565  0.00  0.00     0.081 A 
ATOM      6  C   UNL d   1       1.916   3.628  -0.365  0.00  0.00     0.027 A 
ATOM      7  C   UNL d   1       2.705   4.693   0.083  0.00  0.00     0.031 A 
ATOM      8  C   UNL d   1       2.864   4.941   1.454  0.00  0.00     0.034 A 
ATOM      9  C   UNL d   1       2.216   4.107   2.370  0.00  0.00     0.031 A 
ATOM     10  C   UNL d   1       1.419   3.044   1.932  0.00  0.00     0.027 A 
BRANCH   8  11
ATOM     11  N   UNL d   1       3.665   6.043   1.825  0.00  0.00    -0.328 N 
ATOM     12  C   UNL d   1       3.971   6.459   3.108  0.00  0.00     0.218 C 
ATOM     13  O   UNL d   1       3.613   5.930   4.155  0.00  0.00    -0.274 OA
ATOM     14  C   UNL d   1       4.843   7.691   3.146  0.00  0.00     0.117 C 
ATOM     15  H   UNL d   1       4.053   6.584   1.063  0.00  0.00     0.169 HD
ENDBRANCH   8  11
ENDBRANCH   2   5
ENDBRANCH   1   2
BRANCH   1  16
ATOM     16  S   UNL d   1       0.314  -1.379   0.100  0.00  0.00     0.278 S 
ATOM     17  O   UNL d   1       1.245  -2.404  -0.343  0.00  0.00    -0.199 OA
ATOM     18  O   UNL d   1      -0.289  -1.505   1.412  0.00  0.00    -0.199 OA
BRANCH  16  19
ATOM     19  C   UNL d   1      -0.995  -1.344  -1.117  0.00  0.00     0.081 A 
ATOM     20  C   UNL d   1      -0.785  -1.905  -2.380  0.00  0.00     0.027 A 
ATOM     21  C   UNL d   1      -1.823  -1.908  -3.325  0.00  0.00     0.031 A 
ATOM     22  C   UNL d   1      -3.074  -1.351  -3.022  0.00  0.00     0.034 A 
ATOM     23  C   UNL d   1      -3.277  -0.827  -1.742  0.00  0.00     0.031 A 
ATOM     24  C   UNL d   1      -2.253  -0.841  -0.785  0.00  0.00     0.027 A 
BRANCH  22  25
ATOM     25  N   UNL d   1      -4.060  -1.356  -4.037  0.00  0.00    -0.328 N 
ATOM     26  C   UNL d   1      -5.336  -0.824  -3.961  0.00  0.00     0.218 C 
ATOM     27  O   UNL d   1      -5.844  -0.269  -2.995  0.00  0.00    -0.274 OA
ATOM     28  C   UNL d   1      -6.129  -0.972  -5.240  0.00  0.00     0.117 C 
ATOM     29  H   UNL d   1      -3.786  -1.774  -4.917  0.00  0.00     0.169 HD
ENDBRANCH  22  25
ENDBRANCH  16  19
ENDBRANCH   1  16
BRANCH   1  30
ATOM     30  C   UNL d   1       2.492   0.134   0.122  0.00  0.00     0.101 A 
ATOM     31  C   UNL d   1       3.303   0.311  -1.006  0.00  0.00     0.147 A 
ATOM     32  C   UNL d   1       4.686   0.403  -0.889  0.00  0.00     0.086 A 
ATOM     33  F   UNL d   1       2.746   0.412  -2.222  0.00  0.00    -0.204 F 
ATOM     34  C   UNL d   1       5.258   0.323   0.373  0.00  0.00     0.119 A 
ATOM     35  C   UNL d   1       4.474   0.138   1.509  0.00  0.00     0.045 A 
ATOM     36  F   UNL d   1       6.587   0.431   0.502  0.00  0.00    -0.206 F 
ATOM     37  C   UNL d   1       3.086   0.033   1.385  0.00  0.00     0.038 A 
ENDBRANCH   1  30
TORSDOF 7
