REMARK  6 active torsions:
REMARK  status: ('A' for Active; 'I' for Inactive)
REMARK    1  A    between atoms: C_8  and  N_1 
REMARK    2  A    between atoms: C_7  and  C_2 
REMARK    3  A    between atoms: C_10  and  C_4 
REMARK    4  A    between atoms: O_19  and  C_7 
REMARK    5  A    between atoms: C_9  and  C_8 
REMARK    6  A    between atoms: O_25  and  C_20 
ROOT
ATOM      1  N   UNL d   1      -2.130  -0.209   0.073  0.00  0.00    -0.332 N 
ATOM      2  C   UNL d   1      -0.446  -2.016   0.278  0.00  0.00     0.145 C 
ATOM      3  C   UNL d   1      -1.215   0.772   0.423  0.00  0.00     0.255 C 
ATOM      4  C   UNL d   1      -1.710  -1.513  -0.462  0.00  0.00     0.139 C 
ATOM      5  C   UNL d   1       0.633  -0.951   0.300  0.00  0.00    -0.026 C 
ATOM      6  C   UNL d   1       0.234   0.404   0.337  0.00  0.00     0.039 C 
ATOM      7  O   UNL d   1      -1.529   1.902   0.782  0.00  0.00    -0.267 OA
ATOM      8  C   UNL d   1       2.006  -1.246   0.293  0.00  0.00     0.009 C 
ATOM      9  C   UNL d   1       1.180   1.424   0.217  0.00  0.00     0.017 C 
ATOM     10  C   UNL d   1       2.945  -0.222   0.158  0.00  0.00     0.001 C 
ATOM     11  C   UNL d   1       2.532   1.107   0.091  0.00  0.00     0.001 C 
ENDROOT
BRANCH   4  12
ATOM     12  C   UNL d   1      -1.605  -1.446  -1.994  0.00  0.00    -0.034 A 
ATOM     13  C   UNL d   1      -2.470  -2.225  -2.779  0.00  0.00     0.012 A 
ATOM     14  C   UNL d   1      -2.427  -2.171  -4.181  0.00  0.00     0.037 A 
ATOM     15  C   UNL d   1      -1.512  -1.341  -4.824  0.00  0.00     0.068 A 
ATOM     16  C   UNL d   1      -0.651  -0.562  -4.061  0.00  0.00     0.037 A 
ATOM     17  C   UNL d   1      -0.697  -0.612  -2.668  0.00  0.00     0.012 A 
BRANCH  15  18
ATOM     18  O   UNL d   1      -1.393  -1.163  -6.173  0.00  0.00    -0.356 OA
ATOM     19  C   UNL d   1      -1.836  -2.241  -6.985  0.00  0.00     0.210 C 
ENDBRANCH  15  18
ENDBRANCH   4  12
BRANCH   2  20
ATOM     20  C   UNL d   1      -0.084  -3.389  -0.258  0.00  0.00     0.150 C 
ATOM     21  O   UNL d   1      -0.536  -4.422   0.218  0.00  0.00    -0.649 OA
BRANCH  20  22
ATOM     22  O   UNL d   1       0.729  -3.420  -1.336  0.00  0.00    -0.776 OA
ATOM     23  H   UNL d   1       0.964  -2.548  -1.710  0.00  0.00     0.167 HD
ENDBRANCH  20  22
ENDBRANCH   2  20
BRANCH   1  24
ATOM     24  C   UNL d   1      -3.558   0.070   0.186  0.00  0.00     0.191 C 
BRANCH  24  25
ATOM     25  C   UNL d   1      -4.048  -0.435   1.496  0.00  0.00     0.070 A 
ATOM     26  O   UNL d   1      -4.510  -1.719   1.529  0.00  0.00    -0.325 OA
ATOM     27  C   UNL d   1      -4.880  -1.973   2.812  0.00  0.00     0.142 A 
ATOM     28  C   UNL d   1      -4.665  -0.869   3.603  0.00  0.00     0.027 A 
ATOM     29  C   UNL d   1      -4.135   0.129   2.752  0.00  0.00     0.036 A 
ENDBRANCH  24  25
ENDBRANCH   1  24
TORSDOF 6
