REMARK  11 active torsions:
REMARK  status: ('A' for Active; 'I' for Inactive)
REMARK    1  A    between atoms: C_5  and  C_1 
REMARK    2  A    between atoms: N_12  and  C_4 
REMARK    3  A    between atoms: S_8  and  C_16 
REMARK    4  A    between atoms: C_14  and  S_8 
REMARK    5  A    between atoms: C_27  and  N_12 
REMARK    6  A    between atoms: C_16  and  C_17 
REMARK    7  A    between atoms: C_17  and  C_26 
REMARK    8  A    between atoms: O_25  and  C_17 
REMARK    9  A    between atoms: N_19  and  C_28 
REMARK   10  A    between atoms: C_26  and  N_19 
REMARK   11  A    between atoms: C_28  and  C_27 
ROOT
ATOM      1  C   UNL d   1      -3.088  -3.475  -5.006  0.00  0.00     0.284 C 
ENDROOT
BRANCH   1   2
ATOM      2  N   UNL d   1      -3.420  -4.825  -5.483  0.00  0.00     0.087 N 
ATOM      3  H   UNL d   1      -3.589  -5.446  -4.691  0.00  0.00     0.316 HD
BRANCH   2   4
ATOM      4  C   UNL d   1      -4.566  -4.861  -6.402  0.00  0.00     0.301 C 
BRANCH   4   5
ATOM      5  C   UNL d   1      -4.865  -6.310  -6.865  0.00  0.00     0.155 C 
BRANCH   5   6
ATOM      6  C   UNL d   1      -6.090  -6.341  -7.799  0.00  0.00     0.113 C 
BRANCH   6   7
ATOM      7  S   UNL d   1      -6.553  -8.080  -8.157  0.00  0.00    -0.127 SA
BRANCH   7   8
ATOM      8  C   UNL d   1      -7.957  -7.913  -9.244  0.00  0.00     0.000 A 
ATOM      9  C   UNL d   1      -8.077  -8.839 -10.293  0.00  0.00     0.021 A 
ATOM     10  C   UNL d   1      -9.212  -8.851 -11.107  0.00  0.00     0.043 A 
ATOM     11  C   UNL d   1     -10.229  -7.936 -10.870  0.00  0.00     0.116 A 
ATOM     12  C   UNL d   1     -10.124  -7.004  -9.845  0.00  0.00     0.043 A 
ATOM     13  F   UNL d   1     -11.332  -7.965 -11.628  0.00  0.00    -0.206 F 
ATOM     14  C   UNL d   1      -8.988  -6.993  -9.030  0.00  0.00     0.021 A 
ENDBRANCH   7   8
ENDBRANCH   6   7
ENDBRANCH   5   6
BRANCH   5  15
ATOM     15  O   UNL d   1      -3.729  -6.867  -7.537  0.00  0.00    -0.393 OA
ATOM     16  H   UNL d   1      -3.168  -6.132  -7.839  0.00  0.00     0.210 HD
ENDBRANCH   5  15
ENDBRANCH   4   5
ENDBRANCH   2   4
ENDBRANCH   1   2
BRANCH   1  17
ATOM     17  C   UNL d   1      -4.178  -2.762  -4.178  0.00  0.00     0.125 C 
BRANCH  17  18
ATOM     18  N   UNL d   1      -3.701  -1.469  -3.717  0.00  0.00    -0.262 NA
ATOM     19  H   UNL d   1      -2.851  -1.471  -3.160  0.00  0.00     0.130 HD
BRANCH  18  20
ATOM     20  C   UNL d   1      -4.631  -0.714  -3.026  0.00  0.00     0.157 A 
ATOM     21  N   UNL d   1      -4.139   0.132  -2.115  0.00  0.00    -0.329 N 
ATOM     22  C   UNL d   1      -5.016   0.913  -1.434  0.00  0.00     0.120 A 
ATOM     23  HN  UNL d   1      -3.136   0.188  -1.936  1.00  0.00     0.168 HD
ATOM     24  C   UNL d   1      -6.381   0.842  -1.650  0.00  0.00     0.051 A 
ATOM     25  C   UNL d   1      -6.789  -0.065  -2.594  0.00  0.00     0.093 A 
ATOM     26  N   UNL d   1      -5.940  -0.844  -3.283  0.00  0.00    -0.343 N 
ATOM     27  HN  UNL d   1      -6.279  -1.511  -3.977  1.00  0.00     0.167 HD
BRANCH  22  28
ATOM     28  C   UNL d   1      -4.494   1.910  -0.411  0.00  0.00     0.432 C 
ATOM     29  F   UNL d   1      -3.143   1.881  -0.236  0.00  0.00    -0.165 F 
ATOM     30  F   UNL d   1      -5.033   1.707   0.828  0.00  0.00    -0.165 F 
ATOM     31  F   UNL d   1      -4.804   3.196  -0.734  0.00  0.00    -0.165 F 
ENDBRANCH  22  28
ENDBRANCH  18  20
ENDBRANCH  17  18
ENDBRANCH   1  17
TORSDOF 11
