REMARK  4 active torsions:
REMARK  status: ('A' for Active; 'I' for Inactive)
REMARK    1  A    between atoms: C_5  and  C_1 
REMARK    2  A    between atoms: C_7  and  C_2 
REMARK       I    between atoms: N_8  and  C_5 
REMARK    3  A    between atoms: C_10  and  C_6 
REMARK    4  A    between atoms: C_9  and  N_8 
ROOT
ATOM      1  C   UNL d   1       1.130   0.682   0.133  0.00  0.00     0.073 C 
ATOM      2  C   UNL d   1      -0.171   1.141  -0.030  0.00  0.00     0.175 C 
ATOM      3  O   UNL d   1      -1.044   0.082  -0.013  0.00  0.00    -0.304 OA
ATOM      4  C   UNL d   1       0.991  -0.719   0.402  0.00  0.00     0.058 C 
ATOM      5  C   UNL d   1      -0.332  -1.054   0.224  0.00  0.00     0.087 C 
ENDROOT
BRANCH   1   6
ATOM      6  C   UNL d   1       2.422   1.359   0.046  0.00  0.00     0.259 C 
ATOM      7  N   UNL d   1       2.439   2.603  -0.540  0.00  0.00    -0.321 N 
ATOM      8  H   UNL d   1       1.618   3.189  -0.449  0.00  0.00     0.169 HD
ATOM      9  O   UNL d   1       3.439   0.793   0.458  0.00  0.00    -0.267 OA
BRANCH   7  10
ATOM     10  C   UNL d   1       3.613   3.294  -0.927  0.00  0.00     0.056 A 
ATOM     11  C   UNL d   1       3.669   4.690  -0.773  0.00  0.00     0.060 A 
ATOM     12 CL   UNL d   1       2.429   5.546   0.070  0.00  0.00    -0.082 Cl
ATOM     13  C   UNL d   1       4.767   5.412  -1.245  0.00  0.00     0.026 A 
ATOM     14  C   UNL d   1       5.806   4.750  -1.899  0.00  0.00     0.002 A 
ATOM     15  C   UNL d   1       5.763   3.364  -2.046  0.00  0.00     0.002 A 
ATOM     16  C   UNL d   1       4.679   2.634  -1.546  0.00  0.00     0.031 A 
ENDBRANCH   7  10
ENDBRANCH   1   6
BRANCH   2  17
ATOM     17  C   UNL d   1      -0.814   2.466  -0.206  0.00  0.00     0.440 C 
ATOM     18  F   UNL d   1       0.082   3.481  -0.089  0.00  0.00    -0.164 F 
ATOM     19  F   UNL d   1      -1.392   2.603  -1.424  0.00  0.00    -0.164 F 
ATOM     20  F   UNL d   1      -1.775   2.699   0.725  0.00  0.00    -0.164 F 
ENDBRANCH   2  17
BRANCH   5  21
ATOM     21  C   UNL d   1      -1.075  -2.312   0.239  0.00  0.00    -0.002 A 
ATOM     22  C   UNL d   1      -0.414  -3.519   0.516  0.00  0.00     0.016 A 
ATOM     23  C   UNL d   1      -1.113  -4.730   0.556  0.00  0.00     0.024 A 
ATOM     24  C   UNL d   1      -2.482  -4.747   0.311  0.00  0.00     0.034 A 
ATOM     25  C   UNL d   1      -3.154  -3.566   0.006  0.00  0.00     0.024 A 
ATOM     26 CL   UNL d   1      -3.348  -6.230   0.395  0.00  0.00    -0.084 Cl
ATOM     27  C   UNL d   1      -2.452  -2.356  -0.033  0.00  0.00     0.016 A 
ENDBRANCH   5  21
TORSDOF 4
