REMARK  2 active torsions:
REMARK  status: ('A' for Active; 'I' for Inactive)
REMARK    1  A    between atoms: C_2  and  N_1 
REMARK    2  A    between atoms: N_6  and  C_3 
ROOT
ATOM      1  C   UNL d   1       0.166   0.882  -0.749  0.00  0.00     0.118 A 
ATOM      2  C   UNL d   1      -1.152   2.587  -2.494  0.00  0.00     0.103 A 
ATOM      3  N   UNL d   1      -1.236   1.248  -2.675  0.00  0.00    -0.350 N 
ATOM      4  HN  UNL d   1      -1.780   0.863  -3.447  1.00  0.00     0.166 HD
ATOM      5  C   UNL d   1      -0.586   0.424  -1.812  0.00  0.00     0.125 A 
ATOM      6  C   UNL d   1       0.262   2.255  -0.547  0.00  0.00     0.041 A 
ATOM      7  C   UNL d   1      -0.407   3.103  -1.430  0.00  0.00     0.051 A 
ENDROOT
BRANCH   2   8
ATOM      8  N   UNL d   1      -1.779   3.408  -3.389  0.00  0.00    -0.367 N 
ATOM      9  C   UNL d   1      -2.513   2.896  -4.532  0.00  0.00     0.124 C 
ATOM     10  C   UNL d   1      -2.524   4.097  -5.473  0.00  0.00     0.021 C 
ATOM     11  C   UNL d   1      -2.649   5.286  -4.529  0.00  0.00     0.021 C 
ATOM     12  C   UNL d   1      -1.923   4.849  -3.255  0.00  0.00     0.124 C 
ENDBRANCH   2   8
BRANCH   1  13
ATOM     13  N   UNL d   1       0.844  -0.051   0.135  0.00  0.00    -0.114 N 
ATOM     14  O   UNL d   1       0.708  -1.263  -0.095  0.00  0.00    -0.532 OA
ATOM     15  O   UNL d   1       1.517   0.416   1.064  0.00  0.00    -0.532 OA
ENDBRANCH   1  13
TORSDOF 2
