REMARK  8 active torsions:
REMARK  status: ('A' for Active; 'I' for Inactive)
REMARK    1  A    between atoms: N_2  and  C_1 
REMARK    2  A    between atoms: N_3  and  C_1 
REMARK    3  A    between atoms: C_6  and  N_2 
REMARK    4  A    between atoms: C_4  and  N_3 
REMARK    5  A    between atoms: C_9  and  C_6 
REMARK    6  A    between atoms: C_10  and  C_6 
REMARK    7  A    between atoms: O_12  and  C_9 
REMARK    8  A    between atoms: O_11  and  C_10 
ROOT
ATOM      1  N   UNL d   1       0.584  -1.059   0.408  0.00  0.00    -0.354 N 
ATOM      2  H   UNL d   1       0.959  -0.282   0.943  0.00  0.00     0.162 HD
ENDROOT
BRANCH   1   3
ATOM      3  C   UNL d   1      -0.105  -0.696  -0.710  0.00  0.00     0.168 C 
ATOM      4  S   UNL d   1      -0.958  -1.686  -1.740  0.00  0.00    -0.041 SA
BRANCH   3   5
ATOM      5  N   UNL d   1      -0.035   0.640  -1.019  0.00  0.00    -0.363 N 
ATOM      6  H   UNL d   1      -0.532   0.891  -1.870  0.00  0.00     0.162 HD
BRANCH   5   7
ATOM      7  C   UNL d   1       0.918   1.581  -0.518  0.00  0.00     0.084 A 
ATOM      8  C   UNL d   1       0.669   2.370   0.736  0.00  0.00     0.027 A 
ATOM      9  C   UNL d   1       0.634   3.056  -0.599  0.00  0.00     0.027 A 
ENDBRANCH   5   7
ENDBRANCH   3   5
ENDBRANCH   1   3
BRANCH   1  10
ATOM     10  C   UNL d   1       1.011  -2.382   0.946  0.00  0.00     0.071 C 
ATOM     11  C   UNL d   1      -0.170  -3.282   1.338  0.00  0.00     0.043 C 
BRANCH  10  12
ATOM     12  C   UNL d   1       1.933  -3.107  -0.063  0.00  0.00     0.197 C 
BRANCH  12  13
ATOM     13  O   UNL d   1       2.980  -2.229  -0.496  0.00  0.00    -0.398 OA
ATOM     14  H   UNL d   1       2.534  -1.560  -1.051  0.00  0.00     0.209 HD
ENDBRANCH  12  13
ENDBRANCH  10  12
BRANCH  10  15
ATOM     15  C   UNL d   1       1.831  -2.086   2.238  0.00  0.00     0.197 C 
BRANCH  15  16
ATOM     16  O   UNL d   1       2.795  -1.052   2.009  0.00  0.00    -0.398 OA
ATOM     17  H   UNL d   1       3.277  -1.308   1.193  0.00  0.00     0.209 HD
ENDBRANCH  15  16
ENDBRANCH  10  15
ENDBRANCH   1  10
TORSDOF 8
