REMARK  6 active torsions:
REMARK  status: ('A' for Active; 'I' for Inactive)
REMARK    1  A    between atoms: C_6  and  C_1 
REMARK    2  A    between atoms: N_7  and  C_2 
REMARK    3  A    between atoms: C_9  and  N_4 
REMARK    4  A    between atoms: O_12  and  C_6 
REMARK    5  A    between atoms: C_11  and  N_7 
REMARK    6  A    between atoms: C_21  and  O_12 
ROOT
ATOM      1  C   UNL d   1      -1.464   0.778  -0.303  0.00  0.00     0.062 A 
ATOM      2  C   UNL d   1      -0.228   1.286  -0.288  0.00  0.00     0.095 A 
ATOM      3  C   UNL d   1       0.669   0.105  -0.192  0.00  0.00     0.266 A 
ATOM      4  N   UNL d   1      -0.105  -1.043  -0.242  0.00  0.00    -0.338 N 
ATOM      5  C   UNL d   1      -1.507  -0.712  -0.320  0.00  0.00     0.173 A 
ATOM      6  O   UNL d   1       1.876   0.190  -0.014  0.00  0.00    -0.266 OA
ENDROOT
BRANCH   2   7
ATOM      7  N   UNL d   1       0.291   2.551  -0.140  0.00  0.00    -0.254 NA
ATOM      8  H   UNL d   1       1.229   2.486   0.269  0.00  0.00     0.134 HD
BRANCH   7   9
ATOM      9  C   UNL d   1       0.351   3.512  -1.180  0.00  0.00     0.013 A 
ATOM     10  C   UNL d   1       0.041   3.232  -2.519  0.00  0.00     0.027 A 
ATOM     11  C   UNL d   1       0.173   4.221  -3.499  0.00  0.00     0.044 A 
ATOM     12  C   UNL d   1       0.601   5.493  -3.142  0.00  0.00     0.116 A 
ATOM     13  C   UNL d   1       0.902   5.798  -1.822  0.00  0.00     0.044 A 
ATOM     14  F   UNL d   1       0.728   6.437  -4.083  0.00  0.00    -0.206 F 
ATOM     15  C   UNL d   1       0.778   4.808  -0.846  0.00  0.00     0.027 A 
ENDBRANCH   7   9
ENDBRANCH   2   7
BRANCH   1  16
ATOM     16  C   UNL d   1      -2.661   1.580  -0.041  0.00  0.00     0.292 C 
ATOM     17  O   UNL d   1      -2.670   2.693   0.459  0.00  0.00    -0.259 OA
BRANCH  16  18
ATOM     18  O   UNL d   1      -3.764   0.832  -0.308  0.00  0.00    -0.318 OA
BRANCH  18  19
ATOM     19  C   UNL d   1      -4.984   1.335   0.261  0.00  0.00     0.174 C 
ATOM     20  C   UNL d   1      -5.141   0.739   1.649  0.00  0.00     0.034 C 
ENDBRANCH  18  19
ENDBRANCH  16  18
ENDBRANCH   1  16
BRANCH   4  21
ATOM     21  C   UNL d   1       0.450  -2.326   0.199  0.00  0.00     0.088 C 
ATOM     22  C   UNL d   1      -0.203  -3.575  -0.415  0.00  0.00     0.025 C 
ATOM     23  C   UNL d   1      -1.399  -4.134   0.353  0.00  0.00     0.002 C 
ATOM     24  C   UNL d   1      -1.141  -4.232   1.852  0.00  0.00     0.000 C 
ATOM     25  C   UNL d   1      -0.696  -2.895   2.427  0.00  0.00     0.002 C 
ATOM     26  C   UNL d   1       0.566  -2.397   1.732  0.00  0.00     0.025 C 
ENDBRANCH   4  21
TORSDOF 6
