REMARK  6 active torsions:
REMARK  status: ('A' for Active; 'I' for Inactive)
REMARK    1  A    between atoms: O_6  and  C_1 
REMARK    2  A    between atoms: C_10  and  N_2 
REMARK    3  A    between atoms: S_11  and  C_3 
REMARK    4  A    between atoms: C_9  and  O_6 
REMARK       I    between atoms: N_15  and  C_9 
REMARK    5  A    between atoms: C_18  and  S_11 
REMARK    6  A    between atoms: C_14  and  C_18 
ROOT
ATOM      1  C   UNL d   1       0.206  -1.091  -0.286  0.00  0.00     0.256 A 
ATOM      2  N   UNL d   1       1.407  -0.402  -0.329  0.00  0.00    -0.255 N 
ATOM      3  C   UNL d   1       1.032   0.932  -0.317  0.00  0.00     0.169 A 
ATOM      4  N   UNL d   1      -0.801  -0.246  -0.254  0.00  0.00    -0.262 N 
ATOM      5  HN  UNL d   1      -1.791  -0.491  -0.227  1.00  0.00     0.190 HD
ATOM      6  N   UNL d   1      -0.279   1.029  -0.263  0.00  0.00    -0.276 N 
ATOM      7  HN  UNL d   1      -0.814   1.897  -0.232  1.00  0.00     0.189 HD
ENDROOT
BRANCH   3   8
ATOM      8  S   UNL d   1       2.146   2.260  -0.205  0.00  0.00    -0.087 SA
BRANCH   8   9
ATOM      9  C   UNL d   1       1.050   3.699  -0.063  0.00  0.00     0.122 C 
BRANCH   9  10
ATOM     10  C   UNL d   1       1.716   5.068  -0.170  0.00  0.00    -0.027 A 
ATOM     11  C   UNL d   1       0.994   6.227   0.188  0.00  0.00     0.042 A 
ATOM     12  C   UNL d   1       1.547   7.507   0.052  0.00  0.00     0.048 A 
ATOM     13 CL   UNL d   1      -0.624   6.138   0.796  0.00  0.00    -0.084 Cl
ATOM     14  C   UNL d   1       2.834   7.653  -0.449  0.00  0.00     0.035 A 
ATOM     15  C   UNL d   1       3.572   6.534  -0.814  0.00  0.00     0.024 A 
ATOM     16 CL   UNL d   1       3.511   9.223  -0.635  0.00  0.00    -0.084 Cl
ATOM     17  C   UNL d   1       3.016   5.255  -0.682  0.00  0.00     0.011 A 
ENDBRANCH   9  10
ENDBRANCH   8   9
ENDBRANCH   3   8
BRANCH   2  18
ATOM     18  C   UNL d   1       2.701  -0.995  -0.384  0.00  0.00     0.046 A 
ATOM     19  C   UNL d   1       2.953  -2.175   0.334  0.00  0.00     0.054 A 
ATOM     20  C   UNL d   1       4.213  -2.769   0.278  0.00  0.00     0.036 A 
ATOM     21 CL   UNL d   1       4.508  -4.217   1.159  0.00  0.00    -0.084 Cl
ATOM     22  C   UNL d   1       5.229  -2.201  -0.484  0.00  0.00     0.024 A 
ATOM     23  C   UNL d   1       4.981  -1.036  -1.208  0.00  0.00     0.004 A 
ATOM     24  C   UNL d   1       3.720  -0.435  -1.165  0.00  0.00     0.030 A 
ENDBRANCH   2  18
BRANCH   1  25
ATOM     25  O   UNL d   1       0.166  -2.399  -0.419  0.00  0.00    -0.226 OA
BRANCH  25  26
ATOM     26  C   UNL d   1      -0.922  -3.171  -0.236  0.00  0.00     0.369 C 
ATOM     27  N   UNL d   1      -0.625  -4.514  -0.460  0.00  0.00    -0.336 N 
ATOM     28  C   UNL d   1      -1.638  -5.513  -0.188  0.00  0.00     0.154 C 
ATOM     29  C   UNL d   1       0.690  -4.979  -0.872  0.00  0.00     0.154 C 
ATOM     30  O   UNL d   1      -2.027  -2.779   0.117  0.00  0.00    -0.238 OA
ENDBRANCH  25  26
ENDBRANCH   1  25
TORSDOF 6
