REMARK  14 active torsions:
REMARK  status: ('A' for Active; 'I' for Inactive)
REMARK    1  A    between atoms: C_7  and  C_5 
REMARK    2  A    between atoms: C_15  and  C_6 
REMARK    3  A    between atoms: C_16  and  C_14 
REMARK    4  A    between atoms: C_17  and  C_15 
REMARK    5  A    between atoms: C_18  and  C_16 
REMARK    6  A    between atoms: C_24  and  C_17 
REMARK    7  A    between atoms: C_27  and  C_18 
REMARK    8  A    between atoms: C_19  and  C_22 
REMARK    9  A    between atoms: C_20  and  C_21 
REMARK   10  A    between atoms: C_21  and  C_25 
REMARK   11  A    between atoms: C_22  and  C_24 
REMARK   12  A    between atoms: C_23  and  C_26 
REMARK   13  A    between atoms: C_25  and  C_23 
REMARK   14  A    between atoms: C_26  and  C_27 
ROOT
ATOM      1  C   UNL d   1      -0.201  -2.857  -0.002  0.00  0.00    -0.023 A 
ATOM      2  C   UNL d   1       0.311  -3.598   1.080  0.00  0.00     0.013 A 
ATOM      3  C   UNL d   1      -0.850  -3.572  -1.020  0.00  0.00     0.013 A 
ATOM      4  C   UNL d   1       0.209  -4.993   1.123  0.00  0.00     0.008 A 
ATOM      5  C   UNL d   1      -0.974  -4.961  -0.970  0.00  0.00     0.008 A 
ATOM      6  C   UNL d   1      -0.423  -5.687   0.089  0.00  0.00    -0.058 A 
ENDROOT
BRANCH   1   7
ATOM      7  C   UNL d   1      -0.054  -1.394  -0.075  0.00  0.00     0.005 A 
ATOM      8  C   UNL d   1       1.014  -0.698   0.468  0.00  0.00     0.103 A 
ATOM      9  N   UNL d   1       1.177   0.643   0.409  0.00  0.00    -0.355 N 
ATOM     10  C   UNL d   1       0.225   1.329  -0.244  0.00  0.00     0.080 A 
ATOM     11  HN  UNL d   1       1.978   1.108   0.837  1.00  0.00     0.166 HD
ATOM     12  N   UNL d   1      -0.849   0.771  -0.827  0.00  0.00    -0.355 N 
ATOM     13  C   UNL d   1      -0.964  -0.568  -0.715  0.00  0.00     0.103 A 
ATOM     14  HN  UNL d   1      -1.540   1.330  -1.328  1.00  0.00     0.166 HD
BRANCH  10  15
ATOM     15  C   UNL d   1       0.363   2.823  -0.325  0.00  0.00     0.076 C 
BRANCH  15  16
ATOM     16  C   UNL d   1      -0.835   3.517   0.323  0.00  0.00     0.007 C 
BRANCH  16  17
ATOM     17  C   UNL d   1      -0.704   5.036   0.249  0.00  0.00     0.000 C 
BRANCH  17  18
ATOM     18  C   UNL d   1      -1.922   5.715   0.873  0.00  0.00    -0.000 C 
BRANCH  18  19
ATOM     19  C   UNL d   1      -1.807   7.236   0.800  0.00  0.00    -0.005 C 
ATOM     20  C   UNL d   1      -3.021   7.908   1.422  0.00  0.00     0.005 C 
ENDBRANCH  18  19
ENDBRANCH  17  18
ENDBRANCH  16  17
ENDBRANCH  15  16
ENDBRANCH  10  15
ENDBRANCH   1   7
BRANCH   6  21
ATOM     21  C   UNL d   1      -0.491  -7.193   0.096  0.00  0.00     0.038 C 
BRANCH  21  22
ATOM     22  C   UNL d   1       0.253  -7.779  -1.105  0.00  0.00     0.005 C 
BRANCH  22  23
ATOM     23  C   UNL d   1       0.185  -9.302  -1.125  0.00  0.00     0.000 C 
BRANCH  23  24
ATOM     24  C   UNL d   1       0.891  -9.844  -2.365  0.00  0.00     0.000 C 
BRANCH  24  25
ATOM     25  C   UNL d   1       0.829 -11.366  -2.414  0.00  0.00     0.000 C 
BRANCH  25  26
ATOM     26  C   UNL d   1       1.539 -11.900  -3.656  0.00  0.00     0.000 C 
BRANCH  26  27
ATOM     27  C   UNL d   1       1.480 -13.425  -3.700  0.00  0.00    -0.000 C 
BRANCH  27  28
ATOM     28  C   UNL d   1       2.191 -13.974  -4.933  0.00  0.00    -0.005 C 
ATOM     29  C   UNL d   1       2.129 -15.491  -4.968  0.00  0.00     0.005 C 
ENDBRANCH  27  28
ENDBRANCH  26  27
ENDBRANCH  25  26
ENDBRANCH  24  25
ENDBRANCH  23  24
ENDBRANCH  22  23
ENDBRANCH  21  22
ENDBRANCH   6  21
TORSDOF 14
