REMARK  3 active torsions:
REMARK  status: ('A' for Active; 'I' for Inactive)
REMARK    1  A    between atoms: C_6  and  N_1 
REMARK    2  A    between atoms: C_10  and  C_4 
REMARK    3  A    between atoms: C_19  and  C_8 
ROOT
ATOM      1  C   UNL d   1      -2.791   4.922  -0.124  0.00  0.00     0.055 C 
ATOM      2  C   UNL d   1      -1.766   4.186   0.502  0.00  0.00     0.141 C 
ATOM      3  C   UNL d   1      -2.887   5.972  -1.116  0.00  0.00    -0.003 C 
ATOM      4  C   UNL d   1      -4.061   4.663   0.382  0.00  0.00     0.089 C 
ATOM      5  C   UNL d   1      -4.200   6.212  -1.492  0.00  0.00     0.065 C 
ATOM      6  S   UNL d   1      -5.314   5.331  -0.553  0.00  0.00    -0.082 SA
ATOM      7  N   UNL d   1      -2.030   3.551   1.689  0.00  0.00    -0.336 N 
ATOM      8  HN  UNL d   1      -1.276   3.137   2.237  1.00  0.00     0.168 HD
ATOM      9  N   UNL d   1      -4.366   3.948   1.482  0.00  0.00    -0.346 N 
ATOM     10  HN  UNL d   1      -5.321   3.778   1.797  1.00  0.00     0.167 HD
ATOM     11  C   UNL d   1      -3.294   3.489   2.111  0.00  0.00     0.183 C 
ENDROOT
BRANCH   2  12
ATOM     12  N   UNL d   1      -0.558   3.804  -0.156  0.00  0.00    -0.249 N 
ATOM     13  N   UNL d   1      -0.368   3.923  -1.495  0.00  0.00    -0.288 N 
ATOM     14  C   UNL d   1       0.587   3.011  -1.794  0.00  0.00     0.140 C 
ATOM     15  HN  UNL d   1      -0.841   4.560  -2.136  1.00  0.00     0.187 HD
ATOM     16  C   UNL d   1       1.101   2.395  -0.613  0.00  0.00    -0.011 C 
ATOM     17  C   UNL d   1       0.406   2.993   0.412  0.00  0.00     0.127 C 
ATOM     18  C   UNL d   1       2.107   1.309  -0.508  0.00  0.00     0.052 C 
BRANCH  14  19
ATOM     19  C   UNL d   1       0.998   2.670  -3.207  0.00  0.00     0.434 C 
ATOM     20  F   UNL d   1       0.347   3.388  -4.159  0.00  0.00    -0.165 F 
ATOM     21  F   UNL d   1       2.331   2.870  -3.405  0.00  0.00    -0.165 F 
ATOM     22  F   UNL d   1       0.769   1.356  -3.486  0.00  0.00    -0.165 F 
ENDBRANCH  14  19
ENDBRANCH   2  12
BRANCH   3  23
ATOM     23  C   UNL d   1      -1.916   7.009  -1.453  0.00  0.00    -0.024 A 
ATOM     24  C   UNL d   1      -1.335   7.101  -2.719  0.00  0.00     0.012 A 
ATOM     25  C   UNL d   1      -0.624   8.254  -3.074  0.00  0.00     0.001 A 
ATOM     26  C   UNL d   1      -0.498   9.315  -2.174  0.00  0.00     0.000 A 
ATOM     27  C   UNL d   1      -1.057   9.220  -0.903  0.00  0.00     0.001 A 
ATOM     28  C   UNL d   1      -1.756   8.069  -0.542  0.00  0.00     0.012 A 
ENDBRANCH   3  23
TORSDOF 3
