REMARK  4 active torsions:
REMARK  status: ('A' for Active; 'I' for Inactive)
REMARK       I    between atoms: C_2  and  N_7 
REMARK    1  A    between atoms: C_4  and  C_2 
REMARK    2  A    between atoms: C_5  and  C_6 
REMARK    3  A    between atoms: O_11  and  C_5 
REMARK    4  A    between atoms: N_7  and  C_8 
ROOT
ATOM      1  C   UNL d   1      -0.672   5.385  -2.272  0.00  0.00    -0.086 C 
ATOM      2  C   UNL d   1      -1.227   6.338  -2.756  0.00  0.00     0.015 C 
ATOM      3  C   UNL d   1      -0.005   4.214  -1.644  0.00  0.00     0.088 C 
ATOM      4  C   UNL d   1      -1.069   3.134  -1.393  0.00  0.00     0.053 C 
ATOM      5  C   UNL d   1       1.071   3.686  -2.604  0.00  0.00     0.053 C 
ENDROOT
BRANCH   3   6
ATOM      6  N   UNL d   1       0.582   4.699  -0.394  0.00  0.00    -0.338 N 
ATOM      7  C   UNL d   1       1.281   3.929   0.509  0.00  0.00     0.242 C 
ATOM      8  O   UNL d   1       1.463   2.730   0.394  0.00  0.00    -0.269 OA
ATOM      9  H   UNL d   1       0.439   5.678  -0.198  0.00  0.00     0.164 HD
BRANCH   7  10
ATOM     10  C   UNL d   1       1.760   4.746   1.662  0.00  0.00     0.080 C 
ATOM     11  C   UNL d   1       2.377   4.362   2.788  0.00  0.00     0.086 C 
BRANCH  11  12
ATOM     12  C   UNL d   1       2.811   3.042   3.249  0.00  0.00     0.165 C 
ATOM     13  O   UNL d   1       2.863   2.728   4.429  0.00  0.00    -0.647 OA
BRANCH  12  14
ATOM     14  O   UNL d   1       3.292   2.253   2.291  0.00  0.00    -0.773 OA
ATOM     15  H   UNL d   1       3.520   1.415   2.742  0.00  0.00     0.167 HD
ENDBRANCH  12  14
ENDBRANCH  11  12
ENDBRANCH   7  10
ENDBRANCH   3   6
TORSDOF 4
