REMARK  4 active torsions:
REMARK  status: ('A' for Active; 'I' for Inactive)
REMARK    1  A    between atoms: C_6  and  C_1 
REMARK    2  A    between atoms: C_7  and  C_2 
REMARK    3  A    between atoms: C_9  and  C_5 
REMARK       I    between atoms: N_8  and  C_6 
REMARK    4  A    between atoms: C_11  and  N_8 
ROOT
ATOM      1  C   UNL d   1       1.131   0.647   0.032  0.00  0.00     0.073 A 
ATOM      2  C   UNL d   1      -0.168   1.123  -0.100  0.00  0.00     0.175 A 
ATOM      3  O   UNL d   1      -1.054   0.076  -0.035  0.00  0.00    -0.304 OA
ATOM      4  C   UNL d   1       0.989  -0.763   0.246  0.00  0.00     0.058 A 
ATOM      5  C   UNL d   1      -0.349  -1.071   0.172  0.00  0.00     0.087 A 
ENDROOT
BRANCH   1   6
ATOM      6  C   UNL d   1       2.430   1.323   0.010  0.00  0.00     0.259 C 
ATOM      7  N   UNL d   1       2.477   2.561  -0.600  0.00  0.00    -0.323 N 
ATOM      8  H   UNL d   1       1.607   2.986  -0.889  0.00  0.00     0.169 HD
ATOM      9  O   UNL d   1       3.398   0.749   0.497  0.00  0.00    -0.267 OA
BRANCH   7  10
ATOM     10  C   UNL d   1       3.622   3.368  -0.797  0.00  0.00     0.036 A 
ATOM     11  C   UNL d   1       4.930   2.950  -0.541  0.00  0.00     0.053 A 
ATOM     12  C   UNL d   1       5.997   3.830  -0.733  0.00  0.00     0.036 A 
ATOM     13 CL   UNL d   1       7.606   3.306  -0.406  0.00  0.00    -0.084 Cl
ATOM     14  C   UNL d   1       5.778   5.128  -1.185  0.00  0.00     0.024 A 
ATOM     15  C   UNL d   1       4.480   5.546  -1.465  0.00  0.00     0.004 A 
ATOM     16  C   UNL d   1       3.409   4.668  -1.279  0.00  0.00     0.029 A 
ENDBRANCH   7  10
ENDBRANCH   1   6
BRANCH   2  17
ATOM     17  C   UNL d   1      -0.799   2.453  -0.273  0.00  0.00     0.440 C 
ATOM     18  F   UNL d   1       0.114   3.461  -0.235  0.00  0.00    -0.164 F 
ATOM     19  F   UNL d   1      -1.423   2.564  -1.473  0.00  0.00    -0.164 F 
ATOM     20  F   UNL d   1      -1.718   2.726   0.686  0.00  0.00    -0.164 F 
ENDBRANCH   2  17
BRANCH   5  21
ATOM     21  C   UNL d   1      -1.113  -2.313   0.262  0.00  0.00    -0.002 A 
ATOM     22  C   UNL d   1      -0.467  -3.519   0.582  0.00  0.00     0.016 A 
ATOM     23  C   UNL d   1      -1.180  -4.720   0.654  0.00  0.00     0.024 A 
ATOM     24  C   UNL d   1      -2.547  -4.727   0.405  0.00  0.00     0.034 A 
ATOM     25  C   UNL d   1      -3.209  -3.544   0.088  0.00  0.00     0.024 A 
ATOM     26 CL   UNL d   1      -3.423  -6.205   0.486  0.00  0.00    -0.084 Cl
ATOM     27  C   UNL d   1      -2.494  -2.343   0.019  0.00  0.00     0.016 A 
ENDBRANCH   5  21
TORSDOF 4
