REMARK  3 active torsions:
REMARK  status: ('A' for Active; 'I' for Inactive)
REMARK    1  A    between atoms: C_8  and  C_1 
REMARK    2  A    between atoms: C_9  and  C_5 
REMARK    3  A    between atoms: O_16  and  C_8 
ROOT
ATOM      1  C   UNL d   1      -2.416   1.656   0.027  0.00  0.00     0.052 A 
ATOM      2  N   UNL d   1      -3.229  -0.973  -0.095  0.00  0.00    -0.355 N 
ATOM      3  HN  UNL d   1      -3.530  -1.948  -0.106  1.00  0.00     0.166 HD
ATOM      4  C   UNL d   1      -1.433   0.637   0.018  0.00  0.00     0.009 A 
ATOM      5  C   UNL d   1      -4.150   0.016  -0.174  0.00  0.00     0.044 A 
ATOM      6  C   UNL d   1      -3.773   1.345  -0.090  0.00  0.00     0.049 A 
ATOM      7  C   UNL d   1      -1.924  -0.680  -0.001  0.00  0.00     0.044 A 
ATOM      8  C   UNL d   1      -0.028   0.839  -0.001  0.00  0.00     0.034 A 
ATOM      9  C   UNL d   1      -1.026  -1.740   0.044  0.00  0.00     0.032 A 
ATOM     10  C   UNL d   1       0.850  -0.243   0.025  0.00  0.00     0.011 A 
ATOM     11  C   UNL d   1       0.355  -1.536   0.067  0.00  0.00     0.021 A 
ATOM     12 BR   UNL d   1       2.715   0.052   0.002  0.00  0.00    -0.051 Br
ENDROOT
BRANCH   5  13
ATOM     13  C   UNL d   1      -5.541  -0.416  -0.427  0.00  0.00    -0.009 A 
ATOM     14  C   UNL d   1      -6.655   0.322   0.014  0.00  0.00     0.015 A 
ATOM     15  C   UNL d   1      -7.961  -0.077  -0.295  0.00  0.00     0.020 A 
ATOM     16  C   UNL d   1      -8.175  -1.227  -1.048  0.00  0.00     0.011 A 
ATOM     17  C   UNL d   1      -7.098  -1.990  -1.484  0.00  0.00     0.020 A 
ATOM     18 BR   UNL d   1      -9.937  -1.753  -1.486  0.00  0.00    -0.051 Br
ATOM     19  C   UNL d   1      -5.795  -1.586  -1.171  0.00  0.00     0.015 A 
ENDBRANCH   5  13
BRANCH   1  20
ATOM     20  C   UNL d   1      -2.099   3.100   0.109  0.00  0.00     0.177 C 
ATOM     21  O   UNL d   1      -2.668   3.936  -0.571  0.00  0.00    -0.646 OA
BRANCH  20  22
ATOM     22  O   UNL d   1      -1.209   3.414   1.074  0.00  0.00    -0.773 OA
ATOM     23  H   UNL d   1      -0.937   2.677   1.652  0.00  0.00     0.167 HD
ENDBRANCH  20  22
ENDBRANCH   1  20
TORSDOF 3
