REMARK  7 active torsions:
REMARK  status: ('A' for Active; 'I' for Inactive)
REMARK    1  A    between atoms: C_8  and  C_1 
REMARK    2  A    between atoms: C_13  and  N_6 
REMARK    3  A    between atoms: N_9  and  C_11 
REMARK       I    between atoms: C_10  and  N_9 
REMARK    4  A    between atoms: C_14  and  C_10 
REMARK    5  A    between atoms: C_11  and  N_18 
REMARK    6  A    between atoms: C_15  and  C_13 
REMARK       I    between atoms: N_19  and  C_15 
REMARK    7  A    between atoms: N_18  and  N_19 
ROOT
ATOM      1  C   UNL d   1       1.324   1.650   0.216  0.00  0.00     0.271 C 
ENDROOT
BRANCH   1   2
ATOM      2  N   UNL d   1       0.437   1.551   1.356  0.00  0.00    -0.207 N 
ATOM      3  N   UNL d   1      -0.315   0.448   1.527  0.00  0.00    -0.268 N 
ATOM      4  C   UNL d   1      -1.270   0.902   2.348  0.00  0.00     0.146 A 
ATOM      5  HN  UNL d   1      -0.190  -0.486   1.136  1.00  0.00     0.190 HD
ATOM      6  N   UNL d   1      -1.101   2.232   2.651  0.00  0.00    -0.266 N 
ATOM      7  N   UNL d   1      -0.010   2.640   2.010  0.00  0.00    -0.002 NA
ATOM      8  HN  UNL d   1      -1.699   2.798   3.254  1.00  0.00     0.186 HD
BRANCH   4   9
ATOM      9  C   UNL d   1      -2.476   0.142   2.643  0.00  0.00     0.034 A 
ATOM     10  C   UNL d   1      -2.464  -1.232   2.947  0.00  0.00     0.069 A 
ATOM     11  C   UNL d   1      -3.680  -1.934   3.009  0.00  0.00     0.056 A 
ATOM     12 CL   UNL d   1      -0.977  -2.064   3.296  0.00  0.00    -0.082 Cl
ATOM     13 CL   UNL d   1      -3.756  -3.643   3.281  0.00  0.00    -0.083 Cl
ATOM     14  C   UNL d   1      -4.896  -1.268   2.818  0.00  0.00     0.026 A 
ATOM     15  C   UNL d   1      -4.914   0.101   2.573  0.00  0.00     0.003 A 
ATOM     16  C   UNL d   1      -3.712   0.794   2.483  0.00  0.00     0.017 A 
ENDBRANCH   4   9
ENDBRANCH   1   2
BRANCH   1  17
ATOM     17  C   UNL d   1       2.541   0.770   0.361  0.00  0.00     0.257 C 
ATOM     18  N   UNL d   1       2.408  -0.599   0.310  0.00  0.00    -0.266 N 
ATOM     19  H   UNL d   1       3.250  -1.169   0.372  0.00  0.00     0.190 HD
ATOM     20  O   UNL d   1       3.667   1.262   0.473  0.00  0.00    -0.270 OA
BRANCH  18  21
ATOM     21  N   UNL d   1       1.212  -1.256  -0.003  0.00  0.00    -0.273 N 
ATOM     22  H   UNL d   1       0.343  -0.713   0.086  0.00  0.00     0.189 HD
BRANCH  21  23
ATOM     23  C   UNL d   1       1.023  -2.594   0.262  0.00  0.00     0.193 C 
ATOM     24  S   UNL d   1       2.192  -3.658   0.804  0.00  0.00    -0.039 SA
BRANCH  23  25
ATOM     25  N   UNL d   1      -0.240  -3.074  -0.030  0.00  0.00    -0.302 N 
ATOM     26  C   UNL d   1      -1.269  -2.378  -0.646  0.00  0.00     0.228 C 
ATOM     27  O   UNL d   1      -1.307  -1.159  -0.764  0.00  0.00    -0.273 OA
ATOM     28  H   UNL d   1      -0.347  -4.069   0.102  0.00  0.00     0.171 HD
BRANCH  26  29
ATOM     29  C   UNL d   1      -2.393  -3.173  -1.205  0.00  0.00     0.078 A 
ATOM     30  C   UNL d   1      -2.893  -4.476  -0.642  0.00  0.00     0.015 A 
ATOM     31  C   UNL d   1      -2.125  -4.469  -1.934  0.00  0.00     0.015 A 
ENDBRANCH  26  29
ENDBRANCH  23  25
ENDBRANCH  21  23
ENDBRANCH  18  21
ENDBRANCH   1  17
TORSDOF 7
