REMARK  1 active torsions:
REMARK  status: ('A' for Active; 'I' for Inactive)
REMARK    1  A    between atoms: C_6  and  N_1 
ROOT
ATOM      1  N   UNL d   1       2.438  -0.608  -0.023  0.00  0.00    -0.254 N 
ATOM      2  C   UNL d   1       2.389   0.797   0.006  0.00  0.00     0.186 A 
ATOM      3  C   UNL d   1       1.287  -1.422  -0.040  0.00  0.00     0.267 A 
ATOM      4  C   UNL d   1      -0.021  -0.732  -0.016  0.00  0.00     0.059 A 
ATOM      5  N   UNL d   1       1.145   1.368   0.057  0.00  0.00    -0.332 N 
ATOM      6  C   UNL d   1      -0.046   0.654   0.024  0.00  0.00     0.050 A 
ATOM      7  S   UNL d   1       3.662   1.896  -0.094  0.00  0.00    -0.040 SA
ATOM      8  O   UNL d   1       1.286  -2.653  -0.058  0.00  0.00    -0.267 OA
ATOM      9  C   UNL d   1      -1.223  -1.449  -0.047  0.00  0.00     0.019 A 
ATOM     10  C   UNL d   1      -1.260   1.342   0.013  0.00  0.00     0.030 A 
ATOM     11  C   UNL d   1      -2.441  -0.763  -0.059  0.00  0.00     0.001 A 
ATOM     12  C   UNL d   1      -2.458   0.629  -0.035  0.00  0.00     0.002 A 
ATOM     13  H   UNL d   1       1.121   2.383   0.058  0.00  0.00     0.168 HD
ENDROOT
BRANCH   1  14
ATOM     14  C   UNL d   1       3.700  -1.283  -0.108  0.00  0.00     0.045 A 
ATOM     15  C   UNL d   1       4.678  -1.108   0.883  0.00  0.00     0.038 A 
ATOM     16  C   UNL d   1       5.960  -1.668   0.750  0.00  0.00    -0.043 A 
ATOM     17  C   UNL d   1       6.984  -1.403   1.818  0.00  0.00     0.049 C 
ATOM     18  C   UNL d   1       6.245  -2.420  -0.399  0.00  0.00     0.017 A 
ATOM     19  C   UNL d   1       5.261  -2.639  -1.368  0.00  0.00     0.022 A 
ATOM     20 BR   UNL d   1       7.967  -3.156  -0.717  0.00  0.00    -0.051 Br
ATOM     21  C   UNL d   1       3.989  -2.085  -1.217  0.00  0.00     0.031 A 
ENDBRANCH   1  14
TORSDOF 1
