REMARK  2 active torsions:
REMARK  status: ('A' for Active; 'I' for Inactive)
REMARK    1  A    between atoms: C_9  and  C_5 
REMARK    2  A    between atoms: C_11  and  N_7 
ROOT
ATOM      1  C   UNL d   1       0.601   1.423   0.070  0.00  0.00     0.161 C 
ATOM      2  N   UNL d   1       0.837  -1.044   0.354  0.00  0.00    -0.304 N 
ATOM      3  HN  UNL d   1       1.499  -1.802   0.523  1.00  0.00     0.186 HD
ATOM      4  N   UNL d   1       1.300   0.251   0.362  0.00  0.00    -0.276 N 
ATOM      5  C   UNL d   1      -0.406  -1.340   0.138  0.00  0.00     0.021 C 
ATOM      6  S   UNL d   1      -1.159   1.335   0.224  0.00  0.00    -0.087 SA
ATOM      7  N   UNL d   1       0.941   2.636  -0.221  0.00  0.00    -0.336 N 
ATOM      8  HN  UNL d   1       0.182   3.288  -0.423  1.00  0.00     0.168 HD
ATOM      9  C   UNL d   1      -1.503  -0.364  -0.160  0.00  0.00     0.137 C 
ATOM     10  C   UNL d   1       2.726   0.253   0.676  0.00  0.00     0.180 C 
ENDROOT
BRANCH   7  11
ATOM     11  C   UNL d   1       2.235   3.146  -0.286  0.00  0.00     0.034 A 
ATOM     12  C   UNL d   1       3.227   2.664  -1.137  0.00  0.00     0.029 A 
ATOM     13  C   UNL d   1       4.521   3.192  -1.094  0.00  0.00     0.002 A 
ATOM     14  C   UNL d   1       4.811   4.269  -0.255  0.00  0.00     0.000 A 
ATOM     15  C   UNL d   1       3.803   4.829   0.523  0.00  0.00     0.002 A 
ATOM     16  C   UNL d   1       2.521   4.264   0.509  0.00  0.00     0.029 A 
ENDBRANCH   7  11
BRANCH   5  17
ATOM     17  C   UNL d   1      -0.734  -2.866   0.059  0.00  0.00    -0.010 C 
ATOM     18  C   UNL d   1      -0.707  -3.287  -1.419  0.00  0.00     0.021 C 
ATOM     19  C   UNL d   1       0.323  -3.686   0.828  0.00  0.00     0.021 C 
ATOM     20  C   UNL d   1      -2.106  -3.191   0.663  0.00  0.00     0.021 C 
ENDBRANCH   5  17
TORSDOF 2
