REMARK  4 active torsions:
REMARK  status: ('A' for Active; 'I' for Inactive)
REMARK       I    between atoms: N_2  and  C_1 
REMARK    1  A    between atoms: C_4  and  C_1 
REMARK    2  A    between atoms: C_5  and  N_2 
REMARK    3  A    between atoms: C_3  and  O_10 
REMARK    4  A    between atoms: O_10  and  C_11 
ROOT
ATOM      1  C   UNL d   1       0.900   0.182   2.602  0.00  0.00     0.052 A 
ATOM      2  C   UNL d   1       2.157   0.789   2.729  0.00  0.00     0.040 A 
ATOM      3  C   UNL d   1       2.932   0.597   3.878  0.00  0.00     0.058 A 
ATOM      4  C   UNL d   1       2.486  -0.241   4.902  0.00  0.00     0.079 A 
ATOM      5  C   UNL d   1       0.446  -0.626   3.650  0.00  0.00     0.034 A 
ATOM      6 BR   UNL d   1       2.850   1.931   1.375  0.00  0.00    -0.049 Br
ATOM      7  C   UNL d   1       1.232  -0.839   4.792  0.00  0.00     0.039 A 
ENDROOT
BRANCH   1   8
ATOM      8  N   UNL d   1       0.153   0.375   1.422  0.00  0.00    -0.320 N 
ATOM      9  C   UNL d   1      -1.201   0.165   1.245  0.00  0.00     0.274 C 
ATOM     10  O   UNL d   1      -2.008  -0.157   2.113  0.00  0.00    -0.266 OA
ATOM     11  H   UNL d   1       0.639   0.794   0.631  0.00  0.00     0.169 HD
BRANCH   9  12
ATOM     12  C   UNL d   1      -1.678   0.418  -0.141  0.00  0.00     0.116 A 
ATOM     13  N   UNL d   1      -0.748   0.422  -1.138  0.00  0.00    -0.359 N 
ATOM     14  C   UNL d   1      -1.253   0.595  -2.384  0.00  0.00     0.105 A 
ATOM     15  HN  UNL d   1       0.250   0.304  -0.960  1.00  0.00     0.165 HD
ATOM     16  C   UNL d   1      -2.605   0.794  -2.623  0.00  0.00     0.104 A 
ATOM     17  N   UNL d   1      -3.523   0.821  -1.629  0.00  0.00    -0.372 N 
ATOM     18  C   UNL d   1      -3.031   0.618  -0.380  0.00  0.00     0.122 A 
ATOM     19  HN  UNL d   1      -4.515   0.982  -1.806  1.00  0.00     0.164 HD
ENDBRANCH   9  12
ENDBRANCH   1   8
BRANCH   4  20
ATOM     20  O   UNL d   1       3.359  -0.383   5.941  0.00  0.00    -0.255 OA
BRANCH  20  21
ATOM     21  C   UNL d   1       3.184  -1.502   6.796  0.00  0.00     0.530 C 
ATOM     22  F   UNL d   1       2.988  -2.640   6.097  0.00  0.00    -0.144 F 
ATOM     23  F   UNL d   1       4.305  -1.657   7.536  0.00  0.00    -0.144 F 
ATOM     24  F   UNL d   1       2.147  -1.304   7.636  0.00  0.00    -0.144 F 
ENDBRANCH  20  21
ENDBRANCH   4  20
TORSDOF 4
