REMARK  4 active torsions:
REMARK  status: ('A' for Active; 'I' for Inactive)
REMARK    1  A    between atoms: C_8  and  N_1 
REMARK    2  A    between atoms: C_16  and  C_8 
REMARK    3  A    between atoms: S_14  and  C_12 
REMARK    4  A    between atoms: C_19  and  S_14 
ROOT
ATOM      1  N   UNL d   1       2.298  -0.101   0.176  0.00  0.00    -0.276 N 
ATOM      2  C   UNL d   1       1.666   1.137   0.112  0.00  0.00     0.261 A 
ATOM      3  C   UNL d   1       1.633  -1.323   0.221  0.00  0.00     0.261 A 
ATOM      4  C   UNL d   1       0.182   1.139   0.073  0.00  0.00     0.044 A 
ATOM      5  C   UNL d   1      -0.532  -0.064   0.095  0.00  0.00     0.007 A 
ATOM      6  C   UNL d   1       0.150  -1.289   0.144  0.00  0.00     0.044 A 
ATOM      7  C   UNL d   1      -1.960  -0.042   0.050  0.00  0.00    -0.007 A 
ATOM      8  C   UNL d   1      -0.487   2.365   0.013  0.00  0.00     0.019 A 
ATOM      9  O   UNL d   1       2.199  -2.405   0.341  0.00  0.00    -0.267 OA
ATOM     10  O   UNL d   1       2.259   2.211   0.110  0.00  0.00    -0.267 OA
ATOM     11  C   UNL d   1      -2.627   1.216   0.023  0.00  0.00     0.011 A 
ATOM     12  C   UNL d   1      -1.877   2.401  -0.010  0.00  0.00     0.020 A 
ATOM     13  C   UNL d   1      -0.549  -2.501   0.128  0.00  0.00     0.018 A 
ATOM     14  C   UNL d   1      -2.627  -1.289   0.012  0.00  0.00     0.014 A 
ATOM     15  C   UNL d   1      -1.935  -2.499   0.055  0.00  0.00     0.002 A 
ENDROOT
BRANCH   1  16
ATOM     16  C   UNL d   1       3.755  -0.114   0.267  0.00  0.00     0.174 C 
BRANCH  16  17
ATOM     17  C   UNL d   1       4.433  -0.108  -1.087  0.00  0.00    -0.040 A 
ATOM     18  C   UNL d   1       4.801   1.102  -1.694  0.00  0.00     0.009 A 
ATOM     19  C   UNL d   1       5.420   1.111  -2.946  0.00  0.00     0.001 A 
ATOM     20  C   UNL d   1       5.677  -0.089  -3.605  0.00  0.00     0.000 A 
ATOM     21  C   UNL d   1       5.318  -1.298  -3.013  0.00  0.00     0.001 A 
ATOM     22  C   UNL d   1       4.697  -1.309  -1.761  0.00  0.00     0.009 A 
ENDBRANCH  16  17
ENDBRANCH   1  16
BRANCH  11  23
ATOM     23  S   UNL d   1      -4.408   1.453  -0.100  0.00  0.00    -0.129 SA
BRANCH  23  24
ATOM     24  C   UNL d   1      -5.037   0.790   1.485  0.00  0.00     0.075 C 
ATOM     25  C   UNL d   1      -4.457   1.454   2.719  0.00  0.00     0.016 C 
ENDBRANCH  23  24
ENDBRANCH  11  23
TORSDOF 4
