REMARK  5 active torsions:
REMARK  status: ('A' for Active; 'I' for Inactive)
REMARK    1  A    between atoms: N_2  and  S_1 
REMARK    2  A    between atoms: C_4  and  S_1 
REMARK    3  A    between atoms: C_10  and  C_15 
REMARK    4  A    between atoms: O_21  and  C_10 
REMARK    5  A    between atoms: C_24  and  O_21 
ROOT
ATOM      1  S   UNL d   1       1.022  -0.088  -0.013  0.00  0.00     0.243 S 
ATOM      2  O   UNL d   1       2.413   0.243   0.216  0.00  0.00    -0.206 OA
ATOM      3  O   UNL d   1       0.539  -1.448   0.102  0.00  0.00    -0.206 OA
ENDROOT
BRANCH   1   4
ATOM      4  N   UNL d   1       0.607   0.508  -1.581  0.00  0.00    -0.206 NA
ATOM      5  C   UNL d   1       1.030   1.919  -1.815  0.00  0.00     0.108 C 
ATOM      6  C   UNL d   1       0.544   2.401  -3.180  0.00  0.00     0.030 C 
ATOM      7  C   UNL d   1       1.038   1.495  -4.312  0.00  0.00     0.088 C 
ATOM      8  C   UNL d   1       0.579   0.062  -4.021  0.00  0.00     0.030 C 
ATOM      9  C   UNL d   1       1.072  -0.418  -2.657  0.00  0.00     0.108 C 
BRANCH   7  10
ATOM     10  C   UNL d   1       2.547   1.527  -4.529  0.00  0.00     0.263 C 
ATOM     11  O   UNL d   1       3.179   0.602  -5.023  0.00  0.00    -0.265 OA
BRANCH  10  12
ATOM     12  O   UNL d   1       3.092   2.712  -4.141  0.00  0.00    -0.322 OA
BRANCH  12  13
ATOM     13  C   UNL d   1       4.517   2.820  -4.289  0.00  0.00     0.174 C 
ATOM     14  C   UNL d   1       5.223   2.177  -3.108  0.00  0.00     0.034 C 
ENDBRANCH  12  13
ENDBRANCH  10  12
ENDBRANCH   7  10
ENDBRANCH   1   4
BRANCH   1  15
ATOM     15  C   UNL d   1       0.020   0.909   1.065  0.00  0.00     0.075 A 
ATOM     16  C   UNL d   1       0.637   1.724   2.029  0.00  0.00     0.040 A 
ATOM     17  C   UNL d   1      -0.187   2.521   2.846  0.00  0.00     0.012 A 
ATOM     18  C   UNL d   1       0.025   3.458   3.900  0.00  0.00     0.011 A 
ATOM     19  C   UNL d   1      -1.566   2.460   2.662  0.00  0.00     0.087 A 
ATOM     20  C   UNL d   1      -1.238   3.919   4.260  0.00  0.00     0.087 A 
ATOM     21  C   UNL d   1       1.143   3.972   4.584  0.00  0.00     0.015 A 
ATOM     22  C   UNL d   1      -1.470   4.874   5.248  0.00  0.00     0.038 A 
ATOM     23  O   UNL d   1      -2.200   3.309   3.515  0.00  0.00    -0.309 OA
ATOM     24  C   UNL d   1      -0.345   5.375   5.910  0.00  0.00     0.003 A 
ATOM     25  C   UNL d   1       0.940   4.929   5.589  0.00  0.00     0.001 A 
ATOM     26  C   UNL d   1      -2.199   1.641   1.728  0.00  0.00     0.040 A 
ATOM     27  C   UNL d   1      -1.372   0.854   0.922  0.00  0.00     0.027 A 
ENDBRANCH   1  15
TORSDOF 5
