REMARK  4 active torsions:
REMARK  status: ('A' for Active; 'I' for Inactive)
REMARK    1  A    between atoms: C_9  and  N_1 
REMARK    2  A    between atoms: C_12  and  N_5 
REMARK    3  A    between atoms: C_10  and  C_8 
REMARK    4  A    between atoms: C_17  and  C_9 
ROOT
ATOM      1  N   UNL d   1      -1.644   0.087   0.802  0.00  0.00    -0.281 N 
ATOM      2  C   UNL d   1      -0.024  -0.636  -0.717  0.00  0.00     0.149 C 
ATOM      3  C   UNL d   1       0.109   0.854  -0.527  0.00  0.00     0.260 C 
ATOM      4  C   UNL d   1      -1.274  -0.974   0.035  0.00  0.00     0.236 C 
ATOM      5  N   UNL d   1       1.852  -0.058   0.586  0.00  0.00    -0.247 N 
ATOM      6  C   UNL d   1      -0.918   1.210   0.519  0.00  0.00     0.259 C 
ATOM      7  O   UNL d   1       1.396   1.138   0.008  0.00  0.00    -0.261 OA
ATOM      8  C   UNL d   1       1.151  -1.225   0.043  0.00  0.00     0.164 C 
ATOM      9  O   UNL d   1      -1.800  -2.079   0.013  0.00  0.00    -0.272 OA
ATOM     10  O   UNL d   1      -1.042   2.309   1.044  0.00  0.00    -0.270 OA
ENDROOT
BRANCH   1  11
ATOM     11  C   UNL d   1      -2.615   0.014   1.870  0.00  0.00     0.173 C 
BRANCH  11  12
ATOM     12  C   UNL d   1      -3.955   0.571   1.477  0.00  0.00    -0.040 A 
ATOM     13  C   UNL d   1      -4.945  -0.262   0.940  0.00  0.00     0.009 A 
ATOM     14  C   UNL d   1      -6.185   0.265   0.578  0.00  0.00     0.001 A 
ATOM     15  C   UNL d   1      -6.440   1.626   0.739  0.00  0.00     0.000 A 
ATOM     16  C   UNL d   1      -5.459   2.464   1.262  0.00  0.00     0.001 A 
ATOM     17  C   UNL d   1      -4.222   1.939   1.631  0.00  0.00     0.009 A 
ENDBRANCH  11  12
ENDBRANCH   1  11
BRANCH   8  18
ATOM     18  C   UNL d   1       2.062  -2.051  -0.851  0.00  0.00    -0.032 A 
ATOM     19  C   UNL d   1       3.202  -1.501  -1.465  0.00  0.00     0.012 A 
ATOM     20  C   UNL d   1       4.044  -2.296  -2.239  0.00  0.00     0.043 A 
ATOM     21  C   UNL d   1       3.747  -3.639  -2.414  0.00  0.00     0.116 A 
ATOM     22  C   UNL d   1       2.618  -4.205  -1.833  0.00  0.00     0.043 A 
ATOM     23  F   UNL d   1       4.562  -4.406  -3.150  0.00  0.00    -0.206 F 
ATOM     24  C   UNL d   1       1.772  -3.412  -1.054  0.00  0.00     0.012 A 
ENDBRANCH   8  18
BRANCH   5  25
ATOM     25  C   UNL d   1       2.356  -0.065   1.896  0.00  0.00     0.058 A 
ATOM     26  C   UNL d   1       2.498   1.136   2.608  0.00  0.00     0.031 A 
ATOM     27  C   UNL d   1       3.009   1.158   3.910  0.00  0.00     0.002 A 
ATOM     28  C   UNL d   1       3.400  -0.026   4.525  0.00  0.00     0.000 A 
ATOM     29  C   UNL d   1       3.288  -1.228   3.835  0.00  0.00     0.002 A 
ATOM     30  C   UNL d   1       2.777  -1.244   2.533  0.00  0.00     0.031 A 
ENDBRANCH   5  25
TORSDOF 4
