REMARK  6 active torsions:
REMARK  status: ('A' for Active; 'I' for Inactive)
REMARK    1  A    between atoms: C_4  and  C_1 
REMARK       I    between atoms: N_6  and  C_1 
REMARK    2  A    between atoms: C_2  and  C_3 
REMARK    3  A    between atoms: O_8  and  C_5 
REMARK    4  A    between atoms: C_9  and  N_6 
REMARK    5  A    between atoms: C_17  and  O_8 
REMARK    6  A    between atoms: O_18  and  C_10 
ROOT
ATOM      1  C   UNL d   1      -3.115  -0.868  -0.521  0.00  0.00     0.104 A 
ATOM      2  C   UNL d   1      -1.712  -0.818  -0.440  0.00  0.00     0.069 A 
ATOM      3  C   UNL d   1      -1.044  -0.887   0.785  0.00  0.00     0.037 A 
ATOM      4  C   UNL d   1      -3.857  -1.056   0.653  0.00  0.00     0.101 A 
ATOM      5  C   UNL d   1      -3.184  -1.171   1.877  0.00  0.00     0.042 A 
ATOM      6  C   UNL d   1      -1.789  -1.095   1.944  0.00  0.00     0.032 A 
ENDROOT
BRANCH   3   7
ATOM      7  N   UNL d   1       0.357  -0.736   0.921  0.00  0.00    -0.323 N 
ATOM      8  C   UNL d   1       1.238  -0.330  -0.072  0.00  0.00     0.257 C 
ATOM      9  O   UNL d   1       0.982  -0.047  -1.229  0.00  0.00    -0.267 OA
ATOM     10  H   UNL d   1       0.725  -0.843   1.857  0.00  0.00     0.169 HD
BRANCH   8  11
ATOM     11  C   UNL d   1       2.664  -0.261   0.336  0.00  0.00     0.047 A 
ATOM     12  C   UNL d   1       3.484   0.827  -0.015  0.00  0.00     0.063 A 
ATOM     13  C   UNL d   1       4.867   0.733   0.250  0.00  0.00     0.017 A 
ATOM     14  C   UNL d   1       5.410  -0.391   0.870  0.00  0.00     0.001 A 
ATOM     15  C   UNL d   1       4.584  -1.446   1.242  0.00  0.00     0.001 A 
ATOM     16  C   UNL d   1       3.217  -1.389   0.968  0.00  0.00     0.018 A 
BRANCH  12  17
ATOM     17  C   UNL d   1       2.987   2.103  -0.656  0.00  0.00     0.418 C 
ATOM     18  F   UNL d   1       1.649   2.321  -0.613  0.00  0.00    -0.166 F 
ATOM     19  F   UNL d   1       3.526   3.196  -0.030  0.00  0.00    -0.166 F 
ATOM     20  F   UNL d   1       3.371   2.219  -1.957  0.00  0.00    -0.166 F 
ENDBRANCH  12  17
ENDBRANCH   8  11
ENDBRANCH   3   7
BRANCH   1  21
ATOM     21  O   UNL d   1      -3.779  -0.747  -1.713  0.00  0.00    -0.343 OA
BRANCH  21  22
ATOM     22  C   UNL d   1      -3.174   0.007  -2.767  0.00  0.00     0.129 C 
ATOM     23  C   UNL d   1      -3.008   1.490  -2.431  0.00  0.00     0.032 C 
ATOM     24  C   UNL d   1      -3.216   2.254  -3.735  0.00  0.00     0.002 C 
ATOM     25  C   UNL d   1      -3.763   1.255  -4.748  0.00  0.00     0.002 C 
ATOM     26  C   UNL d   1      -4.143   0.023  -3.947  0.00  0.00     0.032 C 
ENDBRANCH  21  22
ENDBRANCH   1  21
BRANCH   4  27
ATOM     27  O   UNL d   1      -5.220  -1.085   0.800  0.00  0.00    -0.353 OA
ATOM     28  C   UNL d   1      -6.000  -1.482  -0.319  0.00  0.00     0.210 C 
ENDBRANCH   4  27
TORSDOF 6
