REMARK  6 active torsions:
REMARK  status: ('A' for Active; 'I' for Inactive)
REMARK    1  A    between atoms: N_2  and  C_1 
REMARK    2  A    between atoms: C_3  and  C_8 
REMARK    3  A    between atoms: S_6  and  C_4 
REMARK    4  A    between atoms: C_7  and  S_6 
REMARK    5  A    between atoms: O_21  and  C_12 
REMARK    6  A    between atoms: O_22  and  C_19 
ROOT
ATOM      1  C   UNL d   1       0.335  -4.335   2.771  0.00  0.00     0.120 A 
ATOM      2  C   UNL d   1       0.574  -3.198   1.991  0.00  0.00     0.038 A 
ATOM      3  C   UNL d   1      -0.137  -4.246   4.094  0.00  0.00     0.053 A 
ATOM      4  C   UNL d   1      -0.388  -2.990   4.663  0.00  0.00     0.050 A 
ATOM      5  C   UNL d   1       0.345  -1.946   2.586  0.00  0.00     0.022 A 
ATOM      6  C   UNL d   1      -0.116  -1.842   3.904  0.00  0.00     0.017 A 
ENDROOT
BRANCH   2   7
ATOM      7  S   UNL d   1       1.019  -3.214   0.270  0.00  0.00    -0.085 SA
BRANCH   7   8
ATOM      8  C   UNL d   1       2.810  -3.183   0.193  0.00  0.00     0.041 A 
ATOM      9  C   UNL d   1       3.551  -2.621   1.252  0.00  0.00     0.058 A 
ATOM     10  C   UNL d   1       4.949  -2.590   1.238  0.00  0.00     0.069 A 
ATOM     11  C   UNL d   1       5.628  -3.114   0.143  0.00  0.00     0.039 A 
ATOM     12  C   UNL d   1       4.920  -3.664  -0.922  0.00  0.00     0.041 A 
ATOM     13  C   UNL d   1       3.517  -3.691  -0.916  0.00  0.00     0.085 A 
BRANCH  10  14
ATOM     14  O   UNL d   1       5.748  -2.080   2.224  0.00  0.00    -0.356 OA
ATOM     15  C   UNL d   1       5.102  -1.577   3.387  0.00  0.00     0.210 C 
ENDBRANCH  10  14
BRANCH  13  16
ATOM     16  O   UNL d   1       2.990  -4.339  -2.005  0.00  0.00    -0.355 OA
ATOM     17  C   UNL d   1       1.934  -3.679  -2.695  0.00  0.00     0.210 C 
ENDBRANCH  13  16
ENDBRANCH   7   8
ENDBRANCH   2   7
BRANCH   1  18
ATOM     18  N   UNL d   1       0.550  -5.666   2.239  0.00  0.00    -0.114 N 
ATOM     19  O   UNL d   1      -0.189  -6.042   1.323  0.00  0.00    -0.532 OA
ATOM     20  O   UNL d   1       1.411  -6.355   2.806  0.00  0.00    -0.532 OA
ENDBRANCH   1  18
BRANCH   4  21
ATOM     21  C   UNL d   1      -0.964  -2.855   6.054  0.00  0.00     0.417 C 
ATOM     22  F   UNL d   1      -1.311  -4.046   6.613  0.00  0.00    -0.166 F 
ATOM     23  F   UNL d   1      -0.095  -2.267   6.919  0.00  0.00    -0.166 F 
ATOM     24  F   UNL d   1      -2.090  -2.091   6.071  0.00  0.00    -0.166 F 
ENDBRANCH   4  21
TORSDOF 6
