REMARK  1 active torsions:
REMARK  status: ('A' for Active; 'I' for Inactive)
REMARK    1  A    between atoms: C_9  and  C_3 
ROOT
ATOM      1  N   UNL d   1       8.565   3.779  -0.276  0.00  0.00    -0.191 NA
ATOM      2  C   UNL d   1       3.707   1.420   0.003  0.00  0.00     0.008 A 
ATOM      3  C   UNL d   1       7.531   3.253  -0.203  0.00  0.00     0.099 C 
ATOM      4  C   UNL d   1       4.732   0.846  -0.766  0.00  0.00     0.017 A 
ATOM      5  C   UNL d   1       3.982   2.564   0.758  0.00  0.00     0.017 A 
ATOM      6  C   UNL d   1       6.248   2.620  -0.120  0.00  0.00     0.044 A 
ATOM      7  C   UNL d   1       5.238   3.178   0.674  0.00  0.00     0.023 A 
ATOM      8  C   UNL d   1       5.997   1.440  -0.825  0.00  0.00     0.023 A 
ENDROOT
BRANCH   2   9
ATOM      9  C   UNL d   1       2.355   0.746   0.017  0.00  0.00     0.120 A 
ATOM     10  N   UNL d   1       2.430  -0.552   0.038  0.00  0.00    -0.308 N 
ATOM     11  C   UNL d   1       1.295  -1.317   0.031  0.00  0.00     0.259 A 
ATOM     12  HN  UNL d   1       3.343  -1.004   0.060  1.00  0.00     0.170 HD
ATOM     13  C   UNL d   1      -0.024  -0.655   0.025  0.00  0.00     0.060 A 
ATOM     14  O   UNL d   1       1.336  -2.543   0.027  0.00  0.00    -0.267 OA
ATOM     15  C   UNL d   1      -0.063   0.748   0.016  0.00  0.00     0.051 A 
ATOM     16  C   UNL d   1      -1.192  -1.434   0.014  0.00  0.00     0.043 A 
ATOM     17  C   UNL d   1      -1.334   1.349   0.025  0.00  0.00     0.032 A 
ATOM     18  N   UNL d   1       1.157   1.467  -0.012  0.00  0.00    -0.336 N 
ATOM     19  C   UNL d   1      -2.506   0.581   0.008  0.00  0.00     0.026 A 
ATOM     20  C   UNL d   1      -2.430  -0.807  -0.003  0.00  0.00     0.035 A 
ATOM     21 CL   UNL d   1      -3.871  -1.742  -0.037  0.00  0.00    -0.084 Cl
ATOM     22  C   UNL d   1       1.050   2.910  -0.217  0.00  0.00     0.158 C 
ENDBRANCH   2   9
TORSDOF 1
