REMARK  5 active torsions:
REMARK  status: ('A' for Active; 'I' for Inactive)
REMARK    1  A    between atoms: N_2  and  C_1 
REMARK    2  A    between atoms: C_6  and  C_4 
REMARK    3  A    between atoms: O_10  and  C_6 
REMARK    4  A    between atoms: C_18  and  O_10 
REMARK    5  A    between atoms: C_15  and  C_18 
ROOT
ATOM      1  C   UNL d   1      -1.315  -2.760  -1.059  0.00  0.00     0.317 C 
ATOM      2  O   UNL d   1      -1.291  -1.933  -1.959  0.00  0.00    -0.257 OA
ENDROOT
BRANCH   1   3
ATOM      3  C   UNL d   1      -0.381  -3.865  -0.964  0.00  0.00     0.153 A 
ATOM      4  O   UNL d   1      -0.400  -4.758   0.083  0.00  0.00    -0.282 OA
ATOM      5  C   UNL d   1       0.611  -5.642  -0.153  0.00  0.00     0.215 A 
ATOM      6  C   UNL d   1       1.283  -5.352  -1.316  0.00  0.00     0.066 A 
ATOM      7  C   UNL d   1       0.644  -4.205  -1.836  0.00  0.00     0.048 A 
BRANCH   5   8
ATOM      8  N   UNL d   1       0.811  -6.687   0.804  0.00  0.00    -0.090 N 
ATOM      9  O   UNL d   1       1.732  -7.479   0.561  0.00  0.00    -0.530 OA
ATOM     10  O   UNL d   1       0.065  -6.723   1.790  0.00  0.00    -0.530 OA
ENDBRANCH   5   8
ENDBRANCH   1   3
BRANCH   1  11
ATOM     11  O   UNL d   1      -2.203  -2.753  -0.026  0.00  0.00    -0.311 OA
BRANCH  11  12
ATOM     12  C   UNL d   1      -3.129  -1.655  -0.022  0.00  0.00     0.217 C 
BRANCH  12  13
ATOM     13  C   UNL d   1      -4.544  -2.178   0.004  0.00  0.00    -0.031 A 
ATOM     14  C   UNL d   1      -4.980  -2.982   1.067  0.00  0.00     0.033 A 
ATOM     15  C   UNL d   1      -6.292  -3.459   1.098  0.00  0.00     0.036 A 
ATOM     16 CL   UNL d   1      -6.805  -4.445   2.411  0.00  0.00    -0.084 Cl
ATOM     17  C   UNL d   1      -7.188  -3.146   0.080  0.00  0.00     0.047 A 
ATOM     18  C   UNL d   1      -6.762  -2.341  -0.973  0.00  0.00     0.036 A 
ATOM     19  C   UNL d   1      -5.452  -1.856  -1.017  0.00  0.00     0.033 A 
ATOM     20 CL   UNL d   1      -7.864  -1.939  -2.234  0.00  0.00    -0.084 Cl
ENDBRANCH  12  13
ENDBRANCH  11  12
ENDBRANCH   1  11
TORSDOF 5
