REMARK  5 active torsions:
REMARK  status: ('A' for Active; 'I' for Inactive)
REMARK    1  A    between atoms: N_2  and  C_1 
REMARK    2  A    between atoms: N_4  and  C_1 
REMARK    3  A    between atoms: C_3  and  N_2 
REMARK    4  A    between atoms: C_10  and  N_4 
REMARK    5  A    between atoms: C_19  and  C_12 
ROOT
ATOM      1  C   UNL d   1       1.232   0.121   0.071  0.00  0.00     0.176 C 
ATOM      2  S   UNL d   1       2.891  -0.143   0.057  0.00  0.00    -0.041 SA
ENDROOT
BRANCH   1   3
ATOM      3  N   UNL d   1       0.538   0.919  -0.841  0.00  0.00    -0.333 N 
ATOM      4  H   UNL d   1      -0.135   1.535  -0.400  0.00  0.00     0.168 HD
BRANCH   3   5
ATOM      5  C   UNL d   1       0.921   1.256  -2.157  0.00  0.00     0.035 A 
ATOM      6  C   UNL d   1       1.560   0.334  -2.992  0.00  0.00     0.036 A 
ATOM      7  C   UNL d   1       1.889   0.667  -4.309  0.00  0.00    -0.059 A 
ATOM      8  C   UNL d   1       2.566  -0.331  -5.201  0.00  0.00     0.048 C 
ATOM      9  C   UNL d   1       1.576   1.943  -4.788  0.00  0.00     0.013 A 
ATOM     10  C   UNL d   1       0.920   2.874  -3.971  0.00  0.00    -0.059 A 
ATOM     11  C   UNL d   1       0.574   2.514  -2.661  0.00  0.00     0.036 A 
ATOM     12  C   UNL d   1       0.605   4.238  -4.512  0.00  0.00     0.048 C 
ENDBRANCH   3   5
ENDBRANCH   1   3
BRANCH   1  13
ATOM     13  N   UNL d   1       0.325  -0.417   0.987  0.00  0.00    -0.333 N 
ATOM     14  H   UNL d   1      -0.536  -0.719   0.547  0.00  0.00     0.168 HD
BRANCH  13  15
ATOM     15  C   UNL d   1       0.610  -0.997   2.243  0.00  0.00     0.034 A 
ATOM     16  C   UNL d   1       1.563  -0.457   3.106  0.00  0.00     0.030 A 
ATOM     17  C   UNL d   1       1.816  -1.051   4.345  0.00  0.00     0.009 A 
ATOM     18  C   UNL d   1       1.107  -2.188   4.745  0.00  0.00    -0.058 A 
ATOM     19  C   UNL d   1       0.129  -2.711   3.890  0.00  0.00     0.009 A 
ATOM     20  C   UNL d   1      -0.134  -2.106   2.656  0.00  0.00     0.030 A 
BRANCH  18  21
ATOM     21  C   UNL d   1       1.418  -2.849   6.064  0.00  0.00     0.034 C 
ATOM     22  C   UNL d   1       2.543  -3.865   5.940  0.00  0.00     0.010 C 
ENDBRANCH  18  21
ENDBRANCH  13  15
ENDBRANCH   1  13
TORSDOF 5
