REMARK  1 active torsions:
REMARK  status: ('A' for Active; 'I' for Inactive)
REMARK    1  A    between atoms: C_2  and  N_1 
ROOT
ATOM      1  C   UNL d   1      -0.768  -2.475  -0.013  0.00  0.00     0.077 A 
ATOM      2  C   UNL d   1      -1.684  -2.951  -0.963  0.00  0.00     0.146 A 
ATOM      3  C   UNL d   1      -2.089  -4.282  -0.964  0.00  0.00     0.086 A 
ATOM      4  C   UNL d   1      -0.263  -3.367   0.950  0.00  0.00     0.036 A 
ATOM      5  C   UNL d   1      -1.590  -5.143   0.003  0.00  0.00     0.119 A 
ATOM      6  F   UNL d   1      -2.154  -2.165  -1.942  0.00  0.00    -0.204 F 
ATOM      7  C   UNL d   1      -0.686  -4.698   0.961  0.00  0.00     0.045 A 
ATOM      8  F   UNL d   1      -1.983  -6.422   0.012  0.00  0.00    -0.206 F 
ENDROOT
BRANCH   1   9
ATOM      9  N   UNL d   1      -0.348  -1.119  -0.013  0.00  0.00    -0.330 N 
ATOM     10  C   UNL d   1      -1.041  -0.037  -0.517  0.00  0.00     0.097 A 
ATOM     11  C   UNL d   1      -0.310   1.112  -0.306  0.00  0.00     0.019 A 
ATOM     12  C   UNL d   1       0.887   0.733   0.332  0.00  0.00     0.019 A 
ATOM     13  C   UNL d   1       0.834  -0.632   0.518  0.00  0.00     0.097 A 
ENDBRANCH   1   9
TORSDOF 1
