REMARK  6 active torsions:
REMARK  status: ('A' for Active; 'I' for Inactive)
REMARK    1  A    between atoms: N_8  and  C_2 
REMARK    2  A    between atoms: C_6  and  C_5 
REMARK    3  A    between atoms: C_7  and  C_6 
REMARK       I    between atoms: N_10  and  C_7 
REMARK    4  A    between atoms: C_16  and  N_8 
REMARK    5  A    between atoms: C_15  and  N_10 
REMARK    6  A    between atoms: C_13  and  C_16 
ROOT
ATOM      1  N   UNL d   1       0.006   1.575   0.355  0.00  0.00    -0.307 N 
ATOM      2  C   UNL d   1       0.054   1.129  -0.921  0.00  0.00     0.143 C 
ATOM      3  C   UNL d   1      -0.573   0.778   1.301  0.00  0.00     0.238 C 
ATOM      4  S   UNL d   1      -0.710  -0.431  -1.058  0.00  0.00    -0.079 SA
ATOM      5  C   UNL d   1      -0.921  -0.591   0.754  0.00  0.00     0.156 C 
ATOM      6  O   UNL d   1      -0.751   1.150   2.453  0.00  0.00    -0.272 OA
ATOM      7  H   UNL d   1       0.308   2.498   0.625  0.00  0.00     0.171 HD
ENDROOT
BRANCH   5   8
ATOM      8  C   UNL d   1      -2.323  -1.018   1.156  0.00  0.00     0.128 C 
BRANCH   8   9
ATOM      9  C   UNL d   1      -2.456  -2.525   1.255  0.00  0.00     0.223 C 
ATOM     10  N   UNL d   1      -2.398  -3.164   0.031  0.00  0.00    -0.327 N 
ATOM     11  H   UNL d   1      -2.099  -2.615  -0.768  0.00  0.00     0.169 HD
ATOM     12  O   UNL d   1      -2.605  -3.059   2.349  0.00  0.00    -0.273 OA
BRANCH  10  13
ATOM     13  C   UNL d   1      -2.665  -4.526  -0.227  0.00  0.00     0.034 A 
ATOM     14  C   UNL d   1      -3.233  -5.396   0.707  0.00  0.00     0.029 A 
ATOM     15  C   UNL d   1      -3.508  -6.724   0.365  0.00  0.00     0.002 A 
ATOM     16  C   UNL d   1      -3.209  -7.197  -0.911  0.00  0.00     0.000 A 
ATOM     17  C   UNL d   1      -2.641  -6.338  -1.848  0.00  0.00     0.002 A 
ATOM     18  C   UNL d   1      -2.376  -5.008  -1.510  0.00  0.00     0.029 A 
ENDBRANCH  10  13
ENDBRANCH   8   9
ENDBRANCH   5   8
BRANCH   2  19
ATOM     19  N   UNL d   1       0.560   1.719  -1.935  0.00  0.00    -0.367 N 
ATOM     20  HN  UNL d   1       0.512   1.299  -2.863  1.00  0.00     0.161 HD
BRANCH  19  21
ATOM     21  C   UNL d   1       1.207   3.010  -1.729  0.00  0.00     0.148 C 
BRANCH  21  22
ATOM     22  C   UNL d   1       1.875   3.416  -3.005  0.00  0.00    -0.018 C 
ATOM     23  C   UNL d   1       3.186   3.662  -3.128  0.00  0.00     0.008 C 
ENDBRANCH  21  22
ENDBRANCH  19  21
ENDBRANCH   2  19
TORSDOF 6
