REMARK  4 active torsions:
REMARK  status: ('A' for Active; 'I' for Inactive)
REMARK    1  A    between atoms: N_2  and  S_1 
REMARK    2  A    between atoms: C_6  and  S_1 
REMARK    3  A    between atoms: C_3  and  C_7 
REMARK       I    between atoms: C_5  and  N_4 
REMARK    4  A    between atoms: C_16  and  C_5 
ROOT
ATOM      1  N   UNL d   1       0.334  -0.861   0.721  0.00  0.00    -0.304 N 
ATOM      2  N   UNL d   1       1.324  -3.598   0.738  0.00  0.00    -0.349 N 
ATOM      3  C   UNL d   1       1.686  -4.945   0.781  0.00  0.00     0.224 C 
ATOM      4  C   UNL d   1       1.375  -1.295   1.698  0.00  0.00     0.155 C 
ATOM      5  C   UNL d   1      -0.552  -2.003   0.337  0.00  0.00     0.155 C 
ATOM      6  C   UNL d   1       0.248  -3.201  -0.188  0.00  0.00     0.146 C 
ATOM      7  C   UNL d   1       2.188  -2.490   1.167  0.00  0.00     0.146 C 
ATOM      8  O   UNL d   1       1.015  -5.800   0.199  0.00  0.00    -0.273 OA
ENDROOT
BRANCH   1   9
ATOM      9  S   UNL d   1       0.846   0.167  -0.529  0.00  0.00     0.261 S 
ATOM     10  O   UNL d   1      -0.182   0.198  -1.552  0.00  0.00    -0.200 OA
ATOM     11  O   UNL d   1       2.220  -0.149  -0.853  0.00  0.00    -0.200 OA
BRANCH   9  12
ATOM     12  C   UNL d   1       0.820   1.762   0.265  0.00  0.00     0.080 A 
ATOM     13  C   UNL d   1       2.001   2.491   0.444  0.00  0.00     0.041 A 
ATOM     14  C   UNL d   1       1.946   3.781   1.003  0.00  0.00     0.049 A 
ATOM     15  C   UNL d   1       0.697   4.309   1.374  0.00  0.00     0.016 A 
ATOM     16  C   UNL d   1      -0.475   3.574   1.191  0.00  0.00     0.002 A 
ATOM     17  C   UNL d   1      -0.416   2.299   0.632  0.00  0.00     0.025 A 
BRANCH  14  18
ATOM     18  C   UNL d   1       3.192   4.615   1.191  0.00  0.00     0.417 C 
ATOM     19  F   UNL d   1       4.334   3.984   0.807  0.00  0.00    -0.166 F 
ATOM     20  F   UNL d   1       3.150   5.779   0.485  0.00  0.00    -0.166 F 
ATOM     21  F   UNL d   1       3.382   4.973   2.491  0.00  0.00    -0.166 F 
ENDBRANCH  14  18
ENDBRANCH   9  12
ENDBRANCH   1   9
BRANCH   3  22
ATOM     22  C   UNL d   1       2.913  -5.339   1.623  0.00  0.00     0.078 C 
ATOM     23  C   UNL d   1       3.521  -6.687   1.212  0.00  0.00     0.014 C 
ATOM     24  C   UNL d   1       2.728  -7.904   1.676  0.00  0.00     0.001 C 
ATOM     25  C   UNL d   1       2.372  -7.859   3.156  0.00  0.00     0.000 C 
ATOM     26  C   UNL d   1       1.804  -6.518   3.608  0.00  0.00     0.001 C 
ATOM     27  C   UNL d   1       2.616  -5.317   3.127  0.00  0.00     0.014 C 
ENDBRANCH   3  22
TORSDOF 4
