REMARK  2 active torsions:
REMARK  status: ('A' for Active; 'I' for Inactive)
REMARK       I    between atoms: C_4  and  N_1 
REMARK    1  A    between atoms: C_2  and  C_4 
REMARK    2  A    between atoms: C_14  and  N_7 
ROOT
ATOM      1  N   UNL d   1      -2.575   0.293  -0.158  0.00  0.00    -0.278 N 
ATOM      2  C   UNL d   1      -2.239  -0.592  -1.202  0.00  0.00     0.155 C 
ATOM      3  C   UNL d   1      -3.428   0.011   0.956  0.00  0.00     0.269 C 
ATOM      4  N   UNL d   1      -2.586  -1.830  -1.242  0.00  0.00    -0.334 N 
ATOM      5  HN  UNL d   1      -3.215  -2.177  -0.518  1.00  0.00     0.168 HD
ATOM      6  S   UNL d   1      -1.203   0.171  -2.395  0.00  0.00    -0.056 SA
ATOM      7  C   UNL d   1      -2.010   1.701  -0.326  0.00  0.00     0.075 C 
ATOM      8  C   UNL d   1      -0.881   1.514  -1.366  0.00  0.00     0.005 C 
ATOM      9  O   UNL d   1      -3.519   0.839   1.863  0.00  0.00    -0.266 OA
ATOM     10  C   UNL d   1       0.242   2.229  -1.560  0.00  0.00     0.029 C 
ATOM     11  C   UNL d   1      -3.038   2.619  -1.050  0.00  0.00     0.037 C 
ATOM     12  C   UNL d   1      -1.458   2.376   0.975  0.00  0.00     0.037 C 
ATOM     13  C   UNL d   1      -2.374   3.335   1.758  0.00  0.00     0.003 C 
ATOM     14  C   UNL d   1      -4.064   3.265  -0.138  0.00  0.00     0.003 C 
ATOM     15  C   UNL d   1      -3.384   4.110   0.924  0.00  0.00     0.000 C 
ENDROOT
BRANCH   3  16
ATOM     16  C   UNL d   1      -4.259  -1.184   1.101  0.00  0.00     0.096 C 
ATOM     17  S   UNL d   1      -3.621  -2.765   1.232  0.00  0.00    -0.082 SA
ATOM     18  C   UNL d   1      -5.175  -3.483   1.381  0.00  0.00     0.017 A 
ATOM     19  C   UNL d   1      -5.497  -4.851   1.310  0.00  0.00     0.020 A 
ATOM     20  C   UNL d   1      -6.138  -2.517   1.671  0.00  0.00     0.004 A 
ATOM     21  C   UNL d   1      -6.796  -5.257   1.623  0.00  0.00     0.001 A 
ATOM     22  C   UNL d   1      -7.745  -4.329   2.029  0.00  0.00     0.001 A 
ATOM     23  C   UNL d   1      -7.430  -2.967   2.051  0.00  0.00     0.014 A 
ATOM     24  C   UNL d   1      -5.594  -1.196   1.494  0.00  0.00     0.068 C 
ATOM     25 CL   UNL d   1      -6.569   0.206   1.741  0.00  0.00    -0.082 Cl
ENDBRANCH   3  16
BRANCH   4  26
ATOM     26  C   UNL d   1      -2.145  -2.737  -2.233  0.00  0.00     0.062 A 
ATOM     27  C   UNL d   1      -3.077  -3.300  -3.125  0.00  0.00     0.061 A 
ATOM     28 CL   UNL d   1      -4.757  -2.886  -3.044  0.00  0.00    -0.082 Cl
ATOM     29  C   UNL d   1      -2.682  -4.234  -4.090  0.00  0.00     0.026 A 
ATOM     30  C   UNL d   1      -1.349  -4.616  -4.181  0.00  0.00     0.002 A 
ATOM     31  C   UNL d   1      -0.419  -4.102  -3.280  0.00  0.00     0.009 A 
ATOM     32  C   UNL d   1      -0.810  -3.200  -2.275  0.00  0.00    -0.034 A 
ATOM     33  C   UNL d   1       0.244  -2.756  -1.294  0.00  0.00     0.050 C 
ENDBRANCH   4  26
TORSDOF 2
