REMARK  4 active torsions:
REMARK  status: ('A' for Active; 'I' for Inactive)
REMARK    1  A    between atoms: C_4  and  C_2 
REMARK    2  A    between atoms: C_9  and  C_3 
REMARK       I    between atoms: N_8  and  C_4 
REMARK    3  A    between atoms: C_5  and  C_10 
REMARK    4  A    between atoms: C_17  and  N_8 
ROOT
ATOM      1  C   UNL d   1      -0.195   2.671  -0.129  0.00  0.00     0.263 C 
ATOM      2  N   UNL d   1      -1.491   3.019  -0.485  0.00  0.00    -0.323 N 
ATOM      3  O   UNL d   1       0.649   3.485   0.245  0.00  0.00    -0.267 OA
ATOM      4  H   UNL d   1      -2.136   2.256  -0.654  0.00  0.00     0.169 HD
ENDROOT
BRANCH   2   5
ATOM      5  C   UNL d   1      -1.974   4.342  -0.661  0.00  0.00     0.035 A 
ATOM      6  C   UNL d   1      -1.137   5.462  -0.673  0.00  0.00     0.030 A 
ATOM      7  C   UNL d   1      -1.631   6.738  -0.954  0.00  0.00     0.018 A 
ATOM      8  C   UNL d   1      -2.986   6.931  -1.229  0.00  0.00     0.048 A 
ATOM      9  C   UNL d   1      -3.844   5.823  -1.156  0.00  0.00     0.018 A 
ATOM     10  C   UNL d   1      -3.342   4.539  -0.882  0.00  0.00     0.030 A 
BRANCH   8  11
ATOM     11  C   UNL d   1      -3.494   8.292  -1.644  0.00  0.00     0.417 C 
ATOM     12  F   UNL d   1      -2.518   9.240  -1.712  0.00  0.00    -0.166 F 
ATOM     13  F   UNL d   1      -4.072   8.269  -2.878  0.00  0.00    -0.166 F 
ATOM     14  F   UNL d   1      -4.438   8.785  -0.797  0.00  0.00    -0.166 F 
ENDBRANCH   8  11
ENDBRANCH   2   5
BRANCH   1  15
ATOM     15  C   UNL d   1       0.166   1.258  -0.168  0.00  0.00     0.073 C 
ATOM     16  S   UNL d   1      -0.902  -0.004  -0.571  0.00  0.00    -0.088 SA
ATOM     17  C   UNL d   1       0.258  -1.231  -0.178  0.00  0.00    -0.009 C 
ATOM     18  C   UNL d   1       1.483  -0.654   0.105  0.00  0.00     0.017 C 
ATOM     19  C   UNL d   1       1.427   0.763   0.120  0.00  0.00     0.025 C 
BRANCH  17  20
ATOM     20  C   UNL d   1      -0.131  -2.714  -0.144  0.00  0.00    -0.018 C 
ATOM     21  C   UNL d   1      -0.479  -3.225  -1.554  0.00  0.00     0.020 C 
ATOM     22  C   UNL d   1       1.026  -3.586   0.402  0.00  0.00     0.020 C 
ATOM     23  C   UNL d   1      -1.335  -2.916   0.798  0.00  0.00     0.020 C 
ENDBRANCH  17  20
ENDBRANCH   1  15
TORSDOF 4
