REMARK  4 active torsions:
REMARK  status: ('A' for Active; 'I' for Inactive)
REMARK    1  A    between atoms: S_5  and  C_1 
REMARK    2  A    between atoms: N_2  and  C_6 
REMARK    3  A    between atoms: C_4  and  S_5 
REMARK    4  A    between atoms: N_16  and  C_9 
ROOT
ATOM      1  C   UNL d   1       3.550  -3.314  -0.302  0.00  0.00     0.180 A 
ATOM      2  N   UNL d   1       4.439  -3.535  -1.311  0.00  0.00    -0.168 N 
ATOM      3  N   UNL d   1       3.421  -4.397   0.423  0.00  0.00    -0.265 N 
ATOM      4  HN  UNL d   1       2.792  -4.525   1.216  1.00  0.00     0.189 HD
ATOM      5  C   UNL d   1       4.914  -4.796  -1.118  0.00  0.00     0.692 A 
ATOM      6  N   UNL d   1       4.299  -5.337  -0.091  0.00  0.00    -0.130 N 
ATOM      7  HN  UNL d   1       4.443  -6.282   0.265  1.00  0.00     0.205 HD
ATOM      8  H   UNL d   1       4.749  -2.848  -1.979  0.00  0.00     0.186 HD
ENDROOT
BRANCH   1   9
ATOM      9  S   UNL d   1       2.747  -1.805  -0.101  0.00  0.00    -0.032 SA
BRANCH   9  10
ATOM     10  C   UNL d   1       4.177  -0.741   0.009  0.00  0.00     0.110 A 
ATOM     11  C   UNL d   1       4.452   0.091   1.087  0.00  0.00     0.136 A 
ATOM     12  C   UNL d   1       5.614   0.872   1.103  0.00  0.00     0.040 A 
ATOM     13  C   UNL d   1       6.481   0.800   0.019  0.00  0.00     0.020 A 
ATOM     14  C   UNL d   1       6.148  -0.040  -1.030  0.00  0.00     0.089 A 
ATOM     15  N   UNL d   1       5.025  -0.798  -1.063  0.00  0.00    -0.358 N 
ATOM     16  HN  UNL d   1       4.818  -1.395  -1.864  1.00  0.00     0.166 HD
BRANCH  11  17
ATOM     17  N   UNL d   1       3.566   0.172   2.219  0.00  0.00    -0.113 N 
ATOM     18  O   UNL d   1       2.431   0.622   2.021  0.00  0.00    -0.532 OA
ATOM     19  O   UNL d   1       4.037  -0.145   3.319  0.00  0.00    -0.532 OA
ENDBRANCH  11  17
ENDBRANCH   9  10
ENDBRANCH   1   9
BRANCH   5  20
ATOM     20  N   UNL d   1       5.881  -5.307  -1.892  0.00  0.00    -0.233 N 
ATOM     21  H   UNL d   1       6.112  -4.934  -2.804  0.00  0.00     0.174 HD
ATOM     22  H   UNL d   1       6.079  -6.298  -1.784  0.00  0.00     0.174 HD
ENDBRANCH   5  20
TORSDOF 4
