REMARK  2 active torsions:
REMARK  status: ('A' for Active; 'I' for Inactive)
REMARK       I    between atoms: N_2  and  C_1 
REMARK    1  A    between atoms: C_3  and  C_1 
REMARK    2  A    between atoms: C_4  and  N_2 
ROOT
ATOM      1  C   UNL d   1       1.266  -1.470   1.923  0.00  0.00     0.036 A 
ATOM      2  C   UNL d   1       2.349  -0.947   2.631  0.00  0.00     0.053 A 
ATOM      3  C   UNL d   1       2.973  -1.710   3.620  0.00  0.00     0.036 A 
ATOM      4 CL   UNL d   1       4.315  -1.060   4.482  0.00  0.00    -0.084 Cl
ATOM      5  C   UNL d   1       1.429  -3.514   3.232  0.00  0.00     0.004 A 
ATOM      6  C   UNL d   1       0.796  -2.750   2.248  0.00  0.00     0.029 A 
ATOM      7  C   UNL d   1       2.526  -2.995   3.916  0.00  0.00     0.024 A 
ENDROOT
BRANCH   1   8
ATOM      8  N   UNL d   1       0.607  -0.789   0.877  0.00  0.00    -0.325 N 
ATOM      9  C   UNL d   1       1.024   0.370   0.233  0.00  0.00     0.255 C 
ATOM     10  O   UNL d   1       2.047   1.002   0.500  0.00  0.00    -0.270 OA
ATOM     11  H   UNL d   1      -0.209  -1.249   0.484  0.00  0.00     0.169 HD
BRANCH   9  12
ATOM     12  C   UNL d   1       0.102   0.843  -0.890  0.00  0.00     0.270 C 
ATOM     13 CL   UNL d   1      -0.182  -0.487  -2.037  0.00  0.00    -0.098 Cl
ATOM     14 CL   UNL d   1      -1.433   1.395  -0.191  0.00  0.00    -0.098 Cl
ENDBRANCH   9  12
ENDBRANCH   1   8
TORSDOF 2
