REMARK  14 active torsions:
REMARK  status: ('A' for Active; 'I' for Inactive)
REMARK    1  A    between atoms: C_1  and  O_6 
REMARK    2  A    between atoms: C_1  and  C_3 
REMARK    3  A    between atoms: C_1  and  C_2 
REMARK    4  A    between atoms: C_2  and  C_16 
REMARK    5  A    between atoms: C_2  and  O_9 
REMARK    6  A    between atoms: C_3  and  O_8 
REMARK    7  A    between atoms: C_17  and  C_3 
REMARK       I    between atoms: C_4  and  N_7 
REMARK    8  A    between atoms: C_5  and  C_4 
REMARK    9  A    between atoms: C_12  and  O_6 
REMARK   10  A    between atoms: N_7  and  C_16 
REMARK   11  A    between atoms: C_14  and  O_8 
REMARK   12  A    between atoms: C_13  and  O_9 
REMARK   13  A    between atoms: C_15  and  O_21 
REMARK   14  A    between atoms: O_21  and  C_17 
ROOT
ATOM      1  C   UNL d   1       0.634   0.246   1.419  0.00  0.00     0.181 C 
ENDROOT
BRANCH   1   2
ATOM      2  C   UNL d   1       0.985   0.048  -0.090  0.00  0.00     0.194 C 
BRANCH   2   3
ATOM      3  O   UNL d   1       0.984   1.381  -0.681  0.00  0.00    -0.311 OA
BRANCH   3   4
ATOM      4  C   UNL d   1       0.577   1.495  -1.972  0.00  0.00     0.255 C 
ATOM      5  O   UNL d   1       0.096   0.595  -2.644  0.00  0.00    -0.266 OA
ATOM      6  C   UNL d   1       0.843   2.874  -2.497  0.00  0.00     0.126 C 
ENDBRANCH   3   4
ENDBRANCH   2   3
BRANCH   2   7
ATOM      7  C   UNL d   1       2.364  -0.613  -0.340  0.00  0.00     0.188 C 
BRANCH   7   8
ATOM      8  O   UNL d   1       3.444   0.177   0.226  0.00  0.00    -0.311 OA
BRANCH   8   9
ATOM      9  C   UNL d   1       3.911   1.275  -0.417  0.00  0.00     0.255 C 
ATOM     10  O   UNL d   1       3.673   1.584  -1.576  0.00  0.00    -0.266 OA
ATOM     11  C   UNL d   1       4.777   2.097   0.488  0.00  0.00     0.126 C 
ENDBRANCH   8   9
ENDBRANCH   7   8
BRANCH   7  12
ATOM     12  C   UNL d   1       2.624  -1.132  -1.767  0.00  0.00     0.213 C 
BRANCH  12  13
ATOM     13  O   UNL d   1       1.541  -1.916  -2.308  0.00  0.00    -0.319 OA
BRANCH  13  14
ATOM     14  C   UNL d   1       1.224  -3.092  -1.714  0.00  0.00     0.254 C 
ATOM     15  O   UNL d   1       1.787  -3.566  -0.736  0.00  0.00    -0.266 OA
ATOM     16  C   UNL d   1       0.064  -3.736  -2.413  0.00  0.00     0.126 C 
ENDBRANCH  13  14
ENDBRANCH  12  13
ENDBRANCH   7  12
ENDBRANCH   2   7
ENDBRANCH   1   2
BRANCH   1  17
ATOM     17  C   UNL d   1       0.649  -0.998   2.349  0.00  0.00     0.158 C 
BRANCH  17  18
ATOM     18  N   UNL d   1       1.898  -1.717   2.492  0.00  0.00    -0.354 N 
ATOM     19  C   UNL d   1       3.023  -1.193   3.091  0.00  0.00     0.251 C 
ATOM     20  O   UNL d   1       3.053  -0.072   3.589  0.00  0.00    -0.268 OA
ATOM     21  H   UNL d   1       1.889  -2.698   2.240  0.00  0.00     0.162 HD
BRANCH  19  22
ATOM     22  C   UNL d   1       4.232  -2.074   3.098  0.00  0.00     0.032 A 
ATOM     23  C   UNL d   1       4.431  -3.083   2.143  0.00  0.00     0.024 A 
ATOM     24  C   UNL d   1       5.586  -3.885   2.160  0.00  0.00    -0.055 A 
ATOM     25  C   UNL d   1       5.754  -4.952   1.112  0.00  0.00     0.049 C 
ATOM     26  C   UNL d   1       6.560  -3.672   3.155  0.00  0.00    -0.056 A 
ATOM     27  C   UNL d   1       6.363  -2.651   4.098  0.00  0.00     0.008 A 
ATOM     28  C   UNL d   1       7.810  -4.508   3.216  0.00  0.00     0.049 C 
ATOM     29  C   UNL d   1       5.215  -1.855   4.068  0.00  0.00     0.017 A 
ENDBRANCH  19  22
ENDBRANCH  17  18
ENDBRANCH   1  17
BRANCH   1  30
ATOM     30  O   UNL d   1      -0.679   0.904   1.541  0.00  0.00    -0.312 OA
BRANCH  30  31
ATOM     31  C   UNL d   1      -1.792   0.228   1.140  0.00  0.00     0.255 C 
ATOM     32  O   UNL d   1      -1.799  -0.901   0.669  0.00  0.00    -0.266 OA
ATOM     33  C   UNL d   1      -3.037   1.025   1.371  0.00  0.00     0.126 C 
ENDBRANCH  30  31
ENDBRANCH   1  30
TORSDOF 14
