REMARK  4 active torsions:
REMARK  status: ('A' for Active; 'I' for Inactive)
REMARK    1  A    between atoms: N_2  and  C_1 
REMARK    2  A    between atoms: C_3  and  C_6 
REMARK    3  A    between atoms: O_10  and  C_5 
REMARK    4  A    between atoms: C_18  and  O_10 
ROOT
ATOM      1  N   UNL d   1       0.430   7.642  -3.703  0.00  0.00    -0.191 NA
ATOM      2  C   UNL d   1       0.675   6.681  -3.103  0.00  0.00     0.099 C 
ATOM      3  C   UNL d   1       0.976   5.490  -2.364  0.00  0.00     0.044 A 
ATOM      4  C   UNL d   1       1.516   3.171  -0.890  0.00  0.00     0.076 A 
ATOM      5  C   UNL d   1       0.560   4.243  -2.841  0.00  0.00     0.025 A 
ATOM      6  C   UNL d   1       1.690   5.571  -1.164  0.00  0.00     0.025 A 
ATOM      7  C   UNL d   1       1.962   4.412  -0.432  0.00  0.00     0.039 A 
ATOM      8  C   UNL d   1       0.851   3.083  -2.118  0.00  0.00     0.039 A 
ENDROOT
BRANCH   4   9
ATOM      9  O   UNL d   1       1.819   2.086  -0.096  0.00  0.00    -0.308 OA
BRANCH   9  10
ATOM     10  C   UNL d   1       0.916   1.053   0.009  0.00  0.00     0.109 A 
ATOM     11  C   UNL d   1       1.385  -0.257   0.153  0.00  0.00     0.137 A 
ATOM     12  C   UNL d   1       0.510  -1.355   0.175  0.00  0.00     0.055 A 
ATOM     13  C   UNL d   1      -0.873  -1.142   0.091  0.00  0.00     0.050 A 
ATOM     14  C   UNL d   1      -1.351   0.177   0.033  0.00  0.00     0.019 A 
ATOM     15  C   UNL d   1      -0.468   1.261   0.011  0.00  0.00     0.040 A 
BRANCH  11  16
ATOM     16  N   UNL d   1       2.806  -0.512   0.312  0.00  0.00    -0.113 N 
ATOM     17  O   UNL d   1       3.308  -1.365  -0.433  0.00  0.00    -0.532 OA
ATOM     18  O   UNL d   1       3.398   0.091   1.216  0.00  0.00    -0.532 OA
ENDBRANCH  11  16
BRANCH  13  19
ATOM     19  C   UNL d   1      -1.852  -2.293   0.066  0.00  0.00     0.417 C 
ATOM     20  F   UNL d   1      -1.258  -3.512   0.169  0.00  0.00    -0.166 F 
ATOM     21  F   UNL d   1      -2.756  -2.226   1.081  0.00  0.00    -0.166 F 
ATOM     22  F   UNL d   1      -2.579  -2.323  -1.084  0.00  0.00    -0.166 F 
ENDBRANCH  13  19
ENDBRANCH   9  10
ENDBRANCH   4   9
TORSDOF 4
