REMARK  3 active torsions:
REMARK  status: ('A' for Active; 'I' for Inactive)
REMARK    1  A    between atoms: C_8  and  C_3 
REMARK    2  A    between atoms: N_16  and  C_9 
REMARK    3  A    between atoms: N_13  and  C_10 
ROOT
ATOM      1  N   UNL d   1      -1.658  -1.529  -0.563  0.00  0.00    -0.296 N 
ATOM      2  HN  UNL d   1      -2.281  -2.226  -0.971  1.00  0.00     0.187 HD
ATOM      3  C   UNL d   1      -0.496  -1.878  -0.086  0.00  0.00     0.069 A 
ATOM      4  N   UNL d   1      -2.028  -0.222  -0.509  0.00  0.00    -0.265 N 
ATOM      5  C   UNL d   1       0.463  -0.877   0.471  0.00  0.00     0.009 A 
ATOM      6  C   UNL d   1      -1.317   0.793   0.077  0.00  0.00     0.271 A 
ATOM      7  C   UNL d   1       0.012   0.437   0.593  0.00  0.00     0.046 A 
ATOM      8  O   UNL d   1      -1.749   1.942   0.153  0.00  0.00    -0.266 OA
ATOM      9  C   UNL d   1       1.780  -1.172   0.851  0.00  0.00     0.015 A 
ATOM     10  C   UNL d   1       0.827   1.429   1.160  0.00  0.00     0.018 A 
ATOM     11  C   UNL d   1       2.589  -0.190   1.432  0.00  0.00     0.001 A 
ATOM     12  C   UNL d   1       2.109   1.108   1.596  0.00  0.00     0.001 A 
ATOM     13  H   UNL d   1      -2.948   0.002  -0.870  0.00  0.00     0.190 HD
ENDROOT
BRANCH   3  14
ATOM     14  C   UNL d   1      -0.183  -3.341  -0.113  0.00  0.00    -0.005 A 
ATOM     15  C   UNL d   1       0.416  -3.988   0.969  0.00  0.00     0.039 A 
ATOM     16  C   UNL d   1       0.687  -5.362   0.922  0.00  0.00     0.033 A 
ATOM     17  C   UNL d   1       0.388  -6.123  -0.244  0.00  0.00     0.050 A 
ATOM     18  C   UNL d   1      -0.278  -5.466  -1.290  0.00  0.00     0.032 A 
ATOM     19  C   UNL d   1      -0.563  -4.095  -1.227  0.00  0.00     0.016 A 
BRANCH  16  20
ATOM     20  N   UNL d   1       1.423  -5.942   1.985  0.00  0.00    -0.301 NA
ATOM     21  H   UNL d   1       1.232  -5.522   2.886  0.00  0.00     0.124 HD
ATOM     22  H   UNL d   1       1.251  -6.949   1.978  0.00  0.00     0.124 HD
ENDBRANCH  16  20
BRANCH  17  23
ATOM     23  N   UNL d   1       0.690  -7.503  -0.275  0.00  0.00    -0.388 N 
ATOM     24  C   UNL d   1      -0.121  -8.353  -1.147  0.00  0.00     0.149 C 
ATOM     25  C   UNL d   1       2.126  -7.809  -0.322  0.00  0.00     0.149 C 
ENDBRANCH  17  23
ENDBRANCH   3  14
TORSDOF 3
