REMARK  5 active torsions:
REMARK  status: ('A' for Active; 'I' for Inactive)
REMARK    1  A    between atoms: C_7  and  C_1 
REMARK    2  A    between atoms: S_9  and  C_4 
REMARK    3  A    between atoms: C_8  and  C_7 
REMARK    4  A    between atoms: C_18  and  S_9 
REMARK    5  A    between atoms: C_21  and  C_18 
ROOT
ATOM      1  C   UNL d   1      -1.523   1.123  -0.052  0.00  0.00     0.117 A 
ATOM      2  N   UNL d   1      -2.321  -0.004  -0.101  0.00  0.00    -0.331 N 
ATOM      3  HN  UNL d   1      -3.340  -0.030  -0.138  1.00  0.00     0.168 HD
ATOM      4  C   UNL d   1      -1.504  -1.035  -0.088  0.00  0.00     0.152 A 
ATOM      5  C   UNL d   1      -0.189   0.745  -0.029  0.00  0.00     0.071 A 
ATOM      6  N   UNL d   1      -0.179  -0.650  -0.044  0.00  0.00    -0.300 N 
ATOM      7  C   UNL d   1       1.006  -1.393  -0.024  0.00  0.00     0.099 A 
ATOM      8  C   UNL d   1       1.069   1.416   0.010  0.00  0.00     0.032 A 
ATOM      9  C   UNL d   1       2.189  -0.756   0.009  0.00  0.00     0.018 A 
ATOM     10  C   UNL d   1       2.207   0.697   0.026  0.00  0.00     0.004 A 
ENDROOT
BRANCH   4  11
ATOM     11  S   UNL d   1      -2.007  -2.699  -0.099  0.00  0.00    -0.089 SA
BRANCH  11  12
ATOM     12  C   UNL d   1      -3.672  -2.545  -0.808  0.00  0.00     0.121 C 
BRANCH  12  13
ATOM     13  C   UNL d   1      -4.410  -3.864  -0.824  0.00  0.00    -0.046 A 
ATOM     14  C   UNL d   1      -4.240  -4.773  -1.879  0.00  0.00     0.050 A 
ATOM     15  C   UNL d   1      -4.949  -5.972  -1.888  0.00  0.00     0.117 A 
ATOM     16  F   UNL d   1      -4.787  -6.825  -2.909  0.00  0.00    -0.206 F 
ATOM     17  C   UNL d   1      -5.827  -6.296  -0.862  0.00  0.00     0.042 A 
ATOM     18  C   UNL d   1      -5.996  -5.409   0.199  0.00  0.00     0.004 A 
ATOM     19  C   UNL d   1      -5.289  -4.203   0.220  0.00  0.00     0.008 A 
ENDBRANCH  12  13
ENDBRANCH  11  12
ENDBRANCH   4  11
BRANCH   1  20
ATOM     20  C   UNL d   1      -2.039   2.495  -0.030  0.00  0.00     0.283 C 
ATOM     21  O   UNL d   1      -1.260   3.456  -0.029  0.00  0.00    -0.281 OA
BRANCH  20  22
ATOM     22  C   UNL d   1      -3.547   2.714   0.001  0.00  0.00     0.457 C 
ATOM     23  F   UNL d   1      -4.322   1.595  -0.025  0.00  0.00    -0.163 F 
ATOM     24  F   UNL d   1      -3.931   3.400   1.119  0.00  0.00    -0.163 F 
ATOM     25  F   UNL d   1      -3.965   3.474  -1.055  0.00  0.00    -0.163 F 
ENDBRANCH  20  22
ENDBRANCH   1  20
TORSDOF 5
