REMARK  5 active torsions:
REMARK  status: ('A' for Active; 'I' for Inactive)
REMARK    1  A    between atoms: C_2  and  C_1 
REMARK    2  A    between atoms: C_5  and  C_2 
REMARK    3  A    between atoms: C_6  and  C_2 
REMARK    4  A    between atoms: C_3  and  C_5 
REMARK       I    between atoms: N_12  and  C_3 
REMARK    5  A    between atoms: C_4  and  C_6 
REMARK       I    between atoms: N_11  and  C_4 
ROOT
ATOM      1  C   UNL d   1      -0.126   2.061  -0.189  0.00  0.00     0.039 C 
ENDROOT
BRANCH   1   2
ATOM      2  C   UNL d   1      -0.243   0.522  -0.027  0.00  0.00    -0.010 A 
ATOM      3  C   UNL d   1       0.944  -0.242   0.165  0.00  0.00     0.042 A 
ATOM      4 CL   UNL d   1       2.516   0.475   0.360  0.00  0.00    -0.084 Cl
ATOM      5  C   UNL d   1       0.932  -1.643   0.270  0.00  0.00     0.024 A 
ATOM      6  C   UNL d   1      -0.264  -2.341   0.243  0.00  0.00     0.003 A 
ATOM      7  C   UNL d   1      -1.445  -1.632   0.109  0.00  0.00     0.024 A 
ATOM      8  C   UNL d   1      -1.448  -0.229  -0.034  0.00  0.00     0.042 A 
ATOM      9 CL   UNL d   1      -3.051   0.409  -0.180  0.00  0.00    -0.084 Cl
ENDBRANCH   1   2
BRANCH   1  10
ATOM     10  C   UNL d   1       0.634   2.489  -1.478  0.00  0.00     0.112 C 
BRANCH  10  11
ATOM     11  C   UNL d   1      -0.106   2.269  -2.776  0.00  0.00     0.215 C 
ATOM     12  O   UNL d   1      -1.074   1.539  -2.921  0.00  0.00    -0.274 OA
ATOM     13  N   UNL d   1       0.431   2.944  -3.838  0.00  0.00    -0.370 N 
ATOM     14  H   UNL d   1       1.199   3.590  -3.748  0.00  0.00     0.159 HD
ATOM     15  H   UNL d   1      -0.019   2.839  -4.737  0.00  0.00     0.159 HD
ENDBRANCH  10  11
ENDBRANCH   1  10
BRANCH   1  16
ATOM     16  C   UNL d   1      -1.415   2.895  -0.032  0.00  0.00     0.112 C 
BRANCH  16  17
ATOM     17  C   UNL d   1      -1.221   4.395   0.019  0.00  0.00     0.215 C 
ATOM     18  O   UNL d   1      -0.186   4.957   0.350  0.00  0.00    -0.274 OA
ATOM     19  N   UNL d   1      -2.341   5.103  -0.310  0.00  0.00    -0.370 N 
ATOM     20  H   UNL d   1      -3.188   4.660  -0.648  0.00  0.00     0.159 HD
ATOM     21  H   UNL d   1      -2.289   6.113  -0.320  0.00  0.00     0.159 HD
ENDBRANCH  16  17
ENDBRANCH   1  16
TORSDOF 5
