REMARK  3 active torsions:
REMARK  status: ('A' for Active; 'I' for Inactive)
REMARK    1  A    between atoms: N_2  and  C_1 
REMARK    2  A    between atoms: O_9  and  C_1 
REMARK    3  A    between atoms: C_3  and  N_2 
ROOT
ATOM      1  C   UNL d   1       0.941  -0.969  -2.523  0.00  0.00     0.040 A 
ATOM      2  C   UNL d   1       1.929  -1.971  -2.465  0.00  0.00    -0.034 A 
ATOM      3  C   UNL d   1       2.590  -2.353  -3.651  0.00  0.00     0.032 A 
ATOM      4  C   UNL d   1       0.625  -0.395  -3.767  0.00  0.00     0.032 A 
ATOM      5  C   UNL d   1       2.266  -1.765  -4.872  0.00  0.00     0.034 A 
ATOM      6  C   UNL d   1       1.278  -0.793  -4.934  0.00  0.00     0.026 A 
ATOM      7 CL   UNL d   1       3.100  -2.233  -6.301  0.00  0.00    -0.084 Cl
ATOM      8  C   UNL d   1       2.304  -2.714  -1.211  0.00  0.00     0.050 C 
ENDROOT
BRANCH   1   9
ATOM      9  N   UNL d   1       0.365  -0.464  -1.333  0.00  0.00    -0.327 N 
ATOM     10  H   UNL d   1       0.899  -0.592  -0.487  0.00  0.00     0.169 HD
BRANCH   9  11
ATOM     11  C   UNL d   1      -0.857   0.145  -1.163  0.00  0.00     0.214 C 
ATOM     12  S   UNL d   1      -2.268  -0.094  -2.015  0.00  0.00    -0.033 SA
BRANCH  11  13
ATOM     13  O   UNL d   1      -0.987   0.933  -0.065  0.00  0.00    -0.332 OA
ATOM     14  C   UNL d   1       0.118   1.689   0.458  0.00  0.00     0.212 C 
ENDBRANCH  11  13
ENDBRANCH   9  11
ENDBRANCH   1   9
TORSDOF 3
