REMARK  3 active torsions:
REMARK  status: ('A' for Active; 'I' for Inactive)
REMARK    1  A    between atoms: C_14  and  C_4 
REMARK    2  A    between atoms: O_15  and  C_9 
REMARK    3  A    between atoms: C_13  and  O_15 
ROOT
ATOM      1  N   UNL d   1       0.735  -0.059   0.794  0.00  0.00    -0.317 N 
ATOM      2  HN  UNL d   1       1.363  -0.029   1.597  1.00  0.00     0.169 HD
ATOM      3  C   UNL d   1       0.544  -1.046  -0.057  0.00  0.00     0.206 A 
ATOM      4  C   UNL d   1      -0.119   0.921   0.339  0.00  0.00     0.138 A 
ATOM      5  N   UNL d   1      -0.814   0.567  -0.756  0.00  0.00    -0.242 N 
ATOM      6  HN  UNL d   1      -1.500   1.117  -1.272  1.00  0.00     0.196 HD
ATOM      7  C   UNL d   1       1.214  -2.306   0.037  0.00  0.00     0.131 A 
ATOM      8  O   UNL d   1      -0.376  -0.733  -1.019  0.00  0.00    -0.215 OA
ATOM      9  C   UNL d   1       1.772  -4.396  -0.404  0.00  0.00     0.191 A 
ATOM     10  O   UNL d   1       1.011  -3.350  -0.830  0.00  0.00    -0.283 OA
ATOM     11  C   UNL d   1       2.139  -2.697   0.993  0.00  0.00     0.047 A 
ATOM     12  C   UNL d   1       2.514  -4.025   0.696  0.00  0.00     0.067 A 
ENDROOT
BRANCH   4  13
ATOM     13  C   UNL d   1      -0.232   2.210   1.009  0.00  0.00     0.010 A 
ATOM     14  C   UNL d   1       0.581   2.505   2.114  0.00  0.00     0.016 A 
ATOM     15  C   UNL d   1       0.486   3.739   2.764  0.00  0.00     0.007 A 
ATOM     16  C   UNL d   1      -0.426   4.703   2.324  0.00  0.00    -0.062 A 
ATOM     17  C   UNL d   1      -1.241   4.416   1.224  0.00  0.00     0.007 A 
ATOM     18  C   UNL d   1      -0.509   6.028   3.024  0.00  0.00     0.048 C 
ATOM     19  C   UNL d   1      -1.145   3.181   0.572  0.00  0.00     0.016 A 
ENDBRANCH   4  13
BRANCH   9  20
ATOM     20  O   UNL d   1       1.619  -5.510  -1.119  0.00  0.00    -0.288 OA
BRANCH  20  21
ATOM     21  C   UNL d   1       1.890  -6.735  -0.554  0.00  0.00     0.081 A 
ATOM     22  C   UNL d   1       1.489  -7.062   0.745  0.00  0.00     0.061 A 
ATOM     23  C   UNL d   1       1.794  -8.317   1.267  0.00  0.00     0.038 A 
ATOM     24 CL   UNL d   1       1.349  -8.692   2.886  0.00  0.00    -0.084 Cl
ATOM     25  C   UNL d   1       2.460  -9.263   0.494  0.00  0.00     0.048 A 
ATOM     26  C   UNL d   1       2.814  -8.944  -0.816  0.00  0.00     0.038 A 
ATOM     27  C   UNL d   1       2.532  -7.685  -1.347  0.00  0.00     0.061 A 
ATOM     28 CL   UNL d   1       3.613 -10.120  -1.787  0.00  0.00    -0.084 Cl
ENDBRANCH  20  21
ENDBRANCH   9  20
TORSDOF 3
