REMARK  3 active torsions:
REMARK  status: ('A' for Active; 'I' for Inactive)
REMARK    1  A    between atoms: N_12  and  C_3 
REMARK    2  A    between atoms: C_9  and  C_4 
REMARK    3  A    between atoms: C_7  and  C_9 
ROOT
ATOM      1  N   UNL d   1      -0.966   0.055  -1.893  0.00  0.00    -0.171 N 
ATOM      2  HN  UNL d   1      -1.572   0.230  -2.694  1.00  0.00     0.186 HD
ATOM      3  C   UNL d   1       0.392  -0.026  -1.849  0.00  0.00     0.697 A 
ATOM      4  C   UNL d   1      -1.296  -0.150  -0.637  0.00  0.00     0.167 A 
ATOM      5  N   UNL d   1       0.908  -0.283  -0.647  0.00  0.00    -0.090 N 
ATOM      6  HN  UNL d   1       1.888  -0.398  -0.390  1.00  0.00     0.213 HD
ATOM      7  O   UNL d   1      -0.218  -0.355   0.175  0.00  0.00    -0.209 OA
ENDROOT
BRANCH   4   8
ATOM      8  C   UNL d   1      -2.635  -0.184   0.004  0.00  0.00     0.129 C 
BRANCH   8   9
ATOM      9  C   UNL d   1      -3.233  -1.578   0.025  0.00  0.00    -0.007 A 
ATOM     10  C   UNL d   1      -2.975  -2.467   1.087  0.00  0.00     0.042 A 
ATOM     11 CL   UNL d   1      -2.042  -2.006   2.470  0.00  0.00    -0.084 Cl
ATOM     12  C   UNL d   1      -3.472  -3.776   1.075  0.00  0.00     0.024 A 
ATOM     13  C   UNL d   1      -4.238  -4.226   0.005  0.00  0.00     0.003 A 
ATOM     14  C   UNL d   1      -4.514  -3.364  -1.051  0.00  0.00     0.024 A 
ATOM     15  C   UNL d   1      -4.016  -2.055  -1.045  0.00  0.00     0.042 A 
ATOM     16 CL   UNL d   1      -4.416  -1.067  -2.407  0.00  0.00    -0.084 Cl
ENDBRANCH   8   9
ENDBRANCH   4   8
BRANCH   3  17
ATOM     17  N   UNL d   1       1.065   0.126  -2.989  0.00  0.00    -0.233 N 
ATOM     18  H   UNL d   1       0.538   0.033  -3.848  0.00  0.00     0.174 HD
ATOM     19  H   UNL d   1       2.010  -0.234  -3.029  0.00  0.00     0.174 HD
ENDBRANCH   3  17
TORSDOF 3
