REMARK  5 active torsions:
REMARK  status: ('A' for Active; 'I' for Inactive)
REMARK    1  A    between atoms: C_2  and  C_1 
REMARK    2  A    between atoms: C_6  and  C_2 
REMARK    3  A    between atoms: C_7  and  C_2 
REMARK    4  A    between atoms: C_5  and  C_3 
REMARK    5  A    between atoms: C_8  and  C_12 
ROOT
ATOM      1  C   UNL d   1      -0.333   2.442   0.029  0.00  0.00     0.080 C 
ENDROOT
BRANCH   1   2
ATOM      2  C   UNL d   1       0.121   0.994  -0.185  0.00  0.00     0.060 A 
ATOM      3  O   UNL d   1      -0.884   0.058  -0.213  0.00  0.00    -0.314 OA
ATOM      4  C   UNL d   1      -0.329  -1.184  -0.336  0.00  0.00     0.087 A 
ATOM      5  C   UNL d   1       1.034  -1.062  -0.440  0.00  0.00     0.040 A 
ATOM      6  C   UNL d   1       1.308   0.321  -0.400  0.00  0.00     0.036 A 
BRANCH   4   7
ATOM      7  C   UNL d   1      -1.204  -2.347  -0.234  0.00  0.00     0.020 A 
ATOM      8  C   UNL d   1      -0.704  -3.477   0.450  0.00  0.00     0.032 A 
ATOM      9  C   UNL d   1      -1.475  -4.635   0.641  0.00  0.00     0.048 A 
ATOM     10  C   UNL d   1      -2.771  -4.667   0.118  0.00  0.00     0.018 A 
ATOM     11  C   UNL d   1      -3.272  -3.573  -0.593  0.00  0.00     0.026 A 
ATOM     12  C   UNL d   1      -2.496  -2.419  -0.775  0.00  0.00     0.047 A 
ATOM     13 CL   UNL d   1      -3.188  -1.157  -1.737  0.00  0.00    -0.083 Cl
BRANCH   9  14
ATOM     14  C   UNL d   1      -0.932  -5.813   1.417  0.00  0.00     0.417 C 
ATOM     15  F   UNL d   1       0.367  -5.659   1.798  0.00  0.00    -0.166 F 
ATOM     16  F   UNL d   1      -1.632  -6.049   2.560  0.00  0.00    -0.166 F 
ATOM     17  F   UNL d   1      -0.975  -6.971   0.703  0.00  0.00    -0.166 F 
ENDBRANCH   9  14
ENDBRANCH   4   7
ENDBRANCH   1   2
BRANCH   1  18
ATOM     18  C   UNL d   1      -1.343   2.552   1.224  0.00  0.00     0.136 C 
ATOM     19  C   UNL d   1      -2.629   1.758   1.026  0.00  0.00     0.139 C 
ATOM     20  O   UNL d   1      -2.905   0.782   1.724  0.00  0.00    -0.297 OA
ATOM     21  C   UNL d   1      -3.597   2.285  -0.010  0.00  0.00     0.079 C 
ATOM     22  C   UNL d   1      -4.019   3.695   0.377  0.00  0.00     0.015 C 
ATOM     23  C   UNL d   1      -2.838   4.618   0.651  0.00  0.00     0.079 C 
ATOM     24  C   UNL d   1      -1.796   3.976   1.546  0.00  0.00     0.139 C 
ATOM     25  O   UNL d   1      -1.303   4.617   2.472  0.00  0.00    -0.297 OA
ENDBRANCH   1  18
BRANCH   1  26
ATOM     26  C   UNL d   1       0.806   3.503   0.127  0.00  0.00     0.136 C 
ATOM     27  C   UNL d   1       1.659   3.603  -1.123  0.00  0.00     0.139 C 
ATOM     28  O   UNL d   1       1.179   4.062  -2.158  0.00  0.00    -0.297 OA
ATOM     29  C   UNL d   1       3.073   3.046  -1.124  0.00  0.00     0.079 C 
ATOM     30  C   UNL d   1       3.730   2.765   0.233  0.00  0.00     0.015 C 
ATOM     31  C   UNL d   1       2.815   2.542   1.427  0.00  0.00     0.079 C 
ATOM     32  C   UNL d   1       1.671   3.495   1.373  0.00  0.00     0.139 C 
ATOM     33  O   UNL d   1       1.472   4.275   2.303  0.00  0.00    -0.297 OA
ENDBRANCH   1  26
TORSDOF 5
