REMARK  4 active torsions:
REMARK  status: ('A' for Active; 'I' for Inactive)
REMARK    1  A    between atoms: C_7  and  C_1 
REMARK    2  A    between atoms: C_8  and  C_2 
REMARK    3  A    between atoms: O_15  and  C_7 
REMARK    4  A    between atoms: C_17  and  O_15 
ROOT
ATOM      1  C   UNL d   1       2.083   0.637   0.079  0.00  0.00     0.067 C 
ATOM      2  C   UNL d   1       1.185   1.849  -0.006  0.00  0.00     0.165 C 
ATOM      3  C   UNL d   1       1.588  -0.620   0.062  0.00  0.00     0.022 C 
ATOM      4  C   UNL d   1      -0.693   0.222   0.002  0.00  0.00     0.172 C 
ATOM      5  N   UNL d   1       0.219  -0.783   0.004  0.00  0.00    -0.337 N 
ATOM      6  N   UNL d   1      -0.219   1.482   0.108  0.00  0.00    -0.353 N 
ATOM      7  S   UNL d   1      -2.321  -0.089  -0.101  0.00  0.00    -0.041 SA
ATOM      8  C   UNL d   1       2.331  -1.931   0.030  0.00  0.00     0.069 C 
ATOM      9  H   UNL d   1      -0.166  -1.722  -0.060  0.00  0.00     0.168 HD
ATOM     10  H   UNL d   1      -0.905   2.227   0.071  0.00  0.00     0.163 HD
ENDROOT
BRANCH   1  11
ATOM     11  C   UNL d   1       3.521   0.984  -0.024  0.00  0.00     0.293 C 
ATOM     12  O   UNL d   1       3.923   1.948  -0.657  0.00  0.00    -0.259 OA
BRANCH  11  13
ATOM     13  O   UNL d   1       4.308   0.090   0.619  0.00  0.00    -0.318 OA
BRANCH  13  14
ATOM     14  C   UNL d   1       5.698   0.131   0.263  0.00  0.00     0.174 C 
ATOM     15  C   UNL d   1       5.894  -0.470  -1.121  0.00  0.00     0.034 C 
ENDBRANCH  13  14
ENDBRANCH  11  13
ENDBRANCH   1  11
BRANCH   2  16
ATOM     16  C   UNL d   1       1.408   2.934   1.026  0.00  0.00     0.010 A 
ATOM     17  S   UNL d   1       1.748   4.540   0.517  0.00  0.00    -0.104 SA
ATOM     18  C   UNL d   1       1.885   5.094   2.126  0.00  0.00     0.050 A 
ATOM     19  C   UNL d   1       1.653   4.090   3.039  0.00  0.00     0.008 A 
ATOM     20  C   UNL d   1       1.370   2.845   2.406  0.00  0.00     0.017 A 
ENDBRANCH   2  16
TORSDOF 4
