REMARK  7 active torsions:
REMARK  status: ('A' for Active; 'I' for Inactive)
REMARK    1  A    between atoms: N_6  and  C_1 
REMARK    2  A    between atoms: N_10  and  C_1 
REMARK    3  A    between atoms: N_4  and  C_16 
REMARK    4  A    between atoms: C_11  and  N_6 
REMARK    5  A    between atoms: C_20  and  N_10 
REMARK    6  A    between atoms: C_16  and  C_19 
REMARK    7  A    between atoms: C_19  and  C_20 
ROOT
ATOM      1  C   UNL d   1       2.083   0.027  -1.310  0.00  0.00     0.172 C 
ATOM      2  S   UNL d   1       1.249   1.307  -1.988  0.00  0.00    -0.041 SA
ENDROOT
BRANCH   1   3
ATOM      3  N   UNL d   1       2.339  -1.204  -1.859  0.00  0.00    -0.333 N 
ATOM      4  H   UNL d   1       3.239  -1.588  -1.605  0.00  0.00     0.168 HD
BRANCH   3   5
ATOM      5  C   UNL d   1       1.675  -1.880  -2.906  0.00  0.00     0.034 A 
ATOM      6  C   UNL d   1       2.390  -2.856  -3.611  0.00  0.00     0.031 A 
ATOM      7  C   UNL d   1       1.777  -3.586  -4.638  0.00  0.00     0.026 A 
ATOM      8  C   UNL d   1       0.439  -3.359  -4.944  0.00  0.00     0.034 A 
ATOM      9  C   UNL d   1      -0.290  -2.411  -4.232  0.00  0.00     0.026 A 
ATOM     10 CL   UNL d   1      -0.321  -4.265  -6.191  0.00  0.00    -0.084 Cl
ATOM     11  C   UNL d   1       0.325  -1.680  -3.213  0.00  0.00     0.031 A 
ENDBRANCH   3   5
ENDBRANCH   1   3
BRANCH   1  12
ATOM     12  N   UNL d   1       2.613   0.246  -0.070  0.00  0.00    -0.367 N 
ATOM     13  H   UNL d   1       2.412   1.175   0.288  0.00  0.00     0.161 HD
BRANCH  12  14
ATOM     14  C   UNL d   1       3.333  -0.658   0.809  0.00  0.00     0.123 C 
BRANCH  14  15
ATOM     15  C   UNL d   1       4.835  -0.572   0.570  0.00  0.00     0.040 C 
BRANCH  15  16
ATOM     16  C   UNL d   1       5.606  -1.370   1.616  0.00  0.00     0.130 C 
BRANCH  16  17
ATOM     17  N   UNL d   1       7.034  -1.338   1.378  0.00  0.00    -0.352 N 
ATOM     18  C   UNL d   1       7.912  -0.428   1.893  0.00  0.00     0.182 A 
ATOM     19  N   UNL d   1       9.142  -0.682   1.508  0.00  0.00    -0.361 N 
ATOM     20  C   UNL d   1       9.051  -1.798   0.716  0.00  0.00     0.106 A 
ATOM     21  HN  UNL d   1       9.985  -0.160   1.747  1.00  0.00     0.166 HD
ATOM     22  C   UNL d   1       7.747  -2.223   0.620  0.00  0.00     0.108 A 
ENDBRANCH  16  17
ENDBRANCH  15  16
ENDBRANCH  14  15
ENDBRANCH  12  14
ENDBRANCH   1  12
TORSDOF 7
