REMARK  2 active torsions:
REMARK  status: ('A' for Active; 'I' for Inactive)
REMARK    1  A    between atoms: C_7  and  N_1 
REMARK    2  A    between atoms: C_8  and  C_7 
ROOT
ATOM      1  N   UNL d   1       2.256  -0.143   0.145  0.00  0.00    -0.274 N 
ATOM      2  C   UNL d   1       1.688   1.128   0.063  0.00  0.00     0.262 A 
ATOM      3  C   UNL d   1       1.538  -1.335   0.173  0.00  0.00     0.262 A 
ATOM      4  C   UNL d   1       0.209   1.201   0.031  0.00  0.00     0.044 A 
ATOM      5  C   UNL d   1       0.062  -1.235   0.114  0.00  0.00     0.044 A 
ATOM      6  C   UNL d   1      -0.545   0.024   0.055  0.00  0.00     0.005 A 
ATOM      7  O   UNL d   1       2.058  -2.447   0.255  0.00  0.00    -0.267 OA
ATOM      8  O   UNL d   1       2.333   2.169   0.010  0.00  0.00    -0.267 OA
ATOM      9  C   UNL d   1      -1.958   0.110   0.016  0.00  0.00    -0.024 A 
ATOM     10  C   UNL d   1      -0.417   2.453  -0.033  0.00  0.00     0.018 A 
ATOM     11  C   UNL d   1      -0.714  -2.403   0.126  0.00  0.00     0.018 A 
ATOM     12  C   UNL d   1      -2.103  -2.317   0.086  0.00  0.00     0.002 A 
ATOM     13  C   UNL d   1      -1.806   2.536  -0.070  0.00  0.00     0.002 A 
ATOM     14  C   UNL d   1      -2.572   1.371  -0.044  0.00  0.00     0.012 A 
ATOM     15  C   UNL d   1      -2.721  -1.069   0.036  0.00  0.00     0.012 A 
ENDROOT
BRANCH   1  16
ATOM     16  C   UNL d   1       3.709  -0.222   0.243  0.00  0.00     0.200 C 
BRANCH  16  17
ATOM     17  C   UNL d   1       4.111  -0.179   1.679  0.00  0.00     0.070 A 
ATOM     18  O   UNL d   1       4.891   0.872   2.065  0.00  0.00    -0.325 OA
ATOM     19  C   UNL d   1       5.096   0.747   3.401  0.00  0.00     0.142 A 
ATOM     20  C   UNL d   1       4.469  -0.378   3.881  0.00  0.00     0.027 A 
ATOM     21  C   UNL d   1       3.854  -0.993   2.765  0.00  0.00     0.036 A 
ENDBRANCH  16  17
ENDBRANCH   1  16
TORSDOF 2
