REMARK  2 active torsions:
REMARK  status: ('A' for Active; 'I' for Inactive)
REMARK    1  A    between atoms: C_11  and  C_6 
REMARK    2  A    between atoms: O_23  and  C_17 
ROOT
ATOM      1  N   UNL d   1      -1.681   1.493  -0.266  0.00  0.00    -0.305 N 
ATOM      2  HN  UNL d   1      -1.367   2.381  -0.657  1.00  0.00     0.186 HD
ATOM      3  C   UNL d   1      -0.958   0.464   0.047  0.00  0.00     0.043 C 
ATOM      4  N   UNL d   1      -2.947   1.124   0.044  0.00  0.00    -0.322 N 
ATOM      5  C   UNL d   1      -1.720  -0.697   0.634  0.00  0.00     0.067 C 
ATOM      6  C   UNL d   1      -3.145  -0.331   0.188  0.00  0.00     0.144 C 
ATOM      7  C   UNL d   1       0.499   0.366  -0.045  0.00  0.00    -0.005 A 
ATOM      8  C   UNL d   1       1.042  -0.907  -0.237  0.00  0.00    -0.043 A 
ATOM      9  C   UNL d   1      -1.127  -2.075   0.361  0.00  0.00     0.018 C 
ATOM     10  C   UNL d   1       1.308   1.486   0.127  0.00  0.00     0.017 A 
ATOM     11  C   UNL d   1       0.121  -2.067  -0.529  0.00  0.00     0.040 C 
ATOM     12  C   UNL d   1       2.436  -1.055  -0.246  0.00  0.00     0.044 A 
ATOM     13  C   UNL d   1      -4.090   1.932  -0.320  0.00  0.00     0.171 C 
ATOM     14  C   UNL d   1       3.265   0.056  -0.040  0.00  0.00     0.068 A 
ATOM     15  C   UNL d   1       2.692   1.322   0.136  0.00  0.00     0.037 A 
ENDROOT
BRANCH   6  16
ATOM     16  C   UNL d   1      -3.724  -1.002  -1.049  0.00  0.00    -0.033 A 
ATOM     17  C   UNL d   1      -3.083  -0.992  -2.300  0.00  0.00     0.012 A 
ATOM     18  C   UNL d   1      -3.702  -1.547  -3.423  0.00  0.00     0.043 A 
ATOM     19  C   UNL d   1      -4.967  -2.110  -3.309  0.00  0.00     0.116 A 
ATOM     20  C   UNL d   1      -5.624  -2.141  -2.086  0.00  0.00     0.043 A 
ATOM     21  F   UNL d   1      -5.574  -2.613  -4.395  0.00  0.00    -0.206 F 
ATOM     22  C   UNL d   1      -5.002  -1.591  -0.963  0.00  0.00     0.012 A 
ENDBRANCH   6  16
BRANCH  14  23
ATOM     23  O   UNL d   1       4.632   0.040   0.006  0.00  0.00    -0.356 OA
ATOM     24  C   UNL d   1       5.268  -1.224  -0.139  0.00  0.00     0.210 C 
ENDBRANCH  14  23
TORSDOF 2
