REMARK  5 active torsions:
REMARK  status: ('A' for Active; 'I' for Inactive)
REMARK    1  A    between atoms: C_21  and  C_3 
REMARK    2  A    between atoms: C_15  and  C_7 
REMARK    3  A    between atoms: C_8  and  C_13 
REMARK    4  A    between atoms: C_9  and  C_14 
REMARK    5  A    between atoms: C_12  and  C_10 
ROOT
ATOM      1  C   UNL d   1      -2.723  -4.147   0.474  0.00  0.00     0.086 A 
ATOM      2  O   UNL d   1      -1.522  -3.697   0.930  0.00  0.00    -0.310 OA
ATOM      3  C   UNL d   1      -1.009  -2.804   0.016  0.00  0.00     0.078 A 
ATOM      4  C   UNL d   1      -3.027  -3.527  -0.716  0.00  0.00     0.041 A 
ATOM      5  C   UNL d   1      -1.941  -2.673  -1.007  0.00  0.00     0.040 A 
ENDROOT
BRANCH   1   6
ATOM      6  C   UNL d   1      -3.403  -5.161   1.269  0.00  0.00    -0.001 A 
ATOM      7  C   UNL d   1      -4.803  -5.236   1.243  0.00  0.00     0.030 A 
ATOM      8  C   UNL d   1      -5.491  -6.288   1.866  0.00  0.00     0.049 A 
ATOM      9  C   UNL d   1      -4.756  -7.266   2.551  0.00  0.00     0.032 A 
ATOM     10  C   UNL d   1      -3.353  -7.206   2.607  0.00  0.00     0.049 A 
ATOM     11  C   UNL d   1      -2.688  -6.139   1.975  0.00  0.00     0.030 A 
BRANCH   8  12
ATOM     12  C   UNL d   1      -6.993  -6.372   1.736  0.00  0.00     0.417 C 
ATOM     13  F   UNL d   1      -7.524  -7.508   2.266  0.00  0.00    -0.166 F 
ATOM     14  F   UNL d   1      -7.630  -5.336   2.346  0.00  0.00    -0.166 F 
ATOM     15  F   UNL d   1      -7.396  -6.345   0.435  0.00  0.00    -0.166 F 
ENDBRANCH   8  12
BRANCH  10  16
ATOM     16  C   UNL d   1      -2.556  -8.302   3.277  0.00  0.00     0.417 C 
ATOM     17  F   UNL d   1      -3.339  -9.301   3.779  0.00  0.00    -0.166 F 
ATOM     18  F   UNL d   1      -1.688  -8.912   2.424  0.00  0.00    -0.166 F 
ATOM     19  F   UNL d   1      -1.812  -7.854   4.324  0.00  0.00    -0.166 F 
ENDBRANCH  10  16
ENDBRANCH   1   6
BRANCH   3  20
ATOM     20  C   UNL d   1       0.226  -2.121   0.155  0.00  0.00     0.073 C 
ATOM     21  C   UNL d   1       1.329  -2.629   0.718  0.00  0.00     0.113 A 
ATOM     22  N   UNL d   1       2.483  -1.891   0.861  0.00  0.00    -0.331 N 
ATOM     23  C   UNL d   1       1.543  -4.010   1.253  0.00  0.00     0.316 A 
ATOM     24  C   UNL d   1       3.281  -2.716   1.457  0.00  0.00     0.162 A 
ATOM     25  HN  UNL d   1       2.664  -0.931   0.568  1.00  0.00     0.168 HD
ATOM     26  O   UNL d   1       2.820  -3.956   1.724  0.00  0.00    -0.256 OA
ATOM     27  O   UNL d   1       0.836  -4.993   1.254  0.00  0.00    -0.257 OA
BRANCH  24  28
ATOM     28  C   UNL d   1       4.663  -2.462   1.896  0.00  0.00     0.015 A 
ATOM     29  C   UNL d   1       5.229  -1.200   1.682  0.00  0.00     0.016 A 
ATOM     30  C   UNL d   1       6.525  -0.932   2.126  0.00  0.00     0.001 A 
ATOM     31  C   UNL d   1       7.258  -1.921   2.782  0.00  0.00     0.000 A 
ATOM     32  C   UNL d   1       6.702  -3.183   2.988  0.00  0.00     0.001 A 
ATOM     33  C   UNL d   1       5.407  -3.456   2.545  0.00  0.00     0.016 A 
ENDBRANCH  24  28
ENDBRANCH   3  20
TORSDOF 5
