REMARK  1 active torsions:
REMARK  status: ('A' for Active; 'I' for Inactive)
REMARK       I    between atoms: N_2  and  C_1 
REMARK       I    between atoms: N_3  and  C_1 
REMARK    1  A    between atoms: C_5  and  N_2 
ROOT
ATOM      1  C   UNL d   1       0.914   2.325  -0.891  0.00  0.00     0.036 A 
ATOM      2  C   UNL d   1       2.501   4.508  -1.726  0.00  0.00    -0.062 A 
ATOM      3  C   UNL d   1       0.625   3.623  -0.464  0.00  0.00     0.030 A 
ATOM      4  C   UNL d   1       2.026   2.126  -1.717  0.00  0.00     0.030 A 
ATOM      5  C   UNL d   1       1.405   4.704  -0.881  0.00  0.00     0.009 A 
ATOM      6  C   UNL d   1       2.812   3.208  -2.134  0.00  0.00     0.009 A 
ATOM      7  C   UNL d   1       3.318   5.685  -2.168  0.00  0.00     0.048 C 
ENDROOT
BRANCH   1   8
ATOM      8  N   UNL d   1       0.154   1.192  -0.515  0.00  0.00    -0.309 N 
ATOM      9  C   UNL d   1      -1.089   1.199   0.076  0.00  0.00     0.322 C 
ATOM     10  N   UNL d   1      -1.549  -0.042   0.510  0.00  0.00    -0.343 N 
ATOM     11  O   UNL d   1      -1.778   2.209   0.214  0.00  0.00    -0.247 OA
ATOM     12  C   UNL d   1      -2.894  -0.111   1.067  0.00  0.00     0.154 C 
ATOM     13  C   UNL d   1      -0.774  -1.270   0.618  0.00  0.00     0.154 C 
ATOM     14  H   UNL d   1       0.448   0.319  -0.919  0.00  0.00     0.170 HD
ENDBRANCH   1   8
TORSDOF 1
