REMARK  8 active torsions:
REMARK  status: ('A' for Active; 'I' for Inactive)
REMARK    1  A    between atoms: C_7  and  N_1 
REMARK    2  A    between atoms: C_13  and  C_7 
REMARK    3  A    between atoms: C_15  and  C_13 
REMARK    4  A    between atoms: O_21  and  C_13 
REMARK    5  A    between atoms: N_17  and  C_15 
REMARK    6  A    between atoms: C_22  and  N_17 
REMARK    7  A    between atoms: C_24  and  C_22 
REMARK    8  A    between atoms: C_25  and  C_24 
ROOT
ATOM      1  N   UNL d   1      -0.368  -1.142   0.799  0.00  0.00    -0.342 N 
ATOM      2  C   UNL d   1      -0.707  -0.536  -0.410  0.00  0.00     0.064 A 
ATOM      3  C   UNL d   1      -0.251   0.793  -0.314  0.00  0.00     0.006 A 
ATOM      4  C   UNL d   1       0.210   1.012   1.013  0.00  0.00     0.005 A 
ATOM      5  C   UNL d   1       0.119  -0.197   1.696  0.00  0.00     0.046 A 
ATOM      6  C   UNL d   1      -1.363  -0.964  -1.591  0.00  0.00     0.040 A 
ATOM      7  C   UNL d   1      -1.508  -0.062  -2.662  0.00  0.00     0.040 A 
ATOM      8  C   UNL d   1       0.477  -0.298   3.054  0.00  0.00     0.032 A 
ATOM      9  C   UNL d   1      -0.372   1.662  -1.422  0.00  0.00     0.033 A 
ATOM     10  C   UNL d   1       0.656   2.164   1.697  0.00  0.00     0.033 A 
ATOM     11  C   UNL d   1      -0.995   1.223  -2.582  0.00  0.00     0.013 A 
ATOM     12 BR   UNL d   1      -2.140  -2.673  -1.838  0.00  0.00    -0.049 Br
ATOM     13  C   UNL d   1       0.968   2.073   3.054  0.00  0.00     0.011 A 
ATOM     14  C   UNL d   1       0.888   0.859   3.723  0.00  0.00     0.021 A 
ATOM     15 BR   UNL d   1      -1.177   2.402  -4.049  0.00  0.00    -0.051 Br
ATOM     16 BR   UNL d   1       1.463   3.634   4.000  0.00  0.00    -0.051 Br
ENDROOT
BRANCH   1  17
ATOM     17  C   UNL d   1      -0.559  -2.539   1.170  0.00  0.00     0.163 C 
BRANCH  17  18
ATOM     18  C   UNL d   1       0.554  -3.493   0.710  0.00  0.00     0.164 C 
BRANCH  18  19
ATOM     19  C   UNL d   1       1.848  -3.399   1.556  0.00  0.00     0.305 C 
BRANCH  19  20
ATOM     20  N   UNL d   1       2.839  -4.446   1.232  0.00  0.00     0.086 N 
ATOM     21  C   UNL d   1       3.968  -4.406   2.166  0.00  0.00     0.310 C 
BRANCH  20  22
ATOM     22  C   UNL d   1       3.289  -4.530  -0.165  0.00  0.00     0.272 C 
BRANCH  22  23
ATOM     23  C   UNL d   1       4.207  -3.445  -0.756  0.00  0.00     0.030 C 
BRANCH  23  24
ATOM     24  C   UNL d   1       3.519  -2.199  -1.325  0.00  0.00    -0.003 C 
ATOM     25  C   UNL d   1       3.632  -0.957  -0.456  0.00  0.00     0.005 C 
ENDBRANCH  23  24
ENDBRANCH  22  23
ENDBRANCH  20  22
ENDBRANCH  19  20
ENDBRANCH  18  19
BRANCH  18  26
ATOM     26  O   UNL d   1       0.060  -4.841   0.826  0.00  0.00    -0.392 OA
ATOM     27  H   UNL d   1       0.861  -5.400   0.902  0.00  0.00     0.210 HD
ENDBRANCH  18  26
ENDBRANCH  17  18
ENDBRANCH   1  17
TORSDOF 8
