REMARK  1 active torsions:
REMARK  status: ('A' for Active; 'I' for Inactive)
REMARK    1  A    between atoms: N_8  and  C_1 
ROOT
ATOM      1  C   UNL d   1       0.035  -1.499  -0.017  0.00  0.00     0.026 A 
ATOM      2  N   UNL d   1       0.012   1.299   0.072  0.00  0.00    -0.358 N 
ATOM      3  HN  UNL d   1      -0.003   2.317   0.132  1.00  0.00     0.166 HD
ATOM      4  C   UNL d   1      -1.190  -0.800  -0.000  0.00  0.00    -0.014 A 
ATOM      5  C   UNL d   1       1.258  -0.768  -0.031  0.00  0.00     0.012 A 
ATOM      6  C   UNL d   1      -1.143   0.598   0.027  0.00  0.00     0.017 A 
ATOM      7  C   UNL d   1       1.175   0.638   0.038  0.00  0.00     0.044 A 
ATOM      8  C   UNL d   1      -2.516  -1.521  -0.051  0.00  0.00     0.042 C 
ATOM      9  C   UNL d   1       2.547  -1.359  -0.097  0.00  0.00     0.015 A 
ATOM     10  C   UNL d   1      -2.395   1.438   0.056  0.00  0.00     0.057 C 
ATOM     11  C   UNL d   1       2.345   1.387   0.060  0.00  0.00     0.030 A 
ATOM     12  C   UNL d   1      -3.711  -0.654   0.341  0.00  0.00     0.005 C 
ATOM     13  C   UNL d   1       3.708  -0.586  -0.068  0.00  0.00     0.001 A 
ATOM     14  C   UNL d   1      -3.647   0.684  -0.376  0.00  0.00     0.006 C 
ATOM     15  C   UNL d   1       3.607   0.794   0.015  0.00  0.00     0.002 A 
ENDROOT
BRANCH   1  16
ATOM     16  N   UNL d   1       0.039  -2.899  -0.244  0.00  0.00    -0.302 NA
ATOM     17  H   UNL d   1      -0.805  -3.378   0.044  0.00  0.00     0.124 HD
ATOM     18  H   UNL d   1       0.862  -3.369   0.110  0.00  0.00     0.124 HD
ENDBRANCH   1  16
TORSDOF 1
