REMARK  6 active torsions:
REMARK  status: ('A' for Active; 'I' for Inactive)
REMARK    1  A    between atoms: C_7  and  S_1 
REMARK    2  A    between atoms: C_16  and  S_1 
REMARK    3  A    between atoms: C_8  and  C_4 
REMARK    4  A    between atoms: C_5  and  C_7 
REMARK    5  A    between atoms: C_6  and  C_12 
REMARK    6  A    between atoms: C_19  and  C_16 
ROOT
ATOM      1  C   UNL d   1       0.386  -0.591  -1.482  0.00  0.00     0.205 C 
ENDROOT
BRANCH   1   2
ATOM      2  C   UNL d   1       0.908   0.006  -2.747  0.00  0.00     0.065 A 
ATOM      3  N   UNL d   1       1.361  -0.713  -3.759  0.00  0.00    -0.352 N 
ATOM      4  C   UNL d   1       1.658   0.095  -4.853  0.00  0.00     0.050 A 
ATOM      5  HN  UNL d   1       1.478  -1.726  -3.741  1.00  0.00     0.166 HD
ATOM      6  C   UNL d   1       1.394   1.437  -4.647  0.00  0.00     0.081 A 
ATOM      7  S   UNL d   1       0.724   1.683  -3.093  0.00  0.00    -0.085 SA
BRANCH   4   8
ATOM      8  C   UNL d   1       2.126  -0.447  -6.136  0.00  0.00    -0.003 A 
ATOM      9  C   UNL d   1       3.006  -1.542  -6.245  0.00  0.00    -0.049 A 
ATOM     10  C   UNL d   1       3.341  -2.036  -7.529  0.00  0.00     0.014 A 
ATOM     11  C   UNL d   1       3.642  -2.252  -5.078  0.00  0.00     0.049 C 
ATOM     12  C   UNL d   1       2.838  -1.456  -8.700  0.00  0.00    -0.061 A 
ATOM     13  C   UNL d   1       1.996  -0.355  -8.589  0.00  0.00     0.007 A 
ATOM     14  C   UNL d   1       3.190  -2.033 -10.040  0.00  0.00     0.048 C 
ATOM     15  C   UNL d   1       1.645   0.138  -7.328  0.00  0.00     0.015 A 
ENDBRANCH   4   8
ENDBRANCH   1   2
BRANCH   1  16
ATOM     16  S   UNL d   1       1.233   0.037  -0.040  0.00  0.00     0.154 S 
ATOM     17  O   UNL d   1       0.951   1.455   0.094  0.00  0.00    -0.227 OA
ATOM     18  O   UNL d   1       2.596  -0.463  -0.051  0.00  0.00    -0.227 OA
BRANCH  16  19
ATOM     19  C   UNL d   1       0.344  -0.803   1.268  0.00  0.00     0.179 C 
BRANCH  19  20
ATOM     20  C   UNL d   1       0.890  -0.437   2.627  0.00  0.00    -0.043 A 
ATOM     21  C   UNL d   1       1.928  -1.185   3.204  0.00  0.00     0.024 A 
ATOM     22  C   UNL d   1       2.406  -0.893   4.493  0.00  0.00     0.048 A 
ATOM     23  C   UNL d   1       1.827   0.164   5.208  0.00  0.00     0.016 A 
ATOM     24  C   UNL d   1       0.809   0.926   4.640  0.00  0.00     0.001 A 
ATOM     25  C   UNL d   1       0.346   0.633   3.356  0.00  0.00     0.008 A 
BRANCH  22  26
ATOM     26  C   UNL d   1       3.526  -1.696   5.115  0.00  0.00     0.417 C 
ATOM     27  F   UNL d   1       3.996  -2.690   4.311  0.00  0.00    -0.166 F 
ATOM     28  F   UNL d   1       4.604  -0.930   5.435  0.00  0.00    -0.166 F 
ATOM     29  F   UNL d   1       3.144  -2.306   6.272  0.00  0.00    -0.166 F 
ENDBRANCH  22  26
ENDBRANCH  19  20
ENDBRANCH  16  19
ENDBRANCH   1  16
TORSDOF 6
