REMARK  2 active torsions:
REMARK  status: ('A' for Active; 'I' for Inactive)
REMARK    1  A    between atoms: C_6  and  C_7 
REMARK       I    between atoms: N_8  and  C_6 
REMARK    2  A    between atoms: C_11  and  N_8 
ROOT
ATOM      1  C   UNL d   1      -1.024  -0.593   0.011  0.00  0.00     0.042 A 
ATOM      2  C   UNL d   1       0.180  -1.467  -0.015  0.00  0.00     0.195 A 
ATOM      3  C   UNL d   1      -0.520   0.735   0.031  0.00  0.00    -0.010 A 
ATOM      4  C   UNL d   1       1.373  -0.603  -0.008  0.00  0.00     0.026 A 
ATOM      5  C   UNL d   1       0.928   0.722   0.024  0.00  0.00    -0.011 A 
ATOM      6  C   UNL d   1      -2.388  -0.871  -0.003  0.00  0.00     0.047 A 
ATOM      7  O   UNL d   1       0.215  -2.680  -0.045  0.00  0.00    -0.287 OA
ATOM      8  C   UNL d   1      -1.375   1.823   0.040  0.00  0.00     0.013 A 
ATOM      9  C   UNL d   1       2.708  -0.957  -0.040  0.00  0.00     0.016 A 
ATOM     10  C   UNL d   1       1.855   1.751   0.029  0.00  0.00     0.013 A 
ATOM     11  C   UNL d   1      -3.238   0.256  -0.007  0.00  0.00     0.018 A 
ATOM     12  C   UNL d   1      -2.746   1.575   0.014  0.00  0.00     0.002 A 
ATOM     13  C   UNL d   1       3.639   0.081  -0.041  0.00  0.00     0.001 A 
ATOM     14  C   UNL d   1       3.217   1.422  -0.005  0.00  0.00     0.001 A 
ENDROOT
BRANCH   6  15
ATOM     15  C   UNL d   1      -3.067  -2.217  -0.018  0.00  0.00     0.253 C 
ATOM     16  N   UNL d   1      -2.293  -3.345   0.087  0.00  0.00    -0.349 N 
ATOM     17  H   UNL d   1      -1.284  -3.238   0.055  0.00  0.00     0.163 HD
ATOM     18  O   UNL d   1      -4.287  -2.260  -0.120  0.00  0.00    -0.268 OA
BRANCH  16  19
ATOM     19  C   UNL d   1      -2.757  -4.743  -0.006  0.00  0.00     0.022 C 
ATOM     20  C   UNL d   1      -3.409  -5.017  -1.371  0.00  0.00     0.037 C 
ATOM     21  C   UNL d   1      -1.522  -5.652   0.173  0.00  0.00     0.037 C 
ATOM     22  C   UNL d   1      -3.754  -5.095   1.110  0.00  0.00     0.037 C 
ENDBRANCH  16  19
ENDBRANCH   6  15
TORSDOF 2
