REMARK  14 active torsions:
REMARK  status: ('A' for Active; 'I' for Inactive)
REMARK    1  A    between atoms: C_7  and  S_1 
REMARK    2  A    between atoms: N_9  and  S_1 
REMARK    3  A    between atoms: S_2  and  C_8 
REMARK    4  A    between atoms: N_10  and  S_2 
REMARK       I    between atoms: C_3  and  N_6 
REMARK    5  A    between atoms: C_16  and  C_3 
REMARK    6  A    between atoms: C_4  and  C_15 
REMARK       I    between atoms: N_5  and  C_4 
REMARK    7  A    between atoms: C_31  and  N_9 
REMARK    8  A    between atoms: C_32  and  N_9 
REMARK    9  A    between atoms: C_33  and  N_10 
REMARK   10  A    between atoms: C_34  and  N_10 
REMARK   11  A    between atoms: C_35  and  C_31 
REMARK   12  A    between atoms: C_37  and  C_32 
REMARK   13  A    between atoms: C_36  and  C_33 
REMARK   14  A    between atoms: C_38  and  C_34 
ROOT
ATOM      1  C   UNL d   1      -0.911   3.910   8.561  0.00  0.00     0.253 C 
ATOM      2  C   UNL d   1      -0.671  -0.904   5.784  0.00  0.00     0.253 C 
ATOM      3  N   UNL d   1      -0.951   0.230   6.543  0.00  0.00    -0.345 N 
ATOM      4  N   UNL d   1      -0.613   2.815   7.755  0.00  0.00    -0.345 N 
ATOM      5  C   UNL d   1      -1.285   2.710   6.463  0.00  0.00     0.146 C 
ATOM      6  C   UNL d   1      -1.891   1.321   6.236  0.00  0.00     0.146 C 
ATOM      7  C   UNL d   1       0.339   1.727   8.030  0.00  0.00     0.146 C 
ATOM      8  C   UNL d   1      -0.296   0.349   7.843  0.00  0.00     0.146 C 
ATOM      9  O   UNL d   1       0.205  -1.705   6.116  0.00  0.00    -0.267 OA
ATOM     10  O   UNL d   1      -1.805   4.710   8.290  0.00  0.00    -0.267 OA
ENDROOT
BRANCH   2  11
ATOM     11  C   UNL d   1      -1.385  -1.182   4.515  0.00  0.00     0.032 A 
ATOM     12  C   UNL d   1      -0.672  -1.846   3.508  0.00  0.00     0.018 A 
ATOM     13  C   UNL d   1      -1.299  -2.195   2.313  0.00  0.00     0.026 A 
ATOM     14  C   UNL d   1      -2.620  -1.801   2.082  0.00  0.00     0.074 A 
ATOM     15  C   UNL d   1      -3.345  -1.158   3.089  0.00  0.00     0.026 A 
ATOM     16  C   UNL d   1      -2.742  -0.907   4.322  0.00  0.00     0.018 A 
BRANCH  14  17
ATOM     17  S   UNL d   1      -3.472  -2.344   0.619  0.00  0.00     0.243 S 
ATOM     18  O   UNL d   1      -4.864  -2.021   0.812  0.00  0.00    -0.206 OA
ATOM     19  O   UNL d   1      -3.064  -3.721   0.380  0.00  0.00    -0.206 OA
BRANCH  17  20
ATOM     20  N   UNL d   1      -2.853  -1.386  -0.704  0.00  0.00    -0.206 NA
BRANCH  20  21
ATOM     21  C   UNL d   1      -1.364  -1.553  -0.888  0.00  0.00     0.107 C 
BRANCH  21  22
ATOM     22  C   UNL d   1      -0.760  -0.806  -2.079  0.00  0.00     0.011 C 
ATOM     23  C   UNL d   1       0.762  -0.902  -2.067  0.00  0.00     0.006 C 
ENDBRANCH  21  22
ENDBRANCH  20  21
BRANCH  20  24
ATOM     24  C   UNL d   1      -3.621  -1.665  -1.972  0.00  0.00     0.107 C 
BRANCH  24  25
ATOM     25  C   UNL d   1      -5.020  -1.050  -1.996  0.00  0.00     0.011 C 
ATOM     26  C   UNL d   1      -5.018   0.442  -1.702  0.00  0.00     0.006 C 
ENDBRANCH  24  25
ENDBRANCH  20  24
ENDBRANCH  17  20
ENDBRANCH  14  17
ENDBRANCH   2  11
BRANCH   1  27
ATOM     27  C   UNL d   1      -0.158   4.136   9.817  0.00  0.00     0.032 A 
ATOM     28  C   UNL d   1       1.229   3.979   9.874  0.00  0.00     0.018 A 
ATOM     29  C   UNL d   1       1.901   4.151  11.079  0.00  0.00     0.026 A 
ATOM     30  C   UNL d   1       1.194   4.517  12.227  0.00  0.00     0.074 A 
ATOM     31  C   UNL d   1      -0.180   4.781  12.155  0.00  0.00     0.026 A 
ATOM     32  C   UNL d   1      -0.855   4.588  10.946  0.00  0.00     0.018 A 
BRANCH  30  33
ATOM     33  S   UNL d   1       2.112   4.906  13.698  0.00  0.00     0.243 S 
ATOM     34  O   UNL d   1       3.343   5.535  13.261  0.00  0.00    -0.206 OA
ATOM     35  O   UNL d   1       1.199   5.604  14.580  0.00  0.00    -0.206 OA
BRANCH  33  36
ATOM     36  N   UNL d   1       2.558   3.391  14.449  0.00  0.00    -0.206 NA
BRANCH  36  37
ATOM     37  C   UNL d   1       3.201   2.414  13.496  0.00  0.00     0.107 C 
BRANCH  37  38
ATOM     38  C   UNL d   1       3.586   1.059  14.100  0.00  0.00     0.011 C 
ATOM     39  C   UNL d   1       2.405   0.301  14.684  0.00  0.00     0.006 C 
ENDBRANCH  37  38
ENDBRANCH  36  37
BRANCH  36  40
ATOM     40  C   UNL d   1       3.454   3.630  15.648  0.00  0.00     0.107 C 
BRANCH  40  41
ATOM     41  C   UNL d   1       2.830   4.451  16.772  0.00  0.00     0.011 C 
ATOM     42  C   UNL d   1       1.568   3.817  17.333  0.00  0.00     0.006 C 
ENDBRANCH  40  41
ENDBRANCH  36  40
ENDBRANCH  33  36
ENDBRANCH  30  33
ENDBRANCH   1  27
TORSDOF 14
