REMARK  3 active torsions:
REMARK  status: ('A' for Active; 'I' for Inactive)
REMARK    1  A    between atoms: N_3  and  C_1 
REMARK    2  A    between atoms: C_5  and  N_3 
REMARK    3  A    between atoms: C_7  and  C_5 
ROOT
ATOM      1  C   UNL d   1      -1.247   1.142  -0.622  0.00  0.00     0.160 C 
ENDROOT
BRANCH   1   2
ATOM      2  N   UNL d   1       0.010   0.616  -1.133  0.00  0.00    -0.363 N 
ATOM      3  H   UNL d   1       0.362   1.035  -1.980  0.00  0.00     0.162 HD
BRANCH   2   4
ATOM      4  C   UNL d   1       0.638  -0.504  -0.671  0.00  0.00     0.165 C 
ATOM      5  S   UNL d   1       0.163  -1.480   0.586  0.00  0.00    -0.041 SA
ATOM      6  N   UNL d   1       1.765  -0.802  -1.364  0.00  0.00    -0.376 N 
ATOM      7  H   UNL d   1       2.328  -1.579  -1.037  0.00  0.00     0.158 HD
ATOM      8  H   UNL d   1       2.191  -0.161  -2.014  0.00  0.00     0.158 HD
ENDBRANCH   2   4
ENDBRANCH   1   2
BRANCH   1   9
ATOM      9  C   UNL d   1      -1.659   2.387  -1.364  0.00  0.00    -0.040 A 
ATOM     10  C   UNL d   1      -2.450   2.295  -2.520  0.00  0.00     0.012 A 
ATOM     11  C   UNL d   1      -2.824   3.448  -3.212  0.00  0.00     0.043 A 
ATOM     12  C   UNL d   1      -2.398   4.690  -2.757  0.00  0.00     0.116 A 
ATOM     13  C   UNL d   1      -1.604   4.802  -1.623  0.00  0.00     0.043 A 
ATOM     14  F   UNL d   1      -2.759   5.795  -3.423  0.00  0.00    -0.206 F 
ATOM     15  C   UNL d   1      -1.229   3.651  -0.928  0.00  0.00     0.012 A 
ENDBRANCH   1   9
TORSDOF 3
