REMARK  5 active torsions:
REMARK  status: ('A' for Active; 'I' for Inactive)
REMARK    1  A    between atoms: C_2  and  S_1 
REMARK    2  A    between atoms: N_13  and  S_1 
REMARK    3  A    between atoms: C_3  and  C_7 
REMARK    4  A    between atoms: C_19  and  N_13 
REMARK    5  A    between atoms: C_16  and  C_19 
ROOT
ATOM      1  C   UNL d   1       0.385   0.832  -1.629  0.00  0.00     0.120 A 
ATOM      2  S   UNL d   1       0.886   2.448  -1.900  0.00  0.00    -0.074 SA
ATOM      3  C   UNL d   1       0.015   2.562  -3.360  0.00  0.00     0.033 A 
ATOM      4  C   UNL d   1      -0.420   0.383  -2.660  0.00  0.00     0.034 A 
ATOM      5  C   UNL d   1      -0.642   1.385  -3.652  0.00  0.00     0.023 A 
ENDROOT
BRANCH   1   6
ATOM      6  S   UNL d   1       0.983   0.035  -0.145  0.00  0.00     0.265 S 
ATOM      7  O   UNL d   1       1.690   1.046   0.609  0.00  0.00    -0.200 OA
ATOM      8  O   UNL d   1       1.621  -1.175  -0.612  0.00  0.00    -0.200 OA
BRANCH   6   9
ATOM      9  N   UNL d   1      -0.368  -0.381   0.771  0.00  0.00    -0.315 N 
ATOM     10  H   UNL d   1      -1.006   0.399   0.910  0.00  0.00     0.172 HD
BRANCH   9  11
ATOM     11  C   UNL d   1      -0.985  -1.682   0.520  0.00  0.00     0.136 C 
BRANCH  11  12
ATOM     12  C   UNL d   1      -2.160  -1.846   1.441  0.00  0.00     0.004 A 
ATOM     13  C   UNL d   1      -1.992  -1.779   2.941  0.00  0.00     0.007 A 
ATOM     14  C   UNL d   1      -2.307  -3.091   2.282  0.00  0.00     0.007 A 
ENDBRANCH  11  12
ENDBRANCH   9  11
ENDBRANCH   6   9
ENDBRANCH   1   6
BRANCH   3  15
ATOM     15  C   UNL d   1      -0.057   3.777  -4.238  0.00  0.00     0.056 A 
ATOM     16  N   UNL d   1      -0.866   3.784  -5.364  0.00  0.00    -0.353 N 
ATOM     17  C   UNL d   1      -0.800   4.956  -5.959  0.00  0.00     0.047 A 
ATOM     18  HN  UNL d   1      -1.430   2.997  -5.684  1.00  0.00     0.166 HD
ATOM     19  C   UNL d   1      -1.575   5.325  -7.174  0.00  0.00     0.076 C 
ATOM     20  S   UNL d   1       0.263   6.095  -5.234  0.00  0.00    -0.087 SA
ATOM     21  C   UNL d   1       0.633   4.951  -4.011  0.00  0.00     0.082 A 
ENDBRANCH   3  15
TORSDOF 5
