REMARK  4 active torsions:
REMARK  status: ('A' for Active; 'I' for Inactive)
REMARK    1  A    between atoms: C_8  and  N_6 
REMARK    2  A    between atoms: C_10  and  C_8 
REMARK    3  A    between atoms: C_13  and  C_10 
REMARK    4  A    between atoms: N_16  and  N_11 
ROOT
ATOM      1  C   UNL d   1       4.750   0.954  -0.049  0.00  0.00     0.226 C 
ENDROOT
BRANCH   1   2
ATOM      2  N   UNL d   1       5.717  -0.103  -0.231  0.00  0.00    -0.197 N 
ATOM      3  N   UNL d   1       5.326  -1.361  -0.515  0.00  0.00    -0.116 N 
ATOM      4  C   UNL d   1       6.420  -2.048  -0.162  0.00  0.00     0.709 A 
ATOM      5  HN  UNL d   1       4.442  -1.698  -0.895  1.00  0.00     0.207 HD
ATOM      6  N   UNL d   1       7.429  -1.221   0.280  0.00  0.00    -0.113 N 
ATOM      7  N   UNL d   1       6.572  -3.398  -0.161  0.00  0.00    -0.215 N 
ATOM      8  N   UNL d   1       6.968   0.018   0.235  0.00  0.00     0.011 NA
ATOM      9  HN  UNL d   1       8.359  -1.510   0.585  1.00  0.00     0.203 HD
ATOM     10  C   UNL d   1       5.704  -4.181  -1.048  0.00  0.00     0.141 C 
ATOM     11  C   UNL d   1       7.913  -3.945   0.061  0.00  0.00     0.141 C 
ATOM     12  C   UNL d   1       5.606  -5.627  -0.566  0.00  0.00     0.020 C 
ATOM     13  C   UNL d   1       6.985  -6.250  -0.378  0.00  0.00     0.003 C 
ATOM     14  C   UNL d   1       7.832  -5.390   0.552  0.00  0.00     0.020 C 
ENDBRANCH   1   2
BRANCH   1  15
ATOM     15  C   UNL d   1       4.543   1.776  -1.312  0.00  0.00     0.051 C 
ATOM     16  N   UNL d   1       5.207   2.897  -1.347  0.00  0.00    -0.325 N 
ATOM     17  HN  UNL d   1       5.915   3.076  -0.634  1.00  0.00     0.180 HD
BRANCH  16  18
ATOM     18  N   UNL d   1       4.987   3.825  -2.292  0.00  0.00    -0.250 NA
ATOM     19  H   UNL d   1       5.806   4.428  -2.397  0.00  0.00     0.143 HD
ATOM     20  H   UNL d   1       4.715   3.500  -3.212  0.00  0.00     0.143 HD
ENDBRANCH  16  18
BRANCH  15  21
ATOM     21  C   UNL d   1       3.594   1.232  -2.341  0.00  0.00    -0.011 A 
ATOM     22  C   UNL d   1       2.386   0.639  -1.947  0.00  0.00     0.015 A 
ATOM     23  C   UNL d   1       1.521   0.083  -2.897  0.00  0.00     0.024 A 
ATOM     24  C   UNL d   1       1.843   0.144  -4.250  0.00  0.00     0.034 A 
ATOM     25  C   UNL d   1       3.035   0.736  -4.659  0.00  0.00     0.024 A 
ATOM     26 CL   UNL d   1       0.774  -0.530  -5.416  0.00  0.00    -0.084 Cl
ATOM     27  C   UNL d   1       3.922   1.252  -3.705  0.00  0.00     0.015 A 
ENDBRANCH  15  21
ENDBRANCH   1  15
TORSDOF 4
