REMARK  4 active torsions:
REMARK  status: ('A' for Active; 'I' for Inactive)
REMARK    1  A    between atoms: O_7  and  N_2 
REMARK    2  A    between atoms: C_5  and  O_7 
REMARK    3  A    between atoms: C_9  and  C_5 
REMARK    4  A    between atoms: O_23  and  C_18 
ROOT
ATOM      1  C   UNL d   1       0.017   0.725   0.105  0.00  0.00     0.008 A 
ATOM      2  N   UNL d   1      -1.200   2.756   0.468  0.00  0.00    -0.261 N 
ATOM      3  HN  UNL d   1      -0.353   3.195   0.828  1.00  0.00     0.194 HD
ATOM      4  C   UNL d   1      -1.257   1.507   0.115  0.00  0.00     0.045 C 
ATOM      5  C   UNL d   1       0.038  -0.673  -0.027  0.00  0.00     0.013 A 
ATOM      6  S   UNL d   1      -1.418  -1.697  -0.147  0.00  0.00    -0.129 SA
ATOM      7  C   UNL d   1       1.227   1.435   0.190  0.00  0.00     0.057 A 
ATOM      8  C   UNL d   1       1.277  -1.334  -0.085  0.00  0.00     0.022 A 
ATOM      9  C   UNL d   1       2.437   0.757   0.130  0.00  0.00     0.117 A 
ATOM     10  C   UNL d   1      -2.527   0.800  -0.319  0.00  0.00     0.070 C 
ATOM     11  C   UNL d   1      -2.673  -0.517   0.417  0.00  0.00     0.085 C 
ATOM     12  C   UNL d   1       2.474  -0.620  -0.008  0.00  0.00     0.043 A 
ATOM     13  F   UNL d   1       3.583   1.447   0.193  0.00  0.00    -0.206 F 
ENDROOT
BRANCH   2  14
ATOM     14  O   UNL d   1      -2.411   3.448   0.309  0.00  0.00    -0.195 OA
BRANCH  14  15
ATOM     15  C   UNL d   1      -2.536   4.350   1.325  0.00  0.00     0.315 C 
ATOM     16  O   UNL d   1      -2.337   4.132   2.512  0.00  0.00    -0.257 OA
BRANCH  15  17
ATOM     17  C   UNL d   1      -2.955   5.676   0.796  0.00  0.00     0.041 A 
ATOM     18  C   UNL d   1      -3.267   6.687   1.712  0.00  0.00     0.020 A 
ATOM     19  C   UNL d   1      -3.593   7.968   1.261  0.00  0.00     0.038 A 
ATOM     20  C   UNL d   1      -3.612   8.261  -0.105  0.00  0.00     0.068 A 
ATOM     21  C   UNL d   1      -3.297   7.257  -1.022  0.00  0.00     0.038 A 
ATOM     22  C   UNL d   1      -2.971   5.969  -0.575  0.00  0.00     0.020 A 
BRANCH  20  23
ATOM     23  O   UNL d   1      -3.943   9.551  -0.409  0.00  0.00    -0.356 OA
ATOM     24  C   UNL d   1      -4.011   9.894  -1.787  0.00  0.00     0.210 C 
ENDBRANCH  20  23
ENDBRANCH  15  17
ENDBRANCH  14  15
ENDBRANCH   2  14
TORSDOF 4
