REMARK  8 active torsions:
REMARK  status: ('A' for Active; 'I' for Inactive)
REMARK    1  A    between atoms: C_5  and  C_1 
REMARK    2  A    between atoms: C_2  and  N_11 
REMARK    3  A    between atoms: S_15  and  C_2 
REMARK    4  A    between atoms: N_3  and  N_6 
REMARK    5  A    between atoms: O_19  and  C_5 
REMARK    6  A    between atoms: N_11  and  C_8 
REMARK    7  A    between atoms: C_13  and  C_12 
REMARK    8  A    between atoms: C_25  and  O_19 
ROOT
ATOM      1  C   UNL d   1      -3.376  -0.515   0.161  0.00  0.00     0.135 C 
ATOM      2  C   UNL d   1      -2.032  -0.529   0.130  0.00  0.00     0.119 C 
ATOM      3  C   UNL d   1      -4.115  -0.663   1.363  0.00  0.00     0.107 C 
ATOM      4  N   UNL d   1      -4.679  -0.783   2.368  0.00  0.00    -0.191 NA
ENDROOT
BRANCH   1   5
ATOM      5  C   UNL d   1      -4.055  -0.244  -1.129  0.00  0.00     0.305 C 
ATOM      6  O   UNL d   1      -3.475  -0.152  -2.203  0.00  0.00    -0.258 OA
BRANCH   5   7
ATOM      7  O   UNL d   1      -5.383  -0.033  -0.943  0.00  0.00    -0.317 OA
BRANCH   7   8
ATOM      8  C   UNL d   1      -6.066   0.564  -2.056  0.00  0.00     0.174 C 
ATOM      9  C   UNL d   1      -5.963   2.073  -1.921  0.00  0.00     0.034 C 
ENDBRANCH   7   8
ENDBRANCH   5   7
ENDBRANCH   1   5
BRANCH   2  10
ATOM     10  N   UNL d   1      -1.105  -0.727   1.129  0.00  0.00    -0.344 N 
ATOM     11  H   UNL d   1      -1.438  -1.072   2.027  0.00  0.00     0.167 HD
BRANCH  10  12
ATOM     12  C   UNL d   1       0.273  -0.676   1.116  0.00  0.00     0.158 C 
ATOM     13  N   UNL d   1       1.020  -1.164   2.063  0.00  0.00    -0.280 N 
ATOM     14  HN  UNL d   1       2.039  -1.112   2.060  1.00  0.00     0.189 HD
BRANCH  13  15
ATOM     15  N   UNL d   1       0.281  -1.767   3.086  0.00  0.00    -0.302 N 
ATOM     16  C   UNL d   1       0.988  -2.476   3.922  0.00  0.00     0.032 C 
ATOM     17  C   UNL d   1       2.490  -2.673   3.810  0.00  0.00     0.070 C 
ATOM     18  HN  UNL d   1      -0.730  -1.661   3.170  1.00  0.00     0.186 HD
BRANCH  16  19
ATOM     19  C   UNL d   1       0.282  -3.139   5.075  0.00  0.00    -0.013 A 
ATOM     20  C   UNL d   1      -1.114  -3.033   5.177  0.00  0.00     0.015 A 
ATOM     21  C   UNL d   1      -1.799  -3.612   6.251  0.00  0.00     0.020 A 
ATOM     22  C   UNL d   1      -1.090  -4.303   7.229  0.00  0.00     0.011 A 
ATOM     23  C   UNL d   1       0.295  -4.427   7.139  0.00  0.00     0.020 A 
ATOM     24 BR   UNL d   1      -2.009  -5.069   8.692  0.00  0.00    -0.051 Br
ATOM     25  C   UNL d   1       0.980  -3.848   6.064  0.00  0.00     0.015 A 
ENDBRANCH  16  19
ENDBRANCH  13  15
BRANCH  12  26
ATOM     26  S   UNL d   1       1.054   0.129  -0.249  0.00  0.00    -0.097 SA
ATOM     27  C   UNL d   1       2.794  -0.175   0.086  0.00  0.00     0.099 C 
ENDBRANCH  12  26
ENDBRANCH  10  12
ENDBRANCH   2  10
TORSDOF 8
