REMARK  5 active torsions:
REMARK  status: ('A' for Active; 'I' for Inactive)
REMARK    1  A    between atoms: C_2  and  N_1 
REMARK    2  A    between atoms: C_6  and  C_4 
REMARK    3  A    between atoms: O_7  and  C_8 
REMARK    4  A    between atoms: C_9  and  O_7 
REMARK    5  A    between atoms: C_14  and  C_9 
ROOT
ATOM      1  C   UNL d   1       0.210   3.792  -0.179  0.00  0.00    -0.035 A 
ATOM      2  C   UNL d   1      -1.156   6.254  -0.026  0.00  0.00     0.069 A 
ATOM      3  C   UNL d   1      -0.863   3.963   0.705  0.00  0.00     0.014 A 
ATOM      4  C   UNL d   1       0.621   4.887  -0.950  0.00  0.00     0.014 A 
ATOM      5  C   UNL d   1      -0.057   6.107  -0.870  0.00  0.00     0.037 A 
ATOM      6  C   UNL d   1      -1.546   5.184   0.779  0.00  0.00     0.037 A 
ENDROOT
BRANCH   2   7
ATOM      7  O   UNL d   1      -1.733   7.493  -0.032  0.00  0.00    -0.347 OA
BRANCH   7   8
ATOM      8  C   UNL d   1      -3.131   7.527   0.268  0.00  0.00     0.214 C 
BRANCH   8   9
ATOM      9  C   UNL d   1      -3.655   8.945   0.202  0.00  0.00    -0.034 A 
ATOM     10  C   UNL d   1      -4.983   9.181  -0.184  0.00  0.00     0.009 A 
ATOM     11  C   UNL d   1      -5.512  10.473  -0.155  0.00  0.00     0.001 A 
ATOM     12  C   UNL d   1      -4.722  11.542   0.265  0.00  0.00     0.000 A 
ATOM     13  C   UNL d   1      -3.402  11.321   0.651  0.00  0.00     0.001 A 
ATOM     14  C   UNL d   1      -2.872  10.030   0.623  0.00  0.00     0.009 A 
ENDBRANCH   8   9
ENDBRANCH   7   8
ENDBRANCH   2   7
BRANCH   1  15
ATOM     15  C   UNL d   1       0.890   2.490  -0.234  0.00  0.00     0.035 C 
ATOM     16  C   UNL d   1       1.450   2.021  -1.357  0.00  0.00     0.168 C 
BRANCH  16  17
ATOM     17  N   UNL d   1       2.088   0.727  -1.368  0.00  0.00    -0.127 N 
ATOM     18  O   UNL d   1       2.604   0.395  -2.440  0.00  0.00    -0.532 OA
ATOM     19  O   UNL d   1       2.080   0.046  -0.335  0.00  0.00    -0.532 OA
ENDBRANCH  16  17
ENDBRANCH   1  15
TORSDOF 5
