REMARK  3 active torsions:
REMARK  status: ('A' for Active; 'I' for Inactive)
REMARK    1  A    between atoms: C_4  and  C_1 
REMARK    2  A    between atoms: O_15  and  C_3 
REMARK    3  A    between atoms: C_13  and  N_7 
ROOT
ATOM      1  C   UNL d   1      -2.104   8.128   1.191  0.00  0.00    -0.078 C 
ATOM      2  C   UNL d   1      -3.146   8.536   1.630  0.00  0.00     0.018 C 
ATOM      3  C   UNL d   1      -0.897   7.611   0.641  0.00  0.00     0.019 A 
ATOM      4  C   UNL d   1       0.455   5.682   0.033  0.00  0.00     0.033 A 
ATOM      5  C   UNL d   1      -0.689   6.231   0.621  0.00  0.00     0.050 A 
ATOM      6  C   UNL d   1       1.223   7.940  -0.456  0.00  0.00     0.004 A 
ATOM      7  C   UNL d   1       0.067   8.470   0.108  0.00  0.00     0.021 A 
ATOM      8  C   UNL d   1       1.412   6.555  -0.499  0.00  0.00     0.029 A 
ENDROOT
BRANCH   4   9
ATOM      9  N   UNL d   1       0.722   4.299   0.005  0.00  0.00    -0.365 N 
ATOM     10  C   UNL d   1      -0.270   3.464  -0.028  0.00  0.00     0.102 C 
ATOM     11  HN  UNL d   1       1.683   3.958   0.011  1.00  0.00     0.165 HD
BRANCH  10  12
ATOM     12  C   UNL d   1      -0.062   2.004  -0.013  0.00  0.00     0.016 A 
ATOM     13  C   UNL d   1      -1.156   1.133  -0.034  0.00  0.00     0.099 A 
ATOM     14  C   UNL d   1      -0.938  -0.250  -0.022  0.00  0.00     0.069 A 
ATOM     15 CL   UNL d   1      -2.274  -1.341  -0.050  0.00  0.00    -0.081 Cl
ATOM     16  C   UNL d   1       0.357  -0.763   0.012  0.00  0.00     0.050 A 
ATOM     17  C   UNL d   1       1.439   0.114   0.036  0.00  0.00     0.036 A 
ATOM     18  C   UNL d   1       1.240   1.492   0.026  0.00  0.00     0.039 A 
ATOM     19 CL   UNL d   1       3.040  -0.514   0.073  0.00  0.00    -0.084 Cl
BRANCH  13  20
ATOM     20  O   UNL d   1      -2.430   1.636  -0.066  0.00  0.00    -0.358 OA
ATOM     21  H   UNL d   1      -3.050   0.879  -0.084  0.00  0.00     0.217 HD
ENDBRANCH  13  20
ENDBRANCH  10  12
ENDBRANCH   4   9
TORSDOF 3
