REMARK  3 active torsions:
REMARK  status: ('A' for Active; 'I' for Inactive)
REMARK    1  A    between atoms: C_3  and  C_1 
REMARK       I    between atoms: C_6  and  N_2 
REMARK    2  A    between atoms: C_17  and  N_4 
REMARK    3  A    between atoms: C_12  and  C_6 
ROOT
ATOM      1  C   UNL d   1      -0.253   1.147   0.100  0.00  0.00     0.034 C 
ATOM      2  N   UNL d   1       1.044  -0.655   0.057  0.00  0.00    -0.261 N 
ATOM      3  C   UNL d   1       1.073   0.744   0.058  0.00  0.00     0.044 C 
ATOM      4  N   UNL d   1      -0.226  -1.121  -0.078  0.00  0.00    -0.304 N 
ATOM      5  HN  UNL d   1      -0.522  -2.082  -0.252  1.00  0.00     0.186 HD
ATOM      6  C   UNL d   1      -0.998  -0.046   0.068  0.00  0.00     0.123 C 
ATOM      7  C   UNL d   1       2.305   1.575   0.018  0.00  0.00     0.071 C 
ENDROOT
BRANCH   1   8
ATOM      8  C   UNL d   1      -0.771   2.545   0.102  0.00  0.00     0.075 A 
ATOM      9  N   UNL d   1      -1.987   3.001   0.603  0.00  0.00    -0.219 N 
ATOM     10  C   UNL d   1      -2.889   2.348   1.487  0.00  0.00     0.284 C 
ATOM     11  N   UNL d   1      -2.222   4.297   0.219  0.00  0.00    -0.302 N 
ATOM     12  O   UNL d   1      -2.404   1.451   2.172  0.00  0.00    -0.265 OA
ATOM     13  C   UNL d   1      -1.106   4.672  -0.402  0.00  0.00     0.110 A 
ATOM     14  HN  UNL d   1      -3.065   4.850   0.374  1.00  0.00     0.186 HD
ATOM     15  C   UNL d   1      -0.171   3.635  -0.495  0.00  0.00     0.051 A 
BRANCH  10  16
ATOM     16  C   UNL d   1      -4.306   2.707   1.551  0.00  0.00     0.074 A 
ATOM     17  S   UNL d   1      -5.287   1.986   2.767  0.00  0.00    -0.097 SA
ATOM     18  C   UNL d   1      -6.697   2.754   2.187  0.00  0.00     0.050 A 
ATOM     19  C   UNL d   1      -6.441   3.548   1.095  0.00  0.00     0.009 A 
ATOM     20  C   UNL d   1      -5.065   3.518   0.727  0.00  0.00     0.025 A 
ENDBRANCH  10  16
ENDBRANCH   1   8
BRANCH   2  21
ATOM     21  C   UNL d   1       2.110  -1.593   0.160  0.00  0.00     0.056 A 
ATOM     22  C   UNL d   1       3.286  -1.292   0.857  0.00  0.00     0.031 A 
ATOM     23  C   UNL d   1       4.331  -2.216   0.905  0.00  0.00     0.002 A 
ATOM     24  C   UNL d   1       4.196  -3.457   0.288  0.00  0.00     0.000 A 
ATOM     25  C   UNL d   1       3.010  -3.785  -0.366  0.00  0.00     0.002 A 
ATOM     26  C   UNL d   1       1.964  -2.861  -0.424  0.00  0.00     0.031 A 
ENDBRANCH   2  21
TORSDOF 3
