REMARK  2 active torsions:
REMARK  status: ('A' for Active; 'I' for Inactive)
REMARK    1  A    between atoms: N_7  and  C_4 
REMARK    2  A    between atoms: C_12  and  N_7 
ROOT
ATOM      1  C   UNL d   1      -2.372  -0.726   0.112  0.00  0.00     0.103 A 
ATOM      2  C   UNL d   1      -1.790   0.640   0.275  0.00  0.00     0.200 A 
ATOM      3  C   UNL d   1      -1.245  -1.689   0.015  0.00  0.00     0.200 A 
ATOM      4  C   UNL d   1      -3.683  -1.018   0.067  0.00  0.00     0.132 C 
ATOM      5  C   UNL d   1      -0.340   0.469   0.157  0.00  0.00     0.029 A 
ATOM      6  C   UNL d   1      -0.024  -0.878   0.025  0.00  0.00     0.029 A 
ATOM      7  C   UNL d   1      -4.154  -2.376   0.038  0.00  0.00     0.118 C 
ATOM      8  N   UNL d   1      -4.619  -3.441   0.026  0.00  0.00    -0.190 NA
ATOM      9  O   UNL d   1      -1.290  -2.898  -0.075  0.00  0.00    -0.286 OA
ATOM     10  O   UNL d   1      -2.335   1.694   0.526  0.00  0.00    -0.286 OA
ATOM     11  C   UNL d   1       1.286  -1.306  -0.091  0.00  0.00     0.016 A 
ATOM     12  C   UNL d   1       0.637   1.448   0.173  0.00  0.00     0.016 A 
ATOM     13  C   UNL d   1       1.966   1.036   0.046  0.00  0.00     0.001 A 
ATOM     14  C   UNL d   1       2.288  -0.330  -0.080  0.00  0.00     0.001 A 
ENDROOT
BRANCH   4  15
ATOM     15  N   UNL d   1      -4.721  -0.094   0.073  0.00  0.00    -0.347 N 
ATOM     16  H   UNL d   1      -5.580  -0.382   0.537  0.00  0.00     0.167 HD
BRANCH  15  17
ATOM     17  C   UNL d   1      -4.923   0.901  -0.910  0.00  0.00     0.035 A 
ATOM     18  C   UNL d   1      -4.380   0.823  -2.200  0.00  0.00     0.071 A 
ATOM     19  C   UNL d   1      -4.497   1.901  -3.074  0.00  0.00     0.118 A 
ATOM     20  F   UNL d   1      -3.960   1.814  -4.299  0.00  0.00    -0.206 F 
ATOM     21  C   UNL d   1      -5.142   3.069  -2.693  0.00  0.00     0.042 A 
ATOM     22  C   UNL d   1      -5.710   3.151  -1.425  0.00  0.00     0.005 A 
ATOM     23  C   UNL d   1      -5.612   2.067  -0.546  0.00  0.00     0.029 A 
ENDBRANCH  15  17
ENDBRANCH   4  15
TORSDOF 2
