REMARK  7 active torsions:
REMARK  status: ('A' for Active; 'I' for Inactive)
REMARK    1  A    between atoms: C_2  and  N_1 
REMARK    2  A    between atoms: C_11  and  C_5 
REMARK    3  A    between atoms: N_10  and  C_14 
REMARK    4  A    between atoms: C_15  and  N_10 
REMARK    5  A    between atoms: O_12  and  C_11 
REMARK    6  A    between atoms: C_14  and  C_11 
REMARK    7  A    between atoms: C_13  and  C_15 
ROOT
ATOM      1  C   UNL d   1      -1.690  -2.330  -4.359  0.00  0.00     0.179 C 
ENDROOT
BRANCH   1   2
ATOM      2  C   UNL d   1      -1.054  -1.735  -3.108  0.00  0.00    -0.028 A 
ATOM      3  C   UNL d   1      -1.558  -0.520  -2.606  0.00  0.00     0.012 A 
ATOM      4  C   UNL d   1      -0.997   0.082  -1.475  0.00  0.00     0.037 A 
ATOM      5  C   UNL d   1       0.081  -0.534  -0.830  0.00  0.00     0.102 A 
ATOM      6  C   UNL d   1       0.589  -1.748  -1.303  0.00  0.00     0.037 A 
ATOM      7  C   UNL d   1       0.021  -2.339  -2.433  0.00  0.00     0.012 A 
BRANCH   5   8
ATOM      8  N   UNL d   1       0.694   0.094   0.346  0.00  0.00    -0.116 N 
ATOM      9  O   UNL d   1       1.655  -0.482   0.873  0.00  0.00    -0.532 OA
ATOM     10  O   UNL d   1       0.216   1.169   0.739  0.00  0.00    -0.532 OA
ENDBRANCH   5   8
ENDBRANCH   1   2
BRANCH   1  11
ATOM     11  O   UNL d   1      -1.529  -1.394  -5.435  0.00  0.00    -0.389 OA
ATOM     12  H   UNL d   1      -0.611  -1.077  -5.406  0.00  0.00     0.210 HD
ENDBRANCH   1  11
BRANCH   1  13
ATOM     13  C   UNL d   1      -1.092  -3.688  -4.799  0.00  0.00     0.306 C 
BRANCH  13  14
ATOM     14  N   UNL d   1      -1.736  -4.245  -5.994  0.00  0.00     0.090 N 
ATOM     15  H   UNL d   1      -1.672  -3.563  -6.754  0.00  0.00     0.316 HD
BRANCH  14  16
ATOM     16  C   UNL d   1      -1.075  -5.489  -6.383  0.00  0.00     0.308 C 
BRANCH  16  17
ATOM     17  C   UNL d   1      -1.656  -6.065  -7.648  0.00  0.00    -0.030 A 
ATOM     18  C   UNL d   1      -0.839  -6.298  -8.763  0.00  0.00     0.009 A 
ATOM     19  C   UNL d   1      -1.368  -6.871  -9.920  0.00  0.00     0.001 A 
ATOM     20  C   UNL d   1      -2.717  -7.217  -9.973  0.00  0.00     0.000 A 
ATOM     21  C   UNL d   1      -3.540  -6.987  -8.872  0.00  0.00     0.001 A 
ATOM     22  C   UNL d   1      -3.012  -6.415  -7.714  0.00  0.00     0.009 A 
ENDBRANCH  16  17
ENDBRANCH  14  16
ENDBRANCH  13  14
ENDBRANCH   1  13
TORSDOF 7
