REMARK  6 active torsions:
REMARK  status: ('A' for Active; 'I' for Inactive)
REMARK    1  A    between atoms: C_7  and  S_1 
REMARK    2  A    between atoms: C_16  and  S_1 
REMARK    3  A    between atoms: C_10  and  C_4 
REMARK    4  A    between atoms: C_5  and  C_7 
REMARK    5  A    between atoms: C_6  and  C_11 
REMARK    6  A    between atoms: C_20  and  C_16 
ROOT
ATOM      1  C   UNL d   1       0.434   0.505   1.564  0.00  0.00     0.205 C 
ENDROOT
BRANCH   1   2
ATOM      2  C   UNL d   1       0.855  -0.432   2.636  0.00  0.00     0.065 A 
ATOM      3  N   UNL d   1       0.128  -1.452   3.046  0.00  0.00    -0.352 N 
ATOM      4  C   UNL d   1       0.771  -2.118   4.082  0.00  0.00     0.049 A 
ATOM      5  HN  UNL d   1      -0.779  -1.714   2.659  1.00  0.00     0.166 HD
ATOM      6  C   UNL d   1       1.985  -1.572   4.449  0.00  0.00     0.081 A 
ATOM      7  S   UNL d   1       2.329  -0.195   3.487  0.00  0.00    -0.085 SA
BRANCH   4   8
ATOM      8  C   UNL d   1       0.159  -3.276   4.725  0.00  0.00    -0.006 A 
ATOM      9  C   UNL d   1      -1.238  -3.409   4.709  0.00  0.00     0.059 A 
ATOM     10  C   UNL d   1      -1.845  -4.500   5.324  0.00  0.00     0.155 A 
ATOM     11  F   UNL d   1      -3.180  -4.604   5.307  0.00  0.00    -0.203 F 
ATOM     12  C   UNL d   1      -1.077  -5.472   5.953  0.00  0.00     0.154 A 
ATOM     13  C   UNL d   1       0.309  -5.365   5.972  0.00  0.00     0.046 A 
ATOM     14  F   UNL d   1      -1.664  -6.521   6.544  0.00  0.00    -0.203 F 
ATOM     15  C   UNL d   1       0.927  -4.270   5.358  0.00  0.00     0.017 A 
ENDBRANCH   4   8
ENDBRANCH   1   2
BRANCH   1  16
ATOM     16  S   UNL d   1       0.989  -0.108  -0.013  0.00  0.00     0.154 S 
ATOM     17  O   UNL d   1       2.437  -0.234   0.032  0.00  0.00    -0.227 OA
ATOM     18  O   UNL d   1       0.369   0.747  -1.014  0.00  0.00    -0.227 OA
BRANCH  16  19
ATOM     19  C   UNL d   1       0.260  -1.742  -0.144  0.00  0.00     0.179 C 
BRANCH  19  20
ATOM     20  C   UNL d   1       0.580  -2.330  -1.496  0.00  0.00    -0.043 A 
ATOM     21  C   UNL d   1      -0.291  -2.154  -2.583  0.00  0.00     0.024 A 
ATOM     22  C   UNL d   1      -0.005  -2.717  -3.838  0.00  0.00     0.048 A 
ATOM     23  C   UNL d   1       1.175  -3.459  -3.996  0.00  0.00     0.016 A 
ATOM     24  C   UNL d   1       2.054  -3.627  -2.928  0.00  0.00     0.001 A 
ATOM     25  C   UNL d   1       1.759  -3.064  -1.686  0.00  0.00     0.008 A 
BRANCH  22  26
ATOM     26  C   UNL d   1      -0.941  -2.542  -5.009  0.00  0.00     0.417 C 
ATOM     27  F   UNL d   1      -2.041  -1.790  -4.724  0.00  0.00    -0.166 F 
ATOM     28  F   UNL d   1      -0.343  -1.941  -6.075  0.00  0.00    -0.166 F 
ATOM     29  F   UNL d   1      -1.417  -3.732  -5.473  0.00  0.00    -0.166 F 
ENDBRANCH  22  26
ENDBRANCH  19  20
ENDBRANCH  16  19
ENDBRANCH   1  16
TORSDOF 6
