REMARK  2 active torsions:
REMARK  status: ('A' for Active; 'I' for Inactive)
REMARK    1  A    between atoms: N_2  and  C_1 
REMARK    2  A    between atoms: C_11  and  N_9 
ROOT
ATOM      1  N   UNL d   1       0.142  -2.519   0.074  0.00  0.00    -0.296 N 
ATOM      2  HN  UNL d   1      -0.470  -3.087  -0.512  1.00  0.00     0.187 HD
ATOM      3  N   UNL d   1       0.961  -3.001   0.885  0.00  0.00    -0.299 N 
ATOM      4  HN  UNL d   1       1.603  -2.444   1.449  1.00  0.00     0.187 HD
ENDROOT
BRANCH   1   5
ATOM      5  C   UNL d   1       0.153  -1.120   0.051  0.00  0.00     0.095 A 
ATOM      6  C   UNL d   1       1.222  -0.255   0.004  0.00  0.00     0.052 A 
ATOM      7  N   UNL d   1       0.660   0.993  -0.027  0.00  0.00    -0.303 N 
ATOM      8  C   UNL d   1       2.688  -0.445  -0.024  0.00  0.00     0.072 C 
ATOM      9  N   UNL d   1      -0.684   0.992  -0.026  0.00  0.00    -0.303 N 
ATOM     10  H   UNL d   1       1.135   1.889  -0.059  0.00  0.00     0.186 HD
ATOM     11  C   UNL d   1      -1.004  -0.310   0.016  0.00  0.00     0.052 A 
ATOM     12  HN  UNL d   1      -1.313   1.794  -0.051  1.00  0.00     0.186 HD
ATOM     13  C   UNL d   1      -2.424  -0.734   0.025  0.00  0.00     0.072 C 
ENDBRANCH   1   5
BRANCH   3  14
ATOM     14  C   UNL d   1       0.890  -4.412   0.927  0.00  0.00     0.070 A 
ATOM     15  C   UNL d   1       2.061  -5.192   0.917  0.00  0.00     0.063 A 
ATOM     16  C   UNL d   1       2.003  -6.586   1.026  0.00  0.00     0.050 A 
ATOM     17 CL   UNL d   1       3.624  -4.463   0.777  0.00  0.00    -0.082 Cl
ATOM     18  C   UNL d   1       0.767  -7.215   1.152  0.00  0.00     0.035 A 
ATOM     19  C   UNL d   1      -0.406  -6.467   1.169  0.00  0.00     0.026 A 
ATOM     20 CL   UNL d   1       0.690  -8.926   1.305  0.00  0.00    -0.084 Cl
ATOM     21  C   UNL d   1      -0.343  -5.075   1.062  0.00  0.00     0.034 A 
ENDBRANCH   3  14
TORSDOF 2
