REMARK  2 active torsions:
REMARK  status: ('A' for Active; 'I' for Inactive)
REMARK    1  A    between atoms: N_3  and  C_1 
REMARK       I    between atoms: C_7  and  N_3 
REMARK       I    between atoms: N_9  and  C_7 
REMARK    2  A    between atoms: C_12  and  N_9 
ROOT
ATOM      1  N   UNL d   1       1.931  -1.625   0.079  0.00  0.00    -0.292 N 
ATOM      2  C   UNL d   1       2.168  -3.005   0.273  0.00  0.00     0.326 C 
ATOM      3  N   UNL d   1       1.318  -3.890  -0.307  0.00  0.00    -0.309 N 
ATOM      4  O   UNL d   1       3.212  -3.223   0.863  0.00  0.00    -0.247 OA
ATOM      5  H   UNL d   1       2.787  -1.129   0.300  0.00  0.00     0.172 HD
ATOM      6  H   UNL d   1       0.641  -3.528  -0.961  0.00  0.00     0.170 HD
ENDROOT
BRANCH   1   7
ATOM      7  C   UNL d   1       0.791  -0.855  -0.109  0.00  0.00     0.144 A 
ATOM      8  C   UNL d   1      -0.556  -1.151  -0.173  0.00  0.00     0.073 A 
ATOM      9  C   UNL d   1      -1.224   0.086  -0.245  0.00  0.00     0.130 A 
ATOM     10 BR   UNL d   1      -1.538  -2.742  -0.119  0.00  0.00    -0.045 Br
ATOM     11  N   UNL d   1      -0.379   1.113  -0.260  0.00  0.00    -0.307 N 
ATOM     12  N   UNL d   1       0.831   0.532  -0.191  0.00  0.00    -0.280 N 
ATOM     13  HN  UNL d   1      -0.598   2.108  -0.312  1.00  0.00     0.186 HD
ATOM     14  C   UNL d   1       1.986   1.401  -0.201  0.00  0.00     0.179 C 
ENDBRANCH   1   7
BRANCH   3  15
ATOM     15  C   UNL d   1       1.428  -5.297  -0.199  0.00  0.00     0.036 A 
ATOM     16  C   UNL d   1       2.202  -5.929   0.786  0.00  0.00     0.032 A 
ATOM     17  C   UNL d   1       2.308  -7.319   0.831  0.00  0.00     0.044 A 
ATOM     18  C   UNL d   1       1.637  -8.087  -0.110  0.00  0.00     0.116 A 
ATOM     19  C   UNL d   1       0.843  -7.486  -1.078  0.00  0.00     0.044 A 
ATOM     20  F   UNL d   1       1.756  -9.419  -0.082  0.00  0.00    -0.206 F 
ATOM     21  C   UNL d   1       0.726  -6.090  -1.116  0.00  0.00     0.032 A 
ENDBRANCH   3  15
TORSDOF 2
