REMARK  7 active torsions:
REMARK  status: ('A' for Active; 'I' for Inactive)
REMARK    1  A    between atoms: C_9  and  C_1 
REMARK    2  A    between atoms: N_10  and  C_2 
REMARK    3  A    between atoms: C_3  and  C_6 
REMARK    4  A    between atoms: C_4  and  C_7 
REMARK       I    between atoms: C_5  and  N_11 
REMARK    5  A    between atoms: C_8  and  C_5 
REMARK    6  A    between atoms: O_28  and  C_9 
REMARK    7  A    between atoms: N_11  and  C_17 
ROOT
ATOM      1  C   UNL d   1      -0.560   3.599   0.785  0.00  0.00     0.256 C 
ATOM      2  N   UNL d   1      -1.106   2.464   0.203  0.00  0.00    -0.323 N 
ATOM      3  O   UNL d   1       0.584   3.750   1.193  0.00  0.00    -0.267 OA
ATOM      4  H   UNL d   1      -2.073   2.503  -0.095  0.00  0.00     0.169 HD
ENDROOT
BRANCH   2   5
ATOM      5  C   UNL d   1      -0.464   1.223   0.022  0.00  0.00     0.036 A 
ATOM      6  C   UNL d   1       0.894   1.025   0.240  0.00  0.00     0.049 A 
ATOM      7  C   UNL d   1       1.476  -0.257   0.156  0.00  0.00     0.068 A 
ATOM      8  C   UNL d   1       0.682  -1.391  -0.139  0.00  0.00     0.046 A 
ATOM      9  C   UNL d   1      -0.670  -1.145  -0.453  0.00  0.00     0.032 A 
ATOM     10  C   UNL d   1      -1.233   0.138  -0.387  0.00  0.00     0.032 A 
BRANCH   7  11
ATOM     11  C   UNL d   1       2.966  -0.333   0.289  0.00  0.00     0.295 C 
ATOM     12  O   UNL d   1       3.692  -1.164  -0.239  0.00  0.00    -0.259 OA
BRANCH  11  13
ATOM     13  O   UNL d   1       3.394   0.667   1.102  0.00  0.00    -0.322 OA
ATOM     14  C   UNL d   1       4.810   0.783   1.255  0.00  0.00     0.213 C 
ENDBRANCH  11  13
ENDBRANCH   7  11
BRANCH   8  15
ATOM     15  N   UNL d   1       1.182  -2.687  -0.145  0.00  0.00    -0.376 N 
ATOM     16  C   UNL d   1       0.561  -3.767  -0.929  0.00  0.00     0.149 C 
ATOM     17  C   UNL d   1       1.642  -4.813  -1.255  0.00  0.00     0.187 C 
ATOM     18  O   UNL d   1       2.244  -5.338  -0.057  0.00  0.00    -0.388 OA
ATOM     19  C   UNL d   1       2.859  -4.273   0.694  0.00  0.00     0.187 C 
ATOM     20  C   UNL d   1       1.827  -3.201   1.086  0.00  0.00     0.149 C 
ENDBRANCH   8  15
ENDBRANCH   2   5
BRANCH   1  21
ATOM     21  C   UNL d   1      -1.481   4.761   0.875  0.00  0.00     0.034 A 
ATOM     22  C   UNL d   1      -2.843   4.603   1.152  0.00  0.00     0.033 A 
ATOM     23  C   UNL d   1      -3.711   5.702   1.073  0.00  0.00     0.049 A 
ATOM     24  C   UNL d   1      -3.180   6.973   0.790  0.00  0.00     0.032 A 
ATOM     25  C   UNL d   1      -1.807   7.150   0.554  0.00  0.00     0.049 A 
ATOM     26  C   UNL d   1      -0.961   6.034   0.613  0.00  0.00     0.033 A 
BRANCH  23  27
ATOM     27  C   UNL d   1      -5.201   5.489   1.210  0.00  0.00     0.417 C 
ATOM     28  F   UNL d   1      -5.936   6.591   0.903  0.00  0.00    -0.166 F 
ATOM     29  F   UNL d   1      -5.641   4.503   0.378  0.00  0.00    -0.166 F 
ATOM     30  F   UNL d   1      -5.570   5.116   2.463  0.00  0.00    -0.166 F 
ENDBRANCH  23  27
BRANCH  25  31
ATOM     31  C   UNL d   1      -1.244   8.498   0.166  0.00  0.00     0.417 C 
ATOM     32  F   UNL d   1      -2.199   9.459   0.033  0.00  0.00    -0.166 F 
ATOM     33  F   UNL d   1      -0.348   8.977   1.068  0.00  0.00    -0.166 F 
ATOM     34  F   UNL d   1      -0.594   8.454  -1.030  0.00  0.00    -0.166 F 
ENDBRANCH  25  31
ENDBRANCH   1  21
TORSDOF 7
