REMARK  0 active torsions:
REMARK  status: ('A' for Active; 'I' for Inactive)
ROOT
ATOM      1  C   UNL d   1       1.750  -0.801   0.002  0.00  0.00     0.092 A 
ATOM      2  C   UNL d   1       1.017   0.463   0.002  0.00  0.00     0.079 A 
ATOM      3  N   UNL d   1       1.806   1.503   0.002  0.00  0.00    -0.294 N 
ATOM      4  HN  UNL d   1       1.537   2.486   0.002  1.00  0.00     0.187 HD
ATOM      5  C   UNL d   1       3.169  -0.422   0.003  0.00  0.00     0.276 A 
ATOM      6  N   UNL d   1       3.102   0.975   0.003  0.00  0.00    -0.261 N 
ATOM      7  C   UNL d   1       1.091  -1.963   0.002  0.00  0.00     0.068 A 
ATOM      8  C   UNL d   1      -0.433   0.412   0.001  0.00  0.00     0.027 A 
ATOM      9  O   UNL d   1      -0.303  -2.028   0.001  0.00  0.00    -0.314 OA
ATOM     10  C   UNL d   1      -1.025  -0.854   0.001  0.00  0.00     0.088 A 
ATOM     11  O   UNL d   1       4.136  -1.158   0.003  0.00  0.00    -0.266 OA
ATOM     12  C   UNL d   1       4.253   1.841   0.003  0.00  0.00     0.181 C 
ATOM     13  C   UNL d   1       1.743  -3.309   0.002  0.00  0.00     0.078 C 
ATOM     14  C   UNL d   1      -1.214   1.568   0.000  0.00  0.00     0.017 A 
ATOM     15  C   UNL d   1      -2.415  -0.967   0.000  0.00  0.00     0.038 A 
ATOM     16  C   UNL d   1      -2.606   1.449  -0.001  0.00  0.00     0.001 A 
ATOM     17  C   UNL d   1      -3.204   0.185  -0.000  0.00  0.00     0.003 A 
ENDROOT
TORSDOF 0
