REMARK  4 active torsions:
REMARK  status: ('A' for Active; 'I' for Inactive)
REMARK    1  A    between atoms: C_5  and  C_1 
REMARK       I    between atoms: N_9  and  C_1 
REMARK    2  A    between atoms: N_2  and  N_9 
REMARK    3  A    between atoms: C_6  and  C_7 
REMARK    4  A    between atoms: C_18  and  C_17 
ROOT
ATOM      1  C   UNL d   1       1.006  -0.083  -0.112  0.00  0.00     0.270 C 
ATOM      2  N   UNL d   1       1.075  -0.137   1.276  0.00  0.00    -0.266 N 
ATOM      3  O   UNL d   1       1.531  -0.884  -0.878  0.00  0.00    -0.266 OA
ATOM      4  H   UNL d   1       0.729   0.622   1.849  0.00  0.00     0.190 HD
ENDROOT
BRANCH   2   5
ATOM      5  N   UNL d   1       1.692  -1.194   1.868  0.00  0.00    -0.308 N 
ATOM      6  C   UNL d   1       1.721  -1.205   3.159  0.00  0.00     0.118 C 
ATOM      7  HN  UNL d   1       2.112  -1.944   1.319  1.00  0.00     0.186 HD
BRANCH   6   8
ATOM      8  C   UNL d   1       2.362  -2.321   3.884  0.00  0.00    -0.018 A 
ATOM      9  C   UNL d   1       2.373  -2.322   5.280  0.00  0.00     0.038 A 
ATOM     10  C   UNL d   1       2.989  -3.377   5.966  0.00  0.00     0.056 A 
ATOM     11 CL   UNL d   1       2.972  -3.325   7.694  0.00  0.00    -0.083 Cl
ATOM     12  C   UNL d   1       3.591  -4.426   5.255  0.00  0.00     0.055 A 
ATOM     13  C   UNL d   1       3.569  -4.420   3.858  0.00  0.00     0.026 A 
ATOM     14 CL   UNL d   1       4.375  -5.749   6.040  0.00  0.00    -0.083 Cl
ATOM     15  C   UNL d   1       2.956  -3.371   3.173  0.00  0.00     0.014 A 
ENDBRANCH   6   8
ENDBRANCH   2   5
BRANCH   1  16
ATOM     16  C   UNL d   1       0.236   1.061  -0.674  0.00  0.00     0.033 A 
ATOM     17  C   UNL d   1       0.574   1.549  -1.940  0.00  0.00     0.017 A 
ATOM     18  C   UNL d   1      -0.144   2.613  -2.502  0.00  0.00     0.009 A 
ATOM     19  C   UNL d   1      -1.220   3.214  -1.820  0.00  0.00    -0.051 A 
ATOM     20  C   UNL d   1      -1.553   2.691  -0.559  0.00  0.00     0.009 A 
ATOM     21  C   UNL d   1      -0.841   1.627   0.007  0.00  0.00     0.017 A 
BRANCH  19  22
ATOM     22  C   UNL d   1      -1.984   4.396  -2.446  0.00  0.00    -0.024 C 
ATOM     23  C   UNL d   1      -3.128   4.928  -1.552  0.00  0.00     0.019 C 
ATOM     24  C   UNL d   1      -1.012   5.570  -2.692  0.00  0.00     0.019 C 
ATOM     25  C   UNL d   1      -2.617   3.979  -3.791  0.00  0.00     0.019 C 
ENDBRANCH  19  22
ENDBRANCH   1  16
TORSDOF 4
