REMARK  6 active torsions:
REMARK  status: ('A' for Active; 'I' for Inactive)
REMARK    1  A    between atoms: C_2  and  C_1 
REMARK    2  A    between atoms: C_3  and  C_1 
REMARK    3  A    between atoms: C_6  and  C_2 
REMARK    4  A    between atoms: C_8  and  C_3 
REMARK    5  A    between atoms: N_10  and  N_4 
REMARK    6  A    between atoms: C_13  and  N_10 
ROOT
ATOM      1  C   UNL d   1       5.296   1.162   1.861  0.00  0.00     0.105 A 
ATOM      2  C   UNL d   1       4.745   1.876   2.975  0.00  0.00     0.104 C 
ATOM      3  N   UNL d   1       4.233   2.418   3.862  0.00  0.00    -0.191 NA
ATOM      4  C   UNL d   1       4.467   0.560   0.891  0.00  0.00     0.051 A 
ATOM      5  C   UNL d   1       6.685   1.051   1.757  0.00  0.00     0.139 A 
ATOM      6  F   UNL d   1       7.479   1.592   2.692  0.00  0.00    -0.204 F 
ATOM      7  C   UNL d   1       6.474  -0.177  -0.296  0.00  0.00     0.005 A 
ATOM      8  C   UNL d   1       5.082  -0.069  -0.208  0.00  0.00     0.027 A 
ATOM      9  C   UNL d   1       7.278   0.376   0.694  0.00  0.00     0.044 A 
ENDROOT
BRANCH   4  10
ATOM     10  N   UNL d   1       3.038   0.679   0.976  0.00  0.00    -0.204 NA
ATOM     11  H   UNL d   1       2.779   0.662   1.969  0.00  0.00     0.153 HD
BRANCH  10  12
ATOM     12  N   UNL d   1       2.315  -0.102   0.120  0.00  0.00    -0.310 N 
ATOM     13  C   UNL d   1       1.016   0.026   0.038  0.00  0.00     0.150 C 
ATOM     14  HN  UNL d   1       2.792  -0.792  -0.460  1.00  0.00     0.181 HD
BRANCH  13  15
ATOM     15  C   UNL d   1       0.200   0.989   0.848  0.00  0.00     0.286 C 
ATOM     16  O   UNL d   1      -0.589   1.710   0.245  0.00  0.00    -0.281 OA
BRANCH  15  17
ATOM     17  C   UNL d   1       0.368   0.917   2.338  0.00  0.00     0.457 C 
ATOM     18  F   UNL d   1       1.216  -0.070   2.748  0.00  0.00    -0.163 F 
ATOM     19  F   UNL d   1       0.880   2.070   2.845  0.00  0.00    -0.163 F 
ATOM     20  F   UNL d   1      -0.802   0.693   2.993  0.00  0.00    -0.163 F 
ENDBRANCH  15  17
ENDBRANCH  13  15
BRANCH  13  21
ATOM     21  C   UNL d   1       0.339  -0.781  -1.060  0.00  0.00     0.220 C 
ATOM     22  O   UNL d   1       0.872  -0.786  -2.166  0.00  0.00    -0.284 OA
BRANCH  21  23
ATOM     23  C   UNL d   1      -0.932  -1.426  -0.785  0.00  0.00     0.057 A 
ATOM     24  S   UNL d   1      -1.407  -1.931   0.776  0.00  0.00    -0.098 SA
ATOM     25  C   UNL d   1      -2.916  -2.507   0.209  0.00  0.00     0.050 A 
ATOM     26  C   UNL d   1      -3.043  -2.359  -1.154  0.00  0.00     0.009 A 
ATOM     27  C   UNL d   1      -1.889  -1.757  -1.729  0.00  0.00     0.023 A 
ENDBRANCH  21  23
ENDBRANCH  13  21
ENDBRANCH  10  12
ENDBRANCH   4  10
TORSDOF 6
