REMARK  9 active torsions:
REMARK  status: ('A' for Active; 'I' for Inactive)
REMARK    1  A    between atoms: N_2  and  C_1 
REMARK    2  A    between atoms: N_5  and  C_1 
REMARK    3  A    between atoms: N_7  and  N_2 
REMARK    4  A    between atoms: C_8  and  N_2 
REMARK    5  A    between atoms: C_4  and  C_11 
REMARK    6  A    between atoms: C_9  and  N_5 
REMARK    7  A    between atoms: C_13  and  C_8 
REMARK    8  A    between atoms: C_11  and  C_9 
REMARK    9  A    between atoms: O_10  and  C_13 
ROOT
ATOM      1  C   UNL d   1       1.363  -0.835  -0.523  0.00  0.00     0.184 C 
ATOM      2  S   UNL d   1       0.776  -2.236   0.227  0.00  0.00    -0.040 SA
ENDROOT
BRANCH   1   3
ATOM      3  N   UNL d   1       0.922  -0.450  -1.806  0.00  0.00    -0.289 N 
BRANCH   3   4
ATOM      4  N   UNL d   1       0.361  -1.451  -2.664  0.00  0.00    -0.245 NA
ATOM      5  H   UNL d   1       0.151  -2.261  -2.063  0.00  0.00     0.143 HD
ATOM      6  H   UNL d   1       1.131  -1.786  -3.251  0.00  0.00     0.143 HD
ENDBRANCH   3   4
BRANCH   3   7
ATOM      7  C   UNL d   1       1.079   0.875  -2.434  0.00  0.00     0.171 C 
BRANCH   7   8
ATOM      8  C   UNL d   1       0.142   1.922  -1.822  0.00  0.00     0.185 C 
BRANCH   8   9
ATOM      9  O   UNL d   1       0.619   2.353  -0.547  0.00  0.00    -0.399 OA
ATOM     10  H   UNL d   1      -0.113   2.843  -0.130  0.00  0.00     0.209 HD
ENDBRANCH   8   9
ENDBRANCH   7   8
ENDBRANCH   3   7
ENDBRANCH   1   3
BRANCH   1  11
ATOM     11  N   UNL d   1       2.367  -0.045   0.008  0.00  0.00    -0.366 N 
ATOM     12  H   UNL d   1       2.321   0.937  -0.260  0.00  0.00     0.161 HD
BRANCH  11  13
ATOM     13  C   UNL d   1       3.150  -0.343   1.201  0.00  0.00     0.126 C 
BRANCH  13  14
ATOM     14  C   UNL d   1       4.665  -0.272   0.962  0.00  0.00     0.053 C 
BRANCH  14  15
ATOM     15  C   UNL d   1       5.417  -0.747   2.189  0.00  0.00    -0.082 C 
ATOM     16  C   UNL d   1       5.809   0.112   3.153  0.00  0.00    -0.024 C 
ATOM     17  C   UNL d   1       6.494  -0.310   4.419  0.00  0.00     0.027 C 
ATOM     18  C   UNL d   1       7.000  -1.752   4.396  0.00  0.00     0.004 C 
ATOM     19  C   UNL d   1       5.986  -2.683   3.741  0.00  0.00     0.005 C 
ATOM     20  C   UNL d   1       5.662  -2.234   2.311  0.00  0.00     0.034 C 
ENDBRANCH  14  15
ENDBRANCH  13  14
ENDBRANCH  11  13
ENDBRANCH   1  11
TORSDOF 9
