REMARK  4 active torsions:
REMARK  status: ('A' for Active; 'I' for Inactive)
REMARK    1  A    between atoms: N_8  and  C_3 
REMARK    2  A    between atoms: C_16  and  C_7 
REMARK    3  A    between atoms: C_15  and  N_13 
REMARK    4  A    between atoms: O_23  and  C_17 
ROOT
ATOM      1  C   UNL d   1       2.135   5.413  -0.465  0.00  0.00    -0.017 C 
ATOM      2  C   UNL d   1       1.283   5.621   0.696  0.00  0.00     0.009 C 
ATOM      3  C   UNL d   1       0.163   4.895   0.408  0.00  0.00     0.060 C 
ATOM      4  C   UNL d   1       3.454   5.599  -0.559  0.00  0.00     0.020 C 
ATOM      5  C   UNL d   1       1.302   5.039  -1.575  0.00  0.00    -0.049 C 
ATOM      6  C   UNL d   1       0.145   4.617  -1.043  0.00  0.00     0.039 C 
ATOM      7  C   UNL d   1       4.306   6.329   0.357  0.00  0.00    -0.054 C 
ATOM      8  C   UNL d   1       1.313   6.918   1.385  0.00  0.00    -0.049 C 
ATOM      9  C   UNL d   1       3.827   7.237   1.234  0.00  0.00     0.008 C 
ATOM     10  C   UNL d   1       2.456   7.622   1.528  0.00  0.00     0.008 C 
ATOM     11  C   UNL d   1       1.559   5.613  -2.921  0.00  0.00     0.049 C 
ATOM     12  C   UNL d   1      -0.004   7.592   1.667  0.00  0.00     0.049 C 
ENDROOT
BRANCH   3  13
ATOM     13  N   UNL d   1      -0.501   4.071   1.298  0.00  0.00    -0.300 N 
ATOM     14  N   UNL d   1      -1.669   3.627   1.134  0.00  0.00    -0.300 N 
ATOM     15  HN  UNL d   1      -1.922   2.666   1.362  1.00  0.00     0.187 HD
ATOM     16  HN  UNL d   1      -0.010   3.802   2.150  1.00  0.00     0.187 HD
BRANCH  14  17
ATOM     17  C   UNL d   1      -2.601   4.545   0.618  0.00  0.00     0.048 C 
ATOM     18  C   UNL d   1      -3.233   4.280  -0.612  0.00  0.00     0.034 C 
ATOM     19  C   UNL d   1      -3.996   5.285  -1.238  0.00  0.00     0.039 C 
ATOM     20  C   UNL d   1      -4.138   6.525  -0.623  0.00  0.00     0.068 C 
ATOM     21  C   UNL d   1      -3.625   6.717   0.680  0.00  0.00     0.039 C 
ATOM     22  C   UNL d   1      -2.886   5.712   1.288  0.00  0.00     0.034 C 
BRANCH  20  23
ATOM     23  O   UNL d   1      -4.741   7.620  -1.162  0.00  0.00    -0.356 OA
ATOM     24  C   UNL d   1      -4.911   7.620  -2.576  0.00  0.00     0.210 C 
ENDBRANCH  20  23
ENDBRANCH  14  17
ENDBRANCH   3  13
BRANCH   7  25
ATOM     25  C   UNL d   1       5.823   6.227   0.126  0.00  0.00     0.010 C 
ATOM     26  C   UNL d   1       6.460   5.132   0.984  0.00  0.00     0.015 C 
ATOM     27  C   UNL d   1       6.246   6.054  -1.344  0.00  0.00     0.015 C 
ENDBRANCH   7  25
TORSDOF 4
