REMARK  3 active torsions:
REMARK  status: ('A' for Active; 'I' for Inactive)
REMARK    1  A    between atoms: C_4  and  C_7 
REMARK    2  A    between atoms: C_16  and  C_6 
REMARK    3  A    between atoms: O_23  and  C_19 
ROOT
ATOM      1  C   UNL d   1      -2.062   0.335   0.054  0.00  0.00    -0.006 C 
ATOM      2  C   UNL d   1      -1.087  -0.801   0.022  0.00  0.00     0.189 C 
ATOM      3  C   UNL d   1       0.357  -0.425   0.022  0.00  0.00     0.021 A 
ATOM      4  C   UNL d   1       0.752   0.922  -0.027  0.00  0.00    -0.041 A 
ATOM      5  C   UNL d   1      -3.271   0.129  -0.496  0.00  0.00     0.022 C 
ATOM      6  C   UNL d   1       1.327  -1.435   0.035  0.00  0.00     0.019 A 
ATOM      7  C   UNL d   1      -1.547   1.607   0.660  0.00  0.00     0.047 C 
ATOM      8  O   UNL d   1      -1.442  -1.971  -0.023  0.00  0.00    -0.287 OA
ATOM      9  C   UNL d   1       2.117   1.232  -0.100  0.00  0.00     0.044 A 
ATOM     10  C   UNL d   1      -0.269   2.031  -0.053  0.00  0.00     0.044 C 
ATOM     11  C   UNL d   1       3.086   0.225  -0.091  0.00  0.00     0.068 A 
ATOM     12  C   UNL d   1       2.686  -1.109  -0.015  0.00  0.00     0.038 A 
ENDROOT
BRANCH   5  13
ATOM     13  C   UNL d   1      -4.294   1.166  -0.642  0.00  0.00    -0.036 A 
ATOM     14  C   UNL d   1      -4.315   1.961  -1.793  0.00  0.00     0.012 A 
ATOM     15  C   UNL d   1      -5.302   2.936  -1.958  0.00  0.00     0.017 A 
ATOM     16  C   UNL d   1      -6.283   3.130  -0.974  0.00  0.00     0.048 A 
ATOM     17  C   UNL d   1      -6.239   2.344   0.189  0.00  0.00     0.017 A 
ATOM     18  C   UNL d   1      -5.250   1.369   0.355  0.00  0.00     0.012 A 
BRANCH  16  19
ATOM     19  C   UNL d   1      -7.383   4.147  -1.160  0.00  0.00     0.417 C 
ATOM     20  F   UNL d   1      -7.300   4.832  -2.335  0.00  0.00    -0.166 F 
ATOM     21  F   UNL d   1      -8.621   3.580  -1.146  0.00  0.00    -0.166 F 
ATOM     22  F   UNL d   1      -7.393   5.091  -0.179  0.00  0.00    -0.166 F 
ENDBRANCH  16  19
ENDBRANCH   5  13
BRANCH  11  23
ATOM     23  O   UNL d   1       4.373   0.679  -0.163  0.00  0.00    -0.356 OA
ATOM     24  C   UNL d   1       5.404  -0.300  -0.159  0.00  0.00     0.210 C 
ENDBRANCH  11  23
TORSDOF 3
