REMARK  3 active torsions:
REMARK  status: ('A' for Active; 'I' for Inactive)
REMARK    1  A    between atoms: S_10  and  C_2 
REMARK    2  A    between atoms: O_11  and  C_3 
REMARK    3  A    between atoms: C_13  and  S_10 
ROOT
ATOM      1  C   UNL d   1       5.026  -0.886   0.885  0.00  0.00    -0.107 C 
ATOM      2  C   UNL d   1       6.157  -1.286   0.941  0.00  0.00     0.013 C 
ATOM      3  C   UNL d   1       3.651  -0.371   0.816  0.00  0.00     0.175 C 
ENDROOT
BRANCH   3   4
ATOM      4  S   UNL d   1       2.517  -1.610   0.118  0.00  0.00    -0.080 SA
BRANCH   4   5
ATOM      5  C   UNL d   1       1.052  -0.695   0.086  0.00  0.00     0.165 A 
ATOM      6  N   UNL d   1      -0.200  -1.242   0.023  0.00  0.00    -0.296 N 
ATOM      7  C   UNL d   1      -1.056  -0.171   0.025  0.00  0.00     0.240 A 
ATOM      8  C   UNL d   1      -0.581  -2.628  -0.014  0.00  0.00     0.162 C 
ATOM      9  N   UNL d   1      -0.372   0.946   0.080  0.00  0.00    -0.263 N 
ATOM     10  N   UNL d   1       0.964   0.615   0.122  0.00  0.00    -0.277 N 
ATOM     11  HN  UNL d   1      -0.759   1.889   0.091  1.00  0.00     0.190 HD
ATOM     12  HN  UNL d   1       1.744   1.270   0.171  1.00  0.00     0.189 HD
BRANCH   7  13
ATOM     13  O   UNL d   1      -2.378  -0.217  -0.014  0.00  0.00    -0.331 OA
ATOM     14  H   UNL d   1      -2.675  -1.137  -0.033  0.00  0.00     0.221 HD
ENDBRANCH   7  13
ENDBRANCH   4   5
ENDBRANCH   3   4
TORSDOF 3
