REMARK  4 active torsions:
REMARK  status: ('A' for Active; 'I' for Inactive)
REMARK    1  A    between atoms: C_6  and  N_1 
REMARK    2  A    between atoms: C_7  and  C_4 
REMARK    3  A    between atoms: C_14  and  C_7 
REMARK    4  A    between atoms: O_22  and  C_19 
ROOT
ATOM      1  N   UNL d   1      -1.449   0.463  -0.366  0.00  0.00    -0.238 N 
ATOM      2  C   UNL d   1      -1.085  -0.867  -0.278  0.00  0.00     0.298 A 
ATOM      3  C   UNL d   1      -0.403   1.378  -0.333  0.00  0.00     0.273 A 
ATOM      4  C   UNL d   1       0.903   0.672  -0.234  0.00  0.00     0.079 A 
ATOM      5  S   UNL d   1       0.661  -1.029  -0.280  0.00  0.00    -0.023 SA
ATOM      6  O   UNL d   1      -1.790  -1.864  -0.237  0.00  0.00    -0.259 OA
ATOM      7  O   UNL d   1      -0.481   2.599  -0.319  0.00  0.00    -0.266 OA
ENDROOT
BRANCH   4   8
ATOM      8  C   UNL d   1       2.118   1.207  -0.063  0.00  0.00     0.036 C 
BRANCH   8   9
ATOM      9  C   UNL d   1       2.462   2.623   0.073  0.00  0.00    -0.032 A 
ATOM     10  C   UNL d   1       2.552   3.451  -1.049  0.00  0.00     0.051 A 
ATOM     11  C   UNL d   1       3.127   4.692  -0.876  0.00  0.00     0.105 A 
ATOM     12  O   UNL d   1       3.428   5.575  -1.869  0.00  0.00    -0.323 OA
ATOM     13  C   UNL d   1       3.547   5.138   0.358  0.00  0.00     0.105 A 
ATOM     14  C   UNL d   1       4.299   6.471  -1.149  0.00  0.00     0.352 C 
ATOM     15  O   UNL d   1       4.173   6.345   0.282  0.00  0.00    -0.323 OA
ATOM     16  C   UNL d   1       3.388   4.384   1.498  0.00  0.00     0.040 A 
ATOM     17  C   UNL d   1       2.852   3.101   1.347  0.00  0.00     0.014 A 
ENDBRANCH   8   9
ENDBRANCH   4   8
BRANCH   1  18
ATOM     18  C   UNL d   1      -2.818   0.887  -0.418  0.00  0.00     0.049 A 
ATOM     19  C   UNL d   1      -3.845   0.118   0.160  0.00  0.00     0.066 A 
ATOM     20  C   UNL d   1      -5.175   0.558   0.150  0.00  0.00     0.070 A 
ATOM     21  C   UNL d   1      -5.497   1.760  -0.473  0.00  0.00     0.037 A 
ATOM     22  C   UNL d   1      -4.510   2.523  -1.072  0.00  0.00     0.005 A 
ATOM     23  C   UNL d   1      -3.176   2.091  -1.044  0.00  0.00     0.030 A 
BRANCH  20  24
ATOM     24  O   UNL d   1      -6.236  -0.089   0.724  0.00  0.00    -0.356 OA
ATOM     25  C   UNL d   1      -5.960  -1.300   1.419  0.00  0.00     0.210 C 
ENDBRANCH  20  24
ENDBRANCH   1  18
TORSDOF 4
