REMARK  2 active torsions:
REMARK  status: ('A' for Active; 'I' for Inactive)
REMARK    1  A    between atoms: C_11  and  C_3 
REMARK    2  A    between atoms: C_9  and  C_8 
ROOT
ATOM      1  N   UNL d   1      -0.707   1.170  -0.104  0.00  0.00    -0.292 N 
ATOM      2  HN  UNL d   1      -1.225   2.048  -0.137  1.00  0.00     0.187 HD
ATOM      3  C   UNL d   1      -1.334   0.035  -0.054  0.00  0.00     0.134 A 
ATOM      4  C   UNL d   1      -0.567  -1.274  -0.058  0.00  0.00     0.318 A 
ATOM      5  O   UNL d   1       0.763  -1.181  -0.053  0.00  0.00    -0.254 OA
ATOM      6  N   UNL d   1       0.678   1.168  -0.112  0.00  0.00    -0.278 N 
ATOM      7  HN  UNL d   1       1.193   2.047  -0.144  1.00  0.00     0.189 HD
ATOM      8  C   UNL d   1       1.311   0.045  -0.079  0.00  0.00     0.176 A 
ATOM      9  O   UNL d   1      -1.136  -2.355  -0.080  0.00  0.00    -0.257 OA
ENDROOT
BRANCH   8  10
ATOM     10  C   UNL d   1       2.795  -0.053  -0.047  0.00  0.00     0.017 A 
ATOM     11  C   UNL d   1       3.451  -1.295  -0.045  0.00  0.00     0.017 A 
ATOM     12  C   UNL d   1       4.846  -1.358   0.026  0.00  0.00     0.025 A 
ATOM     13  C   UNL d   1       5.591  -0.183   0.092  0.00  0.00     0.034 A 
ATOM     14  C   UNL d   1       4.954   1.057   0.077  0.00  0.00     0.025 A 
ATOM     15 CL   UNL d   1       7.305  -0.266   0.202  0.00  0.00    -0.084 Cl
ATOM     16  C   UNL d   1       3.558   1.123   0.007  0.00  0.00     0.017 A 
ENDBRANCH   8  10
BRANCH   3  17
ATOM     17  C   UNL d   1      -2.822   0.034  -0.009  0.00  0.00    -0.002 A 
ATOM     18  C   UNL d   1      -3.512   1.075  -0.647  0.00  0.00     0.014 A 
ATOM     19  C   UNL d   1      -4.906   1.136  -0.591  0.00  0.00     0.001 A 
ATOM     20  C   UNL d   1      -5.618   0.162   0.107  0.00  0.00     0.000 A 
ATOM     21  C   UNL d   1      -4.939  -0.874   0.746  0.00  0.00     0.001 A 
ATOM     22  C   UNL d   1      -3.544  -0.938   0.693  0.00  0.00     0.014 A 
ENDBRANCH   3  17
TORSDOF 2
