REMARK  6 active torsions:
REMARK  status: ('A' for Active; 'I' for Inactive)
REMARK    1  A    between atoms: C_2  and  S_1 
REMARK    2  A    between atoms: N_6  and  S_1 
REMARK    3  A    between atoms: C_8  and  C_4 
REMARK    4  A    between atoms: C_13  and  N_6 
REMARK    5  A    between atoms: O_18  and  C_8 
REMARK    6  A    between atoms: C_11  and  C_13 
ROOT
ATOM      1  S   UNL d   1       1.006  -0.035   0.049  0.00  0.00     0.264 S 
ATOM      2  O   UNL d   1       0.218  -0.198  -1.153  0.00  0.00    -0.204 OA
ATOM      3  O   UNL d   1       2.451  -0.043   0.034  0.00  0.00    -0.204 OA
ENDROOT
BRANCH   1   4
ATOM      4  C   UNL d   1       0.535  -1.448   1.060  0.00  0.00     0.185 A 
ATOM      5  O   UNL d   1       0.926  -1.577   2.378  0.00  0.00    -0.291 OA
ATOM      6  C   UNL d   1       0.453  -2.775   2.853  0.00  0.00     0.152 A 
ATOM      7  C   UNL d   1      -0.270  -3.406   1.862  0.00  0.00     0.047 A 
ATOM      8  C   UNL d   1      -0.221  -2.567   0.729  0.00  0.00     0.054 A 
BRANCH   6   9
ATOM      9  C   UNL d   1       0.745  -3.205   4.203  0.00  0.00     0.317 C 
ATOM     10  O   UNL d   1       0.359  -4.255   4.705  0.00  0.00    -0.257 OA
BRANCH   9  11
ATOM     11  O   UNL d   1       1.517  -2.279   4.842  0.00  0.00    -0.321 OA
ATOM     12  C   UNL d   1       1.871  -2.642   6.176  0.00  0.00     0.213 C 
ENDBRANCH   9  11
ENDBRANCH   6   9
ENDBRANCH   1   4
BRANCH   1  13
ATOM     13  N   UNL d   1       0.467   1.363   0.801  0.00  0.00    -0.208 NA
ATOM     14  H   UNL d   1      -0.510   1.306   1.091  0.00  0.00     0.140 HD
BRANCH  13  15
ATOM     15  C   UNL d   1       1.340   1.929   1.833  0.00  0.00     0.169 C 
BRANCH  15  16
ATOM     16  C   UNL d   1       0.689   3.173   2.329  0.00  0.00     0.066 A 
ATOM     17  O   UNL d   1      -0.488   3.018   3.006  0.00  0.00    -0.326 OA
ATOM     18  C   UNL d   1      -0.914   4.261   3.349  0.00  0.00     0.142 A 
ATOM     19  C   UNL d   1      -0.030   5.216   2.903  0.00  0.00     0.027 A 
ATOM     20  C   UNL d   1       1.006   4.514   2.240  0.00  0.00     0.036 A 
ENDBRANCH  15  16
ENDBRANCH  13  15
ENDBRANCH   1  13
TORSDOF 6
