REMARK  3 active torsions:
REMARK  status: ('A' for Active; 'I' for Inactive)
REMARK    1  A    between atoms: C_4  and  C_1 
REMARK    2  A    between atoms: C_5  and  C_4 
REMARK    3  A    between atoms: O_9  and  C_4 
ROOT
ATOM      1  C   UNL d   1      -1.482   2.219  -1.577  0.00  0.00    -0.029 A 
ATOM      2  C   UNL d   1      -2.044   3.372  -0.997  0.00  0.00     0.011 A 
ATOM      3  C   UNL d   1      -2.267   1.472  -2.468  0.00  0.00     0.011 A 
ATOM      4  C   UNL d   1      -4.090   3.034  -2.233  0.00  0.00     0.011 A 
ATOM      5  C   UNL d   1      -3.339   3.780  -1.331  0.00  0.00     0.019 A 
ATOM      6  C   UNL d   1      -3.562   1.877  -2.800  0.00  0.00     0.019 A 
ATOM      7 BR   UNL d   1      -5.834   3.595  -2.695  0.00  0.00    -0.051 Br
ENDROOT
BRANCH   1   8
ATOM      8  C   UNL d   1      -0.078   1.743  -1.249  0.00  0.00     0.155 C 
BRANCH   8   9
ATOM      9  C   UNL d   1      -0.076   0.883  -0.011  0.00  0.00     0.019 A 
ATOM     10  C   UNL d   1       1.214   0.294   0.513  0.00  0.00     0.008 A 
ATOM     11  C   UNL d   1       0.185  -0.600  -0.118  0.00  0.00     0.008 A 
ENDBRANCH   8   9
BRANCH   8  12
ATOM     12  O   UNL d   1       0.818   2.837  -1.073  0.00  0.00    -0.391 OA
ATOM     13  H   UNL d   1       0.528   3.326  -0.289  0.00  0.00     0.210 HD
ENDBRANCH   8  12
ENDBRANCH   1   8
TORSDOF 3
