REMARK  6 active torsions:
REMARK  status: ('A' for Active; 'I' for Inactive)
REMARK    1  A    between atoms: N_8  and  S_1 
REMARK    2  A    between atoms: C_9  and  S_1 
REMARK    3  A    between atoms: C_7  and  C_2 
REMARK    4  A    between atoms: C_4  and  C_14 
REMARK    5  A    between atoms: O_18  and  C_7 
REMARK    6  A    between atoms: N_10  and  N_8 
ROOT
ATOM      1  N   UNL d   1       0.982  -1.019   2.701  0.00  0.00    -0.301 N 
ATOM      2  HN  UNL d   1       1.727  -1.692   2.518  1.00  0.00     0.186 HD
ATOM      3  C   UNL d   1       0.368  -0.959   3.837  0.00  0.00     0.120 C 
ENDROOT
BRANCH   1   4
ATOM      4  N   UNL d   1       0.545  -0.078   1.718  0.00  0.00    -0.223 N 
ATOM      5  H   UNL d   1      -0.247   0.554   1.837  0.00  0.00     0.200 HD
BRANCH   4   6
ATOM      6  S   UNL d   1       1.331   0.062   0.226  0.00  0.00     0.276 S 
ATOM      7  O   UNL d   1       2.751   0.246   0.448  0.00  0.00    -0.199 OA
ATOM      8  O   UNL d   1       0.567   1.028  -0.536  0.00  0.00    -0.199 OA
BRANCH   6   9
ATOM      9  C   UNL d   1       1.079  -1.532  -0.522  0.00  0.00     0.081 A 
ATOM     10  C   UNL d   1      -0.057  -1.760  -1.304  0.00  0.00     0.026 A 
ATOM     11  C   UNL d   1      -0.184  -2.965  -2.001  0.00  0.00     0.008 A 
ATOM     12  C   UNL d   1       0.824  -3.937  -1.934  0.00  0.00    -0.062 A 
ATOM     13  C   UNL d   1       1.950  -3.701  -1.135  0.00  0.00     0.008 A 
ATOM     14  C   UNL d   1       0.702  -5.197  -2.741  0.00  0.00     0.048 C 
ATOM     15  C   UNL d   1       2.082  -2.501  -0.432  0.00  0.00     0.026 A 
ENDBRANCH   6   9
ENDBRANCH   4   6
ENDBRANCH   1   4
BRANCH   3  16
ATOM     16  C   UNL d   1       0.739  -1.902   4.868  0.00  0.00    -0.001 A 
ATOM     17  C   UNL d   1       0.168  -2.003   6.121  0.00  0.00     0.104 A 
ATOM     18  N   UNL d   1       0.777  -3.037   6.795  0.00  0.00    -0.355 N 
ATOM     19  C   UNL d   1       0.421  -3.456   8.135  0.00  0.00     0.156 C 
ATOM     20  C   UNL d   1       1.756  -3.609   6.005  0.00  0.00     0.111 A 
ATOM     21  C   UNL d   1       1.739  -2.907   4.808  0.00  0.00     0.050 A 
BRANCH  20  22
ATOM     22  C   UNL d   1       2.608  -4.720   6.380  0.00  0.00     0.309 C 
ATOM     23  O   UNL d   1       2.584  -5.312   7.450  0.00  0.00    -0.258 OA
BRANCH  22  24
ATOM     24  O   UNL d   1       3.450  -5.012   5.348  0.00  0.00    -0.321 OA
ATOM     25  C   UNL d   1       4.348  -6.092   5.593  0.00  0.00     0.213 C 
ENDBRANCH  22  24
ENDBRANCH  20  22
ENDBRANCH   3  16
TORSDOF 6
