REMARK  5 active torsions:
REMARK  status: ('A' for Active; 'I' for Inactive)
REMARK    1  A    between atoms: N_7  and  C_2 
REMARK    2  A    between atoms: C_18  and  C_4 
REMARK    3  A    between atoms: C_10  and  N_7 
REMARK    4  A    between atoms: N_9  and  C_15 
REMARK    5  A    between atoms: C_15  and  C_18 
ROOT
ATOM      1  C   UNL d   1      -1.295  -5.933   0.344  0.00  0.00     0.172 C 
ATOM      2  S   UNL d   1      -2.881  -5.398   0.379  0.00  0.00    -0.041 SA
ATOM      3  N   UNL d   1      -0.207  -5.153   0.096  0.00  0.00    -0.367 N 
ATOM      4  H   UNL d   1       0.501  -5.618  -0.462  0.00  0.00     0.161 HD
ENDROOT
BRANCH   3   5
ATOM      5  C   UNL d   1      -0.183  -3.695   0.063  0.00  0.00     0.126 C 
BRANCH   5   6
ATOM      6  C   UNL d   1       1.243  -3.141   0.156  0.00  0.00     0.059 C 
BRANCH   6   7
ATOM      7  C   UNL d   1       2.055  -3.299  -1.107  0.00  0.00    -0.038 A 
ATOM      8  C   UNL d   1       1.641  -2.827  -2.339  0.00  0.00     0.058 A 
ATOM      9  S   UNL d   1       2.772  -3.097  -3.578  0.00  0.00    -0.101 SA
ATOM     10  C   UNL d   1       3.890  -3.826  -2.494  0.00  0.00     0.015 A 
ATOM     11  C   UNL d   1       3.380  -3.891  -1.193  0.00  0.00    -0.012 A 
ATOM     12  C   UNL d   1       5.174  -4.309  -2.819  0.00  0.00     0.019 A 
ATOM     13  C   UNL d   1       4.208  -4.477  -0.199  0.00  0.00     0.013 A 
ATOM     14  C   UNL d   1       5.486  -4.957  -0.517  0.00  0.00     0.001 A 
ATOM     15  C   UNL d   1       5.962  -4.869  -1.815  0.00  0.00     0.001 A 
ENDBRANCH   6   7
ENDBRANCH   5   6
ENDBRANCH   3   5
BRANCH   1  16
ATOM     16  N   UNL d   1      -1.071  -7.263   0.567  0.00  0.00    -0.333 N 
ATOM     17  H   UNL d   1      -1.930  -7.804   0.563  0.00  0.00     0.168 HD
BRANCH  16  18
ATOM     18  C   UNL d   1       0.087  -7.958   0.978  0.00  0.00     0.034 A 
ATOM     19  C   UNL d   1       1.280  -7.346   1.373  0.00  0.00     0.031 A 
ATOM     20  C   UNL d   1       2.373  -8.111   1.795  0.00  0.00     0.026 A 
ATOM     21  C   UNL d   1       2.268  -9.496   1.851  0.00  0.00     0.034 A 
ATOM     22  C   UNL d   1       1.079 -10.122   1.490  0.00  0.00     0.026 A 
ATOM     23 CL   UNL d   1       3.606 -10.434   2.390  0.00  0.00    -0.084 Cl
ATOM     24  C   UNL d   1      -0.007  -9.354   1.056  0.00  0.00     0.031 A 
ENDBRANCH  16  18
ENDBRANCH   1  16
TORSDOF 5
