REMARK  4 active torsions:
REMARK  status: ('A' for Active; 'I' for Inactive)
REMARK    1  A    between atoms: C_6  and  C_1 
REMARK    2  A    between atoms: C_5  and  C_2 
REMARK       I    between atoms: N_10  and  C_5 
REMARK    3  A    between atoms: N_7  and  C_11 
REMARK    4  A    between atoms: C_13  and  N_10 
ROOT
ATOM      1  C   UNL d   1      -1.027  -0.525  -0.076  0.00  0.00     0.086 A 
ATOM      2  C   UNL d   1       0.191  -1.308  -0.065  0.00  0.00     0.093 A 
ATOM      3  N   UNL d   1      -0.774   0.768   0.117  0.00  0.00    -0.259 N 
ATOM      4  HN  UNL d   1      -1.455   1.525   0.182  1.00  0.00     0.195 HD
ATOM      5  O   UNL d   1       0.599   0.875   0.209  0.00  0.00    -0.241 OA
ATOM      6  C   UNL d   1       1.175  -0.356   0.089  0.00  0.00     0.090 A 
ATOM      7  C   UNL d   1       2.650  -0.318   0.076  0.00  0.00     0.080 C 
ENDROOT
BRANCH   2   8
ATOM      8  C   UNL d   1       0.267  -2.761  -0.293  0.00  0.00     0.261 C 
ATOM      9  N   UNL d   1       1.292  -3.456   0.298  0.00  0.00    -0.321 N 
ATOM     10  H   UNL d   1       2.083  -2.939   0.645  0.00  0.00     0.169 HD
ATOM     11  O   UNL d   1      -0.595  -3.286  -0.996  0.00  0.00    -0.267 OA
BRANCH   9  12
ATOM     12  C   UNL d   1       1.504  -4.841   0.050  0.00  0.00     0.057 A 
ATOM     13  C   UNL d   1       2.818  -5.325  -0.101  0.00  0.00     0.063 A 
ATOM     14  C   UNL d   1       3.057  -6.619  -0.570  0.00  0.00     0.062 A 
ATOM     15 CL   UNL d   1       4.174  -4.299   0.200  0.00  0.00    -0.082 Cl
ATOM     16  C   UNL d   1       1.975  -7.467  -0.829  0.00  0.00     0.104 A 
ATOM     17  C   UNL d   1       0.666  -7.054  -0.548  0.00  0.00     0.038 A 
ATOM     18  C   UNL d   1       0.441  -5.739  -0.122  0.00  0.00     0.034 A 
BRANCH  16  19
ATOM     19  N   UNL d   1       2.207  -8.787  -1.433  0.00  0.00    -0.116 N 
ATOM     20  O   UNL d   1       3.355  -9.040  -1.825  0.00  0.00    -0.532 OA
ATOM     21  O   UNL d   1       1.242  -9.559  -1.526  0.00  0.00    -0.532 OA
ENDBRANCH  16  19
ENDBRANCH   9  12
ENDBRANCH   2   8
BRANCH   1  22
ATOM     22  C   UNL d   1      -2.377  -1.054  -0.303  0.00  0.00     0.037 C 
ATOM     23  C   UNL d   1      -2.862  -2.089   0.521  0.00  0.00     0.048 C 
ATOM     24 CL   UNL d   1      -2.200  -2.405   2.096  0.00  0.00    -0.083 Cl
ATOM     25  C   UNL d   1      -3.879  -2.938   0.079  0.00  0.00     0.025 C 
ATOM     26  C   UNL d   1      -4.475  -2.721  -1.162  0.00  0.00     0.003 C 
ATOM     27  C   UNL d   1      -4.114  -1.606  -1.915  0.00  0.00     0.025 C 
ATOM     28  C   UNL d   1      -3.075  -0.771  -1.490  0.00  0.00     0.048 C 
ATOM     29 CL   UNL d   1      -2.682   0.570  -2.513  0.00  0.00    -0.083 Cl
ENDBRANCH   1  22
TORSDOF 4
