REMARK  3 active torsions:
REMARK  status: ('A' for Active; 'I' for Inactive)
REMARK    1  A    between atoms: N_4  and  S_1 
REMARK    2  A    between atoms: C_14  and  S_1 
REMARK    3  A    between atoms: C_2  and  N_5 
ROOT
ATOM      1  N   UNL d   1       0.476  -0.680  -1.210  0.00  0.00    -0.203 NA
ATOM      2  N   UNL d   1       2.613  -1.629  -2.951  0.00  0.00    -0.374 N 
ATOM      3  C   UNL d   1       0.741  -2.142  -1.373  0.00  0.00     0.127 C 
ATOM      4  C   UNL d   1       0.838   0.051  -2.465  0.00  0.00     0.127 C 
ATOM      5  C   UNL d   1       2.310  -0.178  -2.838  0.00  0.00     0.138 C 
ATOM      6  C   UNL d   1       2.212  -2.418  -1.765  0.00  0.00     0.138 C 
ENDROOT
BRANCH   2   7
ATOM      7  C   UNL d   1       3.640  -2.052  -3.806  0.00  0.00     0.104 A 
ATOM      8  C   UNL d   1       3.514  -1.748  -5.277  0.00  0.00     0.213 A 
ATOM      9  C   UNL d   1       4.591  -2.238  -6.152  0.00  0.00     0.050 A 
ATOM     10  O   UNL d   1       2.555  -1.141  -5.750  0.00  0.00    -0.285 OA
ATOM     11  C   UNL d   1       4.539  -2.018  -7.533  0.00  0.00     0.018 A 
ATOM     12  C   UNL d   1       5.660  -2.927  -5.592  0.00  0.00     0.089 A 
ATOM     13  C   UNL d   1       5.571  -2.485  -8.348  0.00  0.00     0.001 A 
ATOM     14  C   UNL d   1       6.649  -3.169  -7.784  0.00  0.00     0.003 A 
ATOM     15  C   UNL d   1       6.694  -3.393  -6.406  0.00  0.00     0.038 A 
ATOM     16  O   UNL d   1       5.751  -3.187  -4.250  0.00  0.00    -0.319 OA
ATOM     17  C   UNL d   1       4.729  -2.748  -3.443  0.00  0.00     0.176 A 
ENDBRANCH   2   7
BRANCH   1  18
ATOM     18  S   UNL d   1       0.970   0.024   0.255  0.00  0.00     0.243 S 
ATOM     19  O   UNL d   1       1.209   1.433   0.038  0.00  0.00    -0.206 OA
ATOM     20  O   UNL d   1       1.979  -0.820   0.865  0.00  0.00    -0.206 OA
BRANCH  18  21
ATOM     21  C   UNL d   1      -0.510  -0.115   1.233  0.00  0.00     0.074 A 
ATOM     22  C   UNL d   1      -0.714  -1.232   2.048  0.00  0.00     0.025 A 
ATOM     23  C   UNL d   1      -1.878  -1.323   2.812  0.00  0.00     0.002 A 
ATOM     24  C   UNL d   1      -2.823  -0.295   2.775  0.00  0.00     0.000 A 
ATOM     25  C   UNL d   1      -2.599   0.836   1.988  0.00  0.00     0.002 A 
ATOM     26  C   UNL d   1      -1.439   0.932   1.219  0.00  0.00     0.025 A 
ENDBRANCH  18  21
ENDBRANCH   1  18
TORSDOF 3
