REMARK  8 active torsions:
REMARK  status: ('A' for Active; 'I' for Inactive)
REMARK    1  A    between atoms: C_17  and  N_4 
REMARK    2  A    between atoms: N_5  and  C_11 
REMARK    3  A    between atoms: C_14  and  C_6 
REMARK    4  A    between atoms: C_18  and  N_8 
REMARK    5  A    between atoms: C_10  and  O_16 
REMARK    6  A    between atoms: O_16  and  C_26 
REMARK    7  A    between atoms: C_32  and  C_17 
REMARK    8  A    between atoms: O_31  and  C_32 
ROOT
ATOM      1  C   UNL d   1       1.067  -0.148   0.099  0.00  0.00     0.162 C 
ATOM      2  N   UNL d   1      -0.492   1.734  -0.095  0.00  0.00    -0.299 N 
ATOM      3  HN  UNL d   1      -0.533   2.704   0.220  1.00  0.00     0.187 HD
ATOM      4  N   UNL d   1       0.707   1.111  -0.403  0.00  0.00    -0.269 N 
ATOM      5  C   UNL d   1      -1.561   1.008  -0.232  0.00  0.00     0.046 C 
ATOM      6  S   UNL d   1      -0.283  -1.329   0.187  0.00  0.00    -0.086 SA
ATOM      7  N   UNL d   1       2.161  -0.700   0.529  0.00  0.00    -0.336 N 
ATOM      8  HN  UNL d   1       2.131  -1.685   0.791  1.00  0.00     0.168 HD
ATOM      9  C   UNL d   1      -1.504  -0.405  -0.760  0.00  0.00     0.142 C 
ENDROOT
BRANCH   4  10
ATOM     10  C   UNL d   1       1.694   2.075  -0.925  0.00  0.00     0.177 C 
BRANCH  10  11
ATOM     11  C   UNL d   1       1.191   2.775  -2.189  0.00  0.00     0.185 C 
BRANCH  11  12
ATOM     12  O   UNL d   1       2.161   3.727  -2.625  0.00  0.00    -0.399 OA
ATOM     13  H   UNL d   1       1.832   4.110  -3.457  0.00  0.00     0.209 HD
ENDBRANCH  11  12
ENDBRANCH  10  11
ENDBRANCH   4  10
BRANCH   7  14
ATOM     14  C   UNL d   1       3.376  -0.025   0.654  0.00  0.00     0.034 C 
ATOM     15  C   UNL d   1       3.493   1.206   1.289  0.00  0.00     0.032 C 
ATOM     16  C   UNL d   1       4.692   1.933   1.243  0.00  0.00     0.039 C 
ATOM     17  C   UNL d   1       5.833   1.357   0.687  0.00  0.00     0.078 C 
ATOM     18  C   UNL d   1       5.750   0.061   0.172  0.00  0.00     0.039 C 
ATOM     19  C   UNL d   1       4.529  -0.625   0.147  0.00  0.00     0.032 C 
BRANCH  17  20
ATOM     20  O   UNL d   1       7.077   1.909   0.615  0.00  0.00    -0.255 OA
BRANCH  20  21
ATOM     21  C   UNL d   1       7.291   3.243   1.047  0.00  0.00     0.530 C 
ATOM     22  F   UNL d   1       6.646   3.535   2.194  0.00  0.00    -0.144 F 
ATOM     23  F   UNL d   1       8.614   3.404   1.273  0.00  0.00    -0.144 F 
ATOM     24  F   UNL d   1       6.919   4.114   0.085  0.00  0.00    -0.144 F 
ENDBRANCH  20  21
ENDBRANCH  17  20
ENDBRANCH   7  14
BRANCH   5  25
ATOM     25  C   UNL d   1      -2.884   1.616   0.085  0.00  0.00    -0.011 A 
ATOM     26  C   UNL d   1      -2.963   2.575   1.106  0.00  0.00     0.016 A 
ATOM     27  C   UNL d   1      -4.186   3.180   1.415  0.00  0.00     0.037 A 
ATOM     28  C   UNL d   1      -5.331   2.826   0.690  0.00  0.00     0.102 A 
ATOM     29  C   UNL d   1      -5.256   1.878  -0.341  0.00  0.00     0.037 A 
ATOM     30  C   UNL d   1      -4.031   1.277  -0.643  0.00  0.00     0.016 A 
BRANCH  28  31
ATOM     31  N   UNL d   1      -6.619   3.457   1.004  0.00  0.00    -0.116 N 
ATOM     32  O   UNL d   1      -6.646   4.286   1.925  0.00  0.00    -0.532 OA
ATOM     33  O   UNL d   1      -7.602   3.122   0.328  0.00  0.00    -0.532 OA
ENDBRANCH  28  31
ENDBRANCH   5  25
TORSDOF 8
