REMARK  2 active torsions:
REMARK  status: ('A' for Active; 'I' for Inactive)
REMARK    1  A    between atoms: C_6  and  C_5 
REMARK    2  A    between atoms: C_9  and  C_6 
ROOT
ATOM      1  C   UNL d   1      -2.238   0.777  -0.326  0.00  0.00     0.085 C 
ATOM      2  C   UNL d   1      -2.205  -0.477   0.512  0.00  0.00     0.267 C 
ATOM      3  N   UNL d   1      -1.076   1.567  -0.327  0.00  0.00    -0.253 NA
ATOM      4  N   UNL d   1      -1.007  -1.151   0.451  0.00  0.00    -0.320 N 
ATOM      5  C   UNL d   1      -3.272   1.019  -1.150  0.00  0.00     0.080 C 
ATOM      6  C   UNL d   1       0.165   0.873  -0.188  0.00  0.00     0.040 A 
ATOM      7  C   UNL d   1       0.186  -0.510   0.091  0.00  0.00     0.056 A 
ATOM      8  O   UNL d   1      -3.127  -0.834   1.232  0.00  0.00    -0.266 OA
ATOM      9  C   UNL d   1       1.389  -1.212   0.134  0.00  0.00     0.031 A 
ATOM     10  C   UNL d   1       1.374   1.559  -0.305  0.00  0.00     0.026 A 
ATOM     11  C   UNL d   1       2.584   0.863  -0.224  0.00  0.00     0.002 A 
ATOM     12  C   UNL d   1       2.589  -0.521  -0.037  0.00  0.00     0.002 A 
ATOM     13  H   UNL d   1      -1.122   2.235   0.446  0.00  0.00     0.134 HD
ATOM     14  H   UNL d   1      -0.984  -2.056   0.898  0.00  0.00     0.169 HD
ENDROOT
BRANCH   5  15
ATOM     15  C   UNL d   1      -4.418   0.092  -1.421  0.00  0.00     0.158 C 
ATOM     16  O   UNL d   1      -4.300  -1.116  -1.218  0.00  0.00    -0.292 OA
BRANCH  15  17
ATOM     17  C   UNL d   1      -5.663   0.638  -2.156  0.00  0.00     0.013 C 
ATOM     18  C   UNL d   1      -5.410   0.479  -3.663  0.00  0.00     0.023 C 
ATOM     19  C   UNL d   1      -6.887  -0.210  -1.760  0.00  0.00     0.023 C 
ATOM     20  C   UNL d   1      -5.974   2.103  -1.827  0.00  0.00     0.023 C 
ENDBRANCH  15  17
ENDBRANCH   5  15
TORSDOF 2
