REMARK  2 active torsions:
REMARK  status: ('A' for Active; 'I' for Inactive)
REMARK    1  A    between atoms: S_6  and  C_1 
REMARK    2  A    between atoms: C_13  and  S_6 
ROOT
ATOM      1  C   UNL d   1      -0.969  -1.499   0.041  0.00  0.00     0.095 A 
ATOM      2  C   UNL d   1       0.089  -0.585   0.035  0.00  0.00     0.065 A 
ATOM      3  N   UNL d   1      -2.236  -1.028   0.016  0.00  0.00    -0.345 N 
ATOM      4  HN  UNL d   1      -3.031  -1.667   0.017  1.00  0.00     0.167 HD
ATOM      5  S   UNL d   1       1.798  -0.823   0.057  0.00  0.00    -0.097 SA
ATOM      6  C   UNL d   1      -0.214   0.776   0.008  0.00  0.00     0.053 A 
ATOM      7  C   UNL d   1       2.114   0.854   0.036  0.00  0.00     0.053 A 
ATOM      8  C   UNL d   1       0.956   1.593   0.011  0.00  0.00     0.038 A 
ATOM      9  N   UNL d   1      -1.483   1.247  -0.016  0.00  0.00    -0.351 N 
ATOM     10  HN  UNL d   1      -1.703   2.243  -0.035  1.00  0.00     0.166 HD
ATOM     11  C   UNL d   1      -2.421   0.298  -0.011  0.00  0.00     0.181 A 
ENDROOT
BRANCH   1  12
ATOM     12  S   UNL d   1      -0.663  -3.250   0.090  0.00  0.00    -0.071 SA
BRANCH  12  13
ATOM     13  C   UNL d   1      -2.299  -3.947   0.045  0.00  0.00     0.007 A 
ATOM     14  C   UNL d   1      -2.882  -4.293  -1.179  0.00  0.00     0.020 A 
ATOM     15  C   UNL d   1      -4.168  -4.840  -1.218  0.00  0.00     0.025 A 
ATOM     16  C   UNL d   1      -4.866  -5.051  -0.031  0.00  0.00     0.034 A 
ATOM     17  C   UNL d   1      -4.286  -4.732   1.195  0.00  0.00     0.025 A 
ATOM     18 CL   UNL d   1      -6.456  -5.705  -0.080  0.00  0.00    -0.084 Cl
ATOM     19  C   UNL d   1      -3.000  -4.185   1.233  0.00  0.00     0.020 A 
ENDBRANCH  12  13
ENDBRANCH   1  12
TORSDOF 2
