REMARK  7 active torsions:
REMARK  status: ('A' for Active; 'I' for Inactive)
REMARK    1  A    between atoms: N_2  and  C_1 
REMARK    2  A    between atoms: N_8  and  C_1 
REMARK       I    between atoms: C_7  and  N_2 
REMARK    3  A    between atoms: C_11  and  C_7 
REMARK    4  A    between atoms: C_22  and  N_8 
REMARK    5  A    between atoms: C_9  and  C_10 
REMARK    6  A    between atoms: C_23  and  C_22 
REMARK    7  A    between atoms: O_31  and  C_24 
ROOT
ATOM      1  C   UNL d   1       2.091   0.011  -0.250  0.00  0.00     0.362 A 
ATOM      2  C   UNL d   1       1.165  -1.219  -0.126  0.00  0.00     0.228 A 
ATOM      3  C   UNL d   1       1.132   1.195   0.025  0.00  0.00     0.228 A 
ATOM      4  C   UNL d   1      -0.212   0.650   0.233  0.00  0.00     0.029 A 
ATOM      5  C   UNL d   1      -0.201  -0.735   0.114  0.00  0.00     0.029 A 
ATOM      6  O   UNL d   1       1.380   2.393   0.036  0.00  0.00    -0.287 OA
ATOM      7  O   UNL d   1       1.473  -2.395  -0.232  0.00  0.00    -0.287 OA
ATOM      8  C   UNL d   1      -1.373  -1.472   0.162  0.00  0.00     0.016 A 
ATOM      9  C   UNL d   1      -1.387   1.354   0.443  0.00  0.00     0.016 A 
ATOM     10  C   UNL d   1      -2.579   0.626   0.491  0.00  0.00     0.001 A 
ATOM     11  C   UNL d   1      -2.573  -0.774   0.342  0.00  0.00     0.001 A 
ENDROOT
BRANCH   1  12
ATOM     12  N   UNL d   1       2.793   0.024  -1.510  0.00  0.00    -0.309 N 
ATOM     13  C   UNL d   1       2.116   0.103  -2.703  0.00  0.00     0.254 C 
ATOM     14  O   UNL d   1       0.897   0.120  -2.788  0.00  0.00    -0.268 OA
ATOM     15  H   UNL d   1       3.717  -0.372  -1.525  0.00  0.00     0.166 HD
BRANCH  13  16
ATOM     16  C   UNL d   1       2.968   0.183  -3.920  0.00  0.00     0.032 A 
ATOM     17  C   UNL d   1       2.491  -0.344  -5.124  0.00  0.00     0.018 A 
ATOM     18  C   UNL d   1       3.212  -0.151  -6.306  0.00  0.00     0.017 A 
ATOM     19  C   UNL d   1       4.407   0.586  -6.302  0.00  0.00     0.048 A 
ATOM     20  C   UNL d   1       4.900   1.073  -5.080  0.00  0.00     0.017 A 
ATOM     21  C   UNL d   1       4.186   0.874  -3.896  0.00  0.00     0.018 A 
BRANCH  19  22
ATOM     22  C   UNL d   1       5.132   0.914  -7.587  0.00  0.00     0.417 C 
ATOM     23  F   UNL d   1       4.538   0.398  -8.698  0.00  0.00    -0.166 F 
ATOM     24  F   UNL d   1       5.214   2.258  -7.799  0.00  0.00    -0.166 F 
ATOM     25  F   UNL d   1       6.413   0.456  -7.598  0.00  0.00    -0.166 F 
ENDBRANCH  19  22
ENDBRANCH  13  16
ENDBRANCH   1  12
BRANCH   1  26
ATOM     26  N   UNL d   1       3.134  -0.073   0.791  0.00  0.00     0.133 N 
ATOM     27  H   UNL d   1       3.631  -0.956   0.689  0.00  0.00     0.320 HD
BRANCH  26  28
ATOM     28  C   UNL d   1       4.073   1.051   0.791  0.00  0.00     0.312 C 
BRANCH  28  29
ATOM     29  C   UNL d   1       5.202   0.832   1.770  0.00  0.00    -0.030 A 
ATOM     30  C   UNL d   1       6.375   0.166   1.383  0.00  0.00     0.011 A 
ATOM     31  C   UNL d   1       7.436   0.007   2.283  0.00  0.00     0.037 A 
ATOM     32  C   UNL d   1       7.335   0.502   3.583  0.00  0.00     0.068 A 
ATOM     33  C   UNL d   1       6.163   1.152   3.975  0.00  0.00     0.037 A 
ATOM     34  C   UNL d   1       5.102   1.312   3.081  0.00  0.00     0.011 A 
BRANCH  32  35
ATOM     35  O   UNL d   1       8.293   0.417   4.555  0.00  0.00    -0.356 OA
ATOM     36  C   UNL d   1       9.508  -0.233   4.206  0.00  0.00     0.210 C 
ENDBRANCH  32  35
ENDBRANCH  28  29
ENDBRANCH  26  28
ENDBRANCH   1  26
TORSDOF 7
