REMARK  4 active torsions:
REMARK  status: ('A' for Active; 'I' for Inactive)
REMARK    1  A    between atoms: C_9  and  C_1 
REMARK    2  A    between atoms: C_10  and  C_1 
REMARK    3  A    between atoms: N_11  and  C_6 
REMARK    4  A    between atoms: C_12  and  C_8 
ROOT
ATOM      1  C   UNL d   1       1.439  -0.256   0.050  0.00  0.00     0.308 C 
ATOM      2  N   UNL d   1       0.847   1.076  -0.176  0.00  0.00    -0.314 N 
ATOM      3  HN  UNL d   1       1.447   1.879  -0.366  1.00  0.00     0.166 HD
ATOM      4  N   UNL d   1       0.472  -1.348  -0.186  0.00  0.00    -0.328 N 
ATOM      5  HN  UNL d   1       0.780  -2.305  -0.361  1.00  0.00     0.164 HD
ATOM      6  C   UNL d   1      -0.418   1.218  -0.134  0.00  0.00     0.225 C 
ATOM      7  O   UNL d   1      -1.283   0.197  -0.021  0.00  0.00    -0.262 OA
ATOM      8  C   UNL d   1      -0.770  -1.039  -0.162  0.00  0.00     0.160 C 
ENDROOT
BRANCH   1   9
ATOM      9  C   UNL d   1       2.652  -0.423  -0.890  0.00  0.00     0.441 C 
ATOM     10  F   UNL d   1       3.588   0.539  -0.713  0.00  0.00    -0.166 F 
ATOM     11  F   UNL d   1       3.271  -1.619  -0.741  0.00  0.00    -0.166 F 
ATOM     12  F   UNL d   1       2.267  -0.360  -2.194  0.00  0.00    -0.166 F 
ENDBRANCH   1   9
BRANCH   1  13
ATOM     13  C   UNL d   1       2.039  -0.316   1.474  0.00  0.00     0.441 C 
ATOM     14  F   UNL d   1       2.519   0.889   1.879  0.00  0.00    -0.166 F 
ATOM     15  F   UNL d   1       1.087  -0.661   2.387  0.00  0.00    -0.166 F 
ATOM     16  F   UNL d   1       3.046  -1.204   1.618  0.00  0.00    -0.166 F 
ENDBRANCH   1  13
BRANCH   6  17
ATOM     17  N   UNL d   1      -1.020   2.459  -0.197  0.00  0.00    -0.356 N 
ATOM     18  C   UNL d   1      -2.444   2.663  -0.408  0.00  0.00     0.152 C 
ATOM     19  C   UNL d   1      -0.213   3.672  -0.281  0.00  0.00     0.152 C 
ENDBRANCH   6  17
BRANCH   8  20
ATOM     20  C   UNL d   1      -1.852  -2.041  -0.350  0.00  0.00     0.015 A 
ATOM     21  C   UNL d   1      -1.512  -3.313  -0.836  0.00  0.00     0.019 A 
ATOM     22  C   UNL d   1      -2.503  -4.274  -1.052  0.00  0.00     0.043 A 
ATOM     23  C   UNL d   1      -3.830  -3.965  -0.777  0.00  0.00     0.116 A 
ATOM     24  C   UNL d   1      -4.183  -2.714  -0.286  0.00  0.00     0.043 A 
ATOM     25  F   UNL d   1      -4.778  -4.884  -0.988  0.00  0.00    -0.206 F 
ATOM     26  C   UNL d   1      -3.197  -1.748  -0.069  0.00  0.00     0.019 A 
ENDBRANCH   8  20
TORSDOF 4
