REMARK  7 active torsions:
REMARK  status: ('A' for Active; 'I' for Inactive)
REMARK    1  A    between atoms: C_4  and  C_3 
REMARK    2  A    between atoms: C_14  and  C_5 
REMARK    3  A    between atoms: N_6  and  C_13 
REMARK    4  A    between atoms: C_10  and  C_15 
REMARK    5  A    between atoms: O_17  and  C_12 
REMARK    6  A    between atoms: C_28  and  O_17 
REMARK    7  A    between atoms: O_34  and  C_29 
ROOT
ATOM      1  C   UNL d   1       1.131  -2.325   0.092  0.00  0.00     0.053 A 
ATOM      2  C   UNL d   1       1.927  -2.746   1.176  0.00  0.00     0.054 A 
ATOM      3  C   UNL d   1       0.808  -3.261  -0.907  0.00  0.00     0.090 A 
ATOM      4  C   UNL d   1       2.345  -4.078   1.284  0.00  0.00     0.104 A 
ATOM      5  C   UNL d   1       1.165  -4.614  -0.744  0.00  0.00     0.041 A 
ATOM      6  C   UNL d   1       1.951  -5.021   0.334  0.00  0.00     0.039 A 
ENDROOT
BRANCH   1   7
ATOM      7  C   UNL d   1       0.709  -0.930   0.074  0.00  0.00     0.185 A 
ATOM      8  N   UNL d   1       1.279   0.110   0.647  0.00  0.00    -0.318 N 
ATOM      9  C   UNL d   1       0.381   1.126   0.406  0.00  0.00     0.138 A 
ATOM     10  HN  UNL d   1       2.167   0.152   1.147  1.00  0.00     0.169 HD
ATOM     11  N   UNL d   1      -0.719   0.731  -0.258  0.00  0.00    -0.242 N 
ATOM     12  O   UNL d   1      -0.503  -0.632  -0.478  0.00  0.00    -0.217 OA
ATOM     13  HN  UNL d   1      -1.522   1.294  -0.536  1.00  0.00     0.196 HD
BRANCH   9  14
ATOM     14  C   UNL d   1       0.650   2.503   0.814  0.00  0.00     0.010 A 
ATOM     15  C   UNL d   1       1.864   2.828   1.440  0.00  0.00     0.016 A 
ATOM     16  C   UNL d   1       2.171   4.154   1.767  0.00  0.00     0.017 A 
ATOM     17  C   UNL d   1       1.267   5.186   1.480  0.00  0.00     0.048 A 
ATOM     18  C   UNL d   1       0.039   4.859   0.886  0.00  0.00     0.017 A 
ATOM     19  C   UNL d   1      -0.267   3.532   0.559  0.00  0.00     0.016 A 
BRANCH  17  20
ATOM     20  C   UNL d   1       1.604   6.628   1.776  0.00  0.00     0.417 C 
ATOM     21  F   UNL d   1       2.827   6.796   2.352  0.00  0.00    -0.166 F 
ATOM     22  F   UNL d   1       1.613   7.399   0.653  0.00  0.00    -0.166 F 
ATOM     23  F   UNL d   1       0.710   7.211   2.622  0.00  0.00    -0.166 F 
ENDBRANCH  17  20
ENDBRANCH   9  14
ENDBRANCH   1   7
BRANCH   3  24
ATOM     24  O   UNL d   1       0.138  -2.836  -2.042  0.00  0.00    -0.310 OA
BRANCH  24  25
ATOM     25  C   UNL d   1       0.487  -3.419  -3.247  0.00  0.00     0.076 A 
ATOM     26  C   UNL d   1      -0.546  -3.766  -4.115  0.00  0.00     0.040 A 
ATOM     27  C   UNL d   1      -0.265  -4.437  -5.314  0.00  0.00     0.039 A 
ATOM     28  C   UNL d   1       1.054  -4.757  -5.646  0.00  0.00     0.068 A 
ATOM     29  C   UNL d   1       2.087  -4.354  -4.797  0.00  0.00     0.039 A 
ATOM     30  C   UNL d   1       1.812  -3.664  -3.615  0.00  0.00     0.040 A 
BRANCH  28  31
ATOM     31  O   UNL d   1       1.468  -5.452  -6.747  0.00  0.00    -0.356 OA
ATOM     32  C   UNL d   1       0.471  -5.862  -7.673  0.00  0.00     0.210 C 
ENDBRANCH  28  31
ENDBRANCH  24  25
ENDBRANCH   3  24
BRANCH   4  33
ATOM     33  N   UNL d   1       3.207  -4.487   2.400  0.00  0.00    -0.116 N 
ATOM     34  O   UNL d   1       3.469  -3.639   3.265  0.00  0.00    -0.532 OA
ATOM     35  O   UNL d   1       3.627  -5.651   2.405  0.00  0.00    -0.532 OA
ENDBRANCH   4  33
TORSDOF 7
