REMARK  8 active torsions:
REMARK  status: ('A' for Active; 'I' for Inactive)
REMARK    1  A    between atoms: C_5  and  C_1 
REMARK       I    between atoms: N_2  and  C_5 
REMARK    2  A    between atoms: C_12  and  C_3 
REMARK    3  A    between atoms: N_22  and  C_4 
REMARK    4  A    between atoms: C_16  and  C_6 
REMARK    5  A    between atoms: C_17  and  N_7 
REMARK    6  A    between atoms: N_13  and  C_18 
REMARK    7  A    between atoms: O_31  and  C_16 
REMARK    8  A    between atoms: C_32  and  O_31 
ROOT
ATOM      1  C   UNL d   1      -0.220   1.227  -0.043  0.00  0.00     0.084 A 
ATOM      2  C   UNL d   1       1.105   0.793  -0.068  0.00  0.00     0.157 A 
ATOM      3  N   UNL d   1       1.066  -0.593  -0.065  0.00  0.00    -0.251 N 
ATOM      4  N   UNL d   1      -0.221  -1.038  -0.018  0.00  0.00    -0.303 N 
ATOM      5  HN  UNL d   1      -0.536  -2.006   0.049  1.00  0.00     0.186 HD
ATOM      6  C   UNL d   1      -0.979   0.050  -0.078  0.00  0.00     0.127 A 
ENDROOT
BRANCH   1   7
ATOM      7  C   UNL d   1      -0.707   2.595   0.093  0.00  0.00     0.282 C 
ATOM      8  N   UNL d   1      -1.834   3.094  -0.608  0.00  0.00    -0.203 N 
ATOM      9  C   UNL d   1      -2.418   4.357  -0.507  0.00  0.00     0.142 A 
ATOM     10  N   UNL d   1      -2.482   2.318  -1.530  0.00  0.00    -0.300 N 
ATOM     11  C   UNL d   1      -3.458   4.391  -1.414  0.00  0.00     0.101 A 
ATOM     12  C   UNL d   1      -3.444   3.112  -2.006  0.00  0.00     0.129 A 
ATOM     13  HN  UNL d   1      -2.276   1.354  -1.794  1.00  0.00     0.186 HD
ATOM     14  O   UNL d   1      -0.152   3.362   0.874  0.00  0.00    -0.265 OA
BRANCH   9  15
ATOM     15  N   UNL d   1      -1.993   5.305   0.359  0.00  0.00    -0.383 N 
ATOM     16  H   UNL d   1      -1.169   5.176   0.954  0.00  0.00     0.157 HD
ATOM     17  H   UNL d   1      -2.412   6.236   0.390  0.00  0.00     0.157 HD
ENDBRANCH   9  15
BRANCH  11  18
ATOM     18  C   UNL d   1      -4.365   5.496  -1.637  0.00  0.00     0.298 C 
ATOM     19  O   UNL d   1      -4.292   6.564  -1.040  0.00  0.00    -0.259 OA
BRANCH  18  20
ATOM     20  O   UNL d   1      -5.346   5.177  -2.530  0.00  0.00    -0.318 OA
BRANCH  20  21
ATOM     21  C   UNL d   1      -6.476   6.061  -2.522  0.00  0.00     0.174 C 
ATOM     22  C   UNL d   1      -7.449   5.572  -1.465  0.00  0.00     0.034 C 
ENDBRANCH  20  21
ENDBRANCH  18  20
ENDBRANCH  11  18
ENDBRANCH   1   7
BRANCH   2  23
ATOM     23  C   UNL d   1       2.358   1.568  -0.032  0.00  0.00     0.435 C 
ATOM     24  F   UNL d   1       2.181   2.885   0.224  0.00  0.00    -0.165 F 
ATOM     25  F   UNL d   1       3.222   1.108   0.905  0.00  0.00    -0.165 F 
ATOM     26  F   UNL d   1       2.996   1.526  -1.228  0.00  0.00    -0.165 F 
ENDBRANCH   2  23
BRANCH   3  27
ATOM     27  C   UNL d   1       2.093  -1.590  -0.111  0.00  0.00     0.057 A 
ATOM     28  C   UNL d   1       1.808  -2.861   0.428  0.00  0.00     0.034 A 
ATOM     29  C   UNL d   1       2.740  -3.902   0.362  0.00  0.00     0.038 A 
ATOM     30  C   UNL d   1       3.967  -3.683  -0.269  0.00  0.00     0.103 A 
ATOM     31  C   UNL d   1       4.270  -2.424  -0.803  0.00  0.00     0.038 A 
ATOM     32  C   UNL d   1       3.336  -1.382  -0.719  0.00  0.00     0.034 A 
BRANCH  30  33
ATOM     33  N   UNL d   1       4.928  -4.783  -0.405  0.00  0.00    -0.116 N 
ATOM     34  O   UNL d   1       5.974  -4.560  -1.031  0.00  0.00    -0.532 OA
ATOM     35  O   UNL d   1       4.633  -5.873   0.105  0.00  0.00    -0.532 OA
ENDBRANCH  30  33
ENDBRANCH   3  27
TORSDOF 8
