REMARK  3 active torsions:
REMARK  status: ('A' for Active; 'I' for Inactive)
REMARK    1  A    between atoms: N_2  and  C_1 
REMARK    2  A    between atoms: N_3  and  C_1 
REMARK    3  A    between atoms: C_4  and  C_1 
ROOT
ATOM      1  C   UNL d   1       1.109   0.007  -0.456  0.00  0.00     0.489 C 
ENDROOT
BRANCH   1   2
ATOM      2  N   UNL d   1       1.149   0.850  -1.677  0.00  0.00     0.131 N 
ATOM      3  C   UNL d   1       1.744   2.189  -1.416  0.00  0.00     0.301 C 
ATOM      4  C   UNL d   1       0.811   3.177  -0.689  0.00  0.00     0.198 C 
ATOM      5  O   UNL d   1      -0.441   3.323  -1.365  0.00  0.00    -0.388 OA
ATOM      6  C   UNL d   1      -1.079   2.052  -1.535  0.00  0.00     0.198 C 
ATOM      7  C   UNL d   1      -0.173   1.086  -2.308  0.00  0.00     0.301 C 
ENDBRANCH   1   2
BRANCH   1   8
ATOM      8  N   UNL d   1       0.236  -1.154  -0.670  0.00  0.00     0.131 N 
ATOM      9  C   UNL d   1       0.718  -2.153  -1.641  0.00  0.00     0.301 C 
ATOM     10  C   UNL d   1      -0.391  -3.180  -1.921  0.00  0.00     0.198 C 
ATOM     11  O   UNL d   1      -0.793  -3.850  -0.718  0.00  0.00    -0.388 OA
ATOM     12  C   UNL d   1      -1.253  -2.898   0.251  0.00  0.00     0.198 C 
ATOM     13  C   UNL d   1      -0.174  -1.847   0.564  0.00  0.00     0.301 C 
ENDBRANCH   1   8
BRANCH   1  14
ATOM     14  C   UNL d   1       2.515  -0.364   0.035  0.00  0.00     0.007 A 
ATOM     15  C   UNL d   1       2.801  -0.420   1.406  0.00  0.00     0.028 A 
ATOM     16  C   UNL d   1       4.083  -0.760   1.810  0.00  0.00     0.088 A 
ATOM     17  N   UNL d   1       5.093  -1.039   0.961  0.00  0.00    -0.375 N 
ATOM     18  C   UNL d   1       4.808  -0.980  -0.356  0.00  0.00     0.088 A 
ATOM     19  HN  UNL d   1       6.025  -1.282   1.297  1.00  0.00     0.164 HD
ATOM     20  C   UNL d   1       3.556  -0.659  -0.858  0.00  0.00     0.028 A 
ENDBRANCH   1  14
TORSDOF 3
