REMARK  4 active torsions:
REMARK  status: ('A' for Active; 'I' for Inactive)
REMARK    1  A    between atoms: C_9  and  N_2 
REMARK    2  A    between atoms: C_8  and  N_3 
REMARK    3  A    between atoms: C_10  and  C_5 
REMARK    4  A    between atoms: C_13  and  C_14 
ROOT
ATOM      1  C   UNL d   1       0.964  -0.907  -0.142  0.00  0.00     0.157 A 
ATOM      2  N   UNL d   1      -0.417  -1.183  -0.010  0.00  0.00    -0.294 N 
ATOM      3  N   UNL d   1       2.090  -1.513  -0.328  0.00  0.00    -0.322 N 
ATOM      4  HN  UNL d   1       2.942  -0.953  -0.311  1.00  0.00     0.169 HD
ATOM      5  C   UNL d   1      -1.242  -0.005   0.083  0.00  0.00     0.033 A 
ATOM      6  S   UNL d   1       1.198   0.871   0.010  0.00  0.00    -0.063 SA
ATOM      7  C   UNL d   1      -0.506   1.128   0.090  0.00  0.00     0.079 A 
ENDROOT
BRANCH   2   8
ATOM      8  C   UNL d   1      -0.891  -2.522   0.056  0.00  0.00     0.041 A 
ATOM      9  C   UNL d   1      -0.491  -3.398   1.075  0.00  0.00     0.030 A 
ATOM     10  C   UNL d   1      -0.922  -4.739   1.092  0.00  0.00     0.010 A 
ATOM     11  C   UNL d   1      -1.796  -5.244   0.111  0.00  0.00    -0.051 A 
ATOM     12  C   UNL d   1      -2.217  -4.349  -0.880  0.00  0.00     0.010 A 
ATOM     13  C   UNL d   1      -1.735  -3.036  -0.931  0.00  0.00     0.030 A 
BRANCH  11  14
ATOM     14  C   UNL d   1      -2.235  -6.718   0.108  0.00  0.00    -0.024 C 
ATOM     15  C   UNL d   1      -3.051  -7.109  -1.148  0.00  0.00     0.019 C 
ATOM     16  C   UNL d   1      -1.001  -7.646   0.139  0.00  0.00     0.019 C 
ATOM     17  C   UNL d   1      -3.116  -6.997   1.341  0.00  0.00     0.019 C 
ENDBRANCH  11  14
ENDBRANCH   2   8
BRANCH   5  18
ATOM     18  C   UNL d   1      -2.795   0.073   0.158  0.00  0.00    -0.008 C 
ATOM     19  C   UNL d   1      -3.471  -0.965   1.079  0.00  0.00     0.021 C 
ATOM     20  C   UNL d   1      -3.284   1.440   0.740  0.00  0.00     0.021 C 
ATOM     21  C   UNL d   1      -3.396   0.034  -1.267  0.00  0.00     0.021 C 
ENDBRANCH   5  18
BRANCH   3  22
ATOM     22  C   UNL d   1       2.209  -2.870  -0.547  0.00  0.00     0.106 A 
ATOM     23  N   UNL d   1       1.449  -3.427  -1.509  0.00  0.00    -0.352 N 
ATOM     24  C   UNL d   1       1.560  -4.765  -1.676  0.00  0.00     0.089 A 
ATOM     25  HN  UNL d   1       0.820  -2.867  -2.084  1.00  0.00     0.166 HD
ATOM     26  C   UNL d   1       2.448  -5.563  -0.974  0.00  0.00     0.017 A 
ATOM     27  C   UNL d   1       3.286  -4.953  -0.049  0.00  0.00     0.005 A 
ATOM     28  C   UNL d   1       3.166  -3.583   0.165  0.00  0.00     0.048 A 
ENDBRANCH   3  22
TORSDOF 4
