REMARK  8 active torsions:
REMARK  status: ('A' for Active; 'I' for Inactive)
REMARK    1  A    between atoms: N_6  and  C_1 
REMARK    2  A    between atoms: C_9  and  C_2 
REMARK    3  A    between atoms: C_10  and  C_4 
REMARK       I    between atoms: C_7  and  N_6 
REMARK    4  A    between atoms: C_8  and  C_7 
REMARK    5  A    between atoms: O_18  and  C_9 
REMARK    6  A    between atoms: O_19  and  C_10 
REMARK    7  A    between atoms: C_20  and  O_18 
REMARK    8  A    between atoms: C_21  and  O_19 
ROOT
ATOM      1  C   UNL d   1       0.473  -0.748   0.162  0.00  0.00     0.094 A 
ATOM      2  C   UNL d   1       1.441   0.236   0.056  0.00  0.00     0.080 A 
ATOM      3  C   UNL d   1       0.795   1.556   0.014  0.00  0.00    -0.020 A 
ATOM      4  C   UNL d   1      -0.594   1.470   0.129  0.00  0.00     0.089 A 
ATOM      5  S   UNL d   1      -1.103  -0.149   0.301  0.00  0.00    -0.065 SA
ATOM      6  C   UNL d   1       1.503   2.882  -0.089  0.00  0.00     0.051 C 
ENDROOT
BRANCH   1   7
ATOM      7  N   UNL d   1       0.518  -2.113   0.351  0.00  0.00    -0.313 N 
ATOM      8  C   UNL d   1       0.675  -3.030  -0.666  0.00  0.00     0.330 C 
ATOM      9  O   UNL d   1       0.244  -4.168  -0.425  0.00  0.00    -0.263 OA
ATOM     10  H   UNL d   1      -0.205  -2.476   0.967  0.00  0.00     0.169 HD
BRANCH   8  11
ATOM     11  C   UNL d   1       1.343  -2.703  -2.017  0.00  0.00     0.472 C 
ATOM     12  F   UNL d   1       1.541  -1.381  -2.269  0.00  0.00    -0.162 F 
ATOM     13  F   UNL d   1       2.561  -3.305  -2.136  0.00  0.00    -0.162 F 
ATOM     14  F   UNL d   1       0.597  -3.164  -3.062  0.00  0.00    -0.162 F 
ENDBRANCH   8  11
ENDBRANCH   1   7
BRANCH   2  15
ATOM     15  C   UNL d   1       2.897   0.011   0.077  0.00  0.00     0.296 C 
ATOM     16  O   UNL d   1       3.712   0.907   0.250  0.00  0.00    -0.259 OA
BRANCH  15  17
ATOM     17  O   UNL d   1       3.257  -1.294  -0.106  0.00  0.00    -0.318 OA
BRANCH  17  18
ATOM     18  C   UNL d   1       4.676  -1.541  -0.099  0.00  0.00     0.174 C 
ATOM     19  C   UNL d   1       5.286  -1.226  -1.454  0.00  0.00     0.034 C 
ENDBRANCH  17  18
ENDBRANCH  15  17
ENDBRANCH   2  15
BRANCH   4  20
ATOM     20  C   UNL d   1      -1.550   2.576   0.178  0.00  0.00     0.300 C 
ATOM     21  O   UNL d   1      -1.252   3.762   0.112  0.00  0.00    -0.259 OA
BRANCH  20  22
ATOM     22  O   UNL d   1      -2.826   2.127   0.369  0.00  0.00    -0.317 OA
BRANCH  22  23
ATOM     23  C   UNL d   1      -3.800   3.134   0.683  0.00  0.00     0.174 C 
ATOM     24  C   UNL d   1      -3.864   3.293   2.191  0.00  0.00     0.034 C 
ENDBRANCH  22  23
ENDBRANCH  20  22
ENDBRANCH   4  20
TORSDOF 8
