REMARK  6 active torsions:
REMARK  status: ('A' for Active; 'I' for Inactive)
REMARK    1  A    between atoms: C_6  and  C_1 
REMARK       I    between atoms: N_10  and  C_6 
REMARK    2  A    between atoms: C_8  and  C_11 
REMARK    3  A    between atoms: C_9  and  N_12 
REMARK    4  A    between atoms: N_13  and  C_9 
REMARK    5  A    between atoms: N_12  and  N_10 
REMARK    6  A    between atoms: C_17  and  N_13 
ROOT
ATOM      1  C   UNL d   1      -3.336  -4.447   0.066  0.00  0.00     0.191 C 
ATOM      2  S   UNL d   1      -4.935  -4.603   0.544  0.00  0.00    -0.039 SA
ENDROOT
BRANCH   1   3
ATOM      3  N   UNL d   1      -2.689  -3.251  -0.135  0.00  0.00    -0.273 N 
ATOM      4  H   UNL d   1      -1.670  -3.265  -0.057  0.00  0.00     0.189 HD
BRANCH   3   5
ATOM      5  N   UNL d   1      -3.265  -2.048   0.354  0.00  0.00    -0.262 N 
ATOM      6  C   UNL d   1      -2.450  -1.145   1.017  0.00  0.00     0.288 C 
ATOM      7  O   UNL d   1      -1.222  -1.237   1.011  0.00  0.00    -0.264 OA
ATOM      8  H   UNL d   1      -4.266  -2.031   0.555  0.00  0.00     0.190 HD
BRANCH   6   9
ATOM      9  C   UNL d   1      -3.173  -0.087   1.741  0.00  0.00     0.119 A 
ATOM     10  N   UNL d   1      -4.519  -0.049   1.834  0.00  0.00    -0.294 N 
ATOM     11  N   UNL d   1      -4.771   1.045   2.590  0.00  0.00    -0.301 N 
ATOM     12  HN  UNL d   1      -5.193  -0.698   1.428  1.00  0.00     0.187 HD
ATOM     13  C   UNL d   1      -6.133   1.386   2.924  0.00  0.00     0.177 C 
ATOM     14  C   UNL d   1      -3.639   1.714   2.978  0.00  0.00     0.026 A 
ATOM     15  C   UNL d   1      -2.590   1.002   2.438  0.00  0.00     0.063 A 
ATOM     16  C   UNL d   1      -3.651   2.942   3.811  0.00  0.00     0.070 C 
ENDBRANCH   6   9
ENDBRANCH   3   5
ENDBRANCH   1   3
BRANCH   1  17
ATOM     17  N   UNL d   1      -2.589  -5.585  -0.068  0.00  0.00    -0.332 N 
ATOM     18  H   UNL d   1      -2.995  -6.389   0.403  0.00  0.00     0.168 HD
BRANCH  17  19
ATOM     19  C   UNL d   1      -1.475  -5.864  -0.883  0.00  0.00     0.035 A 
ATOM     20  C   UNL d   1      -1.181  -5.144  -2.046  0.00  0.00     0.045 A 
ATOM     21  C   UNL d   1      -0.151  -5.570  -2.907  0.00  0.00     0.050 A 
ATOM     22  C   UNL d   1       0.617  -6.691  -2.556  0.00  0.00     0.016 A 
ATOM     23  C   UNL d   1       0.338  -7.399  -1.389  0.00  0.00     0.003 A 
ATOM     24  C   UNL d   1      -0.719  -6.999  -0.572  0.00  0.00     0.029 A 
BRANCH  21  25
ATOM     25  C   UNL d   1       0.099  -4.884  -4.228  0.00  0.00     0.417 C 
ATOM     26  F   UNL d   1      -0.721  -3.822  -4.460  0.00  0.00    -0.166 F 
ATOM     27  F   UNL d   1       1.370  -4.409  -4.340  0.00  0.00    -0.166 F 
ATOM     28  F   UNL d   1      -0.078  -5.726  -5.285  0.00  0.00    -0.166 F 
ENDBRANCH  21  25
ENDBRANCH  17  19
ENDBRANCH   1  17
TORSDOF 6
