REMARK  1 active torsions:
REMARK  status: ('A' for Active; 'I' for Inactive)
REMARK       I    between atoms: C_7  and  N_1 
REMARK    1  A    between atoms: C_9  and  C_5 
ROOT
ATOM      1  N   UNL d   1       0.346  -1.610  -0.120  0.00  0.00    -0.274 N 
ATOM      2  C   UNL d   1       0.789   0.774   0.137  0.00  0.00     0.106 C 
ATOM      3  C   UNL d   1       1.245  -0.657   0.350  0.00  0.00     0.277 C 
ATOM      4  N   UNL d   1      -0.558   1.018  -0.004  0.00  0.00    -0.321 N 
ATOM      5  C   UNL d   1       1.635   1.819   0.042  0.00  0.00     0.072 C 
ATOM      6  C   UNL d   1      -1.523   0.061  -0.028  0.00  0.00     0.240 C 
ATOM      7  C   UNL d   1       0.848  -2.846  -0.495  0.00  0.00     0.223 C 
ATOM      8  C   UNL d   1      -1.069  -1.377   0.141  0.00  0.00     0.238 C 
ATOM      9  O   UNL d   1       2.248  -0.915   1.010  0.00  0.00    -0.265 OA
ATOM     10  O   UNL d   1      -2.712   0.365  -0.094  0.00  0.00    -0.271 OA
ATOM     11  O   UNL d   1       2.024  -3.029  -0.818  0.00  0.00    -0.273 OA
ATOM     12  C   UNL d   1      -0.098  -4.026  -0.576  0.00  0.00     0.117 C 
ATOM     13  H   UNL d   1      -0.894   1.965  -0.121  0.00  0.00     0.169 HD
ENDROOT
BRANCH   5  14
ATOM     14  C   UNL d   1       3.047   1.722  -0.005  0.00  0.00     0.077 A 
ATOM     15  O   UNL d   1       3.737   1.740  -1.192  0.00  0.00    -0.323 OA
ATOM     16  C   UNL d   1       5.062   1.681  -0.917  0.00  0.00     0.142 A 
ATOM     17  C   UNL d   1       5.266   1.651   0.439  0.00  0.00     0.027 A 
ATOM     18  C   UNL d   1       3.978   1.682   1.025  0.00  0.00     0.039 A 
ENDBRANCH   5  14
TORSDOF 1
