REMARK  5 active torsions:
REMARK  status: ('A' for Active; 'I' for Inactive)
REMARK    1  A    between atoms: S_10  and  C_1 
REMARK    2  A    between atoms: C_18  and  N_2 
REMARK       I    between atoms: N_7  and  C_9 
REMARK    3  A    between atoms: C_16  and  N_8 
REMARK    4  A    between atoms: C_9  and  C_11 
REMARK    5  A    between atoms: C_11  and  S_10 
ROOT
ATOM      1  N   UNL d   1      -0.564  -6.271  -0.029  0.00  0.00    -0.348 N 
ATOM      2  N   UNL d   1      -3.287  -6.182   0.863  0.00  0.00    -0.378 N 
ATOM      3  C   UNL d   1       0.619  -5.576   0.229  0.00  0.00     0.229 C 
ATOM      4  C   UNL d   1      -1.588  -5.672  -0.903  0.00  0.00     0.145 C 
ATOM      5  C   UNL d   1      -1.100  -7.350   0.813  0.00  0.00     0.145 C 
ATOM      6  C   UNL d   1      -2.236  -6.799   1.694  0.00  0.00     0.143 C 
ATOM      7  C   UNL d   1      -2.812  -5.160  -0.099  0.00  0.00     0.143 C 
ATOM      8  O   UNL d   1       0.855  -4.503  -0.331  0.00  0.00    -0.273 OA
ENDROOT
BRANCH   3   9
ATOM      9  C   UNL d   1       1.601  -6.228   1.210  0.00  0.00     0.185 C 
BRANCH   9  10
ATOM     10  S   UNL d   1       3.137  -5.262   1.421  0.00  0.00    -0.082 SA
BRANCH  10  11
ATOM     11  C   UNL d   1       4.085  -6.353   2.367  0.00  0.00     0.172 A 
ATOM     12  N   UNL d   1       5.292  -6.051   2.938  0.00  0.00    -0.256 N 
ATOM     13  N   UNL d   1       5.763  -7.139   3.577  0.00  0.00    -0.004 NA
ATOM     14  N   UNL d   1       4.844  -8.078   3.395  0.00  0.00    -0.007 NA
ATOM     15  N   UNL d   1       3.793  -7.603   2.649  0.00  0.00    -0.265 N 
ATOM     16  HN  UNL d   1       2.956  -8.115   2.371  1.00  0.00     0.186 HD
BRANCH  12  17
ATOM     17  C   UNL d   1       6.025  -4.810   3.009  0.00  0.00     0.144 C 
ATOM     18  C   UNL d   1       7.036  -4.645   1.888  0.00  0.00     0.028 C 
ENDBRANCH  12  17
ENDBRANCH  10  11
ENDBRANCH   9  10
ENDBRANCH   3   9
BRANCH   2  19
ATOM     19  C   UNL d   1      -4.507  -6.812   0.669  0.00  0.00     0.030 A 
ATOM     20  C   UNL d   1      -5.672  -6.058   0.449  0.00  0.00     0.029 A 
ATOM     21  C   UNL d   1      -6.931  -6.665   0.340  0.00  0.00     0.002 A 
ATOM     22  C   UNL d   1      -7.051  -8.046   0.432  0.00  0.00     0.000 A 
ATOM     23  C   UNL d   1      -5.912  -8.819   0.626  0.00  0.00     0.002 A 
ATOM     24  C   UNL d   1      -4.660  -8.204   0.745  0.00  0.00     0.029 A 
ENDBRANCH   2  19
TORSDOF 5
