REMARK  7 active torsions:
REMARK  status: ('A' for Active; 'I' for Inactive)
REMARK    1  A    between atoms: N_11  and  C_2 
REMARK    2  A    between atoms: N_13  and  C_5 
REMARK    3  A    between atoms: N_14  and  C_7 
REMARK       I    between atoms: C_9  and  N_12 
REMARK       I    between atoms: N_16  and  C_9 
REMARK    4  A    between atoms: N_12  and  N_14 
REMARK    5  A    between atoms: C_21  and  N_16 
REMARK    6  A    between atoms: C_22  and  C_21 
REMARK    7  A    between atoms: C_23  and  C_22 
ROOT
ATOM      1  C   UNL d   1       0.517   0.084  -0.215  0.00  0.00     0.115 A 
ATOM      2  C   UNL d   1      -0.256  -1.097  -0.119  0.00  0.00     0.127 A 
ATOM      3  N   UNL d   1      -1.606  -1.030   0.018  0.00  0.00    -0.331 N 
ATOM      4  HN  UNL d   1      -2.159  -1.887   0.045  1.00  0.00     0.168 HD
ATOM      5  C   UNL d   1      -0.085   1.352  -0.034  0.00  0.00     0.057 A 
ATOM      6  C   UNL d   1      -1.475   1.348   0.143  0.00  0.00     0.074 A 
ATOM      7  C   UNL d   1      -2.213   0.167   0.117  0.00  0.00     0.098 A 
ATOM      8  C   UNL d   1       1.893  -0.017  -0.615  0.00  0.00     0.105 C 
ATOM      9  N   UNL d   1       3.012  -0.090  -0.914  0.00  0.00    -0.191 NA
ENDROOT
BRANCH   2  10
ATOM     10  N   UNL d   1       0.331  -2.370  -0.221  0.00  0.00    -0.375 N 
ATOM     11  C   UNL d   1      -0.565  -3.491  -0.495  0.00  0.00     0.150 C 
ATOM     12  C   UNL d   1       1.440  -2.683   0.686  0.00  0.00     0.150 C 
ENDBRANCH   2  10
BRANCH   5  13
ATOM     13  N   UNL d   1       0.604   2.563  -0.025  0.00  0.00    -0.388 N 
ATOM     14  C   UNL d   1      -0.001   3.802  -0.503  0.00  0.00     0.149 C 
ATOM     15  C   UNL d   1       1.939   2.696   0.556  0.00  0.00     0.149 C 
ENDBRANCH   5  13
BRANCH   7  16
ATOM     16  N   UNL d   1      -3.617   0.175   0.286  0.00  0.00    -0.203 NA
ATOM     17  H   UNL d   1      -3.986  -0.744   0.016  0.00  0.00     0.149 HD
BRANCH  16  18
ATOM     18  N   UNL d   1      -4.305   1.262  -0.316  0.00  0.00    -0.171 NA
ATOM     19  C   UNL d   1      -5.567   0.983  -0.830  0.00  0.00     0.308 C 
ATOM     20  O   UNL d   1      -6.032  -0.143  -0.942  0.00  0.00    -0.253 OA
ATOM     21  N   UNL d   1      -6.220   2.145  -1.183  0.00  0.00    -0.347 N 
ATOM     22  H   UNL d   1      -5.643   2.957  -1.344  0.00  0.00     0.163 HD
ATOM     23  H   UNL d   1      -4.288   2.093   0.264  0.00  0.00     0.152 HD
BRANCH  21  24
ATOM     24  C   UNL d   1      -7.558   2.154  -1.744  0.00  0.00     0.124 C 
BRANCH  24  25
ATOM     25  C   UNL d   1      -8.639   2.392  -0.687  0.00  0.00     0.019 C 
BRANCH  25  26
ATOM     26  C   UNL d   1      -8.533   3.768  -0.024  0.00  0.00    -0.003 C 
ATOM     27  C   UNL d   1      -9.637   3.983   1.002  0.00  0.00     0.005 C 
ENDBRANCH  25  26
ENDBRANCH  24  25
ENDBRANCH  21  24
ENDBRANCH  16  18
ENDBRANCH   7  16
TORSDOF 7
