REMARK  0 active torsions:
REMARK  status: ('A' for Active; 'I' for Inactive)
ROOT
ATOM      1  C   UNL d   1      -0.685   1.203   0.002  0.00  0.00     0.036 A 
ATOM      2  C   UNL d   1      -0.686  -1.202   0.002  0.00  0.00     0.036 A 
ATOM      3  C   UNL d   1       1.398   0.000   0.002  0.00  0.00     0.014 A 
ATOM      4  C   UNL d   1      -1.390   0.001   0.001  0.00  0.00     0.047 A 
ATOM      5  C   UNL d   1       0.709   1.212   0.002  0.00  0.00     0.043 A 
ATOM      6  C   UNL d   1       0.708  -1.211   0.002  0.00  0.00     0.043 A 
ATOM      7 CL   UNL d   1      -1.545   2.694   0.002  0.00  0.00    -0.084 Cl
ATOM      8 CL   UNL d   1      -1.547  -2.692   0.003  0.00  0.00    -0.084 Cl
ATOM      9 BR   UNL d   1       3.288  -0.001   0.002  0.00  0.00    -0.051 Br
ENDROOT
TORSDOF 0
