REMARK  1 active torsions:
REMARK  status: ('A' for Active; 'I' for Inactive)
REMARK    1  A    between atoms: O_14  and  N_10 
ROOT
ATOM      1  C   UNL d   1      -2.358   0.424   1.095  0.00  0.00     0.022 A 
ATOM      2  C   UNL d   1      -2.513  -0.720   0.303  0.00  0.00     0.011 A 
ATOM      3  C   UNL d   1      -1.301  -1.489  -0.119  0.00  0.00     0.044 C 
ATOM      4  N   UNL d   1      -3.413   1.171   1.528  0.00  0.00    -0.362 N 
ATOM      5  HN  UNL d   1      -3.265   2.007   2.094  1.00  0.00     0.165 HD
ATOM      6  C   UNL d   1       0.134  -0.080   1.374  0.00  0.00    -0.037 C 
ATOM      7  C   UNL d   1      -0.999   0.955   1.490  0.00  0.00     0.067 C 
ATOM      8  C   UNL d   1      -3.808  -1.079  -0.062  0.00  0.00     0.017 A 
ATOM      9  C   UNL d   1       0.020  -0.744  -0.007  0.00  0.00     0.069 C 
ATOM     10  N   UNL d   1      -1.203  -2.720  -0.526  0.00  0.00    -0.273 N 
ATOM     11  HN  UNL d   1      -0.328  -3.122  -0.860  1.00  0.00     0.194 HD
ATOM     12  C   UNL d   1      -4.660   0.776   1.188  0.00  0.00     0.005 A 
ATOM     13  C   UNL d   1      -4.896  -0.339   0.397  0.00  0.00     0.025 A 
ATOM     14  C   UNL d   1       0.042  -1.123   2.510  0.00  0.00     0.015 C 
ATOM     15  C   UNL d   1       1.499   0.620   1.490  0.00  0.00     0.015 C 
ATOM     16  C   UNL d   1      -5.815   1.588   1.694  0.00  0.00     0.068 C 
ENDROOT
BRANCH  10  17
ATOM     17  O   UNL d   1      -2.389  -3.445  -0.468  0.00  0.00    -0.290 OA
ATOM     18  H   UNL d   1      -2.106  -4.329  -0.771  0.00  0.00     0.244 HD
ENDBRANCH  10  17
TORSDOF 1
