REMARK  5 active torsions:
REMARK  status: ('A' for Active; 'I' for Inactive)
REMARK    1  A    between atoms: C_4  and  C_1 
REMARK    2  A    between atoms: C_5  and  C_2 
REMARK    3  A    between atoms: C_6  and  C_3 
REMARK       I    between atoms: N_10  and  C_4 
REMARK       I    between atoms: N_9  and  C_5 
REMARK    4  A    between atoms: N_12  and  N_9 
REMARK    5  A    between atoms: N_11  and  N_10 
ROOT
ATOM      1  C   UNL d   1      -0.021   0.959  -0.062  0.00  0.00     0.102 A 
ATOM      2  C   UNL d   1       0.820  -0.301   0.012  0.00  0.00     0.102 A 
ATOM      3  C   UNL d   1      -0.691  -0.402  -0.058  0.00  0.00     0.046 A 
ENDROOT
BRANCH   1   4
ATOM      4  C   UNL d   1       0.106   1.816  -1.266  0.00  0.00     0.237 C 
ATOM      5  O   UNL d   1       0.757   1.470  -2.246  0.00  0.00    -0.272 OA
ATOM      6  N   UNL d   1      -0.548   3.035  -1.167  0.00  0.00    -0.294 N 
ATOM      7  H   UNL d   1      -1.114   3.260  -0.352  0.00  0.00     0.183 HD
BRANCH   6   8
ATOM      8  N   UNL d   1      -0.514   3.936  -2.252  0.00  0.00    -0.247 NA
ATOM      9  H   UNL d   1      -0.237   3.390  -3.081  0.00  0.00     0.143 HD
ATOM     10  H   UNL d   1       0.277   4.570  -2.109  0.00  0.00     0.143 HD
ENDBRANCH   6   8
ENDBRANCH   1   4
BRANCH   2  11
ATOM     11  C   UNL d   1       1.544  -0.599   1.270  0.00  0.00     0.237 C 
ATOM     12  O   UNL d   1       1.282  -0.013   2.318  0.00  0.00    -0.272 OA
ATOM     13  N   UNL d   1       2.515  -1.579   1.155  0.00  0.00    -0.294 N 
ATOM     14  H   UNL d   1       2.623  -2.101   0.288  0.00  0.00     0.183 HD
BRANCH  13  15
ATOM     15  N   UNL d   1       3.252  -1.974   2.292  0.00  0.00    -0.247 NA
ATOM     16  H   UNL d   1       2.784  -1.558   3.111  0.00  0.00     0.143 HD
ATOM     17  H   UNL d   1       4.158  -1.498   2.261  0.00  0.00     0.143 HD
ENDBRANCH  13  15
ENDBRANCH   2  11
BRANCH   3  18
ATOM     18  C   UNL d   1      -1.371  -0.947  -1.294  0.00  0.00    -0.052 A 
ATOM     19  C   UNL d   1      -0.959  -2.149  -1.897  0.00  0.00     0.007 A 
ATOM     20  C   UNL d   1      -1.590  -2.646  -3.041  0.00  0.00     0.001 A 
ATOM     21  C   UNL d   1      -2.661  -1.957  -3.602  0.00  0.00     0.000 A 
ATOM     22  C   UNL d   1      -3.106  -0.777  -3.011  0.00  0.00     0.001 A 
ATOM     23  C   UNL d   1      -2.470  -0.285  -1.869  0.00  0.00     0.007 A 
ENDBRANCH   3  18
TORSDOF 5
