REMARK  5 active torsions:
REMARK  status: ('A' for Active; 'I' for Inactive)
REMARK       I    between atoms: N_3  and  C_1 
REMARK    1  A    between atoms: C_4  and  C_1 
REMARK    2  A    between atoms: C_2  and  O_8 
REMARK       I    between atoms: C_5  and  N_3 
REMARK    3  A    between atoms: O_8  and  C_5 
REMARK    4  A    between atoms: C_13  and  C_6 
REMARK    5  A    between atoms: C_14  and  C_7 
ROOT
ATOM      1  C   UNL d   1       0.650   3.866  -2.535  0.00  0.00     0.266 C 
ATOM      2  N   UNL d   1       0.105   3.291  -1.399  0.00  0.00    -0.268 N 
ATOM      3  C   UNL d   1       0.759   2.383  -0.580  0.00  0.00     0.372 C 
ATOM      4  O   UNL d   1       1.805   3.702  -2.909  0.00  0.00    -0.267 OA
ATOM      5  O   UNL d   1       0.136   1.581   0.104  0.00  0.00    -0.238 OA
ATOM      6  H   UNL d   1      -0.900   3.239  -1.314  0.00  0.00     0.174 HD
ENDROOT
BRANCH   3   7
ATOM      7  O   UNL d   1       2.148   2.453  -0.681  0.00  0.00    -0.260 OA
BRANCH   7   8
ATOM      8  C   UNL d   1       2.943   1.298  -0.485  0.00  0.00     0.094 A 
ATOM      9  C   UNL d   1       2.752   0.159  -1.312  0.00  0.00    -0.020 A 
ATOM     10  C   UNL d   1       3.620  -0.933  -1.139  0.00  0.00     0.010 A 
ATOM     11  C   UNL d   1       4.678  -0.873  -0.239  0.00  0.00     0.001 A 
ATOM     12  C   UNL d   1       4.894   0.281   0.510  0.00  0.00     0.010 A 
ATOM     13  C   UNL d   1       4.044   1.399   0.400  0.00  0.00    -0.020 A 
BRANCH   9  14
ATOM     14  C   UNL d   1       1.739   0.106  -2.453  0.00  0.00     0.013 C 
ATOM     15  C   UNL d   1       2.416  -0.132  -3.808  0.00  0.00     0.015 C 
ATOM     16  C   UNL d   1       0.636  -0.930  -2.221  0.00  0.00     0.015 C 
ENDBRANCH   9  14
BRANCH  13  17
ATOM     17  C   UNL d   1       4.435   2.635   1.204  0.00  0.00     0.013 C 
ATOM     18  C   UNL d   1       4.667   3.887   0.356  0.00  0.00     0.015 C 
ATOM     19  C   UNL d   1       3.496   2.917   2.376  0.00  0.00     0.015 C 
ENDBRANCH  13  17
ENDBRANCH   7   8
ENDBRANCH   3   7
BRANCH   1  20
ATOM     20  C   UNL d   1      -0.227   4.742  -3.351  0.00  0.00     0.109 A 
ATOM     21  C   UNL d   1       0.353   5.760  -4.117  0.00  0.00     0.135 A 
ATOM     22  F   UNL d   1       1.677   5.967  -4.115  0.00  0.00    -0.205 F 
ATOM     23  C   UNL d   1      -0.429   6.622  -4.887  0.00  0.00     0.043 A 
ATOM     24  C   UNL d   1      -1.813   6.473  -4.908  0.00  0.00     0.006 A 
ATOM     25  C   UNL d   1      -2.404   5.450  -4.168  0.00  0.00     0.043 A 
ATOM     26  C   UNL d   1      -1.610   4.593  -3.399  0.00  0.00     0.135 A 
ATOM     27  F   UNL d   1      -2.215   3.617  -2.705  0.00  0.00    -0.205 F 
ENDBRANCH   1  20
TORSDOF 5
