REMARK  1 active torsions:
REMARK  status: ('A' for Active; 'I' for Inactive)
REMARK    1  A    between atoms: C_8  and  C_1 
ROOT
ATOM      1  C   UNL d   1       0.384   1.132  -0.011  0.00  0.00     0.144 A 
ATOM      2  N   UNL d   1      -0.539  -0.707   0.680  0.00  0.00    -0.005 NA
ATOM      3  N   UNL d   1      -0.401   0.577   0.975  0.00  0.00    -0.266 N 
ATOM      4  HN  UNL d   1      -0.800   1.062   1.779  1.00  0.00     0.186 HD
ATOM      5  N   UNL d   1       0.752   0.229  -0.938  0.00  0.00    -0.271 N 
ATOM      6  HN  UNL d   1       1.324   0.346  -1.775  1.00  0.00     0.190 HD
ATOM      7  N   UNL d   1       0.156  -0.869  -0.450  0.00  0.00    -0.225 N 
ATOM      8  H   UNL d   1       0.228  -1.773  -0.908  0.00  0.00     0.205 HD
ENDROOT
BRANCH   1   9
ATOM      9  C   UNL d   1       0.766   2.537  -0.024  0.00  0.00     0.012 A 
ATOM     10  C   UNL d   1       1.552   3.056  -1.062  0.00  0.00     0.039 A 
ATOM     11  C   UNL d   1       1.926   4.403  -1.066  0.00  0.00     0.041 A 
ATOM     12 CL   UNL d   1       2.891   4.968  -2.385  0.00  0.00    -0.084 Cl
ATOM     13  C   UNL d   1       1.527   5.261  -0.031  0.00  0.00    -0.040 A 
ATOM     14  C   UNL d   1       0.736   4.742   1.003  0.00  0.00     0.009 A 
ATOM     15  C   UNL d   1       1.924   6.711  -0.003  0.00  0.00     0.050 C 
ATOM     16  C   UNL d   1       0.358   3.395   1.005  0.00  0.00     0.016 A 
ENDBRANCH   1   9
TORSDOF 1
