REMARK  3 active torsions:
REMARK  status: ('A' for Active; 'I' for Inactive)
REMARK    1  A    between atoms: C_7  and  C_8 
REMARK    2  A    between atoms: C_18  and  C_10 
REMARK    3  A    between atoms: C_19  and  C_11 
ROOT
ATOM      1  N   UNL d   1      -1.225   1.470  -0.002  0.00  0.00    -0.355 N 
ATOM      2  HN  UNL d   1      -1.224   2.490  -0.006  1.00  0.00     0.166 HD
ATOM      3  C   UNL d   1      -0.062   0.777  -0.006  0.00  0.00     0.081 A 
ATOM      4  C   UNL d   1      -0.085  -0.632  -0.012  0.00  0.00     0.062 A 
ATOM      5  N   UNL d   1      -1.241  -1.318  -0.018  0.00  0.00    -0.356 N 
ATOM      6  HN  UNL d   1      -1.245  -2.338  -0.028  1.00  0.00     0.166 HD
ATOM      7  C   UNL d   1       2.357  -0.713  -0.002  0.00  0.00     0.051 A 
ATOM      8  C   UNL d   1       1.190   1.407   0.000  0.00  0.00     0.063 A 
ATOM      9  C   UNL d   1      -2.394   0.779   0.007  0.00  0.00     0.032 A 
ATOM     10  C   UNL d   1      -2.404  -0.617  -0.008  0.00  0.00     0.032 A 
ATOM     11  C   UNL d   1       1.108  -1.348  -0.009  0.00  0.00     0.048 A 
ATOM     12  C   UNL d   1       2.386   0.683   0.003  0.00  0.00     0.042 A 
ATOM     13 CL   UNL d   1       1.309   3.136   0.009  0.00  0.00    -0.082 Cl
ENDROOT
BRANCH   7  14
ATOM     14  C   UNL d   1       3.644  -1.498  -0.002  0.00  0.00     0.417 C 
ATOM     15  F   UNL d   1       3.461  -2.846  -0.005  0.00  0.00    -0.166 F 
ATOM     16  F   UNL d   1       4.415  -1.221  -1.089  0.00  0.00    -0.166 F 
ATOM     17  F   UNL d   1       4.415  -1.225   1.085  0.00  0.00    -0.166 F 
ENDBRANCH   7  14
BRANCH  10  18
ATOM     18  C   UNL d   1      -3.696  -1.402  -0.004  0.00  0.00     0.054 C 
ATOM     19  C   UNL d   1      -3.529  -2.918  -0.011  0.00  0.00     0.011 C 
ENDBRANCH  10  18
BRANCH   9  20
ATOM     20  C   UNL d   1      -3.639   1.625   0.031  0.00  0.00     0.054 C 
ATOM     21  C   UNL d   1      -4.098   2.019  -1.365  0.00  0.00     0.011 C 
ENDBRANCH   9  20
TORSDOF 3
