REMARK  1 active torsions:
REMARK  status: ('A' for Active; 'I' for Inactive)
REMARK    1  A    between atoms: C_10  and  C_9 
ROOT
ATOM      1  N   UNL d   1       1.205   1.372   0.027  0.00  0.00    -0.289 N 
ATOM      2  N   UNL d   1       2.402  -0.662   0.008  0.00  0.00    -0.270 N 
ATOM      3  C   UNL d   1       2.433   0.730   0.011  0.00  0.00     0.332 A 
ATOM      4  C   UNL d   1      -0.020   0.673   0.032  0.00  0.00     0.130 A 
ATOM      5  C   UNL d   1       1.245  -1.425   0.009  0.00  0.00     0.266 A 
ATOM      6  C   UNL d   1      -0.011  -0.695   0.020  0.00  0.00     0.092 A 
ATOM      7  N   UNL d   1      -1.173   1.375   0.043  0.00  0.00    -0.327 N 
ATOM      8  HN  UNL d   1      -1.166   2.394   0.084  1.00  0.00     0.169 HD
ATOM      9  C   UNL d   1      -2.331   0.693  -0.002  0.00  0.00     0.118 A 
ATOM     10  N   UNL d   1      -2.403  -0.654   0.004  0.00  0.00    -0.350 N 
ATOM     11  HN  UNL d   1      -3.299  -1.142   0.002  1.00  0.00     0.166 HD
ATOM     12  C   UNL d   1      -1.233  -1.324   0.013  0.00  0.00     0.110 A 
ATOM     13  O   UNL d   1       3.494   1.356   0.001  0.00  0.00    -0.246 OA
ATOM     14  O   UNL d   1       1.220  -2.654   0.004  0.00  0.00    -0.267 OA
ATOM     15  C   UNL d   1       1.147   2.827   0.019  0.00  0.00     0.163 C 
ATOM     16  C   UNL d   1       3.658  -1.390  -0.000  0.00  0.00     0.164 C 
ENDROOT
BRANCH   9  17
ATOM     17  C   UNL d   1      -3.604   1.441  -0.023  0.00  0.00     0.030 A 
ATOM     18  C   UNL d   1      -3.771   2.709  -0.614  0.00  0.00     0.048 A 
ATOM     19 CL   UNL d   1      -2.513   3.545  -1.466  0.00  0.00    -0.083 Cl
ATOM     20  C   UNL d   1      -5.015   3.361  -0.591  0.00  0.00     0.025 A 
ATOM     21  C   UNL d   1      -6.121   2.763   0.007  0.00  0.00     0.002 A 
ATOM     22  C   UNL d   1      -5.991   1.508   0.584  0.00  0.00     0.001 A 
ATOM     23  C   UNL d   1      -4.752   0.859   0.568  0.00  0.00     0.017 A 
ENDBRANCH   9  17
TORSDOF 1
