REMARK  6 active torsions:
REMARK  status: ('A' for Active; 'I' for Inactive)
REMARK    1  A    between atoms: C_7  and  C_1 
REMARK    2  A    between atoms: O_11  and  C_3 
REMARK    3  A    between atoms: C_15  and  N_8 
REMARK    4  A    between atoms: N_13  and  C_16 
REMARK    5  A    between atoms: C_14  and  N_13 
REMARK    6  A    between atoms: C_16  and  C_15 
ROOT
ATOM      1  C   UNL d   1      -1.149   4.203  -1.113  0.00  0.00     0.097 C 
ATOM      2  N   UNL d   1      -1.056   4.809   0.024  0.00  0.00    -0.396 N 
ATOM      3  HN  UNL d   1      -1.050   4.313   0.915  1.00  0.00     0.158 HD
ENDROOT
BRANCH   2   4
ATOM      4  C   UNL d   1      -0.958   6.273  -0.073  0.00  0.00     0.138 C 
BRANCH   4   5
ATOM      5  C   UNL d   1      -2.363   6.887   0.001  0.00  0.00     0.139 C 
BRANCH   5   6
ATOM      6  N   UNL d   1      -2.304   8.342  -0.097  0.00  0.00    -0.388 N 
ATOM      7  H   UNL d   1      -1.568   8.762   0.466  0.00  0.00     0.159 HD
BRANCH   6   8
ATOM      8  C   UNL d   1      -3.486   9.089  -0.019  0.00  0.00     0.028 A 
ATOM      9  C   UNL d   1      -4.769   8.529  -0.007  0.00  0.00     0.029 A 
ATOM     10  C   UNL d   1      -5.913   9.335   0.001  0.00  0.00     0.002 A 
ATOM     11  C   UNL d   1      -5.792  10.720  -0.038  0.00  0.00     0.000 A 
ATOM     12  C   UNL d   1      -4.527  11.298  -0.084  0.00  0.00     0.002 A 
ATOM     13  C   UNL d   1      -3.388  10.487  -0.078  0.00  0.00     0.029 A 
ENDBRANCH   6   8
ENDBRANCH   5   6
ENDBRANCH   4   5
ENDBRANCH   2   4
BRANCH   1  14
ATOM     14  C   UNL d   1      -1.320   2.736  -1.183  0.00  0.00     0.015 A 
ATOM     15  C   UNL d   1      -1.425   2.091  -2.421  0.00  0.00     0.093 A 
ATOM     16  C   UNL d   1      -1.612   0.704  -2.463  0.00  0.00     0.041 A 
ATOM     17  I   UNL d   1      -1.778  -0.314  -4.282  0.00  0.00    -0.042 I 
ATOM     18  C   UNL d   1      -1.697  -0.035  -1.280  0.00  0.00     0.039 A 
ATOM     19  C   UNL d   1      -1.592   0.618  -0.052  0.00  0.00     0.008 A 
ATOM     20  C   UNL d   1      -1.404   1.997   0.003  0.00  0.00     0.033 A 
ATOM     21  I   UNL d   1      -1.728  -0.473   1.713  0.00  0.00    -0.045 I 
BRANCH  15  22
ATOM     22  O   UNL d   1      -1.349   2.834  -3.570  0.00  0.00    -0.358 OA
ATOM     23  H   UNL d   1      -1.442   2.228  -4.329  0.00  0.00     0.217 HD
ENDBRANCH  15  22
ENDBRANCH   1  14
TORSDOF 6
