REMARK  7 active torsions:
REMARK  status: ('A' for Active; 'I' for Inactive)
REMARK    1  A    between atoms: C_4  and  C_1 
REMARK       I    between atoms: C_2  and  N_15 
REMARK    2  A    between atoms: C_3  and  C_2 
REMARK    3  A    between atoms: N_15  and  C_23 
REMARK    4  A    between atoms: C_22  and  C_18 
REMARK    5  A    between atoms: S_19  and  C_22 
REMARK    6  A    between atoms: C_25  and  S_19 
REMARK    7  A    between atoms: C_23  and  C_25 
ROOT
ATOM      1  C   UNL d   1      -6.064   0.572  -1.868  0.00  0.00     0.133 C 
ENDROOT
BRANCH   1   2
ATOM      2  N   UNL d   1      -7.497   0.778  -2.024  0.00  0.00    -0.356 N 
ATOM      3  C   UNL d   1      -8.038   1.233  -3.204  0.00  0.00     0.251 C 
ATOM      4  O   UNL d   1      -7.373   1.702  -4.120  0.00  0.00    -0.268 OA
ATOM      5  H   UNL d   1      -8.101   0.458  -1.278  0.00  0.00     0.162 HD
BRANCH   3   6
ATOM      6  C   UNL d   1      -9.517   1.145  -3.338  0.00  0.00     0.033 A 
ATOM      7  C   UNL d   1     -10.239   0.061  -2.824  0.00  0.00     0.042 A 
ATOM      8  C   UNL d   1     -11.624  -0.012  -3.023  0.00  0.00     0.056 A 
ATOM      9 CL   UNL d   1     -12.453  -1.385  -2.379  0.00  0.00    -0.083 Cl
ATOM     10  C   UNL d   1     -12.288   0.997  -3.732  0.00  0.00     0.055 A 
ATOM     11  C   UNL d   1     -11.563   2.073  -4.250  0.00  0.00     0.026 A 
ATOM     12 CL   UNL d   1     -13.992   0.965  -4.016  0.00  0.00    -0.083 Cl
ATOM     13  C   UNL d   1     -10.180   2.143  -4.061  0.00  0.00     0.019 A 
ENDBRANCH   3   6
ENDBRANCH   1   2
BRANCH   1  14
ATOM     14  C   UNL d   1      -5.234   1.858  -1.786  0.00  0.00     0.093 C 
BRANCH  14  15
ATOM     15  S   UNL d   1      -3.497   1.403  -1.433  0.00  0.00    -0.163 SA
BRANCH  15  16
ATOM     16  C   UNL d   1      -2.736   3.057  -1.435  0.00  0.00     0.112 C 
BRANCH  16  17
ATOM     17  C   UNL d   1      -1.245   2.957  -1.198  0.00  0.00    -0.048 A 
ATOM     18  C   UNL d   1      -0.727   2.937   0.108  0.00  0.00     0.024 A 
ATOM     19  C   UNL d   1       0.654   2.804   0.339  0.00  0.00     0.048 A 
ATOM     20  C   UNL d   1       1.518   2.687  -0.760  0.00  0.00     0.016 A 
ATOM     21  C   UNL d   1       1.013   2.700  -2.060  0.00  0.00     0.001 A 
ATOM     22  C   UNL d   1      -0.359   2.833  -2.277  0.00  0.00     0.008 A 
BRANCH  19  23
ATOM     23  C   UNL d   1       1.216   2.778   1.740  0.00  0.00     0.417 C 
ATOM     24  F   UNL d   1       0.269   2.913   2.711  0.00  0.00    -0.166 F 
ATOM     25  F   UNL d   1       2.114   3.779   1.958  0.00  0.00    -0.166 F 
ATOM     26  F   UNL d   1       1.873   1.618   2.018  0.00  0.00    -0.166 F 
ENDBRANCH  19  23
ENDBRANCH  16  17
ENDBRANCH  15  16
ENDBRANCH  14  15
ENDBRANCH   1  14
TORSDOF 7
