REMARK  6 active torsions:
REMARK  status: ('A' for Active; 'I' for Inactive)
REMARK    1  A    between atoms: C_8  and  C_1 
REMARK    2  A    between atoms: N_9  and  C_2 
REMARK    3  A    between atoms: C_13  and  C_4 
REMARK       I    between atoms: C_6  and  N_7 
REMARK    4  A    between atoms: C_12  and  C_6 
REMARK       I    between atoms: N_22  and  C_8 
REMARK       I    between atoms: C_10  and  N_9 
REMARK    5  A    between atoms: C_17  and  C_10 
REMARK    6  A    between atoms: N_11  and  C_17 
ROOT
ATOM      1  N   UNL d   1       1.074   6.013   0.489  0.00  0.00    -0.324 N 
ATOM      2  C   UNL d   1       1.819   5.163  -0.299  0.00  0.00     0.239 C 
ATOM      3  O   UNL d   1       2.506   5.499  -1.258  0.00  0.00    -0.271 OA
ATOM      4  H   UNL d   1       0.563   5.528   1.219  0.00  0.00     0.169 HD
ENDROOT
BRANCH   1   5
ATOM      5  C   UNL d   1       0.853   7.410   0.491  0.00  0.00     0.058 A 
ATOM      6  C   UNL d   1       1.227   8.509  -0.298  0.00  0.00     0.100 A 
ATOM      7  S   UNL d   1       0.519   9.978   0.351  0.00  0.00    -0.082 SA
ATOM      8  C   UNL d   1      -0.338   9.204   1.586  0.00  0.00     0.018 A 
ATOM      9  C   UNL d   1       0.001   7.866   1.586  0.00  0.00     0.051 A 
BRANCH   6  10
ATOM     10  C   UNL d   1       2.006   8.817  -1.504  0.00  0.00     0.258 C 
ATOM     11  O   UNL d   1       2.179   9.952  -1.960  0.00  0.00    -0.267 OA
ATOM     12  N   UNL d   1       2.584   7.825  -2.219  0.00  0.00    -0.365 N 
ATOM     13  H   UNL d   1       2.612   6.860  -1.910  0.00  0.00     0.159 HD
ATOM     14  H   UNL d   1       3.139   8.097  -3.015  0.00  0.00     0.159 HD
ENDBRANCH   6  10
BRANCH   8  15
ATOM     15  C   UNL d   1      -1.307   9.932   2.443  0.00  0.00    -0.019 A 
ATOM     16  C   UNL d   1      -2.268   9.211   3.173  0.00  0.00     0.013 A 
ATOM     17  C   UNL d   1      -3.258   9.857   3.923  0.00  0.00     0.001 A 
ATOM     18  C   UNL d   1      -3.307  11.245   3.965  0.00  0.00     0.000 A 
ATOM     19  C   UNL d   1      -2.355  11.986   3.272  0.00  0.00     0.001 A 
ATOM     20  C   UNL d   1      -1.362  11.337   2.524  0.00  0.00     0.013 A 
ENDBRANCH   8  15
ENDBRANCH   1   5
BRANCH   2  21
ATOM     21  C   UNL d   1       1.756   3.658   0.140  0.00  0.00     0.220 C 
BRANCH  21  22
ATOM     22  N   UNL d   1       0.609   2.919  -0.434  0.00  0.00    -0.401 N 
ATOM     23  C   UNL d   1       0.446   3.065  -1.885  0.00  0.00     0.137 C 
ATOM     24  C   UNL d   1       0.349   1.793  -2.736  0.00  0.00     0.145 C 
ATOM     25  N   UNL d   1      -0.556   0.826  -2.132  0.00  0.00    -0.345 N 
ATOM     26  C   UNL d   1      -1.372  -0.025  -2.894  0.00  0.00     0.253 C 
ATOM     27  C   UNL d   1      -0.088   0.389  -0.824  0.00  0.00     0.145 C 
ATOM     28  O   UNL d   1      -1.661  -1.168  -2.527  0.00  0.00    -0.267 OA
ATOM     29  C   UNL d   1       0.414   1.550   0.102  0.00  0.00     0.137 C 
BRANCH  26  30
ATOM     30  C   UNL d   1      -1.947   0.471  -4.186  0.00  0.00     0.032 A 
ATOM     31  C   UNL d   1      -2.090  -0.388  -5.279  0.00  0.00     0.017 A 
ATOM     32  C   UNL d   1      -2.615   0.082  -6.496  0.00  0.00     0.007 A 
ATOM     33  C   UNL d   1      -3.018   1.419  -6.625  0.00  0.00    -0.062 A 
ATOM     34  C   UNL d   1      -2.909   2.267  -5.518  0.00  0.00     0.007 A 
ATOM     35  C   UNL d   1      -3.547   1.936  -7.934  0.00  0.00     0.048 C 
ATOM     36  C   UNL d   1      -2.403   1.792  -4.304  0.00  0.00     0.017 A 
ENDBRANCH  26  30
ENDBRANCH  21  22
ENDBRANCH   2  21
TORSDOF 6
