REMARK  2 active torsions:
REMARK  status: ('A' for Active; 'I' for Inactive)
REMARK    1  A    between atoms: C_2  and  C_1 
REMARK    2  A    between atoms: C_12  and  N_3 
ROOT
ATOM      1  C   UNL d   1      -0.344  -1.876  -0.553  0.00  0.00     0.151 C 
ATOM      2  N   UNL d   1       0.723  -1.112  -0.094  0.00  0.00    -0.224 N 
ATOM      3  N   UNL d   1       0.248   0.121   0.199  0.00  0.00     0.001 NA
ATOM      4  N   UNL d   1      -0.977   0.159  -0.313  0.00  0.00    -0.007 NA
ATOM      5  N   UNL d   1      -1.345  -1.065  -0.822  0.00  0.00    -0.269 N 
ATOM      6  HN  UNL d   1      -2.212  -1.295  -1.307  1.00  0.00     0.185 HD
ENDROOT
BRANCH   1   7
ATOM      7  C   UNL d   1      -0.349  -3.353  -0.688  0.00  0.00     0.038 C 
ATOM      8  C   UNL d   1       0.288  -4.270   0.195  0.00  0.00     0.008 C 
ATOM      9  C   UNL d   1       0.412  -5.467  -0.511  0.00  0.00     0.043 C 
ATOM     10  C   UNL d   1       0.841  -4.171   1.489  0.00  0.00     0.038 C 
ATOM     11  C   UNL d   1       1.217  -6.517  -0.051  0.00  0.00     0.032 C 
ATOM     12  N   UNL d   1      -0.353  -5.338  -1.654  0.00  0.00    -0.364 N 
ATOM     13  C   UNL d   1       1.827  -6.365   1.202  0.00  0.00     0.026 C 
ATOM     14  C   UNL d   1       1.608  -5.229   1.974  0.00  0.00     0.035 C 
ATOM     15 CL   UNL d   1       2.308  -5.106   3.541  0.00  0.00    -0.084 Cl
ATOM     16  C   UNL d   1      -0.852  -4.063  -1.753  0.00  0.00     0.104 C 
ATOM     17  H   UNL d   1      -0.476  -6.070  -2.344  0.00  0.00     0.165 HD
ENDBRANCH   1   7
BRANCH   2  18
ATOM     18  C   UNL d   1       2.111  -1.412  -0.059  0.00  0.00     0.056 A 
ATOM     19  C   UNL d   1       2.659  -2.373  -0.923  0.00  0.00     0.032 A 
ATOM     20  C   UNL d   1       4.023  -2.668  -0.884  0.00  0.00     0.009 A 
ATOM     21  C   UNL d   1       4.865  -2.002   0.009  0.00  0.00    -0.062 A 
ATOM     22  C   UNL d   1       4.322  -1.024   0.854  0.00  0.00     0.009 A 
ATOM     23  C   UNL d   1       6.335  -2.304   0.008  0.00  0.00     0.048 C 
ATOM     24  C   UNL d   1       2.955  -0.720   0.815  0.00  0.00     0.032 A 
ENDBRANCH   2  18
TORSDOF 2
