REMARK  3 active torsions:
REMARK  status: ('A' for Active; 'I' for Inactive)
REMARK    1  A    between atoms: C_2  and  C_1 
REMARK    2  A    between atoms: C_3  and  C_2 
REMARK    3  A    between atoms: C_10  and  C_4 
ROOT
ATOM      1  C   UNL d   1       0.907  -0.036  -0.084  0.00  0.00     0.091 C 
ATOM      2  C   UNL d   1       0.238   1.134  -0.072  0.00  0.00     0.038 C 
ATOM      3  C   UNL d   1       0.241  -1.292  -0.071  0.00  0.00     0.103 C 
ATOM      4  N   UNL d   1      -0.278  -2.331  -0.051  0.00  0.00    -0.191 NA
ENDROOT
BRANCH   1   5
ATOM      5  C   UNL d   1       2.403   0.029  -0.117  0.00  0.00     0.174 C 
ATOM      6  O   UNL d   1       3.005   1.097  -0.184  0.00  0.00    -0.291 OA
BRANCH   5   7
ATOM      7  C   UNL d   1       3.165  -1.261  -0.092  0.00  0.00     0.061 A 
ATOM      8  C   UNL d   1       4.642  -1.272   0.241  0.00  0.00     0.013 A 
ATOM      9  C   UNL d   1       4.194  -1.536  -1.167  0.00  0.00     0.013 A 
ENDBRANCH   5   7
ENDBRANCH   1   5
BRANCH   2  10
ATOM     10  C   UNL d   1      -1.224   1.240  -0.043  0.00  0.00    -0.035 A 
ATOM     11  C   UNL d   1      -1.906   1.247   1.179  0.00  0.00     0.011 A 
ATOM     12  C   UNL d   1      -3.301   1.302   1.202  0.00  0.00     0.001 A 
ATOM     13  C   UNL d   1      -4.018   1.352   0.007  0.00  0.00     0.000 A 
ATOM     14  C   UNL d   1      -3.342   1.352  -1.212  0.00  0.00     0.001 A 
ATOM     15  C   UNL d   1      -1.947   1.297  -1.239  0.00  0.00     0.011 A 
ENDBRANCH   2  10
TORSDOF 3
