REMARK  6 active torsions:
REMARK  status: ('A' for Active; 'I' for Inactive)
REMARK    1  A    between atoms: C_4  and  N_1 
REMARK    2  A    between atoms: N_2  and  N_9 
REMARK    3  A    between atoms: C_5  and  C_10 
REMARK    4  A    between atoms: C_11  and  C_7 
REMARK    5  A    between atoms: C_24  and  C_7 
REMARK    6  A    between atoms: N_9  and  C_19 
ROOT
ATOM      1  N   UNL d   1      -1.137  -2.915  -5.333  0.00  0.00    -0.304 N 
ATOM      2  HN  UNL d   1      -1.461  -2.055  -4.890  1.00  0.00     0.186 HD
ATOM      3  C   UNL d   1      -1.747  -3.404  -6.389  0.00  0.00     0.035 C 
ENDROOT
BRANCH   3   4
ATOM      4  C   UNL d   1      -2.998  -2.678  -6.857  0.00  0.00    -0.012 A 
ATOM      5  C   UNL d   1      -3.423  -1.537  -6.157  0.00  0.00     0.014 A 
ATOM      6  C   UNL d   1      -4.597  -0.842  -6.519  0.00  0.00     0.013 A 
ATOM      7  C   UNL d   1      -5.386  -1.245  -7.608  0.00  0.00    -0.023 A 
ATOM      8  C   UNL d   1      -4.930  -2.360  -8.316  0.00  0.00     0.013 A 
ATOM      9  C   UNL d   1      -3.786  -3.070  -7.934  0.00  0.00     0.014 A 
BRANCH   7  10
ATOM     10  C   UNL d   1      -6.635  -0.553  -8.010  0.00  0.00     0.013 A 
ATOM     11  C   UNL d   1      -7.712  -1.236  -8.617  0.00  0.00     0.127 A 
ATOM     12  F   UNL d   1      -7.657  -2.562  -8.826  0.00  0.00    -0.205 F 
ATOM     13  C   UNL d   1      -8.877  -0.588  -9.024  0.00  0.00     0.043 A 
ATOM     14  C   UNL d   1      -9.013   0.778  -8.814  0.00  0.00     0.003 A 
ATOM     15  C   UNL d   1      -7.979   1.485  -8.208  0.00  0.00     0.001 A 
ATOM     16  C   UNL d   1      -6.804   0.832  -7.819  0.00  0.00     0.015 A 
ENDBRANCH   7  10
ENDBRANCH   3   4
BRANCH   3  17
ATOM     17  C   UNL d   1      -1.177  -4.670  -7.084  0.00  0.00     0.055 C 
ATOM     18  C   UNL d   1      -1.726  -5.281  -8.352  0.00  0.00     0.011 C 
ENDBRANCH   3  17
BRANCH   1  19
ATOM     19  N   UNL d   1      -0.055  -3.595  -4.847  0.00  0.00    -0.301 N 
ATOM     20  H   UNL d   1      -0.120  -4.610  -4.832  0.00  0.00     0.187 HD
BRANCH  19  21
ATOM     21  C   UNL d   1       0.572  -3.111  -3.675  0.00  0.00     0.048 A 
ATOM     22  C   UNL d   1       1.269  -4.014  -2.853  0.00  0.00     0.033 A 
ATOM     23  C   UNL d   1       1.956  -3.578  -1.716  0.00  0.00     0.038 A 
ATOM     24  C   UNL d   1       1.974  -2.215  -1.406  0.00  0.00     0.103 A 
ATOM     25  C   UNL d   1       1.310  -1.293  -2.227  0.00  0.00     0.038 A 
ATOM     26  C   UNL d   1       0.615  -1.748  -3.355  0.00  0.00     0.033 A 
BRANCH  24  27
ATOM     27  N   UNL d   1       2.712  -1.748  -0.226  0.00  0.00    -0.116 N 
ATOM     28  O   UNL d   1       2.734  -0.530   0.001  0.00  0.00    -0.532 OA
ATOM     29  O   UNL d   1       3.271  -2.603   0.480  0.00  0.00    -0.532 OA
ENDBRANCH  24  27
ENDBRANCH  19  21
ENDBRANCH   1  19
TORSDOF 6
