REMARK  5 active torsions:
REMARK  status: ('A' for Active; 'I' for Inactive)
REMARK    1  A    between atoms: C_3  and  N_1 
REMARK    2  A    between atoms: S_17  and  C_3 
REMARK    3  A    between atoms: N_4  and  N_6 
REMARK    4  A    between atoms: N_15  and  C_8 
REMARK    5  A    between atoms: C_9  and  C_12 
ROOT
ATOM      1  N   UNL d   1       2.441  -1.794   1.692  0.00  0.00    -0.302 N 
ATOM      2  HN  UNL d   1       1.495  -1.609   2.025  1.00  0.00     0.186 HD
ATOM      3  C   UNL d   1       3.087  -2.876   2.008  0.00  0.00     0.032 C 
ATOM      4  C   UNL d   1       4.460  -3.213   1.470  0.00  0.00     0.070 C 
ENDROOT
BRANCH   1   5
ATOM      5  N   UNL d   1       3.124  -0.907   0.869  0.00  0.00    -0.280 N 
ATOM      6  C   UNL d   1       2.389  -0.175   0.081  0.00  0.00     0.159 C 
ATOM      7  HN  UNL d   1       4.141  -0.833   0.882  1.00  0.00     0.189 HD
BRANCH   6   8
ATOM      8  N   UNL d   1       1.032  -0.252  -0.095  0.00  0.00    -0.332 N 
ATOM      9  C   UNL d   1       0.273  -0.249   0.947  0.00  0.00     0.179 C 
ATOM     10  HN  UNL d   1       0.630  -0.311  -1.030  1.00  0.00     0.168 HD
BRANCH   9  11
ATOM     11  N   UNL d   1      -1.103  -0.295   0.930  0.00  0.00    -0.386 N 
ATOM     12  C   UNL d   1      -1.875  -0.649   2.107  0.00  0.00     0.149 C 
ATOM     13  C   UNL d   1      -1.853  -0.126  -0.303  0.00  0.00     0.149 C 
ENDBRANCH   9  11
ENDBRANCH   6   8
BRANCH   6  14
ATOM     14  S   UNL d   1       3.182   1.006  -0.971  0.00  0.00    -0.097 SA
ATOM     15  C   UNL d   1       4.912   0.751  -0.541  0.00  0.00     0.099 C 
ENDBRANCH   6  14
ENDBRANCH   1   5
BRANCH   3  16
ATOM     16  C   UNL d   1       2.425  -3.808   2.966  0.00  0.00    -0.011 A 
ATOM     17  C   UNL d   1       1.554  -3.260   3.921  0.00  0.00     0.039 A 
ATOM     18  C   UNL d   1       0.884  -4.085   4.827  0.00  0.00     0.056 A 
ATOM     19 CL   UNL d   1      -0.175  -3.332   5.966  0.00  0.00    -0.083 Cl
ATOM     20  C   UNL d   1       1.081  -5.469   4.783  0.00  0.00     0.055 A 
ATOM     21  C   UNL d   1       1.945  -6.016   3.830  0.00  0.00     0.026 A 
ATOM     22 CL   UNL d   1       0.286  -6.552   5.869  0.00  0.00    -0.083 Cl
ATOM     23  C   UNL d   1       2.614  -5.191   2.919  0.00  0.00     0.015 A 
ENDBRANCH   3  16
TORSDOF 5
