REMARK  2 active torsions:
REMARK  status: ('A' for Active; 'I' for Inactive)
REMARK    1  A    between atoms: C_8  and  C_1 
REMARK    2  A    between atoms: N_9  and  N_5 
REMARK       I    between atoms: C_7  and  N_9 
REMARK       I    between atoms: N_12  and  C_7 
ROOT
ATOM      1  N   UNL d   1       1.043  -1.795   0.028  0.00  0.00    -0.300 N 
ATOM      2  HN  UNL d   1       0.137  -1.327   0.038  1.00  0.00     0.186 HD
ATOM      3  C   UNL d   1       1.104  -3.097   0.028  0.00  0.00     0.033 C 
ATOM      4  C   UNL d   1       2.388  -3.913   0.015  0.00  0.00     0.070 C 
ENDROOT
BRANCH   3   5
ATOM      5  C   UNL d   1      -0.186  -3.832   0.039  0.00  0.00     0.006 A 
ATOM      6  C   UNL d   1      -0.239  -5.216   0.039  0.00  0.00     0.064 A 
ATOM      7  S   UNL d   1      -1.812  -5.851   0.043  0.00  0.00    -0.100 SA
ATOM      8  C   UNL d   1      -2.517  -4.288   0.050  0.00  0.00     0.016 A 
ATOM      9  C   UNL d   1      -1.542  -3.281   0.051  0.00  0.00    -0.006 A 
ATOM     10  C   UNL d   1      -3.898  -3.999   0.055  0.00  0.00     0.019 A 
ATOM     11  C   UNL d   1      -2.022  -1.943   0.060  0.00  0.00     0.014 A 
ATOM     12  C   UNL d   1      -3.389  -1.648   0.066  0.00  0.00     0.001 A 
ATOM     13  C   UNL d   1      -4.320  -2.671   0.062  0.00  0.00     0.001 A 
ENDBRANCH   3   5
BRANCH   1  14
ATOM     14  N   UNL d   1       2.196  -1.055   0.013  0.00  0.00    -0.252 N 
ATOM     15  C   UNL d   1       2.197   0.316   0.007  0.00  0.00     0.332 C 
ATOM     16  O   UNL d   1       3.231   0.974   0.012  0.00  0.00    -0.246 OA
ATOM     17  N   UNL d   1       0.974   0.888  -0.010  0.00  0.00    -0.351 N 
ATOM     18  H   UNL d   1       0.180   0.275   0.077  0.00  0.00     0.160 HD
ATOM     19  H   UNL d   1       0.881   1.889   0.042  0.00  0.00     0.160 HD
ATOM     20  H   UNL d   1       3.114  -1.475   0.014  0.00  0.00     0.191 HD
ENDBRANCH   1  14
TORSDOF 2
