REMARK  7 active torsions:
REMARK  status: ('A' for Active; 'I' for Inactive)
REMARK    1  A    between atoms: C_5  and  C_1 
REMARK    2  A    between atoms: C_2  and  C_6 
REMARK    3  A    between atoms: O_13  and  C_5 
REMARK    4  A    between atoms: C_6  and  O_14 
REMARK    5  A    between atoms: C_23  and  O_13 
REMARK    6  A    between atoms: O_14  and  C_24 
REMARK    7  A    between atoms: C_18  and  C_17 
ROOT
ATOM      1  C   UNL d   1       0.640  -5.523  -0.137  0.00  0.00    -0.026 A 
ATOM      2  C   UNL d   1       0.778  -4.525  -1.127  0.00  0.00     0.015 A 
ATOM      3  C   UNL d   1       1.644  -5.574   0.848  0.00  0.00     0.015 A 
ATOM      4  C   UNL d   1       2.803  -3.684  -0.139  0.00  0.00     0.079 A 
ATOM      5  C   UNL d   1       2.710  -4.660   0.855  0.00  0.00     0.038 A 
ATOM      6  C   UNL d   1       1.845  -3.619  -1.137  0.00  0.00     0.038 A 
ENDROOT
BRANCH   1   7
ATOM      7  C   UNL d   1      -0.512  -6.465  -0.167  0.00  0.00    -0.026 A 
ATOM      8  C   UNL d   1      -1.084  -6.850  -1.395  0.00  0.00     0.015 A 
ATOM      9  C   UNL d   1      -2.176  -7.720  -1.474  0.00  0.00     0.038 A 
ATOM     10  C   UNL d   1      -2.712  -8.261  -0.316  0.00  0.00     0.079 A 
ATOM     11  C   UNL d   1      -2.184  -7.896   0.923  0.00  0.00     0.038 A 
ATOM     12  C   UNL d   1      -1.098  -7.002   0.995  0.00  0.00     0.015 A 
BRANCH  10  13
ATOM     13  O   UNL d   1      -3.738  -9.243  -0.297  0.00  0.00    -0.275 OA
BRANCH  13  14
ATOM     14  C   UNL d   1      -4.356  -9.808  -1.427  0.00  0.00     0.305 C 
ATOM     15  O   UNL d   1      -4.241  -9.393  -2.576  0.00  0.00    -0.258 OA
BRANCH  14  16
ATOM     16  C   UNL d   1      -5.130 -10.991  -1.085  0.00  0.00     0.082 A 
ATOM     17  S   UNL d   1      -5.240 -11.611   0.500  0.00  0.00    -0.084 SA
ATOM     18  C   UNL d   1      -6.128 -12.997  -0.007  0.00  0.00     0.016 A 
ATOM     19  C   UNL d   1      -6.546 -14.078   0.794  0.00  0.00     0.019 A 
ATOM     20  C   UNL d   1      -6.408 -12.951  -1.373  0.00  0.00    -0.018 A 
ATOM     21  C   UNL d   1      -7.252 -15.127   0.200  0.00  0.00     0.001 A 
ATOM     22  C   UNL d   1      -7.559 -15.094  -1.153  0.00  0.00     0.001 A 
ATOM     23  C   UNL d   1      -7.149 -14.015  -1.943  0.00  0.00     0.013 A 
ATOM     24  C   UNL d   1      -5.834 -11.784  -1.974  0.00  0.00     0.038 A 
ENDBRANCH  14  16
ENDBRANCH  13  14
ENDBRANCH  10  13
ENDBRANCH   1   7
BRANCH   4  25
ATOM     25  O   UNL d   1       3.837  -2.729   0.010  0.00  0.00    -0.275 OA
BRANCH  25  26
ATOM     26  C   UNL d   1       4.360  -1.935  -1.024  0.00  0.00     0.305 C 
ATOM     27  O   UNL d   1       4.115  -2.088  -2.214  0.00  0.00    -0.258 OA
BRANCH  26  28
ATOM     28  C   UNL d   1       5.269  -0.931  -0.498  0.00  0.00     0.082 A 
ATOM     29  S   UNL d   1       5.431  -0.608   1.172  0.00  0.00    -0.084 SA
ATOM     30  C   UNL d   1       6.690   0.538   0.929  0.00  0.00     0.016 A 
ATOM     31  C   UNL d   1       7.397   1.248   1.921  0.00  0.00     0.019 A 
ATOM     32  C   UNL d   1       6.976   0.700  -0.427  0.00  0.00    -0.018 A 
ATOM     33  C   UNL d   1       8.439   2.094   1.534  0.00  0.00     0.001 A 
ATOM     34  C   UNL d   1       8.763   2.246   0.193  0.00  0.00     0.001 A 
ATOM     35  C   UNL d   1       8.032   1.571  -0.790  0.00  0.00     0.013 A 
ATOM     36  C   UNL d   1       6.098  -0.102  -1.235  0.00  0.00     0.038 A 
ENDBRANCH  26  28
ENDBRANCH  25  26
ENDBRANCH   4  25
TORSDOF 7
