REMARK  4 active torsions:
REMARK  status: ('A' for Active; 'I' for Inactive)
REMARK    1  A    between atoms: C_2  and  N_1 
REMARK    2  A    between atoms: C_8  and  N_3 
REMARK    3  A    between atoms: C_4  and  C_8 
REMARK    4  A    between atoms: O_13  and  C_9 
ROOT
ATOM      1  N   UNL d   1      -1.333   0.031   0.522  0.00  0.00    -0.375 N 
ATOM      2  N   UNL d   1       1.444  -0.061  -0.478  0.00  0.00     0.098 N 
ATOM      3  C   UNL d   1      -0.893  -1.149  -0.230  0.00  0.00     0.153 C 
ATOM      4  C   UNL d   1      -0.719   1.271   0.022  0.00  0.00     0.153 C 
ATOM      5  C   UNL d   1       0.820   1.145   0.135  0.00  0.00     0.292 C 
ATOM      6  C   UNL d   1       0.651  -1.267  -0.122  0.00  0.00     0.292 C 
ENDROOT
BRANCH   1   7
ATOM      7  C   UNL d   1      -2.619   0.121   1.056  0.00  0.00     0.064 A 
ATOM      8  C   UNL d   1      -2.894   0.905   2.212  0.00  0.00     0.094 A 
ATOM      9  C   UNL d   1      -4.192   0.966   2.743  0.00  0.00     0.039 A 
ATOM     10  C   UNL d   1      -5.226   0.229   2.174  0.00  0.00     0.003 A 
ATOM     11  C   UNL d   1      -4.974  -0.561   1.063  0.00  0.00     0.002 A 
ATOM     12  C   UNL d   1      -3.688  -0.612   0.512  0.00  0.00     0.032 A 
BRANCH   8  13
ATOM     13  O   UNL d   1      -1.835   1.581   2.780  0.00  0.00    -0.354 OA
ATOM     14  C   UNL d   1      -1.945   1.873   4.169  0.00  0.00     0.210 C 
ENDBRANCH   8  13
ENDBRANCH   1   7
BRANCH   2  15
ATOM     15  C   UNL d   1       1.609   0.058  -1.944  0.00  0.00     0.341 C 
BRANCH  15  16
ATOM     16  C   UNL d   1       2.688   1.093  -2.277  0.00  0.00     0.099 C 
ATOM     17  S   UNL d   1       2.677   1.986  -3.684  0.00  0.00    -0.064 SA
ATOM     18  N   UNL d   1       3.717   1.214  -1.388  0.00  0.00    -0.392 N 
ATOM     19  H   UNL d   1       3.623   0.764  -0.479  0.00  0.00     0.156 HD
ATOM     20  H   UNL d   1       4.426   1.925  -1.512  0.00  0.00     0.156 HD
ENDBRANCH  15  16
ENDBRANCH   2  15
TORSDOF 4
