REMARK  5 active torsions:
REMARK  status: ('A' for Active; 'I' for Inactive)
REMARK    1  A    between atoms: C_3  and  C_1 
REMARK    2  A    between atoms: N_4  and  C_2 
REMARK       I    between atoms: C_5  and  N_12 
REMARK       I    between atoms: N_13  and  C_5 
REMARK    3  A    between atoms: C_7  and  N_6 
REMARK    4  A    between atoms: N_12  and  C_24 
REMARK    5  A    between atoms: C_25  and  N_13 
ROOT
ATOM      1  C   UNL d   1      -3.477   6.035   0.798  0.00  0.00     0.103 A 
ATOM      2  N   UNL d   1      -4.244   6.194   1.901  0.00  0.00    -0.350 N 
ATOM      3  HN  UNL d   1      -4.169   5.544   2.683  1.00  0.00     0.166 HD
ATOM      4  C   UNL d   1      -3.528   6.991  -0.213  0.00  0.00     0.051 A 
ATOM      5  C   UNL d   1      -5.115   7.235   1.948  0.00  0.00     0.119 A 
ATOM      6  C   UNL d   1      -5.292   8.164   0.933  0.00  0.00     0.051 A 
ATOM      7  C   UNL d   1      -4.426   8.058  -0.142  0.00  0.00     0.035 A 
ENDROOT
BRANCH   1   8
ATOM      8  N   UNL d   1      -2.764   4.855   0.636  0.00  0.00    -0.365 N 
ATOM      9  C   UNL d   1      -2.788   3.913   1.777  0.00  0.00     0.139 C 
ATOM     10  C   UNL d   1      -2.406   2.488   1.307  0.00  0.00     0.117 C 
ATOM     11  N   UNL d   1      -1.091   2.518   0.616  0.00  0.00    -0.266 NA
ATOM     12  C   UNL d   1      -1.151   3.403  -0.568  0.00  0.00     0.117 C 
ATOM     13  C   UNL d   1      -1.496   4.843  -0.120  0.00  0.00     0.139 C 
BRANCH  11  14
ATOM     14  C   UNL d   1      -0.594   1.243   0.343  0.00  0.00     0.097 A 
ATOM     15  C   UNL d   1       0.078   0.514   1.323  0.00  0.00     0.086 A 
ATOM     16  C   UNL d   1       0.584  -0.755   0.982  0.00  0.00     0.021 A 
ATOM     17  C   UNL d   1       0.423  -1.254  -0.303  0.00  0.00     0.018 A 
ATOM     18  C   UNL d   1      -0.244  -0.463  -1.212  0.00  0.00     0.089 A 
ATOM     19  N   UNL d   1      -0.744   0.755  -0.915  0.00  0.00    -0.356 N 
ATOM     20  HN  UNL d   1      -1.229   1.302  -1.627  1.00  0.00     0.166 HD
BRANCH  15  21
ATOM     21  C   UNL d   1       0.330   1.021   2.714  0.00  0.00     0.420 C 
ATOM     22  F   UNL d   1      -0.083   2.283   3.013  0.00  0.00    -0.166 F 
ATOM     23  F   UNL d   1      -0.270   0.223   3.649  0.00  0.00    -0.166 F 
ATOM     24  F   UNL d   1       1.659   0.996   3.032  0.00  0.00    -0.166 F 
ENDBRANCH  15  21
ENDBRANCH  11  14
ENDBRANCH   1   8
BRANCH   6  25
ATOM     25  N   UNL d   1      -6.375   9.074   0.996  0.00  0.00    -0.307 N 
ATOM     26  C   UNL d   1      -6.810   9.874  -0.049  0.00  0.00     0.325 C 
ATOM     27  N   UNL d   1      -8.080  10.374   0.195  0.00  0.00    -0.309 N 
ATOM     28  O   UNL d   1      -6.184  10.083  -1.080  0.00  0.00    -0.247 OA
ATOM     29  H   UNL d   1      -8.347  10.490   1.160  0.00  0.00     0.170 HD
ATOM     30  H   UNL d   1      -7.002   8.968   1.780  0.00  0.00     0.170 HD
BRANCH  27  31
ATOM     31  C   UNL d   1      -8.935  10.939  -0.778  0.00  0.00     0.036 A 
ATOM     32  C   UNL d   1      -8.739  10.778  -2.156  0.00  0.00     0.031 A 
ATOM     33  C   UNL d   1      -9.621  11.353  -3.076  0.00  0.00     0.026 A 
ATOM     34  C   UNL d   1     -10.710  12.085  -2.622  0.00  0.00     0.034 A 
ATOM     35  C   UNL d   1     -10.933  12.235  -1.254  0.00  0.00     0.026 A 
ATOM     36 CL   UNL d   1     -11.790  12.803  -3.752  0.00  0.00    -0.084 Cl
ATOM     37  C   UNL d   1     -10.051  11.656  -0.335  0.00  0.00     0.031 A 
ENDBRANCH  27  31
ENDBRANCH   6  25
TORSDOF 5
