REMARK  3 active torsions:
REMARK  status: ('A' for Active; 'I' for Inactive)
REMARK    1  A    between atoms: N_2  and  C_1 
REMARK    2  A    between atoms: N_10  and  C_3 
REMARK    3  A    between atoms: N_8  and  C_5 
ROOT
ATOM      1  C   UNL d   1      -1.241   1.229  -0.007  0.00  0.00     0.132 A 
ATOM      2  C   UNL d   1      -2.025   0.057  -0.062  0.00  0.00     0.065 A 
ATOM      3  C   UNL d   1       0.159   1.214   0.042  0.00  0.00     0.083 A 
ATOM      4  C   UNL d   1       0.132  -1.224   0.070  0.00  0.00     0.071 A 
ATOM      5  C   UNL d   1      -1.281  -1.149  -0.018  0.00  0.00     0.064 A 
ATOM      6  C   UNL d   1       0.826  -0.001   0.078  0.00  0.00     0.145 A 
ATOM      7  F   UNL d   1       2.166   0.024   0.109  0.00  0.00    -0.204 F 
ENDROOT
BRANCH   4   8
ATOM      8  N   UNL d   1       0.772  -2.445   0.182  0.00  0.00    -0.374 N 
ATOM      9  C   UNL d   1       2.042  -2.616   0.912  0.00  0.00     0.149 C 
ATOM     10  C   UNL d   1       1.921  -3.828   1.858  0.00  0.00     0.187 C 
ATOM     11  O   UNL d   1       1.493  -5.018   1.170  0.00  0.00    -0.388 OA
ATOM     12  C   UNL d   1       0.224  -4.799   0.531  0.00  0.00     0.187 C 
ATOM     13  C   UNL d   1       0.313  -3.663  -0.496  0.00  0.00     0.149 C 
ENDBRANCH   4   8
BRANCH   2  14
ATOM     14  N   UNL d   1      -3.420   0.034  -0.095  0.00  0.00    -0.388 N 
ATOM     15  C   UNL d   1      -4.162  -1.137   0.377  0.00  0.00     0.149 C 
ATOM     16  C   UNL d   1      -4.162   0.855  -1.055  0.00  0.00     0.149 C 
ENDBRANCH   2  14
BRANCH   1  17
ATOM     17  N   UNL d   1      -1.845   2.540   0.115  0.00  0.00    -0.113 N 
ATOM     18  O   UNL d   1      -2.493   2.786   1.144  0.00  0.00    -0.532 OA
ATOM     19  O   UNL d   1      -1.616   3.346  -0.799  0.00  0.00    -0.532 OA
ENDBRANCH   1  17
TORSDOF 3
