REMARK  2 active torsions:
REMARK  status: ('A' for Active; 'I' for Inactive)
REMARK    1  A    between atoms: C_15  and  C_6 
REMARK    2  A    between atoms: C_8  and  C_14 
ROOT
ATOM      1  C   UNL d   1       2.029   1.444   0.111  0.00  0.00     0.030 C 
ATOM      2  N   UNL d   1       0.918   1.478  -0.537  0.00  0.00    -0.357 N 
ATOM      3  HN  UNL d   1       0.843   2.233  -1.219  1.00  0.00     0.166 HD
ATOM      4  C   UNL d   1       2.582   0.440   1.053  0.00  0.00     0.079 C 
ATOM      5  S   UNL d   1       0.647  -1.510   1.296  0.00  0.00    -0.117 SA
ATOM      6  C   UNL d   1       2.270  -1.004   0.718  0.00  0.00     0.097 C 
ATOM      7  C   UNL d   1       2.876   2.644   0.155  0.00  0.00     0.020 A 
ATOM      8  C   UNL d   1      -0.211   0.642  -0.456  0.00  0.00     0.049 A 
ATOM      9  C   UNL d   1       2.260   1.067   2.406  0.00  0.00     0.188 C 
ATOM     10  C   UNL d   1      -0.450  -0.553   0.254  0.00  0.00     0.028 A 
ATOM     11  O   UNL d   1       3.003   2.305   2.586  0.00  0.00    -0.349 OA
ATOM     12  C   UNL d   1       3.338   2.989   1.437  0.00  0.00     0.081 A 
ATOM     13  C   UNL d   1       3.318   3.300  -0.989  0.00  0.00     0.016 A 
ATOM     14  C   UNL d   1      -1.307   1.215  -1.143  0.00  0.00     0.031 A 
ATOM     15  C   UNL d   1      -1.753  -1.112   0.235  0.00  0.00     0.021 A 
ATOM     16  C   UNL d   1       4.258   4.023   1.569  0.00  0.00     0.037 A 
ATOM     17  C   UNL d   1       4.268   4.312  -0.846  0.00  0.00     0.001 A 
ATOM     18  C   UNL d   1      -2.812  -0.511  -0.444  0.00  0.00     0.002 A 
ATOM     19  C   UNL d   1      -2.589   0.663  -1.135  0.00  0.00     0.002 A 
ATOM     20  C   UNL d   1       4.733   4.673   0.426  0.00  0.00     0.003 A 
ENDROOT
BRANCH   6  21
ATOM     21  C   UNL d   1       3.445  -1.821   1.284  0.00  0.00    -0.043 A 
ATOM     22  C   UNL d   1       4.628  -1.892   0.522  0.00  0.00     0.009 A 
ATOM     23  C   UNL d   1       5.839  -2.261   1.108  0.00  0.00     0.017 A 
ATOM     24  C   UNL d   1       5.898  -2.591   2.469  0.00  0.00     0.047 A 
ATOM     25  C   UNL d   1       4.703  -2.633   3.203  0.00  0.00     0.017 A 
ATOM     26  C   UNL d   1       3.493  -2.251   2.622  0.00  0.00     0.009 A 
BRANCH  24  27
ATOM     27  C   UNL d   1       7.215  -2.857   3.151  0.00  0.00     0.417 C 
ATOM     28  F   UNL d   1       8.293  -2.442   2.427  0.00  0.00    -0.166 F 
ATOM     29  F   UNL d   1       7.318  -2.220   4.354  0.00  0.00    -0.166 F 
ATOM     30  F   UNL d   1       7.418  -4.174   3.407  0.00  0.00    -0.166 F 
ENDBRANCH  24  27
ENDBRANCH   6  21
TORSDOF 2
