REMARK  6 active torsions:
REMARK  status: ('A' for Active; 'I' for Inactive)
REMARK    1  A    between atoms: C_12  and  C_1 
REMARK       I    between atoms: C_2  and  N_4 
REMARK    2  A    between atoms: C_6  and  C_2 
REMARK    3  A    between atoms: C_3  and  C_9 
REMARK       I    between atoms: N_5  and  C_3 
REMARK    4  A    between atoms: N_4  and  N_5 
REMARK    5  A    between atoms: C_9  and  O_17 
REMARK    6  A    between atoms: O_17  and  N_10 
ROOT
ATOM      1  C   UNL d   1      -1.950   6.442  -0.061  0.00  0.00     0.262 C 
ATOM      2  N   UNL d   1      -0.651   6.894  -0.151  0.00  0.00    -0.265 N 
ATOM      3  O   UNL d   1      -2.876   7.246   0.054  0.00  0.00    -0.269 OA
ATOM      4  H   UNL d   1      -0.475   7.888  -0.015  0.00  0.00     0.190 HD
ENDROOT
BRANCH   1   5
ATOM      5  C   UNL d   1      -2.198   4.931  -0.052  0.00  0.00     0.305 C 
BRANCH   5   6
ATOM      6  O   UNL d   1      -1.309   4.213  -0.904  0.00  0.00    -0.272 OA
BRANCH   6   7
ATOM      7  N   UNL d   1      -1.514   2.841  -0.716  0.00  0.00    -0.277 N 
ATOM      8  C   UNL d   1      -1.022   2.196  -1.722  0.00  0.00     0.128 C 
ATOM      9  HN  UNL d   1      -1.978   2.417   0.088  1.00  0.00     0.193 HD
BRANCH   8  10
ATOM     10  C   UNL d   1      -1.121   0.730  -1.888  0.00  0.00     0.025 A 
ATOM     11  C   UNL d   1      -2.204  -0.016  -1.393  0.00  0.00     0.047 A 
ATOM     12 CL   UNL d   1      -3.545   0.670  -0.541  0.00  0.00    -0.083 Cl
ATOM     13  C   UNL d   1      -2.276  -1.396  -1.630  0.00  0.00     0.025 A 
ATOM     14  C   UNL d   1      -1.283  -2.043  -2.361  0.00  0.00     0.003 A 
ATOM     15  C   UNL d   1      -0.206  -1.313  -2.854  0.00  0.00     0.025 A 
ATOM     16  C   UNL d   1      -0.120   0.065  -2.619  0.00  0.00     0.047 A 
ATOM     17 CL   UNL d   1       1.280   0.870  -3.244  0.00  0.00    -0.083 Cl
ENDBRANCH   8  10
ENDBRANCH   6   7
ENDBRANCH   5   6
ENDBRANCH   1   5
BRANCH   2  18
ATOM     18  N   UNL d   1       0.445   6.039  -0.114  0.00  0.00    -0.263 N 
ATOM     19  C   UNL d   1       1.635   6.499   0.411  0.00  0.00     0.270 C 
ATOM     20  O   UNL d   1       1.784   7.630   0.860  0.00  0.00    -0.266 OA
ATOM     21  H   UNL d   1       0.387   5.187  -0.670  0.00  0.00     0.190 HD
BRANCH  19  22
ATOM     22  C   UNL d   1       2.769   5.535   0.371  0.00  0.00     0.033 A 
ATOM     23  C   UNL d   1       4.075   6.042   0.324  0.00  0.00     0.019 A 
ATOM     24  C   UNL d   1       5.166   5.170   0.304  0.00  0.00     0.025 A 
ATOM     25  C   UNL d   1       4.954   3.793   0.343  0.00  0.00     0.034 A 
ATOM     26  C   UNL d   1       3.658   3.278   0.397  0.00  0.00     0.025 A 
ATOM     27 CL   UNL d   1       6.297   2.719   0.338  0.00  0.00    -0.084 Cl
ATOM     28  C   UNL d   1       2.563   4.148   0.413  0.00  0.00     0.019 A 
ENDBRANCH  19  22
ENDBRANCH   2  18
TORSDOF 6
