REMARK  9 active torsions:
REMARK  status: ('A' for Active; 'I' for Inactive)
REMARK    1  A    between atoms: C_2  and  N_1 
REMARK    2  A    between atoms: S_6  and  C_3 
REMARK    3  A    between atoms: C_16  and  S_6 
REMARK    4  A    between atoms: S_13  and  C_7 
REMARK    5  A    between atoms: C_11  and  C_16 
REMARK    6  A    between atoms: O_20  and  C_11 
REMARK    7  A    between atoms: C_12  and  C_18 
REMARK    8  A    between atoms: O_19  and  C_12 
REMARK    9  A    between atoms: C_18  and  S_13 
ROOT
ATOM      1  C   UNL d   1       0.292   0.103  -1.314  0.00  0.00     0.136 A 
ATOM      2  C   UNL d   1      -0.780   0.989  -1.323  0.00  0.00     0.104 A 
ATOM      3  N   UNL d   1      -1.498   1.207  -2.459  0.00  0.00    -0.343 N 
ATOM      4  HN  UNL d   1      -2.277   1.865  -2.465  1.00  0.00     0.167 HD
ATOM      5  C   UNL d   1      -1.153   0.531  -3.582  0.00  0.00     0.071 A 
ATOM      6  C   UNL d   1       0.646  -0.588  -2.476  0.00  0.00     0.042 A 
ATOM      7  C   UNL d   1      -0.099  -0.374  -3.630  0.00  0.00     0.039 A 
ENDROOT
BRANCH   2   8
ATOM      8  S   UNL d   1      -1.255   2.005   0.069  0.00  0.00    -0.100 SA
BRANCH   8   9
ATOM      9  C   UNL d   1      -3.023   2.285  -0.287  0.00  0.00     0.191 C 
BRANCH   9  10
ATOM     10  C   UNL d   1      -3.854   1.017  -0.239  0.00  0.00     0.268 C 
ATOM     11  O   UNL d   1      -3.448  -0.121  -0.054  0.00  0.00    -0.264 OA
BRANCH  10  12
ATOM     12  O   UNL d   1      -5.170   1.347  -0.421  0.00  0.00    -0.326 OA
ATOM     13  C   UNL d   1      -6.069   0.237  -0.353  0.00  0.00     0.213 C 
ENDBRANCH  10  12
ENDBRANCH   9  10
ENDBRANCH   8   9
ENDBRANCH   2   8
BRANCH   1  14
ATOM     14  N   UNL d   1       1.078  -0.130  -0.127  0.00  0.00    -0.113 N 
ATOM     15  O   UNL d   1       0.500  -0.594   0.865  0.00  0.00    -0.532 OA
ATOM     16  O   UNL d   1       2.296   0.080  -0.215  0.00  0.00    -0.532 OA
ENDBRANCH   1  14
BRANCH   5  17
ATOM     17  S   UNL d   1      -2.138   0.795  -5.043  0.00  0.00    -0.102 SA
BRANCH  17  18
ATOM     18  C   UNL d   1      -2.647   2.526  -4.782  0.00  0.00     0.191 C 
BRANCH  18  19
ATOM     19  C   UNL d   1      -1.475   3.488  -4.782  0.00  0.00     0.268 C 
ATOM     20  O   UNL d   1      -0.295   3.206  -4.948  0.00  0.00    -0.264 OA
BRANCH  19  21
ATOM     21  O   UNL d   1      -1.941   4.760  -4.590  0.00  0.00    -0.326 OA
ATOM     22  C   UNL d   1      -0.915   5.755  -4.593  0.00  0.00     0.213 C 
ENDBRANCH  19  21
ENDBRANCH  18  19
ENDBRANCH  17  18
ENDBRANCH   5  17
TORSDOF 9
