REMARK  4 active torsions:
REMARK  status: ('A' for Active; 'I' for Inactive)
REMARK    1  A    between atoms: C_5  and  C_1 
REMARK    2  A    between atoms: C_4  and  C_11 
REMARK       I    between atoms: N_10  and  C_5 
REMARK       I    between atoms: C_9  and  N_12 
REMARK    3  A    between atoms: C_13  and  C_9 
REMARK    4  A    between atoms: N_12  and  N_10 
ROOT
ATOM      1  C   UNL d   1      -3.536   3.518   0.088  0.00  0.00     0.270 C 
ATOM      2  N   UNL d   1      -2.353   2.904  -0.265  0.00  0.00    -0.263 N 
ATOM      3  O   UNL d   1      -3.592   4.487   0.838  0.00  0.00    -0.266 OA
ATOM      4  H   UNL d   1      -2.317   1.997  -0.731  0.00  0.00     0.190 HD
ENDROOT
BRANCH   2   5
ATOM      5  N   UNL d   1      -1.132   3.342   0.288  0.00  0.00    -0.263 N 
ATOM      6  C   UNL d   1      -0.008   2.616  -0.057  0.00  0.00     0.274 C 
ATOM      7  O   UNL d   1      -0.133   1.611  -0.767  0.00  0.00    -0.266 OA
ATOM      8  H   UNL d   1      -1.149   4.220   0.799  0.00  0.00     0.190 HD
BRANCH   6   9
ATOM      9  C   UNL d   1       1.292   3.060   0.410  0.00  0.00     0.089 A 
ATOM     10  C   UNL d   1       2.474   2.469  -0.007  0.00  0.00     0.090 A 
ATOM     11  O   UNL d   1       3.531   3.068   0.591  0.00  0.00    -0.242 OA
ATOM     12  C   UNL d   1       2.798   1.365  -0.935  0.00  0.00     0.080 C 
ATOM     13  N   UNL d   1       3.081   4.068   1.418  0.00  0.00    -0.265 N 
ATOM     14  C   UNL d   1       1.744   4.066   1.316  0.00  0.00     0.047 A 
ATOM     15  HN  UNL d   1       3.650   4.687   1.995  1.00  0.00     0.194 HD
ATOM     16  C   UNL d   1       0.993   5.044   2.137  0.00  0.00     0.071 C 
ENDBRANCH   6   9
ENDBRANCH   2   5
BRANCH   1  17
ATOM     17  C   UNL d   1      -4.772   2.897  -0.472  0.00  0.00     0.034 A 
ATOM     18  C   UNL d   1      -5.949   2.922   0.291  0.00  0.00     0.033 A 
ATOM     19  C   UNL d   1      -7.128   2.325  -0.192  0.00  0.00     0.048 A 
ATOM     20  C   UNL d   1      -7.115   1.727  -1.462  0.00  0.00     0.016 A 
ATOM     21  C   UNL d   1      -5.953   1.721  -2.234  0.00  0.00     0.002 A 
ATOM     22  C   UNL d   1      -4.782   2.302  -1.741  0.00  0.00     0.017 A 
BRANCH  19  23
ATOM     23  C   UNL d   1      -8.394   2.305   0.630  0.00  0.00     0.417 C 
ATOM     24  F   UNL d   1      -8.268   2.907   1.844  0.00  0.00    -0.166 F 
ATOM     25  F   UNL d   1      -9.431   2.929   0.006  0.00  0.00    -0.166 F 
ATOM     26  F   UNL d   1      -8.822   1.037   0.886  0.00  0.00    -0.166 F 
ENDBRANCH  19  23
ENDBRANCH   1  17
TORSDOF 4
