REMARK  8 active torsions:
REMARK  status: ('A' for Active; 'I' for Inactive)
REMARK    1  A    between atoms: C_19  and  C_1 
REMARK    2  A    between atoms: C_2  and  N_5 
REMARK    3  A    between atoms: C_3  and  N_18 
REMARK    4  A    between atoms: N_5  and  C_3 
REMARK    5  A    between atoms: O_22  and  C_7 
REMARK    6  A    between atoms: O_24  and  C_9 
REMARK    7  A    between atoms: O_25  and  C_11 
REMARK    8  A    between atoms: N_18  and  N_13 
ROOT
ATOM      1  C   UNL d   1      -1.911   6.559  -0.064  0.00  0.00     0.191 C 
ATOM      2  S   UNL d   1      -1.856   8.226   0.061  0.00  0.00    -0.039 SA
ENDROOT
BRANCH   1   3
ATOM      3  N   UNL d   1      -0.825   5.714  -0.127  0.00  0.00    -0.276 N 
ATOM      4  H   UNL d   1      -0.980   4.785  -0.502  0.00  0.00     0.189 HD
BRANCH   3   5
ATOM      5  N   UNL d   1       0.451   6.107   0.136  0.00  0.00    -0.309 N 
ATOM      6  C   UNL d   1       1.346   5.195  -0.079  0.00  0.00     0.121 C 
ATOM      7  HN  UNL d   1       0.683   7.041   0.475  1.00  0.00     0.186 HD
BRANCH   6   8
ATOM      8  C   UNL d   1       2.776   5.435   0.189  0.00  0.00     0.017 A 
ATOM      9  C   UNL d   1       3.725   4.462  -0.144  0.00  0.00     0.094 A 
ATOM     10  C   UNL d   1       5.082   4.708   0.096  0.00  0.00     0.046 A 
ATOM     11 BR   UNL d   1       6.395   3.423  -0.369  0.00  0.00    -0.048 Br
ATOM     12  C   UNL d   1       5.490   5.909   0.676  0.00  0.00     0.041 A 
ATOM     13  C   UNL d   1       4.533   6.863   1.023  0.00  0.00     0.013 A 
ATOM     14  C   UNL d   1       3.180   6.635   0.783  0.00  0.00     0.034 A 
ATOM     15 BR   UNL d   1       5.083   8.484   1.826  0.00  0.00    -0.051 Br
BRANCH   9  16
ATOM     16  O   UNL d   1       3.313   3.280  -0.703  0.00  0.00    -0.358 OA
ATOM     17  H   UNL d   1       4.103   2.724  -0.846  0.00  0.00     0.217 HD
ENDBRANCH   9  16
ENDBRANCH   6   8
ENDBRANCH   3   5
ENDBRANCH   1   3
BRANCH   1  18
ATOM     18  N   UNL d   1      -3.134   5.942  -0.198  0.00  0.00    -0.330 N 
ATOM     19  H   UNL d   1      -3.884   6.528  -0.557  0.00  0.00     0.168 HD
BRANCH  18  20
ATOM     20  C   UNL d   1      -3.510   4.631   0.169  0.00  0.00     0.070 A 
ATOM     21  C   UNL d   1      -2.787   3.892   1.115  0.00  0.00     0.071 A 
ATOM     22  C   UNL d   1      -3.177   2.597   1.481  0.00  0.00     0.092 A 
ATOM     23  C   UNL d   1      -4.289   2.027   0.854  0.00  0.00     0.070 A 
ATOM     24  C   UNL d   1      -5.048   2.777  -0.058  0.00  0.00     0.065 A 
ATOM     25 CL   UNL d   1      -4.769   0.382   1.083  0.00  0.00    -0.081 Cl
ATOM     26  C   UNL d   1      -4.679   4.087  -0.390  0.00  0.00     0.096 A 
BRANCH  22  27
ATOM     27  O   UNL d   1      -2.326   1.994   2.366  0.00  0.00    -0.354 OA
ATOM     28  C   UNL d   1      -2.941   1.296   3.444  0.00  0.00     0.210 C 
ENDBRANCH  22  27
BRANCH  26  29
ATOM     29  O   UNL d   1      -5.343   4.880  -1.291  0.00  0.00    -0.354 OA
ATOM     30  C   UNL d   1      -6.682   4.508  -1.606  0.00  0.00     0.210 C 
ENDBRANCH  26  29
ENDBRANCH  18  20
ENDBRANCH   1  18
TORSDOF 8
