REMARK  3 active torsions:
REMARK  status: ('A' for Active; 'I' for Inactive)
REMARK    1  A    between atoms: N_3  and  C_1 
REMARK       I    between atoms: C_7  and  N_3 
REMARK       I    between atoms: N_9  and  C_7 
REMARK    2  A    between atoms: C_10  and  N_9 
REMARK    3  A    between atoms: C_19  and  C_13 
ROOT
ATOM      1  N   UNL d   1       2.173  -5.564  -0.320  0.00  0.00    -0.292 N 
ATOM      2  C   UNL d   1       0.837  -5.091  -0.183  0.00  0.00     0.326 C 
ATOM      3  N   UNL d   1       0.863  -3.724  -0.227  0.00  0.00    -0.308 N 
ATOM      4  O   UNL d   1      -0.090  -5.860  -0.029  0.00  0.00    -0.247 OA
ATOM      5  H   UNL d   1       2.906  -4.918  -0.078  0.00  0.00     0.172 HD
ATOM      6  H   UNL d   1       1.651  -3.321  -0.707  0.00  0.00     0.170 HD
ENDROOT
BRANCH   1   7
ATOM      7  C   UNL d   1       2.532  -6.872  -0.636  0.00  0.00     0.144 A 
ATOM      8  C   UNL d   1       1.881  -7.841  -1.372  0.00  0.00     0.073 A 
ATOM      9  C   UNL d   1       2.768  -8.928  -1.450  0.00  0.00     0.130 A 
ATOM     10 BR   UNL d   1       0.254  -7.851  -2.303  0.00  0.00    -0.045 Br
ATOM     11  N   UNL d   1       3.916  -8.685  -0.815  0.00  0.00    -0.307 N 
ATOM     12  N   UNL d   1       3.748  -7.446  -0.321  0.00  0.00    -0.280 N 
ATOM     13  HN  UNL d   1       4.728  -9.295  -0.726  1.00  0.00     0.186 HD
ATOM     14  C   UNL d   1       4.809  -6.889   0.484  0.00  0.00     0.179 C 
ENDBRANCH   1   7
BRANCH   3  15
ATOM     15  C   UNL d   1      -0.296  -2.913  -0.211  0.00  0.00     0.048 A 
ATOM     16  C   UNL d   1      -1.320  -3.082   0.749  0.00  0.00    -0.035 A 
ATOM     17  C   UNL d   1      -2.458  -2.259   0.689  0.00  0.00     0.009 A 
ATOM     18  C   UNL d   1      -1.271  -4.057   1.896  0.00  0.00     0.050 C 
ATOM     19  C   UNL d   1      -2.566  -1.251  -0.261  0.00  0.00     0.001 A 
ATOM     20  C   UNL d   1      -1.532  -1.046  -1.167  0.00  0.00     0.009 A 
ATOM     21  C   UNL d   1      -0.384  -1.861  -1.160  0.00  0.00    -0.031 A 
BRANCH  21  22
ATOM     22  C   UNL d   1       0.684  -1.541  -2.192  0.00  0.00     0.036 C 
ATOM     23  C   UNL d   1       0.966  -2.647  -3.203  0.00  0.00     0.010 C 
ENDBRANCH  21  22
ENDBRANCH   3  15
TORSDOF 3
