REMARK  5 active torsions:
REMARK  status: ('A' for Active; 'I' for Inactive)
REMARK    1  A    between atoms: N_7  and  S_1 
REMARK    2  A    between atoms: C_8  and  S_1 
REMARK    3  A    between atoms: C_2  and  N_7 
REMARK    4  A    between atoms: C_9  and  C_3 
REMARK    5  A    between atoms: C_12  and  C_5 
ROOT
ATOM      1  C   UNL d   1       0.855  -2.083  -1.578  0.00  0.00     0.045 A 
ATOM      2  C   UNL d   1       2.075  -1.977  -2.225  0.00  0.00     0.073 A 
ATOM      3  S   UNL d   1       2.052  -2.772  -3.731  0.00  0.00    -0.084 SA
ATOM      4  C   UNL d   1       0.429  -3.289  -3.549  0.00  0.00     0.017 A 
ATOM      5  C   UNL d   1      -0.099  -2.808  -2.363  0.00  0.00     0.045 A 
ENDROOT
BRANCH   1   6
ATOM      6  N   UNL d   1       0.544  -1.513  -0.318  0.00  0.00    -0.180 NA
ATOM      7  H   UNL d   1       1.227  -0.792  -0.034  0.00  0.00     0.146 HD
BRANCH   6   8
ATOM      8  S   UNL d   1       0.462  -2.535   1.049  0.00  0.00     0.245 S 
ATOM      9  O   UNL d   1       1.201  -1.869   2.105  0.00  0.00    -0.206 OA
ATOM     10  O   UNL d   1       0.760  -3.897   0.656  0.00  0.00    -0.206 OA
BRANCH   8  11
ATOM     11  C   UNL d   1      -1.252  -2.455   1.516  0.00  0.00     0.074 A 
ATOM     12  C   UNL d   1      -2.000  -3.636   1.593  0.00  0.00     0.026 A 
ATOM     13  C   UNL d   1      -3.322  -3.588   2.038  0.00  0.00     0.025 A 
ATOM     14  C   UNL d   1      -3.889  -2.366   2.400  0.00  0.00     0.034 A 
ATOM     15  C   UNL d   1      -3.143  -1.188   2.328  0.00  0.00     0.025 A 
ATOM     16 CL   UNL d   1      -5.518  -2.313   2.951  0.00  0.00    -0.084 Cl
ATOM     17  C   UNL d   1      -1.815  -1.230   1.889  0.00  0.00     0.026 A 
ENDBRANCH   8  11
ENDBRANCH   6   8
ENDBRANCH   1   6
BRANCH   2  18
ATOM     18  C   UNL d   1       3.275  -1.314  -1.731  0.00  0.00     0.164 C 
ATOM     19  O   UNL d   1       3.329  -0.858  -0.585  0.00  0.00    -0.292 OA
ATOM     20  C   UNL d   1       4.481  -1.179  -2.634  0.00  0.00     0.097 C 
ENDBRANCH   2  18
BRANCH   4  21
ATOM     21  C   UNL d   1      -0.200  -4.111  -4.600  0.00  0.00    -0.019 A 
ATOM     22  C   UNL d   1      -1.561  -3.957  -4.914  0.00  0.00     0.016 A 
ATOM     23  C   UNL d   1      -2.158  -4.740  -5.905  0.00  0.00     0.043 A 
ATOM     24  C   UNL d   1      -1.401  -5.684  -6.592  0.00  0.00     0.116 A 
ATOM     25  C   UNL d   1      -0.056  -5.857  -6.302  0.00  0.00     0.043 A 
ATOM     26  F   UNL d   1      -1.974  -6.433  -7.541  0.00  0.00    -0.206 F 
ATOM     27  C   UNL d   1       0.539  -5.079  -5.309  0.00  0.00     0.016 A 
ENDBRANCH   4  21
TORSDOF 5
