REMARK  5 active torsions:
REMARK  status: ('A' for Active; 'I' for Inactive)
REMARK    1  A    between atoms: C_2  and  S_1 
REMARK    2  A    between atoms: N_13  and  S_1 
REMARK    3  A    between atoms: C_8  and  C_19 
REMARK    4  A    between atoms: C_23  and  C_9 
REMARK    5  A    between atoms: C_24  and  N_13 
ROOT
ATOM      1  C   UNL d   1       2.630  -4.036  -1.244  0.00  0.00     0.018 A 
ATOM      2  C   UNL d   1       0.978  -2.674  -0.092  0.00  0.00     0.023 A 
ATOM      3  C   UNL d   1       2.262  -2.838  -0.614  0.00  0.00     0.040 A 
ATOM      4  C   UNL d   1       1.683  -5.068  -1.333  0.00  0.00     0.016 A 
ATOM      5  C   UNL d   1       0.404  -4.910  -0.793  0.00  0.00     0.003 A 
ATOM      6  C   UNL d   1       0.055  -3.716  -0.164  0.00  0.00     0.024 A 
ENDROOT
BRANCH   2   7
ATOM      7  N   UNL d   1       0.612  -1.439   0.515  0.00  0.00    -0.181 NA
ATOM      8  H   UNL d   1       1.020  -0.601   0.101  0.00  0.00     0.146 HD
BRANCH   7   9
ATOM      9  S   UNL d   1       0.654  -1.339   2.204  0.00  0.00     0.252 S 
ATOM     10  O   UNL d   1       0.315   0.024   2.552  0.00  0.00    -0.205 OA
ATOM     11  O   UNL d   1      -0.050  -2.467   2.777  0.00  0.00    -0.205 OA
BRANCH   9  12
ATOM     12  C   UNL d   1       2.341  -1.533   2.750  0.00  0.00     0.116 A 
ATOM     13  S   UNL d   1       3.498  -0.475   2.067  0.00  0.00    -0.074 SA
ATOM     14  C   UNL d   1       4.790  -1.190   2.943  0.00  0.00     0.042 A 
ATOM     15  C   UNL d   1       6.148  -0.748   2.775  0.00  0.00     0.117 A 
ATOM     16  C   UNL d   1       4.328  -2.192   3.777  0.00  0.00     0.024 A 
ATOM     17  O   UNL d   1       6.523   0.223   1.879  0.00  0.00    -0.237 OA
ATOM     18  C   UNL d   1       7.293  -1.182   3.417  0.00  0.00     0.059 A 
ATOM     19  N   UNL d   1       7.892   0.421   1.929  0.00  0.00    -0.272 N 
ATOM     20  C   UNL d   1       8.336  -0.422   2.860  0.00  0.00     0.117 A 
ATOM     21  HN  UNL d   1       8.443   1.074   1.373  1.00  0.00     0.194 HD
ATOM     22  C   UNL d   1       2.920  -2.391   3.663  0.00  0.00     0.034 A 
ENDBRANCH   9  12
ENDBRANCH   7   9
ENDBRANCH   2   7
BRANCH   1  23
ATOM     23  C   UNL d   1       3.953  -4.215  -1.826  0.00  0.00     0.174 A 
ATOM     24  O   UNL d   1       4.851  -3.188  -1.679  0.00  0.00    -0.277 OA
ATOM     25  C   UNL d   1       5.939  -3.664  -2.363  0.00  0.00     0.148 A 
ATOM     26  N   UNL d   1       5.738  -4.869  -2.855  0.00  0.00    -0.281 N 
ATOM     27  N   UNL d   1       4.451  -5.224  -2.510  0.00  0.00    -0.277 N 
ATOM     28  HN  UNL d   1       6.403  -5.430  -3.387  1.00  0.00     0.189 HD
ATOM     29  HN  UNL d   1       3.977  -6.098  -2.739  1.00  0.00     0.189 HD
BRANCH  25  30
ATOM     30  C   UNL d   1       7.174  -2.811  -2.418  0.00  0.00     0.016 C 
ATOM     31  C   UNL d   1       8.094  -3.189  -1.247  0.00  0.00     0.023 C 
ATOM     32  C   UNL d   1       7.912  -3.061  -3.747  0.00  0.00     0.023 C 
ATOM     33  C   UNL d   1       6.828  -1.314  -2.328  0.00  0.00     0.023 C 
ENDBRANCH  25  30
ENDBRANCH   1  23
TORSDOF 5
