REMARK  6 active torsions:
REMARK  status: ('A' for Active; 'I' for Inactive)
REMARK    1  A    between atoms: C_2  and  S_1 
REMARK    2  A    between atoms: N_3  and  S_1 
REMARK    3  A    between atoms: C_13  and  N_3 
REMARK    4  A    between atoms: O_18  and  C_7 
REMARK    5  A    between atoms: C_8  and  C_9 
REMARK    6  A    between atoms: O_19  and  C_10 
ROOT
ATOM      1  S   UNL d   1       1.087  -0.028   0.067  0.00  0.00     0.263 S 
ATOM      2  O   UNL d   1       0.310   0.935   0.817  0.00  0.00    -0.200 OA
ATOM      3  O   UNL d   1       2.533  -0.068   0.184  0.00  0.00    -0.200 OA
ENDROOT
BRANCH   1   4
ATOM      4  C   UNL d   1       0.679   0.179  -1.652  0.00  0.00     0.082 A 
ATOM      5  C   UNL d   1       1.627  -0.166  -2.625  0.00  0.00     0.065 A 
ATOM      6  C   UNL d   1       1.339  -0.007  -3.989  0.00  0.00     0.102 A 
ATOM      7  C   UNL d   1       0.095   0.533  -4.363  0.00  0.00     0.101 A 
ATOM      8  C   UNL d   1      -0.839   0.883  -3.374  0.00  0.00     0.041 A 
ATOM      9  C   UNL d   1      -0.550   0.721  -2.019  0.00  0.00     0.028 A 
BRANCH   6  10
ATOM     10  O   UNL d   1       2.203  -0.384  -4.981  0.00  0.00    -0.353 OA
ATOM     11  C   UNL d   1       3.445  -0.966  -4.603  0.00  0.00     0.210 C 
ENDBRANCH   6  10
BRANCH   7  12
ATOM     12  O   UNL d   1      -0.381   0.718  -5.638  0.00  0.00    -0.353 OA
ATOM     13  C   UNL d   1       0.568   1.049  -6.645  0.00  0.00     0.210 C 
ENDBRANCH   7  12
ENDBRANCH   1   4
BRANCH   1  14
ATOM     14  N   UNL d   1       0.467  -1.529   0.448  0.00  0.00    -0.281 N 
ATOM     15  H   UNL d   1      -0.235  -1.567   1.182  0.00  0.00     0.179 HD
BRANCH  14  16
ATOM     16  C   UNL d   1       0.968  -2.720  -0.125  0.00  0.00     0.042 A 
ATOM     17  C   UNL d   1       2.032  -3.403   0.452  0.00  0.00     0.030 A 
ATOM     18  C   UNL d   1       2.450  -4.630  -0.087  0.00  0.00     0.010 A 
ATOM     19  C   UNL d   1       1.815  -5.198  -1.210  0.00  0.00    -0.051 A 
ATOM     20  C   UNL d   1       0.740  -4.479  -1.766  0.00  0.00     0.010 A 
ATOM     21  C   UNL d   1       0.316  -3.261  -1.225  0.00  0.00     0.030 A 
BRANCH  19  22
ATOM     22  C   UNL d   1       2.289  -6.544  -1.796  0.00  0.00    -0.024 C 
ATOM     23  C   UNL d   1       1.458  -7.001  -3.018  0.00  0.00     0.019 C 
ATOM     24  C   UNL d   1       3.758  -6.427  -2.257  0.00  0.00     0.019 C 
ATOM     25  C   UNL d   1       2.192  -7.667  -0.741  0.00  0.00     0.019 C 
ENDBRANCH  19  22
ENDBRANCH  14  16
ENDBRANCH   1  14
TORSDOF 6
