REMARK  4 active torsions:
REMARK  status: ('A' for Active; 'I' for Inactive)
REMARK    1  A    between atoms: O_14  and  C_5 
REMARK    2  A    between atoms: C_6  and  O_15 
REMARK    3  A    between atoms: C_7  and  O_14 
REMARK    4  A    between atoms: O_15  and  C_7 
ROOT
ATOM      1  C   UNL d   1      -3.696  -1.338   0.053  0.00  0.00     0.352 C 
ENDROOT
BRANCH   1   2
ATOM      2  O   UNL d   1      -2.420  -1.962  -0.083  0.00  0.00    -0.324 OA
BRANCH   2   3
ATOM      3  C   UNL d   1      -1.302  -1.237   0.243  0.00  0.00     0.093 A 
ATOM      4  C   UNL d   1      -1.122   0.154   0.340  0.00  0.00     0.069 A 
ATOM      5  C   UNL d   1       0.134   0.679   0.683  0.00  0.00     0.050 A 
ATOM      6 CL   UNL d   1      -2.335   1.347   0.027  0.00  0.00    -0.081 Cl
ATOM      7  C   UNL d   1       1.212  -0.167   0.919  0.00  0.00     0.035 A 
ATOM      8 CL   UNL d   1       2.744   0.497   1.329  0.00  0.00    -0.084 Cl
ATOM      9  C   UNL d   1       1.056  -1.542   0.815  0.00  0.00     0.026 A 
ATOM     10  C   UNL d   1      -0.193  -2.069   0.475  0.00  0.00     0.040 A 
ENDBRANCH   2   3
ENDBRANCH   1   2
BRANCH   1  11
ATOM     11  O   UNL d   1      -4.751  -2.311   0.000  0.00  0.00    -0.324 OA
BRANCH  11  12
ATOM     12  C   UNL d   1      -6.000  -1.755  -0.154  0.00  0.00     0.093 A 
ATOM     13  C   UNL d   1      -6.931  -2.420  -0.968  0.00  0.00     0.069 A 
ATOM     14  C   UNL d   1      -8.211  -1.893  -1.163  0.00  0.00     0.050 A 
ATOM     15 CL   UNL d   1      -6.524  -3.890  -1.780  0.00  0.00    -0.081 Cl
ATOM     16  C   UNL d   1      -8.569  -0.705  -0.532  0.00  0.00     0.035 A 
ATOM     17  C   UNL d   1      -7.668  -0.050   0.300  0.00  0.00     0.026 A 
ATOM     18 CL   UNL d   1     -10.139  -0.043  -0.776  0.00  0.00    -0.084 Cl
ATOM     19  C   UNL d   1      -6.389  -0.577   0.496  0.00  0.00     0.040 A 
ENDBRANCH  11  12
ENDBRANCH   1  11
TORSDOF 4
