REMARK  1 active torsions:
REMARK  status: ('A' for Active; 'I' for Inactive)
REMARK    1  A    between atoms: N_7  and  C_3 
ROOT
ATOM      1  C   UNL d   1       0.447  -0.744   0.072  0.00  0.00     0.044 A 
ATOM      2  C   UNL d   1       1.105   0.473   0.221  0.00  0.00     0.089 A 
ATOM      3  C   UNL d   1       1.283  -1.883  -0.043  0.00  0.00     0.097 A 
ATOM      4  S   UNL d   1       0.045   1.806   0.298  0.00  0.00    -0.075 SA
ATOM      5  C   UNL d   1      -0.986  -0.535   0.032  0.00  0.00    -0.029 A 
ATOM      6  C   UNL d   1      -1.317   0.805   0.136  0.00  0.00    -0.008 A 
ATOM      7  N   UNL d   1       2.430   0.672   0.292  0.00  0.00    -0.346 N 
ATOM      8  HN  UNL d   1       2.863   1.587   0.418  1.00  0.00     0.167 HD
ATOM      9  N   UNL d   1       2.626  -1.703   0.010  0.00  0.00    -0.342 N 
ATOM     10  HN  UNL d   1       3.257  -2.500  -0.076  1.00  0.00     0.167 HD
ATOM     11  C   UNL d   1       3.114  -0.465   0.178  0.00  0.00     0.182 A 
ATOM     12  C   UNL d   1      -2.054  -1.589  -0.075  0.00  0.00     0.041 C 
ATOM     13  C   UNL d   1      -2.705   1.364   0.082  0.00  0.00     0.047 C 
ATOM     14  C   UNL d   1      -3.429  -1.006  -0.434  0.00  0.00     0.005 C 
ATOM     15  C   UNL d   1      -3.733   0.263   0.371  0.00  0.00     0.005 C 
ENDROOT
BRANCH   3  16
ATOM     16  N   UNL d   1       0.771  -3.152  -0.305  0.00  0.00    -0.269 NA
ATOM     17  C   UNL d   1       1.664  -4.055  -1.033  0.00  0.00     0.097 C 
ATOM     18  C   UNL d   1       0.865  -5.353  -1.013  0.00  0.00     0.016 C 
ATOM     19  C   UNL d   1       0.100  -5.309   0.313  0.00  0.00     0.016 C 
ATOM     20  C   UNL d   1       0.333  -3.900   0.872  0.00  0.00     0.097 C 
ENDBRANCH   3  16
TORSDOF 1
