REMARK  8 active torsions:
REMARK  status: ('A' for Active; 'I' for Inactive)
REMARK    1  A    between atoms: N_2  and  C_1 
REMARK    2  A    between atoms: C_3  and  C_1 
REMARK    3  A    between atoms: C_4  and  C_1 
REMARK    4  A    between atoms: N_5  and  C_1 
REMARK       I    between atoms: C_6  and  N_2 
REMARK    5  A    between atoms: N_7  and  N_5 
REMARK    6  A    between atoms: O_15  and  C_6 
REMARK    7  A    between atoms: C_16  and  N_7 
REMARK    8  A    between atoms: C_17  and  O_15 
ROOT
ATOM      1  C   UNL d   1       1.034  -0.069   0.070  0.00  0.00     0.304 C 
ENDROOT
BRANCH   1   2
ATOM      2  N   UNL d   1       0.621  -0.392   1.447  0.00  0.00    -0.298 N 
ATOM      3  C   UNL d   1      -0.668  -0.357   1.859  0.00  0.00     0.362 C 
ATOM      4  O   UNL d   1      -1.617  -0.177   1.124  0.00  0.00    -0.238 OA
ATOM      5  H   UNL d   1       1.318  -0.391   2.180  0.00  0.00     0.167 HD
BRANCH   3   6
ATOM      6  O   UNL d   1      -0.691  -0.472   3.199  0.00  0.00    -0.304 OA
BRANCH   6   7
ATOM      7  C   UNL d   1      -1.949  -0.188   3.829  0.00  0.00     0.176 C 
ATOM      8  C   UNL d   1      -1.994   1.289   4.176  0.00  0.00     0.034 C 
ENDBRANCH   6   7
ENDBRANCH   3   6
ENDBRANCH   1   2
BRANCH   1   9
ATOM      9  C   UNL d   1       0.559   1.334  -0.417  0.00  0.00     0.437 C 
ATOM     10  F   UNL d   1       0.700   2.235   0.602  0.00  0.00    -0.167 F 
ATOM     11  F   UNL d   1       1.323   1.805  -1.434  0.00  0.00    -0.167 F 
ATOM     12  F   UNL d   1      -0.722   1.412  -0.818  0.00  0.00    -0.167 F 
ENDBRANCH   1   9
BRANCH   1  13
ATOM     13  C   UNL d   1       0.535  -1.055  -1.027  0.00  0.00     0.437 C 
ATOM     14  F   UNL d   1       0.588  -2.342  -0.582  0.00  0.00    -0.167 F 
ATOM     15  F   UNL d   1      -0.740  -0.853  -1.422  0.00  0.00    -0.167 F 
ATOM     16  F   UNL d   1       1.297  -1.000  -2.148  0.00  0.00    -0.167 F 
ENDBRANCH   1  13
BRANCH   1  17
ATOM     17  N   UNL d   1       2.534  -0.041   0.204  0.00  0.00    -0.195 NA
ATOM     18  H   UNL d   1       2.830   0.692   0.852  0.00  0.00     0.150 HD
BRANCH  17  19
ATOM     19  N   UNL d   1       3.075  -1.299   0.498  0.00  0.00    -0.319 N 
ATOM     20  H   UNL d   1       2.835  -1.770   1.372  0.00  0.00     0.181 HD
BRANCH  19  21
ATOM     21  C   UNL d   1       4.369  -1.621   0.030  0.00  0.00     0.043 A 
ATOM     22  C   UNL d   1       5.054  -0.844  -0.914  0.00  0.00     0.030 A 
ATOM     23  C   UNL d   1       6.301  -1.243  -1.406  0.00  0.00     0.002 A 
ATOM     24  C   UNL d   1       6.869  -2.440  -0.979  0.00  0.00     0.000 A 
ATOM     25  C   UNL d   1       6.188  -3.241  -0.067  0.00  0.00     0.002 A 
ATOM     26  C   UNL d   1       4.944  -2.837   0.426  0.00  0.00     0.030 A 
ENDBRANCH  19  21
ENDBRANCH  17  19
ENDBRANCH   1  17
TORSDOF 8
