REMARK  3 active torsions:
REMARK  status: ('A' for Active; 'I' for Inactive)
REMARK    1  A    between atoms: N_5  and  N_1 
REMARK    2  A    between atoms: C_3  and  N_5 
REMARK    3  A    between atoms: C_7  and  C_4 
ROOT
ATOM      1  N   UNL d   1       1.050   0.093   0.138  0.00  0.00    -0.301 N 
ATOM      2  HN  UNL d   1       2.068   0.039   0.177  1.00  0.00     0.186 HD
ATOM      3  C   UNL d   1       0.357  -0.959  -0.201  0.00  0.00     0.048 C 
ATOM      4  C   UNL d   1      -1.154  -1.047  -0.281  0.00  0.00     0.072 C 
ENDROOT
BRANCH   1   5
ATOM      5  N   UNL d   1       0.422   1.263   0.440  0.00  0.00    -0.276 N 
ATOM      6  H   UNL d   1      -0.580   1.373   0.349  0.00  0.00     0.189 HD
BRANCH   5   7
ATOM      7  C   UNL d   1       1.137   2.360   0.836  0.00  0.00     0.184 C 
ATOM      8  S   UNL d   1       0.418   3.812   1.186  0.00  0.00    -0.040 SA
ATOM      9  N   UNL d   1       2.476   2.182   0.932  0.00  0.00    -0.375 N 
ATOM     10  H   UNL d   1       2.839   1.283   0.641  0.00  0.00     0.158 HD
ATOM     11  H   UNL d   1       3.095   2.939   1.180  0.00  0.00     0.158 HD
ENDBRANCH   5   7
ENDBRANCH   1   5
BRANCH   3  12
ATOM     12  C   UNL d   1       1.101  -2.218  -0.546  0.00  0.00     0.055 A 
ATOM     13  N   UNL d   1       0.347  -3.275  -0.938  0.00  0.00    -0.364 N 
ATOM     14  C   UNL d   1       1.008  -4.409  -1.260  0.00  0.00     0.088 A 
ATOM     15  HN  UNL d   1      -0.670  -3.217  -0.988  1.00  0.00     0.165 HD
ATOM     16  C   UNL d   1       2.386  -4.541  -1.209  0.00  0.00     0.017 A 
ATOM     17  C   UNL d   1       3.139  -3.445  -0.802  0.00  0.00     0.004 A 
ATOM     18  C   UNL d   1       2.490  -2.261  -0.464  0.00  0.00     0.031 A 
ENDBRANCH   3  12
TORSDOF 3
