REMARK  9 active torsions:
REMARK  status: ('A' for Active; 'I' for Inactive)
REMARK    1  A    between atoms: O_5  and  C_1 
REMARK    2  A    between atoms: C_11  and  C_4 
REMARK    3  A    between atoms: C_7  and  O_5 
REMARK    4  A    between atoms: C_14  and  C_6 
REMARK       I    between atoms: N_13  and  C_7 
REMARK    5  A    between atoms: C_20  and  C_10 
REMARK    6  A    between atoms: C_12  and  C_11 
REMARK    7  A    between atoms: C_22  and  N_13 
REMARK    8  A    between atoms: C_23  and  N_13 
REMARK    9  A    between atoms: O_21  and  C_20 
ROOT
ATOM      1  C   UNL d   1       0.735  -0.815   0.935  0.00  0.00     0.163 C 
ATOM      2  N   UNL d   1       0.708   0.495   1.243  0.00  0.00    -0.320 N 
ATOM      3  HN  UNL d   1       1.220   0.882   2.035  1.00  0.00     0.169 HD
ATOM      4  C   UNL d   1       0.068  -1.379  -0.145  0.00  0.00     0.019 C 
ATOM      5  C   UNL d   1      -0.046   1.258   0.425  0.00  0.00     0.134 C 
ATOM      6  N   UNL d   1      -0.957   0.744  -0.428  0.00  0.00    -0.342 N 
ATOM      7  HN  UNL d   1      -1.629   1.345  -0.905  1.00  0.00     0.167 HD
ATOM      8  C   UNL d   1      -0.950  -0.590  -0.631  0.00  0.00     0.045 C 
ENDROOT
BRANCH   1   9
ATOM      9  O   UNL d   1       0.642  -1.691   2.072  0.00  0.00    -0.243 OA
BRANCH   9  10
ATOM     10  C   UNL d   1       1.746  -2.207   2.718  0.00  0.00     0.369 C 
ATOM     11  N   UNL d   1       1.371  -3.168   3.670  0.00  0.00    -0.328 N 
ATOM     12  O   UNL d   1       2.902  -1.901   2.452  0.00  0.00    -0.238 OA
BRANCH  11  13
ATOM     13  C   UNL d   1      -0.030  -3.603   3.785  0.00  0.00     0.123 C 
ATOM     14  C   UNL d   1      -0.469  -4.085   5.160  0.00  0.00     0.026 C 
ENDBRANCH  11  13
BRANCH  11  15
ATOM     15  C   UNL d   1       2.417  -3.992   4.271  0.00  0.00     0.123 C 
ATOM     16  C   UNL d   1       2.865  -3.469   5.627  0.00  0.00     0.026 C 
ENDBRANCH  11  15
ENDBRANCH   9  10
ENDBRANCH   1   9
BRANCH   4  17
ATOM     17  C   UNL d   1       0.775  -2.447  -0.938  0.00  0.00     0.049 C 
BRANCH  17  18
ATOM     18  C   UNL d   1      -0.063  -3.587  -1.416  0.00  0.00    -0.010 A 
ATOM     19  C   UNL d   1      -0.466  -4.710  -0.500  0.00  0.00     0.005 A 
ATOM     20  C   UNL d   1       0.584  -4.946  -1.549  0.00  0.00     0.005 A 
ENDBRANCH  17  18
ENDBRANCH   4  17
BRANCH   5  21
ATOM     21  C   UNL d   1       0.105   2.733   0.472  0.00  0.00     0.076 A 
ATOM     22  N   UNL d   1      -0.612   3.459  -0.439  0.00  0.00    -0.363 N 
ATOM     23  C   UNL d   1      -0.462   4.798  -0.458  0.00  0.00     0.088 A 
ATOM     24  HN  UNL d   1      -1.247   2.996  -1.090  1.00  0.00     0.165 HD
ATOM     25  C   UNL d   1       0.377   5.486   0.396  0.00  0.00     0.017 A 
ATOM     26  C   UNL d   1       1.110   4.755   1.323  0.00  0.00     0.004 A 
ATOM     27  C   UNL d   1       0.969   3.365   1.368  0.00  0.00     0.033 A 
ENDBRANCH   5  21
BRANCH   8  28
ATOM     28  C   UNL d   1      -2.320  -1.195  -0.879  0.00  0.00     0.224 C 
BRANCH  28  29
ATOM     29  O   UNL d   1      -2.813  -1.616   0.404  0.00  0.00    -0.390 OA
ATOM     30  C   UNL d   1      -4.202  -1.884   0.416  0.00  0.00     0.201 C 
ENDBRANCH  28  29
ENDBRANCH   8  28
TORSDOF 9
