REMARK  7 active torsions:
REMARK  status: ('A' for Active; 'I' for Inactive)
REMARK    1  A    between atoms: C_7  and  C_1 
REMARK    2  A    between atoms: C_19  and  C_3 
REMARK    3  A    between atoms: C_16  and  N_4 
REMARK       I    between atoms: N_13  and  C_7 
REMARK    4  A    between atoms: N_8  and  C_17 
REMARK    5  A    between atoms: C_9  and  C_11 
REMARK    6  A    between atoms: C_10  and  C_12 
REMARK    7  A    between atoms: C_14  and  N_13 
ROOT
ATOM      1  C   UNL d   1      -0.013  -1.413   0.070  0.00  0.00     0.143 C 
ATOM      2  N   UNL d   1      -0.196   0.713   0.539  0.00  0.00    -0.014 NA
ATOM      3  C   UNL d   1       1.278  -0.891  -0.042  0.00  0.00     0.098 C 
ATOM      4  N   UNL d   1       1.062   0.484   0.089  0.00  0.00    -0.237 N 
ATOM      5  N   UNL d   1      -0.874  -0.422   0.466  0.00  0.00    -0.276 N 
ATOM      6  HN  UNL d   1      -1.867  -0.539   0.669  1.00  0.00     0.184 HD
ENDROOT
BRANCH   1   7
ATOM      7  C   UNL d   1      -0.433  -2.800  -0.079  0.00  0.00     0.276 C 
ATOM      8  N   UNL d   1      -1.480  -3.182   0.745  0.00  0.00    -0.322 N 
ATOM      9  H   UNL d   1      -2.040  -2.440   1.149  0.00  0.00     0.169 HD
ATOM     10  O   UNL d   1       0.096  -3.546  -0.897  0.00  0.00    -0.266 OA
BRANCH   8  11
ATOM     11  C   UNL d   1      -1.816  -4.526   1.024  0.00  0.00     0.036 A 
ATOM     12  C   UNL d   1      -0.911  -5.573   0.808  0.00  0.00     0.045 A 
ATOM     13  C   UNL d   1      -1.225  -6.899   1.135  0.00  0.00     0.050 A 
ATOM     14  C   UNL d   1      -2.487  -7.178   1.671  0.00  0.00     0.032 A 
ATOM     15  C   UNL d   1      -3.412  -6.146   1.903  0.00  0.00     0.050 A 
ATOM     16  C   UNL d   1      -3.059  -4.817   1.590  0.00  0.00     0.045 A 
BRANCH  13  17
ATOM     17  C   UNL d   1      -0.190  -7.976   0.913  0.00  0.00     0.417 C 
ATOM     18  F   UNL d   1      -0.573  -9.197   1.376  0.00  0.00    -0.166 F 
ATOM     19  F   UNL d   1       0.111  -8.151  -0.402  0.00  0.00    -0.166 F 
ATOM     20  F   UNL d   1       0.990  -7.697   1.535  0.00  0.00    -0.166 F 
ENDBRANCH  13  17
BRANCH  15  21
ATOM     21  C   UNL d   1      -4.779  -6.453   2.468  0.00  0.00     0.417 C 
ATOM     22  F   UNL d   1      -4.920  -7.745   2.875  0.00  0.00    -0.166 F 
ATOM     23  F   UNL d   1      -5.080  -5.685   3.551  0.00  0.00    -0.166 F 
ATOM     24  F   UNL d   1      -5.773  -6.235   1.565  0.00  0.00    -0.166 F 
ENDBRANCH  15  21
ENDBRANCH   8  11
ENDBRANCH   1   7
BRANCH   3  25
ATOM     25  C   UNL d   1       2.602  -1.541  -0.074  0.00  0.00    -0.005 A 
ATOM     26  C   UNL d   1       2.894  -2.603  -0.934  0.00  0.00     0.014 A 
ATOM     27  C   UNL d   1       4.159  -3.203  -0.940  0.00  0.00     0.001 A 
ATOM     28  C   UNL d   1       5.171  -2.714  -0.120  0.00  0.00     0.000 A 
ATOM     29  C   UNL d   1       4.909  -1.653   0.736  0.00  0.00     0.001 A 
ATOM     30  C   UNL d   1       3.628  -1.096   0.784  0.00  0.00     0.014 A 
ENDBRANCH   3  25
BRANCH   4  31
ATOM     31  C   UNL d   1       1.984   1.552  -0.103  0.00  0.00     0.055 A 
ATOM     32  C   UNL d   1       3.040   1.419  -1.020  0.00  0.00     0.034 A 
ATOM     33  C   UNL d   1       4.057   2.373  -1.067  0.00  0.00     0.038 A 
ATOM     34  C   UNL d   1       4.003   3.474  -0.205  0.00  0.00     0.103 A 
ATOM     35  C   UNL d   1       2.908   3.661   0.648  0.00  0.00     0.038 A 
ATOM     36  C   UNL d   1       1.884   2.705   0.686  0.00  0.00     0.034 A 
BRANCH  34  37
ATOM     37  N   UNL d   1       5.135   4.410  -0.167  0.00  0.00    -0.116 N 
ATOM     38  O   UNL d   1       6.108   4.173  -0.894  0.00  0.00    -0.532 OA
ATOM     39  O   UNL d   1       5.056   5.375   0.609  0.00  0.00    -0.532 OA
ENDBRANCH  34  37
ENDBRANCH   4  31
TORSDOF 7
