REMARK  10 active torsions:
REMARK  status: ('A' for Active; 'I' for Inactive)
REMARK    1  A    between atoms: N_2  and  C_1 
REMARK       I    between atoms: C_6  and  N_2 
REMARK    2  A    between atoms: C_13  and  C_6 
REMARK    3  A    between atoms: C_8  and  C_14 
REMARK    4  A    between atoms: O_12  and  C_8 
REMARK    5  A    between atoms: C_17  and  C_13 
REMARK    6  A    between atoms: C_14  and  C_16 
REMARK    7  A    between atoms: C_16  and  C_20 
REMARK    8  A    between atoms: C_18  and  C_17 
REMARK    9  A    between atoms: C_19  and  C_18 
REMARK   10  A    between atoms: C_20  and  C_19 
ROOT
ATOM      1  C   UNL d   1       2.987  -5.116  -1.250  0.00  0.00     0.103 C 
ENDROOT
BRANCH   1   2
ATOM      2  C   UNL d   1       3.240  -3.628  -1.151  0.00  0.00     0.223 C 
ATOM      3  N   UNL d   1       2.096  -2.860  -1.168  0.00  0.00    -0.307 N 
ATOM      4  H   UNL d   1       1.196  -3.253  -1.379  0.00  0.00     0.171 HD
ATOM      5  O   UNL d   1       4.398  -3.220  -1.107  0.00  0.00    -0.273 OA
BRANCH   3   6
ATOM      6  C   UNL d   1       2.188  -1.497  -1.053  0.00  0.00     0.150 A 
ATOM      7  N   UNL d   1       3.219  -0.783  -0.686  0.00  0.00    -0.346 N 
ATOM      8  C   UNL d   1       2.906   0.552  -0.743  0.00  0.00     0.097 A 
ATOM      9  HN  UNL d   1       4.122  -1.161  -0.400  1.00  0.00     0.167 HD
ATOM     10  C   UNL d   1       1.623   0.839  -1.163  0.00  0.00     0.070 A 
ATOM     11  S   UNL d   1       0.770  -0.629  -1.441  0.00  0.00    -0.064 SA
ENDBRANCH   3   6
ENDBRANCH   1   2
BRANCH   1  12
ATOM     12  C   UNL d   1       2.267  -5.676  -0.030  0.00  0.00     0.009 C 
BRANCH  12  13
ATOM     13  C   UNL d   1       2.130  -7.202  -0.066  0.00  0.00     0.000 C 
BRANCH  13  14
ATOM     14  C   UNL d   1       3.477  -7.928  -0.051  0.00  0.00     0.000 C 
BRANCH  14  15
ATOM     15  C   UNL d   1       3.306  -9.447  -0.062  0.00  0.00     0.000 C 
BRANCH  15  16
ATOM     16  C   UNL d   1       4.671 -10.131  -0.067  0.00  0.00     0.010 C 
BRANCH  16  17
ATOM     17  C   UNL d   1       4.561 -11.654  -0.087  0.00  0.00     0.111 C 
BRANCH  17  18
ATOM     18  C   UNL d   1       5.937 -12.281  -0.092  0.00  0.00     0.258 C 
ATOM     19  O   UNL d   1       6.992 -11.662  -0.082  0.00  0.00    -0.265 OA
BRANCH  18  20
ATOM     20  O   UNL d   1       5.835 -13.639  -0.107  0.00  0.00    -0.326 OA
ATOM     21  C   UNL d   1       7.103 -14.296  -0.112  0.00  0.00     0.213 C 
ENDBRANCH  18  20
ENDBRANCH  17  18
ENDBRANCH  16  17
ENDBRANCH  15  16
ENDBRANCH  14  15
ENDBRANCH  13  14
ENDBRANCH  12  13
ENDBRANCH   1  12
TORSDOF 10
