REMARK  6 active torsions:
REMARK  status: ('A' for Active; 'I' for Inactive)
REMARK    1  A    between atoms: N_4  and  S_1 
REMARK    2  A    between atoms: C_6  and  S_1 
REMARK    3  A    between atoms: C_2  and  C_8 
REMARK       I    between atoms: C_3  and  N_7 
REMARK    4  A    between atoms: C_5  and  C_3 
REMARK    5  A    between atoms: C_12  and  N_4 
REMARK    6  A    between atoms: N_7  and  C_23 
ROOT
ATOM      1  C   UNL d   1       0.525   1.538   0.033  0.00  0.00     0.080 A 
ATOM      2  C   UNL d   1      -0.819   1.714   0.369  0.00  0.00     0.027 A 
ATOM      3  C   UNL d   1       1.350   2.644  -0.168  0.00  0.00     0.027 A 
ATOM      4  C   UNL d   1      -0.520   4.131   0.295  0.00  0.00     0.035 A 
ATOM      5  C   UNL d   1      -1.338   3.009   0.492  0.00  0.00     0.031 A 
ATOM      6  C   UNL d   1       0.821   3.933  -0.052  0.00  0.00     0.031 A 
ENDROOT
BRANCH   1   7
ATOM      7  S   UNL d   1       1.205  -0.103  -0.094  0.00  0.00     0.263 S 
ATOM      8  O   UNL d   1       2.625  -0.026   0.163  0.00  0.00    -0.200 OA
ATOM      9  O   UNL d   1       0.344  -0.978   0.675  0.00  0.00    -0.200 OA
BRANCH   7  10
ATOM     10  N   UNL d   1       0.944  -0.498  -1.720  0.00  0.00    -0.281 N 
ATOM     11  H   UNL d   1      -0.016  -0.789  -1.893  0.00  0.00     0.179 HD
BRANCH  10  12
ATOM     12  C   UNL d   1       1.585   0.292  -2.710  0.00  0.00     0.043 A 
ATOM     13  C   UNL d   1       2.908   0.009  -3.048  0.00  0.00     0.046 A 
ATOM     14  C   UNL d   1       3.591   0.814  -3.971  0.00  0.00     0.050 A 
ATOM     15  C   UNL d   1       2.928   1.919  -4.527  0.00  0.00     0.016 A 
ATOM     16  C   UNL d   1       1.608   2.208  -4.174  0.00  0.00     0.003 A 
ATOM     17  C   UNL d   1       0.932   1.388  -3.272  0.00  0.00     0.030 A 
BRANCH  14  18
ATOM     18  C   UNL d   1       5.017   0.509  -4.357  0.00  0.00     0.417 C 
ATOM     19  F   UNL d   1       5.530  -0.590  -3.740  0.00  0.00    -0.166 F 
ATOM     20  F   UNL d   1       5.152   0.282  -5.694  0.00  0.00    -0.166 F 
ATOM     21  F   UNL d   1       5.864   1.534  -4.066  0.00  0.00    -0.166 F 
ENDBRANCH  14  18
ENDBRANCH  10  12
ENDBRANCH   7  10
ENDBRANCH   1   7
BRANCH   4  22
ATOM     22  N   UNL d   1      -1.093   5.403   0.510  0.00  0.00    -0.323 N 
ATOM     23  C   UNL d   1      -0.461   6.637   0.438  0.00  0.00     0.263 C 
ATOM     24  O   UNL d   1       0.680   6.802   0.017  0.00  0.00    -0.267 OA
ATOM     25  H   UNL d   1      -2.053   5.425   0.834  0.00  0.00     0.169 HD
BRANCH  23  26
ATOM     26  C   UNL d   1      -1.239   7.772   0.934  0.00  0.00     0.072 A 
ATOM     27  S   UNL d   1      -2.847   7.628   1.509  0.00  0.00    -0.097 SA
ATOM     28  C   UNL d   1      -2.905   9.275   1.968  0.00  0.00     0.050 A 
ATOM     29  C   UNL d   1      -1.742   9.941   1.654  0.00  0.00     0.009 A 
ATOM     30  C   UNL d   1      -0.792   9.079   1.037  0.00  0.00     0.025 A 
ENDBRANCH  23  26
ENDBRANCH   4  22
TORSDOF 6
