REMARK  2 active torsions:
REMARK  status: ('A' for Active; 'I' for Inactive)
REMARK    1  A    between atoms: C_6  and  N_1 
REMARK    2  A    between atoms: C_5  and  C_2 
ROOT
ATOM      1  N   UNL d   1      -0.600  -1.200   0.206  0.00  0.00    -0.299 N 
ATOM      2  C   UNL d   1       0.780  -1.380  -0.217  0.00  0.00     0.190 C 
ATOM      3  S   UNL d   1       1.487   0.260  -0.534  0.00  0.00    -0.129 SA
ATOM      4  C   UNL d   1      -1.103   0.103   0.130  0.00  0.00     0.235 C 
ATOM      5  C   UNL d   1      -0.081   1.105  -0.347  0.00  0.00     0.179 C 
ATOM      6  O   UNL d   1      -2.260   0.455   0.350  0.00  0.00    -0.272 OA
ENDROOT
BRANCH   2   7
ATOM      7  C   UNL d   1       1.652  -2.139   0.757  0.00  0.00    -0.010 A 
ATOM      8  C   UNL d   1       1.721  -1.810   2.109  0.00  0.00     0.098 A 
ATOM      9  N   UNL d   1       2.536  -2.419   3.006  0.00  0.00    -0.369 N 
ATOM     10  C   UNL d   1       3.334  -3.412   2.554  0.00  0.00     0.005 A 
ATOM     11  HN  UNL d   1       2.546  -2.137   3.986  1.00  0.00     0.165 HD
ATOM     12  C   UNL d   1       3.320  -3.833   1.229  0.00  0.00     0.025 A 
ATOM     13  C   UNL d   1       4.252  -4.053   3.555  0.00  0.00     0.068 C 
ATOM     14  C   UNL d   1       2.477  -3.186   0.327  0.00  0.00     0.013 A 
ENDBRANCH   2   7
BRANCH   1  15
ATOM     15  C   UNL d   1      -1.447  -2.323   0.472  0.00  0.00     0.038 A 
ATOM     16  C   UNL d   1      -1.217  -3.571  -0.129  0.00  0.00     0.031 A 
ATOM     17  C   UNL d   1      -2.074  -4.653   0.103  0.00  0.00     0.021 A 
ATOM     18  C   UNL d   1      -3.157  -4.508   0.963  0.00  0.00     0.011 A 
ATOM     19  C   UNL d   1      -3.389  -3.291   1.593  0.00  0.00     0.021 A 
ATOM     20 BR   UNL d   1      -4.318  -5.966   1.271  0.00  0.00    -0.051 Br
ATOM     21  C   UNL d   1      -2.542  -2.207   1.341  0.00  0.00     0.031 A 
ENDBRANCH   1  15
TORSDOF 2
