REMARK  4 active torsions:
REMARK  status: ('A' for Active; 'I' for Inactive)
REMARK    1  A    between atoms: S_2  and  C_1 
REMARK    2  A    between atoms: C_15  and  S_2 
REMARK    3  A    between atoms: N_5  and  C_4 
REMARK       I    between atoms: C_8  and  N_5 
REMARK    4  A    between atoms: C_7  and  N_10 
REMARK       I    between atoms: N_10  and  C_8 
ROOT
ATOM      1  C   UNL d   1       0.454   1.406  -0.527  0.00  0.00     0.079 C 
ATOM      2  C   UNL d   1       1.103   0.130  -0.834  0.00  0.00    -0.006 C 
ATOM      3  C   UNL d   1       0.318  -0.898  -0.326  0.00  0.00     0.085 C 
ATOM      4  C   UNL d   1      -0.836   1.246  -0.062  0.00  0.00     0.076 C 
ATOM      5  S   UNL d   1      -1.195  -0.377   0.264  0.00  0.00    -0.082 SA
ATOM      6  C   UNL d   1       2.482  -0.007  -1.404  0.00  0.00     0.052 C 
ENDROOT
BRANCH   3   7
ATOM      7  N   UNL d   1       0.461  -2.240  -0.083  0.00  0.00    -0.302 N 
ATOM      8  C   UNL d   1       1.150  -3.240  -0.697  0.00  0.00     0.327 C 
ATOM      9  N   UNL d   1       1.498  -3.039  -1.999  0.00  0.00    -0.287 N 
ATOM     10  O   UNL d   1       1.269  -4.300  -0.084  0.00  0.00    -0.247 OA
ATOM     11  H   UNL d   1       1.325  -2.139  -2.406  0.00  0.00     0.172 HD
ATOM     12  H   UNL d   1      -0.106  -2.602   0.677  0.00  0.00     0.171 HD
BRANCH   9  13
ATOM     13  C   UNL d   1       1.680  -4.089  -2.872  0.00  0.00     0.176 A 
ATOM     14  C   UNL d   1       1.886  -4.076  -4.225  0.00  0.00     0.085 A 
ATOM     15  C   UNL d   1       1.754  -5.429  -4.614  0.00  0.00     0.033 A 
ATOM     16  C   UNL d   1       1.736  -5.981  -5.986  0.00  0.00     0.070 C 
ATOM     17  N   UNL d   1       1.579  -6.225  -3.553  0.00  0.00    -0.264 N 
ATOM     18  O   UNL d   1       1.550  -5.378  -2.454  0.00  0.00    -0.220 OA
ATOM     19  HN  UNL d   1       1.486  -7.240  -3.553  1.00  0.00     0.194 HD
ENDBRANCH   9  13
ENDBRANCH   3   7
BRANCH   1  20
ATOM     20  S   UNL d   1       1.177   2.995  -0.555  0.00  0.00     0.207 S 
ATOM     21  O   UNL d   1       0.216   3.864   0.094  0.00  0.00    -0.217 OA
ATOM     22  O   UNL d   1       2.507   2.784  -0.022  0.00  0.00    -0.217 OA
BRANCH  20  23
ATOM     23  C   UNL d   1       1.315   3.534  -2.230  0.00  0.00     0.064 A 
ATOM     24  C   UNL d   1       0.280   3.301  -3.140  0.00  0.00     0.025 A 
ATOM     25  C   UNL d   1       0.416   3.751  -4.455  0.00  0.00     0.025 A 
ATOM     26  C   UNL d   1       1.573   4.430  -4.846  0.00  0.00     0.034 A 
ATOM     27  C   UNL d   1       2.592   4.681  -3.929  0.00  0.00     0.025 A 
ATOM     28 CL   UNL d   1       1.741   4.960  -6.473  0.00  0.00    -0.084 Cl
ATOM     29  C   UNL d   1       2.466   4.232  -2.615  0.00  0.00     0.025 A 
ENDBRANCH  20  23
ENDBRANCH   1  20
TORSDOF 4
