REMARK  10 active torsions:
REMARK  status: ('A' for Active; 'I' for Inactive)
REMARK    1  A    between atoms: O_6  and  C_1 
REMARK    2  A    between atoms: C_15  and  O_6 
REMARK    3  A    between atoms: N_13  and  C_26 
REMARK    4  A    between atoms: C_27  and  N_13 
REMARK    5  A    between atoms: O_14  and  C_16 
REMARK    6  A    between atoms: C_19  and  O_14 
REMARK    7  A    between atoms: C_17  and  C_27 
REMARK    8  A    between atoms: C_18  and  C_19 
REMARK    9  A    between atoms: O_25  and  C_18 
REMARK   10  A    between atoms: C_26  and  C_18 
ROOT
ATOM      1  C   UNL d   1       3.546   7.067   4.091  0.00  0.00     0.170 C 
ENDROOT
BRANCH   1   2
ATOM      2  C   UNL d   1       3.353   5.767   3.293  0.00  0.00     0.209 C 
BRANCH   2   3
ATOM      3  O   UNL d   1       2.021   5.682   2.778  0.00  0.00    -0.349 OA
BRANCH   3   4
ATOM      4  C   UNL d   1       1.757   4.585   2.000  0.00  0.00     0.069 A 
ATOM      5  C   UNL d   1       0.454   4.496   1.518  0.00  0.00     0.039 A 
ATOM      6  C   UNL d   1       0.062   3.401   0.742  0.00  0.00     0.040 A 
ATOM      7  C   UNL d   1       0.964   2.376   0.440  0.00  0.00     0.078 A 
ATOM      8  C   UNL d   1       2.281   2.494   0.870  0.00  0.00     0.040 A 
ATOM      9  C   UNL d   1       2.671   3.582   1.662  0.00  0.00     0.039 A 
BRANCH   7  10
ATOM     10  O   UNL d   1       0.425   1.346  -0.269  0.00  0.00    -0.255 OA
BRANCH  10  11
ATOM     11  C   UNL d   1       1.104   0.102  -0.350  0.00  0.00     0.530 C 
ATOM     12  F   UNL d   1       1.938  -0.133   0.685  0.00  0.00    -0.144 F 
ATOM     13  F   UNL d   1       1.799   0.033  -1.505  0.00  0.00    -0.144 F 
ATOM     14  F   UNL d   1       0.179  -0.885  -0.355  0.00  0.00    -0.144 F 
ENDBRANCH  10  11
ENDBRANCH   7  10
ENDBRANCH   3   4
ENDBRANCH   2   3
ENDBRANCH   1   2
BRANCH   1  15
ATOM     15  O   UNL d   1       2.678   7.120   5.231  0.00  0.00    -0.392 OA
ATOM     16  H   UNL d   1       2.678   6.244   5.653  0.00  0.00     0.210 HD
ENDBRANCH   1  15
BRANCH   1  17
ATOM     17  C   UNL d   1       5.003   7.189   4.586  0.00  0.00     0.303 C 
BRANCH  17  18
ATOM     18  N   UNL d   1       5.961   7.168   3.482  0.00  0.00     0.090 N 
ATOM     19  H   UNL d   1       5.809   7.978   2.879  0.00  0.00     0.316 HD
BRANCH  18  20
ATOM     20  C   UNL d   1       7.340   7.194   3.959  0.00  0.00     0.308 C 
BRANCH  20  21
ATOM     21  C   UNL d   1       8.301   7.176   2.793  0.00  0.00    -0.028 A 
ATOM     22  C   UNL d   1       9.188   8.247   2.594  0.00  0.00     0.048 A 
ATOM     23  C   UNL d   1      10.061   8.172   1.524  0.00  0.00     0.105 A 
ATOM     24  O   UNL d   1      10.991   9.110   1.201  0.00  0.00    -0.323 OA
ATOM     25  C   UNL d   1      10.071   7.103   0.667  0.00  0.00     0.105 A 
ATOM     26  C   UNL d   1      11.630   8.474   0.077  0.00  0.00     0.352 A 
ATOM     27  O   UNL d   1      11.011   7.230  -0.310  0.00  0.00    -0.323 OA
ATOM     28  C   UNL d   1       9.208   6.040   0.818  0.00  0.00     0.040 A 
ATOM     29  C   UNL d   1       8.319   6.079   1.899  0.00  0.00     0.012 A 
ENDBRANCH  20  21
ENDBRANCH  18  20
ENDBRANCH  17  18
ENDBRANCH   1  17
TORSDOF 10
