REMARK  0 active torsions:
REMARK  status: ('A' for Active; 'I' for Inactive)
ROOT
ATOM      1  S   UNL d   1       0.851   1.505  -0.293  0.00  0.00     0.146 S 
ATOM      2  S   UNL d   1      -0.789  -1.367   1.083  0.00  0.00    -0.155 SA
ATOM      3  C   UNL d   1       0.303  -0.948  -0.180  0.00  0.00     0.076 A 
ATOM      4  C   UNL d   1      -0.995  -0.200  -0.166  0.00  0.00     0.076 A 
ATOM      5  C   UNL d   1       1.496  -0.108   0.124  0.00  0.00     0.156 C 
ATOM      6  C   UNL d   1      -0.860   1.250   0.149  0.00  0.00     0.156 C 
ATOM      7  O   UNL d   1       1.428   2.490   0.597  0.00  0.00    -0.228 OA
ATOM      8  O   UNL d   1       0.925   1.661  -1.735  0.00  0.00    -0.228 OA
ENDROOT
TORSDOF 0
