REMARK  2 active torsions:
REMARK  status: ('A' for Active; 'I' for Inactive)
REMARK    1  A    between atoms: C_12  and  C_5 
REMARK    2  A    between atoms: C_13  and  C_8 
ROOT
ATOM      1  N   UNL d   1      -0.247  -0.626   0.021  0.00  0.00    -0.243 N 
ATOM      2  C   UNL d   1      -0.216   0.769   0.018  0.00  0.00     0.129 A 
ATOM      3  N   UNL d   1      -1.526  -1.085   0.003  0.00  0.00    -0.292 N 
ATOM      4  HN  UNL d   1      -1.830  -2.059   0.016  1.00  0.00     0.187 HD
ATOM      5  C   UNL d   1       2.129  -0.733   0.081  0.00  0.00     0.049 A 
ATOM      6  C   UNL d   1       0.942  -1.385   0.036  0.00  0.00     0.047 A 
ATOM      7  C   UNL d   1      -1.523   1.182  -0.032  0.00  0.00     0.082 A 
ATOM      8  C   UNL d   1      -2.305   0.004  -0.035  0.00  0.00     0.062 A 
ATOM      9  N   UNL d   1       0.949   1.477   0.070  0.00  0.00    -0.350 N 
ATOM     10  HN  UNL d   1       0.969   2.497   0.075  1.00  0.00     0.166 HD
ATOM     11  C   UNL d   1       2.029   0.762   0.112  0.00  0.00     0.107 A 
ATOM     12  C   UNL d   1       0.751  -2.878  -0.017  0.00  0.00     0.071 C 
ENDROOT
BRANCH   8  13
ATOM     13  C   UNL d   1      -3.766  -0.097  -0.058  0.00  0.00    -0.008 A 
ATOM     14  C   UNL d   1      -4.413  -1.184   0.549  0.00  0.00     0.015 A 
ATOM     15  C   UNL d   1      -5.809  -1.275   0.547  0.00  0.00     0.024 A 
ATOM     16  C   UNL d   1      -6.566  -0.282  -0.070  0.00  0.00     0.034 A 
ATOM     17  C   UNL d   1      -5.940   0.800  -0.685  0.00  0.00     0.024 A 
ATOM     18 CL   UNL d   1      -8.283  -0.391  -0.073  0.00  0.00    -0.084 Cl
ATOM     19  C   UNL d   1      -4.544   0.893  -0.677  0.00  0.00     0.015 A 
ENDBRANCH   8  13
BRANCH   5  20
ATOM     20  C   UNL d   1       3.460  -1.408   0.118  0.00  0.00     0.159 C 
ATOM     21  O   UNL d   1       3.614  -2.486   0.691  0.00  0.00    -0.293 OA
ATOM     22  C   UNL d   1       4.639  -0.731  -0.539  0.00  0.00     0.097 C 
ENDBRANCH   5  20
TORSDOF 2
