REMARK  2 active torsions:
REMARK  status: ('A' for Active; 'I' for Inactive)
REMARK    1  A    between atoms: N_17  and  C_9 
REMARK    2  A    between atoms: C_20  and  C_18 
ROOT
ATOM      1  C   UNL d   1      -1.296  -0.817   0.011  0.00  0.00     0.068 A 
ATOM      2  C   UNL d   1      -1.285   0.567   0.012  0.00  0.00     0.163 A 
ATOM      3  C   UNL d   1      -0.029  -1.545   0.024  0.00  0.00     0.199 A 
ATOM      4  N   UNL d   1      -2.427   1.300  -0.013  0.00  0.00    -0.326 N 
ATOM      5  HN  UNL d   1      -2.394   2.320  -0.005  1.00  0.00     0.169 HD
ATOM      6  C   UNL d   1       1.196  -0.743   0.025  0.00  0.00     0.049 A 
ATOM      7  O   UNL d   1      -0.123   1.309   0.031  0.00  0.00    -0.292 OA
ATOM      8  C   UNL d   1      -3.692  -0.750  -0.058  0.00  0.00     0.083 A 
ATOM      9  C   UNL d   1      -3.610   0.645  -0.050  0.00  0.00     0.100 A 
ATOM     10  C   UNL d   1      -2.513  -1.490  -0.018  0.00  0.00     0.046 A 
ATOM     11  C   UNL d   1       1.081   0.644   0.026  0.00  0.00     0.092 A 
ATOM     12  C   UNL d   1      -4.950  -1.427  -0.095  0.00  0.00     0.102 C 
ATOM     13  N   UNL d   1      -5.968  -1.984  -0.087  0.00  0.00    -0.191 NA
ATOM     14  C   UNL d   1       2.449  -1.366   0.018  0.00  0.00     0.025 A 
ATOM     15  O   UNL d   1      -0.007  -2.767   0.027  0.00  0.00    -0.286 OA
ATOM     16  C   UNL d   1       2.241   1.419   0.023  0.00  0.00     0.039 A 
ATOM     17  C   UNL d   1       3.616  -0.594   0.003  0.00  0.00    -0.057 A 
ATOM     18  C   UNL d   1       3.501   0.804   0.015  0.00  0.00     0.010 A 
ENDROOT
BRANCH   9  19
ATOM     19  N   UNL d   1      -4.735   1.453  -0.187  0.00  0.00    -0.287 NA
ATOM     20  H   UNL d   1      -5.525   1.198   0.395  0.00  0.00     0.125 HD
ATOM     21  H   UNL d   1      -4.463   2.427  -0.082  0.00  0.00     0.125 HD
ENDBRANCH   9  19
BRANCH  17  22
ATOM     22  C   UNL d   1       4.964  -1.271  -0.028  0.00  0.00     0.034 C 
ATOM     23  C   UNL d   1       5.504  -1.577   1.361  0.00  0.00     0.010 C 
ENDBRANCH  17  22
TORSDOF 2
