REMARK  4 active torsions:
REMARK  status: ('A' for Active; 'I' for Inactive)
REMARK    1  A    between atoms: C_5  and  C_3 
REMARK    2  A    between atoms: C_11  and  C_4 
REMARK    3  A    between atoms: C_8  and  C_12 
REMARK    4  A    between atoms: C_9  and  C_13 
ROOT
ATOM      1  N   UNL d   1       0.793   0.217  -0.864  0.00  0.00    -0.318 N 
ATOM      2  HN  UNL d   1       1.400   0.409  -1.661  1.00  0.00     0.169 HD
ATOM      3  C   UNL d   1       0.282  -0.933  -0.476  0.00  0.00     0.183 A 
ATOM      4  C   UNL d   1       0.304   1.096   0.078  0.00  0.00     0.138 A 
ATOM      5  N   UNL d   1      -0.431   0.512   1.038  0.00  0.00    -0.242 N 
ATOM      6  HN  UNL d   1      -0.880   0.950   1.842  1.00  0.00     0.196 HD
ATOM      7  O   UNL d   1      -0.435  -0.832   0.678  0.00  0.00    -0.217 OA
ENDROOT
BRANCH   4   8
ATOM      8  C   UNL d   1       0.544   2.534   0.006  0.00  0.00     0.011 A 
ATOM      9  C   UNL d   1       1.315   3.077  -1.033  0.00  0.00     0.031 A 
ATOM     10  C   UNL d   1       1.516   4.464  -1.141  0.00  0.00     0.049 A 
ATOM     11  C   UNL d   1       0.938   5.312  -0.183  0.00  0.00     0.032 A 
ATOM     12  C   UNL d   1       0.162   4.794   0.865  0.00  0.00     0.049 A 
ATOM     13  C   UNL d   1      -0.021   3.404   0.952  0.00  0.00     0.031 A 
BRANCH  10  14
ATOM     14  C   UNL d   1       2.324   5.020  -2.291  0.00  0.00     0.417 C 
ATOM     15  F   UNL d   1       2.404   6.380  -2.290  0.00  0.00    -0.166 F 
ATOM     16  F   UNL d   1       3.608   4.570  -2.292  0.00  0.00    -0.166 F 
ATOM     17  F   UNL d   1       1.804   4.678  -3.502  0.00  0.00    -0.166 F 
ENDBRANCH  10  14
BRANCH  12  18
ATOM     18  C   UNL d   1      -0.498   5.700   1.879  0.00  0.00     0.417 C 
ATOM     19  F   UNL d   1      -0.267   7.023   1.654  0.00  0.00    -0.166 F 
ATOM     20  F   UNL d   1      -1.851   5.555   1.897  0.00  0.00    -0.166 F 
ATOM     21  F   UNL d   1      -0.075   5.455   3.149  0.00  0.00    -0.166 F 
ENDBRANCH  12  18
ENDBRANCH   4   8
BRANCH   3  22
ATOM     22  C   UNL d   1       0.449  -2.261  -1.055  0.00  0.00     0.039 A 
ATOM     23  C   UNL d   1      -0.538  -3.266  -1.027  0.00  0.00     0.051 A 
ATOM     24  C   UNL d   1      -0.299  -4.515  -1.612  0.00  0.00     0.067 A 
ATOM     25 CL   UNL d   1      -2.109  -3.031  -0.340  0.00  0.00    -0.083 Cl
ATOM     26  C   UNL d   1       0.917  -4.765  -2.232  0.00  0.00     0.118 A 
ATOM     27  C   UNL d   1       1.902  -3.791  -2.287  0.00  0.00     0.043 A 
ATOM     28  F   UNL d   1       1.137  -5.959  -2.796  0.00  0.00    -0.206 F 
ATOM     29  C   UNL d   1       1.668  -2.543  -1.704  0.00  0.00     0.020 A 
ENDBRANCH   3  22
TORSDOF 4
