REMARK  5 active torsions:
REMARK  status: ('A' for Active; 'I' for Inactive)
REMARK    1  A    between atoms: C_5  and  N_1 
REMARK       I    between atoms: N_2  and  C_4 
REMARK    2  A    between atoms: C_3  and  N_2 
REMARK    3  A    between atoms: N_6  and  C_3 
REMARK    4  A    between atoms: C_4  and  C_9 
REMARK    5  A    between atoms: C_16  and  N_6 
ROOT
ATOM      1  N   UNL d   1      -3.029  -0.709  -5.137  0.00  0.00    -0.299 N 
ATOM      2  C   UNL d   1      -1.829  -1.383  -4.965  0.00  0.00     0.257 C 
ATOM      3  O   UNL d   1      -1.206  -1.424  -3.915  0.00  0.00    -0.267 OA
ATOM      4  H   UNL d   1      -3.706  -1.134  -5.752  0.00  0.00     0.171 HD
ENDROOT
BRANCH   1   5
ATOM      5  C   UNL d   1      -3.576   0.265  -4.370  0.00  0.00     0.179 C 
ATOM      6  S   UNL d   1      -5.246   0.418  -4.375  0.00  0.00    -0.040 SA
BRANCH   5   7
ATOM      7  N   UNL d   1      -2.857   1.127  -3.611  0.00  0.00    -0.333 N 
ATOM      8  H   UNL d   1      -3.459   1.578  -2.928  0.00  0.00     0.168 HD
BRANCH   7   9
ATOM      9  C   UNL d   1      -1.814   1.990  -4.050  0.00  0.00     0.034 A 
ATOM     10  C   UNL d   1      -1.763   3.258  -3.448  0.00  0.00     0.031 A 
ATOM     11  C   UNL d   1      -0.859   4.232  -3.886  0.00  0.00     0.020 A 
ATOM     12  C   UNL d   1       0.037   3.931  -4.905  0.00  0.00     0.006 A 
ATOM     13  C   UNL d   1       0.035   2.664  -5.479  0.00  0.00     0.020 A 
ATOM     14  I   UNL d   1       1.361   5.376  -5.590  0.00  0.00    -0.045 I 
ATOM     15  C   UNL d   1      -0.898   1.706  -5.061  0.00  0.00     0.031 A 
ENDBRANCH   7   9
ENDBRANCH   5   7
ENDBRANCH   1   5
BRANCH   2  16
ATOM     16  C   UNL d   1      -1.290  -2.091  -6.178  0.00  0.00     0.032 A 
ATOM     17  C   UNL d   1       0.008  -2.620  -6.091  0.00  0.00     0.019 A 
ATOM     18  C   UNL d   1       0.642  -3.155  -7.217  0.00  0.00     0.037 A 
ATOM     19  C   UNL d   1      -0.034  -3.175  -8.441  0.00  0.00     0.102 A 
ATOM     20  C   UNL d   1      -1.342  -2.686  -8.539  0.00  0.00     0.037 A 
ATOM     21  C   UNL d   1      -1.966  -2.142  -7.409  0.00  0.00     0.019 A 
BRANCH  19  22
ATOM     22  N   UNL d   1       0.646  -3.676  -9.642  0.00  0.00    -0.116 N 
ATOM     23  O   UNL d   1      -0.047  -3.891 -10.646  0.00  0.00    -0.532 OA
ATOM     24  O   UNL d   1       1.872  -3.842  -9.581  0.00  0.00    -0.532 OA
ENDBRANCH  19  22
ENDBRANCH   2  16
TORSDOF 5
