REMARK  7 active torsions:
REMARK  status: ('A' for Active; 'I' for Inactive)
REMARK    1  A    between atoms: C_7  and  C_1 
REMARK    2  A    between atoms: O_8  and  C_2 
REMARK    3  A    between atoms: C_3  and  C_10 
REMARK       I    between atoms: C_4  and  N_5 
REMARK    4  A    between atoms: C_16  and  C_4 
REMARK    5  A    between atoms: N_5  and  C_6 
REMARK    6  A    between atoms: O_23  and  C_7 
REMARK    7  A    between atoms: C_11  and  O_8 
ROOT
ATOM      1  C   UNL d   1       1.988   3.421   1.057  0.00  0.00     0.070 A 
ATOM      2  C   UNL d   1       2.471   5.621   0.123  0.00  0.00     0.050 A 
ATOM      3  C   UNL d   1       2.685   2.809   0.004  0.00  0.00     0.102 A 
ATOM      4  C   UNL d   1       1.895   4.820   1.120  0.00  0.00     0.048 A 
ATOM      5  C   UNL d   1       3.102   4.998  -0.961  0.00  0.00     0.019 A 
ATOM      6  C   UNL d   1       3.191   3.606  -1.029  0.00  0.00     0.040 A 
ENDROOT
BRANCH   1   7
ATOM      7  N   UNL d   1       1.355   2.630   2.048  0.00  0.00    -0.320 N 
ATOM      8  C   UNL d   1       0.005   2.806   2.310  0.00  0.00     0.256 C 
ATOM      9  O   UNL d   1      -0.733   3.603   1.732  0.00  0.00    -0.267 OA
ATOM     10  H   UNL d   1       1.693   1.678   2.147  0.00  0.00     0.169 HD
BRANCH   8  11
ATOM     11  C   UNL d   1      -0.593   1.901   3.315  0.00  0.00     0.032 A 
ATOM     12  C   UNL d   1      -0.003   1.750   4.573  0.00  0.00     0.017 A 
ATOM     13  C   UNL d   1      -0.662   1.008   5.555  0.00  0.00     0.001 A 
ATOM     14  C   UNL d   1      -1.892   0.407   5.277  0.00  0.00     0.000 A 
ATOM     15  C   UNL d   1      -2.470   0.542   4.014  0.00  0.00     0.001 A 
ATOM     16  C   UNL d   1      -1.826   1.298   3.034  0.00  0.00     0.017 A 
ENDBRANCH   8  11
ENDBRANCH   1   7
BRANCH   3  17
ATOM     17  O   UNL d   1       2.774   1.433   0.040  0.00  0.00    -0.307 OA
BRANCH  17  18
ATOM     18  C   UNL d   1       3.422   0.717  -0.910  0.00  0.00     0.099 A 
ATOM     19  C   UNL d   1       4.786   0.756  -1.165  0.00  0.00     0.114 A 
ATOM     20  S   UNL d   1       5.180  -0.300  -2.470  0.00  0.00    -0.093 SA
ATOM     21  C   UNL d   1       3.568  -0.836  -2.632  0.00  0.00     0.053 A 
ATOM     22  C   UNL d   1       2.732  -0.223  -1.728  0.00  0.00     0.046 A 
BRANCH  19  23
ATOM     23  C   UNL d   1       5.863   1.537  -0.578  0.00  0.00     0.302 C 
ATOM     24  O   UNL d   1       6.958   1.742  -1.086  0.00  0.00    -0.259 OA
BRANCH  23  25
ATOM     25  O   UNL d   1       5.480   2.055   0.624  0.00  0.00    -0.322 OA
ATOM     26  C   UNL d   1       6.394   3.006   1.171  0.00  0.00     0.213 C 
ENDBRANCH  23  25
ENDBRANCH  19  23
ENDBRANCH  17  18
ENDBRANCH   3  17
BRANCH   2  27
ATOM     27  C   UNL d   1       2.422   7.127   0.202  0.00  0.00     0.417 C 
ATOM     28  F   UNL d   1       1.776   7.604   1.300  0.00  0.00    -0.166 F 
ATOM     29  F   UNL d   1       3.669   7.677   0.240  0.00  0.00    -0.166 F 
ATOM     30  F   UNL d   1       1.804   7.685  -0.875  0.00  0.00    -0.166 F 
ENDBRANCH   2  27
TORSDOF 7
