REMARK  8 active torsions:
REMARK  status: ('A' for Active; 'I' for Inactive)
REMARK    1  A    between atoms: C_2  and  C_1 
REMARK    2  A    between atoms: N_3  and  C_1 
REMARK    3  A    between atoms: N_4  and  C_1 
REMARK    4  A    between atoms: C_5  and  C_1 
REMARK       I    between atoms: C_6  and  N_3 
REMARK    5  A    between atoms: C_12  and  N_4 
REMARK    6  A    between atoms: O_13  and  C_5 
REMARK    7  A    between atoms: C_14  and  C_12 
REMARK    8  A    between atoms: C_16  and  O_13 
ROOT
ATOM      1  C   UNL d   1       1.041   0.085  -0.222  0.00  0.00     0.416 C 
ENDROOT
BRANCH   1   2
ATOM      2  C   UNL d   1       0.728   1.622  -0.137  0.00  0.00     0.453 C 
ATOM      3  F   UNL d   1      -0.423   1.935  -0.784  0.00  0.00    -0.166 F 
ATOM      4  F   UNL d   1       0.526   1.985   1.164  0.00  0.00    -0.166 F 
ATOM      5  F   UNL d   1       1.709   2.420  -0.607  0.00  0.00    -0.166 F 
ENDBRANCH   1   2
BRANCH   1   6
ATOM      6  N   UNL d   1       0.630  -0.623  -1.432  0.00  0.00    -0.311 N 
ATOM      7  C   UNL d   1       0.849  -0.105  -2.680  0.00  0.00     0.216 C 
ATOM      8  O   UNL d   1       1.293   1.020  -2.867  0.00  0.00    -0.274 OA
ATOM      9  C   UNL d   1       0.503  -1.045  -3.802  0.00  0.00     0.117 C 
ATOM     10  H   UNL d   1       0.611  -1.630  -1.335  0.00  0.00     0.165 HD
ENDBRANCH   1   6
BRANCH   1  11
ATOM     11  N   UNL d   1       0.473  -0.796   0.849  0.00  0.00     0.136 N 
ATOM     12  H   UNL d   1       0.857  -0.462   1.740  0.00  0.00     0.320 HD
BRANCH  11  13
ATOM     13  C   UNL d   1      -0.983  -0.739   0.971  0.00  0.00     0.312 C 
BRANCH  13  14
ATOM     14  C   UNL d   1      -1.430  -1.677   2.072  0.00  0.00    -0.030 A 
ATOM     15  C   UNL d   1      -2.173  -1.204   3.161  0.00  0.00     0.009 A 
ATOM     16  C   UNL d   1      -2.575  -2.077   4.176  0.00  0.00     0.001 A 
ATOM     17  C   UNL d   1      -2.239  -3.428   4.113  0.00  0.00     0.000 A 
ATOM     18  C   UNL d   1      -1.502  -3.912   3.035  0.00  0.00     0.001 A 
ATOM     19  C   UNL d   1      -1.104  -3.043   2.019  0.00  0.00     0.009 A 
ENDBRANCH  13  14
ENDBRANCH  11  13
ENDBRANCH   1  11
BRANCH   1  20
ATOM     20  C   UNL d   1       2.583  -0.038  -0.075  0.00  0.00     0.329 C 
ATOM     21  O   UNL d   1       3.319  -0.654  -0.846  0.00  0.00    -0.260 OA
BRANCH  20  22
ATOM     22  O   UNL d   1       2.987   0.446   1.142  0.00  0.00    -0.318 OA
BRANCH  22  23
ATOM     23  C   UNL d   1       4.316   0.080   1.542  0.00  0.00     0.174 C 
ATOM     24  C   UNL d   1       4.270  -1.275   2.226  0.00  0.00     0.034 C 
ENDBRANCH  22  23
ENDBRANCH  20  22
ENDBRANCH   1  20
TORSDOF 8
