REMARK  5 active torsions:
REMARK  status: ('A' for Active; 'I' for Inactive)
REMARK    1  A    between atoms: S_2  and  C_1 
REMARK    2  A    between atoms: N_4  and  C_1 
REMARK    3  A    between atoms: C_7  and  S_2 
REMARK    4  A    between atoms: C_5  and  C_7 
REMARK    5  A    between atoms: C_6  and  C_5 
ROOT
ATOM      1  C   UNL d   1       0.344   4.309   0.247  0.00  0.00     0.169 C 
ATOM      2  O   UNL d   1      -0.884   4.262   0.265  0.00  0.00    -0.291 OA
ENDROOT
BRANCH   1   3
ATOM      3  C   UNL d   1       1.248   3.086   0.177  0.00  0.00     0.165 C 
BRANCH   3   4
ATOM      4  S   UNL d   1       0.395   1.684  -0.615  0.00  0.00    -0.093 SA
BRANCH   4   5
ATOM      5  C   UNL d   1       1.625   0.417  -0.503  0.00  0.00     0.136 C 
ATOM      6  S   UNL d   1       3.097   0.650  -1.297  0.00  0.00    -0.053 SA
BRANCH   5   7
ATOM      7  N   UNL d   1       1.265  -0.747   0.199  0.00  0.00    -0.375 N 
ATOM      8  C   UNL d   1       2.141  -1.921   0.273  0.00  0.00     0.150 C 
ATOM      9  C   UNL d   1      -0.030  -0.971   0.849  0.00  0.00     0.150 C 
ENDBRANCH   5   7
ENDBRANCH   4   5
ENDBRANCH   3   4
ENDBRANCH   1   3
BRANCH   1  10
ATOM     10  C   UNL d   1       0.987   5.655   0.332  0.00  0.00     0.011 A 
ATOM     11  C   UNL d   1       0.287   6.762  -0.165  0.00  0.00     0.017 A 
ATOM     12  C   UNL d   1       0.839   8.045  -0.085  0.00  0.00     0.025 A 
ATOM     13  C   UNL d   1       2.089   8.222   0.504  0.00  0.00     0.034 A 
ATOM     14  C   UNL d   1       2.793   7.127   1.006  0.00  0.00     0.025 A 
ATOM     15 CL   UNL d   1       2.764   9.799   0.622  0.00  0.00    -0.084 Cl
ATOM     16  C   UNL d   1       2.246   5.840   0.920  0.00  0.00     0.017 A 
ENDBRANCH   1  10
TORSDOF 5
