REMARK  6 active torsions:
REMARK  status: ('A' for Active; 'I' for Inactive)
REMARK    1  A    between atoms: C_2  and  S_1 
REMARK    2  A    between atoms: N_10  and  S_1 
REMARK    3  A    between atoms: C_16  and  N_10 
REMARK    4  A    between atoms: N_14  and  C_17 
REMARK    5  A    between atoms: C_15  and  C_16 
REMARK    6  A    between atoms: C_17  and  C_15 
ROOT
ATOM      1  S   UNL d   1       0.938   0.184   0.102  0.00  0.00     0.260 S 
ATOM      2  O   UNL d   1       0.540  -1.180   0.366  0.00  0.00    -0.200 OA
ATOM      3  O   UNL d   1       0.567   1.261   0.990  0.00  0.00    -0.200 OA
ENDROOT
BRANCH   1   4
ATOM      4  C   UNL d   1       0.366   0.605  -1.525  0.00  0.00     0.102 A 
ATOM      5  C   UNL d   1      -0.446   1.741  -1.666  0.00  0.00     0.052 A 
ATOM      6  C   UNL d   1      -0.926   2.107  -2.926  0.00  0.00     0.057 A 
ATOM      7 CL   UNL d   1      -1.929   3.508  -3.030  0.00  0.00    -0.083 Cl
ATOM      8  C   UNL d   1      -0.588   1.342  -4.048  0.00  0.00     0.057 A 
ATOM      9  C   UNL d   1       0.237   0.222  -3.905  0.00  0.00     0.051 A 
ATOM     10 CL   UNL d   1      -1.151   1.726  -5.635  0.00  0.00    -0.082 Cl
ATOM     11  C   UNL d   1       0.715  -0.154  -2.644  0.00  0.00     0.059 A 
ATOM     12 CL   UNL d   1       1.758  -1.530  -2.593  0.00  0.00    -0.083 Cl
ENDBRANCH   1   4
BRANCH   1  13
ATOM     13  N   UNL d   1       2.613   0.211  -0.047  0.00  0.00    -0.315 N 
ATOM     14  H   UNL d   1       2.998  -0.690  -0.330  0.00  0.00     0.172 HD
BRANCH  13  15
ATOM     15  C   UNL d   1       3.236   1.440  -0.550  0.00  0.00     0.134 C 
BRANCH  15  16
ATOM     16  C   UNL d   1       4.752   1.299  -0.547  0.00  0.00     0.050 C 
BRANCH  16  17
ATOM     17  C   UNL d   1       5.422   2.531  -1.172  0.00  0.00     0.273 C 
BRANCH  17  18
ATOM     18  N   UNL d   1       5.054   3.800  -0.525  0.00  0.00     0.080 N 
ATOM     19  C   UNL d   1       5.509   3.859   0.867  0.00  0.00     0.309 C 
ATOM     20  C   UNL d   1       5.604   4.932  -1.275  0.00  0.00     0.309 C 
ENDBRANCH  17  18
ENDBRANCH  16  17
ENDBRANCH  15  16
ENDBRANCH  13  15
ENDBRANCH   1  13
TORSDOF 6
