REMARK  6 active torsions:
REMARK  status: ('A' for Active; 'I' for Inactive)
REMARK    1  A    between atoms: C_6  and  C_1 
REMARK    2  A    between atoms: N_5  and  C_2 
REMARK       I    between atoms: C_3  and  N_5 
REMARK       I    between atoms: N_10  and  C_3 
REMARK    3  A    between atoms: O_13  and  C_6 
REMARK    4  A    between atoms: O_15  and  C_8 
REMARK    5  A    between atoms: O_16  and  C_9 
REMARK    6  A    between atoms: C_14  and  N_10 
ROOT
ATOM      1  C   UNL d   1       1.175  -1.048   0.807  0.00  0.00     0.069 C 
ATOM      2  C   UNL d   1       0.469  -1.901  -0.045  0.00  0.00     0.055 C 
ATOM      3  C   UNL d   1       0.633   0.216   1.077  0.00  0.00     0.059 C 
ATOM      4  C   UNL d   1      -0.899  -1.642  -0.257  0.00  0.00     0.070 C 
ATOM      5  C   UNL d   1      -0.659   0.567   0.656  0.00  0.00     0.102 C 
ATOM      6  C   UNL d   1      -1.479  -0.412   0.083  0.00  0.00     0.103 C 
ENDROOT
BRANCH   2   7
ATOM      7  N   UNL d   1       1.179  -2.849  -0.867  0.00  0.00    -0.308 N 
ATOM      8  C   UNL d   1       0.845  -2.959  -2.181  0.00  0.00     0.325 C 
ATOM      9  N   UNL d   1       1.744  -3.276  -3.126  0.00  0.00    -0.309 N 
ATOM     10  O   UNL d   1      -0.259  -2.653  -2.655  0.00  0.00    -0.247 OA
ATOM     11  H   UNL d   1       1.274  -3.076  -4.008  0.00  0.00     0.170 HD
ATOM     12  H   UNL d   1       2.160  -2.970  -0.632  0.00  0.00     0.170 HD
BRANCH   9  13
ATOM     13  C   UNL d   1       3.054  -3.728  -3.288  0.00  0.00     0.036 A 
ATOM     14  C   UNL d   1       3.895  -4.245  -2.311  0.00  0.00     0.029 A 
ATOM     15  C   UNL d   1       5.163  -4.724  -2.680  0.00  0.00     0.002 A 
ATOM     16  C   UNL d   1       5.603  -4.675  -4.001  0.00  0.00     0.000 A 
ATOM     17  C   UNL d   1       4.770  -4.152  -4.986  0.00  0.00     0.002 A 
ATOM     18  C   UNL d   1       3.512  -3.689  -4.621  0.00  0.00     0.029 A 
ENDBRANCH   9  13
ENDBRANCH   2   7
BRANCH   1  19
ATOM     19  C   UNL d   1       2.471  -1.470   1.405  0.00  0.00     0.295 C 
ATOM     20  O   UNL d   1       3.086  -2.463   1.048  0.00  0.00    -0.259 OA
BRANCH  19  21
ATOM     21  O   UNL d   1       2.768  -0.675   2.461  0.00  0.00    -0.322 OA
ATOM     22  C   UNL d   1       3.856  -1.091   3.290  0.00  0.00     0.213 C 
ENDBRANCH  19  21
ENDBRANCH   1  19
BRANCH   6  23
ATOM     23  O   UNL d   1      -2.790  -0.107  -0.160  0.00  0.00    -0.353 OA
ATOM     24  C   UNL d   1      -3.649  -1.116  -0.682  0.00  0.00     0.210 C 
ENDBRANCH   6  23
BRANCH   5  25
ATOM     25  O   UNL d   1      -0.936   1.890   0.881  0.00  0.00    -0.353 OA
ATOM     26  C   UNL d   1      -2.211   2.401   0.519  0.00  0.00     0.210 C 
ENDBRANCH   5  25
TORSDOF 6
