REMARK  12 active torsions:
REMARK  status: ('A' for Active; 'I' for Inactive)
REMARK    1  A    between atoms: C_1  and  O_4 
REMARK    2  A    between atoms: C_2  and  O_5 
REMARK    3  A    between atoms: C_3  and  O_7 
REMARK    4  A    between atoms: C_8  and  O_4 
REMARK    5  A    between atoms: C_9  and  O_5 
REMARK    6  A    between atoms: C_6  and  O_12 
REMARK    7  A    between atoms: C_10  and  O_7 
REMARK    8  A    between atoms: C_19  and  C_8 
REMARK    9  A    between atoms: C_20  and  C_9 
REMARK   10  A    between atoms: C_21  and  C_10 
REMARK   11  A    between atoms: C_11  and  O_12 
REMARK   12  A    between atoms: C_22  and  C_11 
ROOT
ATOM      1  C   UNL d   1       1.022  -1.410  -0.256  0.00  0.00     0.219 C 
ATOM      2  C   UNL d   1       1.728  -0.129   0.217  0.00  0.00     0.198 C 
ATOM      3  C   UNL d   1      -0.347  -1.447   0.462  0.00  0.00     0.301 C 
ATOM      4  C   UNL d   1       0.908   1.051  -0.341  0.00  0.00     0.188 C 
ATOM      5  O   UNL d   1      -1.143  -0.308   0.046  0.00  0.00    -0.355 OA
ATOM      6  C   UNL d   1      -0.513   0.967   0.246  0.00  0.00     0.206 C 
ENDROOT
BRANCH   1   7
ATOM      7  O   UNL d   1       0.706  -1.290  -1.678  0.00  0.00    -0.304 OA
BRANCH   7   8
ATOM      8  C   UNL d   1       1.416  -1.901  -2.640  0.00  0.00     0.293 C 
ATOM      9  O   UNL d   1       2.315  -2.701  -2.469  0.00  0.00    -0.259 OA
BRANCH   8  10
ATOM     10  C   UNL d   1       0.944  -1.388  -3.969  0.00  0.00     0.039 A 
ATOM     11  C   UNL d   1       1.628  -1.781  -5.125  0.00  0.00     0.017 A 
ATOM     12  C   UNL d   1       1.256  -1.272  -6.376  0.00  0.00     0.001 A 
ATOM     13  C   UNL d   1       0.198  -0.369  -6.482  0.00  0.00     0.000 A 
ATOM     14  C   UNL d   1      -0.503   0.015  -5.342  0.00  0.00     0.001 A 
ATOM     15  C   UNL d   1      -0.137  -0.495  -4.091  0.00  0.00     0.017 A 
ENDBRANCH   8  10
ENDBRANCH   7   8
ENDBRANCH   1   7
BRANCH   2  16
ATOM     16  O   UNL d   1       1.626  -0.038   1.671  0.00  0.00    -0.306 OA
BRANCH  16  17
ATOM     17  C   UNL d   1       2.675  -0.200   2.496  0.00  0.00     0.293 C 
ATOM     18  O   UNL d   1       3.834  -0.362   2.163  0.00  0.00    -0.259 OA
BRANCH  17  19
ATOM     19  C   UNL d   1       2.162  -0.209   3.906  0.00  0.00     0.039 A 
ATOM     20  C   UNL d   1       3.024  -0.605   4.935  0.00  0.00     0.017 A 
ATOM     21  C   UNL d   1       2.558  -0.687   6.253  0.00  0.00     0.001 A 
ATOM     22  C   UNL d   1       1.234  -0.369   6.554  0.00  0.00     0.000 A 
ATOM     23  C   UNL d   1       0.373   0.047   5.542  0.00  0.00     0.001 A 
ATOM     24  C   UNL d   1       0.835   0.131   4.226  0.00  0.00     0.017 A 
ENDBRANCH  17  19
ENDBRANCH  16  17
ENDBRANCH   2  16
BRANCH   3  25
ATOM     25  O   UNL d   1      -1.050  -2.640   0.099  0.00  0.00    -0.283 OA
BRANCH  25  26
ATOM     26  C   UNL d   1      -0.633  -3.769   0.727  0.00  0.00     0.295 C 
ATOM     27  O   UNL d   1       0.228  -3.833   1.585  0.00  0.00    -0.259 OA
BRANCH  26  28
ATOM     28  C   UNL d   1      -1.389  -4.934   0.190  0.00  0.00     0.039 A 
ATOM     29  C   UNL d   1      -1.133  -6.210   0.708  0.00  0.00     0.017 A 
ATOM     30  C   UNL d   1      -1.829  -7.317   0.212  0.00  0.00     0.001 A 
ATOM     31  C   UNL d   1      -2.776  -7.153  -0.799  0.00  0.00     0.000 A 
ATOM     32  C   UNL d   1      -3.033  -5.887  -1.319  0.00  0.00     0.001 A 
ATOM     33  C   UNL d   1      -2.343  -4.780  -0.827  0.00  0.00     0.017 A 
ENDBRANCH  26  28
ENDBRANCH  25  26
ENDBRANCH   3  25
BRANCH   4  34
ATOM     34  O   UNL d   1       1.523   2.315  -0.035  0.00  0.00    -0.307 OA
BRANCH  34  35
ATOM     35  C   UNL d   1       2.611   2.569  -0.813  0.00  0.00     0.293 C 
ATOM     36  O   UNL d   1       3.062   1.839  -1.680  0.00  0.00    -0.259 OA
BRANCH  35  37
ATOM     37  C   UNL d   1       3.226   3.860  -0.438  0.00  0.00     0.039 A 
ATOM     38  C   UNL d   1       2.455   4.933   0.025  0.00  0.00     0.017 A 
ATOM     39  C   UNL d   1       3.074   6.142   0.346  0.00  0.00     0.001 A 
ATOM     40  C   UNL d   1       4.457   6.278   0.208  0.00  0.00     0.000 A 
ATOM     41  C   UNL d   1       5.225   5.212  -0.261  0.00  0.00     0.001 A 
ATOM     42  C   UNL d   1       4.610   4.005  -0.591  0.00  0.00     0.017 A 
ENDBRANCH  35  37
ENDBRANCH  34  35
ENDBRANCH   4  34
TORSDOF 12
