REMARK  4 active torsions:
REMARK  status: ('A' for Active; 'I' for Inactive)
REMARK    1  A    between atoms: N_2  and  C_1 
REMARK    2  A    between atoms: C_3  and  C_6 
REMARK    3  A    between atoms: O_7  and  C_5 
REMARK    4  A    between atoms: C_12  and  O_7 
ROOT
ATOM      1  C   UNL d   1       1.335  -0.246   0.203  0.00  0.00     0.137 A 
ATOM      2  C   UNL d   1       0.468  -1.351   0.223  0.00  0.00     0.055 A 
ATOM      3  C   UNL d   1       0.855   1.058   0.057  0.00  0.00     0.109 A 
ATOM      4  C   UNL d   1      -0.917  -1.146   0.135  0.00  0.00     0.050 A 
ATOM      5  C   UNL d   1      -0.529   1.260   0.053  0.00  0.00     0.040 A 
ATOM      6  C   UNL d   1      -1.405   0.169   0.073  0.00  0.00     0.019 A 
ENDROOT
BRANCH   3   7
ATOM      7  O   UNL d   1       1.749   2.099  -0.054  0.00  0.00    -0.308 OA
BRANCH   7   8
ATOM      8  C   UNL d   1       1.472   3.126  -0.932  0.00  0.00     0.076 A 
ATOM      9  C   UNL d   1       0.830   2.953  -2.166  0.00  0.00     0.045 A 
ATOM     10  C   UNL d   1       0.537   4.057  -2.984  0.00  0.00    -0.038 A 
ATOM     11  C   UNL d   1      -0.219   3.845  -4.266  0.00  0.00     0.050 C 
ATOM     12  C   UNL d   1       0.965   5.329  -2.574  0.00  0.00     0.040 A 
ATOM     13  C   UNL d   1       1.658   5.493  -1.371  0.00  0.00     0.027 A 
ATOM     14 CL   UNL d   1       0.661   6.735  -3.530  0.00  0.00    -0.084 Cl
ATOM     15  C   UNL d   1       1.911   4.392  -0.551  0.00  0.00     0.039 A 
ENDBRANCH   7   8
ENDBRANCH   3   7
BRANCH   1  16
ATOM     16  N   UNL d   1       2.761  -0.488   0.343  0.00  0.00    -0.113 N 
ATOM     17  O   UNL d   1       3.259  -1.336  -0.410  0.00  0.00    -0.532 OA
ATOM     18  O   UNL d   1       3.361   0.122   1.236  0.00  0.00    -0.532 OA
ENDBRANCH   1  16
BRANCH   4  19
ATOM     19  C   UNL d   1      -1.887  -2.306   0.097  0.00  0.00     0.417 C 
ATOM     20  F   UNL d   1      -1.285  -3.520   0.219  0.00  0.00    -0.166 F 
ATOM     21  F   UNL d   1      -2.811  -2.240   1.092  0.00  0.00    -0.166 F 
ATOM     22  F   UNL d   1      -2.590  -2.348  -1.068  0.00  0.00    -0.166 F 
ENDBRANCH   4  19
TORSDOF 4
