REMARK  6 active torsions:
REMARK  status: ('A' for Active; 'I' for Inactive)
REMARK    1  A    between atoms: C_7  and  C_1 
REMARK    2  A    between atoms: N_14  and  C_3 
REMARK    3  A    between atoms: C_9  and  C_7 
REMARK    4  A    between atoms: C_10  and  C_7 
REMARK    5  A    between atoms: N_8  and  C_10 
REMARK    6  A    between atoms: O_19  and  C_16 
ROOT
ATOM      1  C   UNL d   1      -0.073   1.696   0.234  0.00  0.00     0.059 C 
ATOM      2  N   UNL d   1      -0.990  -0.479   0.064  0.00  0.00    -0.294 N 
ATOM      3  C   UNL d   1      -1.121   0.896  -0.079  0.00  0.00     0.096 C 
ATOM      4  N   UNL d   1       1.118  -0.257   1.100  0.00  0.00    -0.270 N 
ATOM      5  C   UNL d   1       0.124  -1.091   0.637  0.00  0.00     0.332 C 
ATOM      6  C   UNL d   1       1.128   1.097   0.890  0.00  0.00     0.261 C 
ATOM      7  O   UNL d   1       0.230  -2.322   0.705  0.00  0.00    -0.246 OA
ATOM      8  O   UNL d   1       2.082   1.809   1.202  0.00  0.00    -0.267 OA
ATOM      9  C   UNL d   1      -1.943  -1.420  -0.516  0.00  0.00     0.162 C 
ATOM     10  C   UNL d   1       2.286  -0.882   1.694  0.00  0.00     0.164 C 
ENDROOT
BRANCH   1  11
ATOM     11  C   UNL d   1       0.079   3.198  -0.075  0.00  0.00     0.087 C 
BRANCH  11  12
ATOM     12  C   UNL d   1       0.730   3.401  -1.470  0.00  0.00    -0.014 A 
ATOM     13  C   UNL d   1       1.557   4.513  -1.727  0.00  0.00     0.075 A 
ATOM     14  C   UNL d   1       2.157   4.670  -2.982  0.00  0.00     0.037 A 
ATOM     15  C   UNL d   1       1.969   3.720  -3.986  0.00  0.00     0.003 A 
ATOM     16  C   UNL d   1       1.160   2.618  -3.752  0.00  0.00     0.001 A 
ATOM     17  C   UNL d   1       0.539   2.465  -2.514  0.00  0.00     0.011 A 
BRANCH  13  18
ATOM     18  O   UNL d   1       1.704   5.418  -0.704  0.00  0.00    -0.355 OA
ATOM     19  C   UNL d   1       2.848   6.268  -0.772  0.00  0.00     0.210 C 
ENDBRANCH  13  18
ENDBRANCH  11  12
BRANCH  11  20
ATOM     20  C   UNL d   1      -1.137   4.130   0.059  0.00  0.00     0.215 C 
BRANCH  20  21
ATOM     21  N   UNL d   1      -1.786   3.992   1.403  0.00  0.00    -0.155 N 
ATOM     22  O   UNL d   1      -3.025   3.999   1.426  0.00  0.00    -0.537 OA
ATOM     23  O   UNL d   1      -1.056   3.958   2.402  0.00  0.00    -0.537 OA
ENDBRANCH  20  21
ENDBRANCH  11  20
ENDBRANCH   1  11
BRANCH   3  24
ATOM     24  N   UNL d   1      -2.272   1.460  -0.599  0.00  0.00    -0.288 NA
ATOM     25  H   UNL d   1      -3.050   0.820  -0.704  0.00  0.00     0.125 HD
ATOM     26  H   UNL d   1      -2.121   1.967  -1.468  0.00  0.00     0.125 HD
ENDBRANCH   3  24
TORSDOF 6
