REMARK  5 active torsions:
REMARK  status: ('A' for Active; 'I' for Inactive)
REMARK    1  A    between atoms: N_2  and  C_1 
REMARK    2  A    between atoms: N_5  and  C_3 
REMARK    3  A    between atoms: C_4  and  C_9 
REMARK    4  A    between atoms: N_7  and  N_5 
REMARK       I    between atoms: C_8  and  N_7 
REMARK    5  A    between atoms: C_15  and  C_8 
ROOT
ATOM      1  C   UNL d   1      -0.721  -0.548   0.033  0.00  0.00     0.131 A 
ATOM      2  C   UNL d   1       0.504  -1.232   0.194  0.00  0.00     0.083 A 
ATOM      3  C   UNL d   1      -0.961   0.731   0.581  0.00  0.00     0.054 A 
ATOM      4  C   UNL d   1       0.043   1.384   1.301  0.00  0.00     0.050 A 
ATOM      5  C   UNL d   1       1.508  -0.518   0.879  0.00  0.00     0.034 A 
ATOM      6  C   UNL d   1       1.286   0.757   1.425  0.00  0.00     0.019 A 
ENDROOT
BRANCH   2   7
ATOM      7  N   UNL d   1       0.735  -2.549  -0.261  0.00  0.00    -0.291 N 
ATOM      8  C   UNL d   1       2.069  -3.141  -0.194  0.00  0.00     0.178 C 
BRANCH   7   9
ATOM      9  N   UNL d   1      -0.306  -3.471   0.006  0.00  0.00    -0.264 N 
ATOM     10  C   UNL d   1      -0.712  -3.749   1.305  0.00  0.00     0.270 C 
ATOM     11  O   UNL d   1      -0.261  -3.228   2.320  0.00  0.00    -0.266 OA
ATOM     12  H   UNL d   1      -0.792  -3.820  -0.817  0.00  0.00     0.190 HD
BRANCH  10  13
ATOM     13  C   UNL d   1      -1.813  -4.735   1.417  0.00  0.00     0.036 A 
ATOM     14  C   UNL d   1      -1.849  -5.871   0.611  0.00  0.00     0.034 A 
ATOM     15  C   UNL d   1      -2.892  -6.761   0.801  0.00  0.00     0.088 A 
ATOM     16  N   UNL d   1      -3.868  -6.587   1.718  0.00  0.00    -0.375 N 
ATOM     17  C   UNL d   1      -3.800  -5.480   2.490  0.00  0.00     0.088 A 
ATOM     18  HN  UNL d   1      -4.624  -7.264   1.824  1.00  0.00     0.164 HD
ATOM     19  C   UNL d   1      -2.799  -4.536   2.386  0.00  0.00     0.034 A 
ENDBRANCH  10  13
ENDBRANCH   7   9
ENDBRANCH   2   7
BRANCH   1  20
ATOM     20  N   UNL d   1      -1.808  -1.132  -0.738  0.00  0.00    -0.113 N 
ATOM     21  O   UNL d   1      -1.563  -1.552  -1.878  0.00  0.00    -0.532 OA
ATOM     22  O   UNL d   1      -2.932  -1.135  -0.213  0.00  0.00    -0.532 OA
ENDBRANCH   1  20
BRANCH   4  23
ATOM     23  C   UNL d   1      -0.190   2.735   1.935  0.00  0.00     0.417 C 
ATOM     24  F   UNL d   1      -1.469   3.182   1.801  0.00  0.00    -0.166 F 
ATOM     25  F   UNL d   1       0.069   2.733   3.271  0.00  0.00    -0.166 F 
ATOM     26  F   UNL d   1       0.604   3.702   1.400  0.00  0.00    -0.166 F 
ENDBRANCH   4  23
TORSDOF 5
