REMARK  5 active torsions:
REMARK  status: ('A' for Active; 'I' for Inactive)
REMARK    1  A    between atoms: C_2  and  C_1 
REMARK    2  A    between atoms: O_8  and  C_2 
REMARK    3  A    between atoms: O_4  and  C_3 
REMARK    4  A    between atoms: C_5  and  O_4 
REMARK    5  A    between atoms: O_11  and  C_9 
ROOT
ATOM      1  C   UNL d   1      -0.734  -1.063   0.934  0.00  0.00     0.071 A 
ATOM      2  C   UNL d   1       0.568  -1.347   0.486  0.00  0.00     0.093 A 
ATOM      3  C   UNL d   1      -1.015   0.233   1.407  0.00  0.00     0.021 A 
ATOM      4  C   UNL d   1       1.522  -0.312   0.429  0.00  0.00     0.038 A 
ATOM      5  C   UNL d   1      -0.035   1.229   1.421  0.00  0.00     0.001 A 
ATOM      6  C   UNL d   1       1.230   0.959   0.920  0.00  0.00     0.003 A 
ENDROOT
BRANCH   2   7
ATOM      7  O   UNL d   1       0.876  -2.638   0.085  0.00  0.00    -0.310 OA
BRANCH   7   8
ATOM      8  C   UNL d   1       2.181  -3.065   0.228  0.00  0.00     0.078 A 
ATOM      9  C   UNL d   1       2.913  -2.852   1.403  0.00  0.00     0.074 A 
ATOM     10  C   UNL d   1       4.275  -3.147   1.434  0.00  0.00     0.070 A 
ATOM     11  C   UNL d   1       4.865  -3.763   0.327  0.00  0.00     0.037 A 
ATOM     12  C   UNL d   1       4.109  -4.064  -0.809  0.00  0.00     0.005 A 
ATOM     13  C   UNL d   1       2.762  -3.710  -0.862  0.00  0.00     0.037 A 
BRANCH  10  14
ATOM     14  O   UNL d   1       5.124  -2.865   2.468  0.00  0.00    -0.356 OA
ATOM     15  C   UNL d   1       4.631  -1.978   3.469  0.00  0.00     0.210 C 
ENDBRANCH  10  14
ENDBRANCH   7   8
ENDBRANCH   2   7
BRANCH   1  16
ATOM     16  C   UNL d   1      -1.873  -2.032   0.953  0.00  0.00     0.179 C 
ATOM     17  O   UNL d   1      -2.985  -1.717   1.356  0.00  0.00    -0.646 OA
BRANCH  16  18
ATOM     18  O   UNL d   1      -1.619  -3.269   0.487  0.00  0.00    -0.773 OA
ATOM     19  H   UNL d   1      -0.698  -3.414   0.192  0.00  0.00     0.167 HD
ENDBRANCH  16  18
ENDBRANCH   1  16
TORSDOF 5
