REMARK  3 active torsions:
REMARK  status: ('A' for Active; 'I' for Inactive)
REMARK       I    between atoms: C_7  and  N_1 
REMARK    1  A    between atoms: C_9  and  C_7 
REMARK    2  A    between atoms: C_19  and  N_8 
REMARK    3  A    between atoms: C_11  and  C_12 
ROOT
ATOM      1  N   UNL d   1      -0.451  -1.073   0.204  0.00  0.00    -0.235 N 
ATOM      2  S   UNL d   1      -0.514   1.529   0.000  0.00  0.00    -0.060 SA
ATOM      3  C   UNL d   1       0.981   0.619   0.033  0.00  0.00     0.162 C 
ATOM      4  C   UNL d   1      -1.442  -0.054  -0.171  0.00  0.00     0.105 C 
ATOM      5  N   UNL d   1       0.859  -0.664   0.158  0.00  0.00    -0.273 N 
ATOM      6  HN  UNL d   1       1.652  -1.303   0.217  1.00  0.00     0.189 HD
ATOM      7  C   UNL d   1      -0.776  -2.426   0.315  0.00  0.00     0.273 C 
ATOM      8  N   UNL d   1       2.120   1.358  -0.050  0.00  0.00    -0.336 N 
ATOM      9  O   UNL d   1      -1.917  -2.846   0.099  0.00  0.00    -0.266 OA
ATOM     10  C   UNL d   1      -2.655  -0.010   0.760  0.00  0.00     0.053 C 
ATOM     11  C   UNL d   1      -1.860  -0.184  -1.640  0.00  0.00     0.053 C 
ATOM     12  H   UNL d   1       2.021   2.362   0.020  0.00  0.00     0.168 HD
ENDROOT
BRANCH   7  13
ATOM     13  C   UNL d   1       0.264  -3.434   0.702  0.00  0.00     0.034 A 
ATOM     14  C   UNL d   1       1.357  -3.162   1.527  0.00  0.00     0.017 A 
ATOM     15  C   UNL d   1       2.271  -4.176   1.860  0.00  0.00     0.009 A 
ATOM     16  C   UNL d   1       2.111  -5.498   1.399  0.00  0.00    -0.051 A 
ATOM     17  C   UNL d   1       0.985  -5.762   0.605  0.00  0.00     0.009 A 
ATOM     18  C   UNL d   1       0.079  -4.749   0.263  0.00  0.00     0.017 A 
BRANCH  16  19
ATOM     19  C   UNL d   1       3.147  -6.582   1.750  0.00  0.00    -0.024 C 
ATOM     20  C   UNL d   1       2.815  -7.972   1.159  0.00  0.00     0.019 C 
ATOM     21  C   UNL d   1       4.528  -6.171   1.195  0.00  0.00     0.019 C 
ATOM     22  C   UNL d   1       3.251  -6.753   3.281  0.00  0.00     0.019 C 
ENDBRANCH  16  19
ENDBRANCH   7  13
BRANCH   8  23
ATOM     23  C   UNL d   1       3.423   0.865  -0.225  0.00  0.00     0.034 A 
ATOM     24  C   UNL d   1       3.684  -0.390  -0.791  0.00  0.00     0.029 A 
ATOM     25  C   UNL d   1       4.981  -0.905  -0.851  0.00  0.00     0.002 A 
ATOM     26  C   UNL d   1       6.042  -0.172  -0.334  0.00  0.00     0.000 A 
ATOM     27  C   UNL d   1       5.806   1.081   0.228  0.00  0.00     0.002 A 
ATOM     28  C   UNL d   1       4.506   1.596   0.280  0.00  0.00     0.029 A 
ENDBRANCH   8  23
TORSDOF 3
