REMARK  3 active torsions:
REMARK  status: ('A' for Active; 'I' for Inactive)
REMARK    1  A    between atoms: C_12  and  C_2 
REMARK    2  A    between atoms: O_13  and  C_10 
REMARK    3  A    between atoms: C_14  and  C_12 
ROOT
ATOM      1  C   UNL d   1      -0.060   0.408   0.029  0.00  0.00     0.092 A 
ATOM      2  C   UNL d   1       1.149  -1.749   0.043  0.00  0.00    -0.039 A 
ATOM      3  O   UNL d   1       1.167   1.099   0.040  0.00  0.00    -0.275 OA
ATOM      4  C   UNL d   1       2.368   0.416   0.032  0.00  0.00     0.288 A 
ATOM      5  C   UNL d   1      -0.116  -0.992   0.026  0.00  0.00     0.004 A 
ATOM      6  C   UNL d   1       2.296  -1.050   0.033  0.00  0.00     0.090 A 
ATOM      7  C   UNL d   1      -1.203   1.212   0.014  0.00  0.00     0.074 A 
ATOM      8  C   UNL d   1      -1.387  -1.579   0.002  0.00  0.00     0.017 A 
ATOM      9  O   UNL d   1       3.450   0.991   0.019  0.00  0.00    -0.260 OA
ATOM     10  C   UNL d   1      -2.444   0.598  -0.005  0.00  0.00     0.068 A 
ATOM     11  C   UNL d   1      -2.546  -0.787  -0.012  0.00  0.00     0.037 A 
ENDROOT
BRANCH   2  12
ATOM     12  C   UNL d   1       1.191  -3.260  -0.003  0.00  0.00     0.039 C 
BRANCH  12  13
ATOM     13  C   UNL d   1       1.365  -3.946   1.359  0.00  0.00     0.000 C 
ATOM     14  C   UNL d   1       0.170  -3.812   2.288  0.00  0.00     0.005 C 
ENDBRANCH  12  13
ENDBRANCH   2  12
BRANCH  10  15
ATOM     15  O   UNL d   1      -3.597   1.324  -0.019  0.00  0.00    -0.361 OA
ATOM     16  H   UNL d   1      -3.374   2.270  -0.005  0.00  0.00     0.217 HD
ENDBRANCH  10  15
TORSDOF 3
