REMARK  4 active torsions:
REMARK  status: ('A' for Active; 'I' for Inactive)
REMARK    1  A    between atoms: C_8  and  N_1 
REMARK    2  A    between atoms: C_9  and  C_4 
REMARK    3  A    between atoms: C_13  and  C_5 
REMARK    4  A    between atoms: O_17  and  C_9 
ROOT
ATOM      1  N   UNL d   1      -0.346  -1.177  -0.013  0.00  0.00    -0.236 N 
ATOM      2  N   UNL d   1       0.910  -0.664  -0.098  0.00  0.00    -0.234 N 
ATOM      3  HN  UNL d   1       1.767  -1.213  -0.163  1.00  0.00     0.209 HD
ATOM      4  C   UNL d   1      -0.468   1.014  -0.033  0.00  0.00     0.152 A 
ATOM      5  C   UNL d   1      -1.274  -0.123   0.025  0.00  0.00     0.103 A 
ATOM      6  N   UNL d   1       0.848   0.651  -0.083  0.00  0.00    -0.278 N 
ATOM      7  HN  UNL d   1       1.644   1.288  -0.105  1.00  0.00     0.189 HD
ENDROOT
BRANCH   1   8
ATOM      8  C   UNL d   1      -0.522  -2.589   0.044  0.00  0.00     0.097 A 
ATOM      9  C   UNL d   1       0.468  -3.433  -0.487  0.00  0.00     0.148 A 
ATOM     10  C   UNL d   1       0.305  -4.815  -0.509  0.00  0.00     0.087 A 
ATOM     11  F   UNL d   1       1.580  -2.945  -1.056  0.00  0.00    -0.203 F 
ATOM     12  C   UNL d   1      -0.852  -5.368   0.013  0.00  0.00     0.119 A 
ATOM     13  C   UNL d   1      -1.833  -4.563   0.578  0.00  0.00     0.045 A 
ATOM     14  F   UNL d   1      -1.029  -6.695  -0.029  0.00  0.00    -0.206 F 
ATOM     15  C   UNL d   1      -1.665  -3.174   0.609  0.00  0.00     0.038 A 
ENDBRANCH   1   8
BRANCH   5  16
ATOM     16  C   UNL d   1      -2.738  -0.232   0.024  0.00  0.00    -0.005 A 
ATOM     17  C   UNL d   1      -3.410  -1.010  -0.930  0.00  0.00     0.014 A 
ATOM     18  C   UNL d   1      -4.799  -1.147  -0.880  0.00  0.00     0.001 A 
ATOM     19  C   UNL d   1      -5.535  -0.473   0.091  0.00  0.00     0.000 A 
ATOM     20  C   UNL d   1      -4.883   0.340   1.014  0.00  0.00     0.001 A 
ATOM     21  C   UNL d   1      -3.492   0.453   0.987  0.00  0.00     0.014 A 
ENDBRANCH   5  16
BRANCH   4  22
ATOM     22  C   UNL d   1      -0.825   2.425  -0.084  0.00  0.00     0.197 C 
ATOM     23  O   UNL d   1      -1.963   2.869  -0.093  0.00  0.00    -0.645 OA
BRANCH  22  24
ATOM     24  O   UNL d   1       0.265   3.242  -0.118  0.00  0.00    -0.772 OA
ATOM     25  H   UNL d   1       1.086   2.704  -0.119  0.00  0.00     0.167 HD
ENDBRANCH  22  24
ENDBRANCH   4  22
TORSDOF 4
