REMARK  3 active torsions:
REMARK  status: ('A' for Active; 'I' for Inactive)
REMARK    1  A    between atoms: C_5  and  C_1 
REMARK    2  A    between atoms: C_4  and  C_9 
REMARK       I    between atoms: N_10  and  C_5 
REMARK    3  A    between atoms: C_9  and  N_10 
ROOT
ATOM      1  C   UNL d   1      -0.031   2.490   0.009  0.00  0.00     0.256 C 
ATOM      2  N   UNL d   1      -1.081   3.388   0.016  0.00  0.00    -0.352 N 
ATOM      3  O   UNL d   1      -0.254   1.280   0.010  0.00  0.00    -0.267 OA
ATOM      4  H   UNL d   1      -0.941   4.389   0.021  0.00  0.00     0.163 HD
ENDROOT
BRANCH   2   5
ATOM      5  C   UNL d   1      -2.427   2.847   0.031  0.00  0.00     0.166 C 
BRANCH   5   6
ATOM      6  C   UNL d   1      -3.592   3.802   0.039  0.00  0.00     0.020 A 
ATOM      7  C   UNL d   1      -3.449   5.192   0.038  0.00  0.00     0.126 A 
ATOM      8  F   UNL d   1      -2.226   5.744   0.029  0.00  0.00    -0.205 F 
ATOM      9  C   UNL d   1      -4.554   6.046   0.048  0.00  0.00     0.043 A 
ATOM     10  C   UNL d   1      -5.844   5.524   0.058  0.00  0.00     0.005 A 
ATOM     11  C   UNL d   1      -6.021   4.146   0.059  0.00  0.00     0.024 A 
ATOM     12  C   UNL d   1      -4.909   3.294   0.050  0.00  0.00     0.044 A 
ATOM     13 CL   UNL d   1      -5.227   1.592   0.052  0.00  0.00    -0.084 Cl
ENDBRANCH   5   6
ENDBRANCH   2   5
BRANCH   1  14
ATOM     14  C   UNL d   1       1.331   2.996   0.001  0.00  0.00     0.087 A 
ATOM     15  C   UNL d   1       2.435   2.155  -0.008  0.00  0.00     0.090 A 
ATOM     16  O   UNL d   1       3.576   2.884  -0.016  0.00  0.00    -0.242 OA
ATOM     17  C   UNL d   1       2.606   0.686  -0.011  0.00  0.00     0.080 C 
ATOM     18  N   UNL d   1       3.264   4.223  -0.012  0.00  0.00    -0.265 N 
ATOM     19  C   UNL d   1       1.925   4.292  -0.002  0.00  0.00     0.047 A 
ATOM     20  HN  UNL d   1       3.919   5.005  -0.016  1.00  0.00     0.194 HD
ATOM     21  C   UNL d   1       1.309   5.640   0.004  0.00  0.00     0.071 C 
ENDBRANCH   1  14
TORSDOF 3
