REMARK  2 active torsions:
REMARK  status: ('A' for Active; 'I' for Inactive)
REMARK    1  A    between atoms: C_7  and  C_4 
REMARK    2  A    between atoms: C_8  and  C_6 
ROOT
ATOM      1  N   UNL d   1       0.082   1.076  -0.039  0.00  0.00    -0.302 N 
ATOM      2  HN  UNL d   1      -0.263   2.036  -0.068  1.00  0.00     0.186 HD
ATOM      3  N   UNL d   1      -0.649  -0.057  -0.015  0.00  0.00    -0.300 N 
ATOM      4  C   UNL d   1       0.115  -1.204   0.033  0.00  0.00     0.037 A 
ATOM      5  C   UNL d   1       1.419  -0.736   0.005  0.00  0.00     0.054 A 
ATOM      6  C   UNL d   1       1.355   0.672  -0.018  0.00  0.00     0.035 A 
ATOM      7  C   UNL d   1      -2.084   0.097  -0.082  0.00  0.00     0.177 C 
ENDROOT
BRANCH   4   8
ATOM      8  C   UNL d   1      -0.357  -2.656   0.033  0.00  0.00    -0.007 C 
ATOM      9  C   UNL d   1      -0.486  -3.143  -1.421  0.00  0.00     0.021 C 
ATOM     10  C   UNL d   1       0.694  -3.541   0.752  0.00  0.00     0.021 C 
ATOM     11  C   UNL d   1      -1.688  -2.895   0.763  0.00  0.00     0.021 C 
ENDBRANCH   4   8
BRANCH   6  12
ATOM     12  C   UNL d   1       2.502   1.666  -0.066  0.00  0.00    -0.007 C 
ATOM     13  C   UNL d   1       2.872   1.960  -1.533  0.00  0.00     0.021 C 
ATOM     14  C   UNL d   1       2.126   2.993   0.627  0.00  0.00     0.021 C 
ATOM     15  C   UNL d   1       3.751   1.107   0.649  0.00  0.00     0.021 C 
ENDBRANCH   6  12
TORSDOF 2
