REMARK  6 active torsions:
REMARK  status: ('A' for Active; 'I' for Inactive)
REMARK    1  A    between atoms: C_7  and  C_1 
REMARK    2  A    between atoms: N_11  and  C_4 
REMARK    3  A    between atoms: O_15  and  C_7 
REMARK    4  A    between atoms: N_8  and  N_11 
REMARK    5  A    between atoms: C_10  and  N_8 
REMARK    6  A    between atoms: C_21  and  O_15 
ROOT
ATOM      1  N   UNL d   1       0.086  -2.479   0.117  0.00  0.00    -0.279 N 
ATOM      2  H   UNL d   1       0.277  -1.560   0.501  0.00  0.00     0.189 HD
ENDROOT
BRANCH   1   3
ATOM      3  N   UNL d   1       1.075  -3.417   0.132  0.00  0.00    -0.302 N 
ATOM      4  HN  UNL d   1       1.022  -4.230  -0.482  1.00  0.00     0.186 HD
BRANCH   3   5
ATOM      5  C   UNL d   1       2.087  -3.266   0.934  0.00  0.00     0.036 C 
ATOM      6  C   UNL d   1       3.222  -4.238   0.849  0.00  0.00    -0.006 A 
ATOM      7  C   UNL d   1       4.382  -4.050   1.619  0.00  0.00    -0.046 A 
ATOM      8  C   UNL d   1       3.137  -5.332  -0.025  0.00  0.00     0.014 A 
ATOM      9  C   UNL d   1       5.446  -4.960   1.494  0.00  0.00     0.008 A 
ATOM     10  C   UNL d   1       4.526  -2.862   2.532  0.00  0.00     0.040 C 
ATOM     11  C   UNL d   1       5.355  -6.049   0.631  0.00  0.00     0.001 A 
ATOM     12  C   UNL d   1       4.199  -6.234  -0.131  0.00  0.00     0.001 A 
ATOM     13  C   UNL d   1       3.170  -2.433   3.066  0.00  0.00     0.011 C 
ATOM     14  C   UNL d   1       2.219  -2.115   1.923  0.00  0.00     0.060 C 
ENDBRANCH   3   5
ENDBRANCH   1   3
BRANCH   1  15
ATOM     15  C   UNL d   1      -0.906  -2.510  -0.811  0.00  0.00     0.164 A 
ATOM     16  N   UNL d   1      -1.343  -3.575  -1.446  0.00  0.00    -0.330 N 
ATOM     17  C   UNL d   1      -2.364  -3.244  -2.334  0.00  0.00     0.117 A 
ATOM     18  HN  UNL d   1      -0.983  -4.519  -1.307  1.00  0.00     0.168 HD
ATOM     19  C   UNL d   1      -2.641  -1.891  -2.398  0.00  0.00     0.089 A 
ATOM     20  S   UNL d   1      -1.697  -1.041  -1.254  0.00  0.00    -0.062 SA
BRANCH  17  21
ATOM     21  C   UNL d   1      -3.109  -4.257  -3.080  0.00  0.00     0.310 C 
ATOM     22  O   UNL d   1      -4.009  -3.982  -3.867  0.00  0.00    -0.258 OA
BRANCH  21  23
ATOM     23  O   UNL d   1      -2.755  -5.525  -2.723  0.00  0.00    -0.317 OA
BRANCH  23  24
ATOM     24  C   UNL d   1      -3.666  -6.561  -3.104  0.00  0.00     0.175 C 
ATOM     25  C   UNL d   1      -4.742  -6.680  -2.039  0.00  0.00     0.034 C 
ENDBRANCH  23  24
ENDBRANCH  21  23
ENDBRANCH  17  21
ENDBRANCH   1  15
TORSDOF 6
