REMARK  4 active torsions:
REMARK  status: ('A' for Active; 'I' for Inactive)
REMARK    1  A    between atoms: N_4  and  N_1 
REMARK    2  A    between atoms: S_8  and  C_3 
REMARK    3  A    between atoms: N_11  and  C_3 
REMARK    4  A    between atoms: C_7  and  C_6 
ROOT
ATOM      1  N   UNL d   1       1.014  -0.459  -2.334  0.00  0.00    -0.303 N 
ATOM      2  HN  UNL d   1       0.496  -0.627  -3.196  1.00  0.00     0.186 HD
ATOM      3  C   UNL d   1       2.316  -0.413  -2.288  0.00  0.00     0.032 C 
ATOM      4  C   UNL d   1       3.109  -0.171  -1.014  0.00  0.00     0.070 C 
ENDROOT
BRANCH   1   5
ATOM      5  N   UNL d   1       0.387  -0.259  -1.097  0.00  0.00    -0.284 N 
ATOM      6  C   UNL d   1      -0.904  -0.212  -1.185  0.00  0.00     0.130 C 
ATOM      7  HN  UNL d   1       0.895  -0.161  -0.218  1.00  0.00     0.188 HD
BRANCH   6   8
ATOM      8  S   UNL d   1      -1.900  -0.026   0.242  0.00  0.00    -0.103 SA
ATOM      9  C   UNL d   1      -0.645   0.087   1.532  0.00  0.00     0.098 C 
ENDBRANCH   6   8
BRANCH   6  10
ATOM     10  N   UNL d   1      -1.627  -0.335  -2.333  0.00  0.00    -0.282 NA
ATOM     11  H   UNL d   1      -1.045  -0.741  -3.058  0.00  0.00     0.126 HD
ATOM     12  H   UNL d   1      -2.524  -0.782  -2.203  0.00  0.00     0.126 HD
ENDBRANCH   6  10
ENDBRANCH   1   5
BRANCH   3  13
ATOM     13  C   UNL d   1       3.096  -0.628  -3.559  0.00  0.00    -0.013 A 
ATOM     14  C   UNL d   1       2.412  -0.802  -4.772  0.00  0.00     0.015 A 
ATOM     15  C   UNL d   1       3.114  -1.022  -5.963  0.00  0.00     0.020 A 
ATOM     16  C   UNL d   1       4.506  -1.068  -5.946  0.00  0.00     0.011 A 
ATOM     17  C   UNL d   1       5.201  -0.891  -4.753  0.00  0.00     0.020 A 
ATOM     18 BR   UNL d   1       5.458  -1.377  -7.549  0.00  0.00    -0.051 Br
ATOM     19  C   UNL d   1       4.498  -0.672  -3.563  0.00  0.00     0.015 A 
ENDBRANCH   3  13
TORSDOF 4
