REMARK  7 active torsions:
REMARK  status: ('A' for Active; 'I' for Inactive)
REMARK    1  A    between atoms: C_9  and  C_1 
REMARK    2  A    between atoms: N_7  and  N_2 
REMARK       I    between atoms: N_19  and  C_9 
REMARK    3  A    between atoms: O_24  and  C_11 
REMARK    4  A    between atoms: O_25  and  C_14 
REMARK    5  A    between atoms: C_26  and  N_19 
REMARK    6  A    between atoms: C_21  and  C_28 
REMARK    7  A    between atoms: C_28  and  C_26 
ROOT
ATOM      1  C   UNL d   1       2.310  -0.736   0.194  0.00  0.00     0.200 C 
ATOM      2  N   UNL d   1       1.227  -0.788  -0.670  0.00  0.00    -0.192 N 
ATOM      3  C   UNL d   1       0.059  -0.071  -0.411  0.00  0.00     0.281 C 
ATOM      4  N   UNL d   1       2.334  -0.024   1.293  0.00  0.00    -0.336 N 
ATOM      5  HN  UNL d   1       3.186   0.061   1.847  1.00  0.00     0.168 HD
ATOM      6  C   UNL d   1      -0.006   0.580   0.909  0.00  0.00     0.061 A 
ATOM      7  C   UNL d   1       1.151   0.616   1.681  0.00  0.00     0.049 A 
ATOM      8  O   UNL d   1      -0.896   0.064  -1.166  0.00  0.00    -0.265 OA
ATOM      9  C   UNL d   1      -1.211   1.122   1.381  0.00  0.00     0.019 A 
ATOM     10  C   UNL d   1       1.108   1.255   2.923  0.00  0.00     0.030 A 
ATOM     11  C   UNL d   1      -1.249   1.725   2.636  0.00  0.00     0.001 A 
ATOM     12  C   UNL d   1      -0.087   1.804   3.401  0.00  0.00     0.002 A 
ENDROOT
BRANCH   1  13
ATOM     13  C   UNL d   1       3.586  -1.522  -0.115  0.00  0.00     0.287 C 
ATOM     14  O   UNL d   1       3.531  -2.704  -0.395  0.00  0.00    -0.264 OA
ATOM     15  N   UNL d   1       4.744  -0.771  -0.008  0.00  0.00    -0.354 N 
ATOM     16  H   UNL d   1       4.668   0.098   0.510  0.00  0.00     0.162 HD
BRANCH  15  17
ATOM     17  C   UNL d   1       6.054  -1.370  -0.206  0.00  0.00     0.127 C 
BRANCH  17  18
ATOM     18  C   UNL d   1       6.334  -1.676  -1.682  0.00  0.00     0.058 C 
BRANCH  18  19
ATOM     19  C   UNL d   1       7.695  -2.289  -1.904  0.00  0.00    -0.054 A 
ATOM     20  C   UNL d   1       8.812  -1.478  -2.157  0.00  0.00     0.046 A 
ATOM     21  C   UNL d   1      10.091  -2.029  -2.356  0.00  0.00     0.102 A 
ATOM     22  C   UNL d   1      10.249  -3.424  -2.323  0.00  0.00     0.101 A 
ATOM     23  C   UNL d   1       9.127  -4.229  -2.079  0.00  0.00     0.040 A 
ATOM     24  C   UNL d   1       7.865  -3.673  -1.865  0.00  0.00     0.010 A 
BRANCH  21  25
ATOM     25  O   UNL d   1      11.173  -1.239  -2.648  0.00  0.00    -0.353 OA
ATOM     26  C   UNL d   1      11.185   0.053  -2.051  0.00  0.00     0.210 C 
ENDBRANCH  21  25
BRANCH  22  27
ATOM     27  O   UNL d   1      11.391  -4.163  -2.490  0.00  0.00    -0.353 OA
ATOM     28  C   UNL d   1      12.626  -3.487  -2.668  0.00  0.00     0.210 C 
ENDBRANCH  22  27
ENDBRANCH  18  19
ENDBRANCH  17  18
ENDBRANCH  15  17
ENDBRANCH   1  13
BRANCH   2  29
ATOM     29  N   UNL d   1       1.257  -1.509  -1.847  0.00  0.00    -0.268 N 
ATOM     30  C   UNL d   1       2.218  -1.422  -2.820  0.00  0.00     0.116 A 
ATOM     31  C   UNL d   1       1.827  -2.232  -3.870  0.00  0.00     0.021 A 
ATOM     32  C   UNL d   1       0.546  -2.746  -3.555  0.00  0.00     0.021 A 
ATOM     33  C   UNL d   1       0.236  -2.315  -2.283  0.00  0.00     0.116 A 
ENDBRANCH   2  29
TORSDOF 7
