REMARK  6 active torsions:
REMARK  status: ('A' for Active; 'I' for Inactive)
REMARK    1  A    between atoms: C_6  and  N_1 
REMARK    2  A    between atoms: C_2  and  C_3 
REMARK    3  A    between atoms: C_4  and  C_2 
REMARK    4  A    between atoms: C_3  and  C_6 
REMARK    5  A    between atoms: O_8  and  C_11 
REMARK    6  A    between atoms: C_14  and  O_8 
ROOT
ATOM      1  C   UNL d   1      -1.816   0.141  -4.525  0.00  0.00     0.010 A 
ATOM      2  C   UNL d   1      -2.136  -1.196  -4.264  0.00  0.00     0.018 A 
ATOM      3  C   UNL d   1      -0.919   0.445  -5.560  0.00  0.00     0.018 A 
ATOM      4  C   UNL d   1      -0.559  -1.911  -5.958  0.00  0.00     0.076 A 
ATOM      5  C   UNL d   1      -1.522  -2.218  -4.994  0.00  0.00     0.038 A 
ATOM      6  C   UNL d   1      -0.293  -0.579  -6.274  0.00  0.00     0.038 A 
ENDROOT
BRANCH   1   7
ATOM      7  C   UNL d   1      -2.410   1.268  -3.746  0.00  0.00     0.161 C 
ATOM      8  O   UNL d   1      -2.578   2.349  -4.309  0.00  0.00    -0.292 OA
BRANCH   7   9
ATOM      9  C   UNL d   1      -2.704   1.064  -2.269  0.00  0.00     0.114 C 
BRANCH   9  10
ATOM     10  C   UNL d   1      -3.884   1.937  -1.831  0.00  0.00     0.280 C 
BRANCH  10  11
ATOM     11  N   UNL d   1      -4.255   1.792  -0.408  0.00  0.00     0.092 N 
ATOM     12  C   UNL d   1      -4.663   0.426  -0.013  0.00  0.00     0.298 C 
ATOM     13  C   UNL d   1      -6.006  -0.014  -0.614  0.00  0.00     0.198 C 
ATOM     14  O   UNL d   1      -7.055   0.889  -0.246  0.00  0.00    -0.388 OA
ATOM     15  C   UNL d   1      -6.744   2.231  -0.644  0.00  0.00     0.198 C 
ATOM     16  C   UNL d   1      -5.387   2.697  -0.077  0.00  0.00     0.298 C 
ENDBRANCH  10  11
ENDBRANCH   9  10
ENDBRANCH   7   9
ENDBRANCH   1   7
BRANCH   4  17
ATOM     17  O   UNL d   1       0.124  -2.868  -6.675  0.00  0.00    -0.311 OA
BRANCH  17  18
ATOM     18  C   UNL d   1       0.572  -3.995  -6.020  0.00  0.00     0.076 A 
ATOM     19  C   UNL d   1       0.635  -5.164  -6.781  0.00  0.00     0.037 A 
ATOM     20  C   UNL d   1       1.068  -6.357  -6.199  0.00  0.00     0.003 A 
ATOM     21  C   UNL d   1       1.443  -6.383  -4.856  0.00  0.00     0.000 A 
ATOM     22  C   UNL d   1       1.416  -5.210  -4.103  0.00  0.00     0.003 A 
ATOM     23  C   UNL d   1       1.004  -4.012  -4.689  0.00  0.00     0.037 A 
ENDBRANCH  17  18
ENDBRANCH   4  17
TORSDOF 6
