REMARK  1 active torsions:
REMARK  status: ('A' for Active; 'I' for Inactive)
REMARK    1  A    between atoms: C_6  and  C_3 
ROOT
ATOM      1  C   UNL d   1       1.175   1.169  -0.091  0.00  0.00     0.176 A 
ATOM      2  C   UNL d   1       1.142  -1.214  -0.086  0.00  0.00     0.176 A 
ATOM      3  C   UNL d   1       2.103  -0.036  -0.132  0.00  0.00     0.168 A 
ATOM      4  C   UNL d   1      -0.207   0.690  -0.052  0.00  0.00     0.025 A 
ATOM      5  C   UNL d   1      -0.226  -0.697  -0.051  0.00  0.00     0.025 A 
ATOM      6  O   UNL d   1       1.473   2.350  -0.102  0.00  0.00    -0.291 OA
ATOM      7  O   UNL d   1       1.408  -2.403  -0.097  0.00  0.00    -0.291 OA
ATOM      8  C   UNL d   1      -1.413  -1.406  -0.019  0.00  0.00     0.016 A 
ATOM      9  C   UNL d   1      -1.372   1.434  -0.019  0.00  0.00     0.016 A 
ATOM     10  C   UNL d   1      -2.603  -0.673   0.012  0.00  0.00     0.001 A 
ATOM     11  C   UNL d   1      -2.583   0.736   0.013  0.00  0.00     0.001 A 
ENDROOT
BRANCH   3  12
ATOM     12  C   UNL d   1       3.128  -0.045   0.978  0.00  0.00    -0.039 A 
ATOM     13  C   UNL d   1       4.494  -0.097   0.664  0.00  0.00     0.009 A 
ATOM     14  C   UNL d   1       5.458  -0.093   1.675  0.00  0.00     0.007 A 
ATOM     15  C   UNL d   1       5.079  -0.040   3.019  0.00  0.00    -0.062 A 
ATOM     16  C   UNL d   1       3.719   0.005   3.338  0.00  0.00     0.007 A 
ATOM     17  C   UNL d   1       6.125  -0.024   4.094  0.00  0.00     0.048 C 
ATOM     18  C   UNL d   1       2.752   0.001   2.329  0.00  0.00     0.009 A 
ENDBRANCH   3  12
TORSDOF 1
