REMARK  8 active torsions:
REMARK  status: ('A' for Active; 'I' for Inactive)
REMARK    1  A    between atoms: C_8  and  C_1 
REMARK    2  A    between atoms: C_5  and  C_2 
REMARK    3  A    between atoms: O_14  and  C_5 
REMARK    4  A    between atoms: N_7  and  C_6 
REMARK    5  A    between atoms: C_9  and  C_15 
REMARK    6  A    between atoms: C_12  and  O_16 
REMARK    7  A    between atoms: C_17  and  O_14 
REMARK    8  A    between atoms: O_16  and  C_18 
ROOT
ATOM      1  C   UNL d   1      -1.834  -3.613  -0.280  0.00  0.00     0.113 A 
ATOM      2  C   UNL d   1      -2.226  -2.915  -1.429  0.00  0.00     0.110 A 
ATOM      3  C   UNL d   1      -3.468  -3.206  -2.015  0.00  0.00     0.040 A 
ATOM      4  C   UNL d   1      -2.672  -4.587   0.268  0.00  0.00     0.040 A 
ATOM      5  C   UNL d   1      -3.930  -4.829  -0.290  0.00  0.00     0.003 A 
ATOM      6  C   UNL d   1      -4.327  -4.143  -1.432  0.00  0.00     0.003 A 
ENDROOT
BRANCH   1   7
ATOM      7  O   UNL d   1      -0.519  -3.456   0.212  0.00  0.00    -0.272 OA
BRANCH   7   8
ATOM      8  C   UNL d   1      -0.298  -3.531   1.594  0.00  0.00     0.303 C 
ATOM      9  O   UNL d   1      -0.981  -2.944   2.425  0.00  0.00    -0.259 OA
BRANCH   8  10
ATOM     10  C   UNL d   1       0.786  -4.438   1.928  0.00  0.00     0.100 C 
ATOM     11  C   UNL d   1       1.106  -5.113   3.162  0.00  0.00     0.087 C 
ATOM     12  N   UNL d   1       2.103  -5.990   2.947  0.00  0.00    -0.259 N 
ATOM     13  O   UNL d   1       2.541  -5.798   1.667  0.00  0.00    -0.241 OA
ATOM     14  HN  UNL d   1       2.466  -6.670   3.616  1.00  0.00     0.195 HD
ATOM     15  C   UNL d   1       1.782  -4.858   1.059  0.00  0.00     0.091 C 
ATOM     16  C   UNL d   1       2.203  -4.529  -0.320  0.00  0.00     0.080 C 
BRANCH  11  17
ATOM     17  C   UNL d   1       0.559  -5.021   4.528  0.00  0.00     0.037 A 
ATOM     18  C   UNL d   1      -0.797  -5.238   4.829  0.00  0.00     0.048 A 
ATOM     19 CL   UNL d   1      -1.965  -5.720   3.656  0.00  0.00    -0.083 Cl
ATOM     20  C   UNL d   1      -1.272  -5.183   6.152  0.00  0.00     0.025 A 
ATOM     21  C   UNL d   1      -0.397  -4.991   7.213  0.00  0.00     0.003 A 
ATOM     22  C   UNL d   1       0.955  -4.823   6.951  0.00  0.00     0.025 A 
ATOM     23  C   UNL d   1       1.428  -4.811   5.628  0.00  0.00     0.048 A 
ATOM     24 CL   UNL d   1       3.132  -4.516   5.457  0.00  0.00    -0.083 Cl
ENDBRANCH  11  17
ENDBRANCH   8  10
ENDBRANCH   7   8
ENDBRANCH   1   7
BRANCH   2  25
ATOM     25  O   UNL d   1      -1.336  -2.018  -1.987  0.00  0.00    -0.305 OA
BRANCH  25  26
ATOM     26  C   UNL d   1      -1.847  -0.884  -2.585  0.00  0.00     0.109 A 
ATOM     27  C   UNL d   1      -1.369  -0.441  -3.826  0.00  0.00     0.137 A 
ATOM     28  C   UNL d   1      -1.838   0.769  -4.383  0.00  0.00     0.055 A 
ATOM     29  C   UNL d   1      -2.784   1.549  -3.698  0.00  0.00     0.050 A 
ATOM     30  C   UNL d   1      -3.263   1.094  -2.461  0.00  0.00     0.019 A 
ATOM     31  C   UNL d   1      -2.787  -0.095  -1.903  0.00  0.00     0.040 A 
BRANCH  27  32
ATOM     32  N   UNL d   1      -0.382  -1.211  -4.589  0.00  0.00    -0.113 N 
ATOM     33  O   UNL d   1      -0.328  -2.437  -4.423  0.00  0.00    -0.532 OA
ATOM     34  O   UNL d   1       0.319  -0.583  -5.397  0.00  0.00    -0.532 OA
ENDBRANCH  27  32
BRANCH  29  35
ATOM     35  C   UNL d   1      -3.287   2.854  -4.265  0.00  0.00     0.417 C 
ATOM     36  F   UNL d   1      -2.588   3.277  -5.354  0.00  0.00    -0.166 F 
ATOM     37  F   UNL d   1      -4.588   2.781  -4.660  0.00  0.00    -0.166 F 
ATOM     38  F   UNL d   1      -3.225   3.872  -3.360  0.00  0.00    -0.166 F 
ENDBRANCH  29  35
ENDBRANCH  25  26
ENDBRANCH   2  25
TORSDOF 8
