REMARK  3 active torsions:
REMARK  status: ('A' for Active; 'I' for Inactive)
REMARK    1  A    between atoms: C_2  and  S_1 
REMARK    2  A    between atoms: C_9  and  S_1 
REMARK    3  A    between atoms: N_4  and  C_3 
ROOT
ATOM      1  C   UNL d   1       0.509  -0.861  -1.354  0.00  0.00     0.098 A 
ATOM      2  C   UNL d   1       0.684  -2.226  -1.616  0.00  0.00     0.130 A 
ATOM      3  C   UNL d   1       0.110  -2.830  -2.757  0.00  0.00    -0.027 A 
ATOM      4  C   UNL d   1      -0.345  -0.114  -2.182  0.00  0.00     0.033 A 
ATOM      5  C   UNL d   1      -0.733  -2.054  -3.570  0.00  0.00     0.016 A 
ATOM      6  C   UNL d   1      -0.986  -0.710  -3.276  0.00  0.00    -0.060 A 
ATOM      7  C   UNL d   1       0.325  -4.264  -3.166  0.00  0.00     0.050 C 
ATOM      8  C   UNL d   1      -1.972   0.081  -4.089  0.00  0.00     0.048 C 
ENDROOT
BRANCH   1   9
ATOM      9  S   UNL d   1       1.159  -0.064   0.100  0.00  0.00     0.209 S 
ATOM     10  O   UNL d   1       0.746  -0.904   1.209  0.00  0.00    -0.217 OA
ATOM     11  O   UNL d   1       0.721   1.324   0.047  0.00  0.00    -0.217 OA
BRANCH   9  12
ATOM     12  C   UNL d   1       2.933   0.019   0.094  0.00  0.00     0.064 A 
ATOM     13  C   UNL d   1       3.612   0.559  -1.004  0.00  0.00     0.024 A 
ATOM     14  C   UNL d   1       5.005   0.670  -0.955  0.00  0.00     0.002 A 
ATOM     15  C   UNL d   1       5.709   0.251   0.178  0.00  0.00     0.000 A 
ATOM     16  C   UNL d   1       5.025  -0.282   1.269  0.00  0.00     0.002 A 
ATOM     17  C   UNL d   1       3.635  -0.396   1.232  0.00  0.00     0.024 A 
ENDBRANCH   9  12
ENDBRANCH   1   9
BRANCH   2  18
ATOM     18  N   UNL d   1       1.409  -3.064  -0.682  0.00  0.00    -0.114 N 
ATOM     19  O   UNL d   1       2.627  -2.870  -0.595  0.00  0.00    -0.532 OA
ATOM     20  O   UNL d   1       0.767  -3.936  -0.086  0.00  0.00    -0.532 OA
ENDBRANCH   2  18
TORSDOF 3
