REMARK  4 active torsions:
REMARK  status: ('A' for Active; 'I' for Inactive)
REMARK    1  A    between atoms: C_2  and  S_1 
REMARK    2  A    between atoms: O_5  and  S_1 
REMARK    3  A    between atoms: C_17  and  O_5 
REMARK    4  A    between atoms: C_6  and  C_12 
ROOT
ATOM      1  S   UNL d   1       1.008  -0.001  -0.113  0.00  0.00     0.303 S 
ATOM      2  O   UNL d   1       2.448   0.130   0.023  0.00  0.00    -0.193 OA
ATOM      3  O   UNL d   1       0.445  -1.051  -0.946  0.00  0.00    -0.193 OA
ENDROOT
BRANCH   1   4
ATOM      4  C   UNL d   1       0.401   1.543  -0.784  0.00  0.00     0.095 A 
ATOM      5  C   UNL d   1      -0.970   1.802  -0.944  0.00  0.00     0.001 A 
ATOM      6  C   UNL d   1      -1.337   3.060  -1.450  0.00  0.00     0.129 A 
ATOM      7  C   UNL d   1      -2.084   0.851  -0.611  0.00  0.00     0.053 C 
ATOM      8  F   UNL d   1      -2.642   3.352  -1.578  0.00  0.00    -0.205 F 
ATOM      9  C   UNL d   1      -0.396   4.024  -1.830  0.00  0.00    -0.023 A 
ATOM     10  C   UNL d   1       0.960   3.731  -1.691  0.00  0.00     0.011 A 
ATOM     11  C   UNL d   1      -0.851   5.356  -2.348  0.00  0.00     0.051 C 
ATOM     12  C   UNL d   1       1.358   2.499  -1.169  0.00  0.00     0.027 A 
ENDBRANCH   1   4
BRANCH   1  13
ATOM     13  O   UNL d   1       0.354  -0.062   1.386  0.00  0.00    -0.229 OA
BRANCH  13  14
ATOM     14  C   UNL d   1       0.707  -1.055   2.268  0.00  0.00     0.089 A 
ATOM     15  C   UNL d   1       0.698  -0.723   3.626  0.00  0.00     0.039 A 
ATOM     16  C   UNL d   1       1.030  -1.682   4.592  0.00  0.00     0.012 A 
ATOM     17  C   UNL d   1       1.369  -2.994   4.220  0.00  0.00    -0.035 A 
ATOM     18  C   UNL d   1       1.353  -3.313   2.852  0.00  0.00     0.012 A 
ATOM     19  C   UNL d   1       1.022  -2.355   1.888  0.00  0.00     0.039 A 
BRANCH  17  20
ATOM     20  C   UNL d   1       1.750  -4.020   5.273  0.00  0.00     0.141 C 
ATOM     21  S   UNL d   1       3.462  -4.619   5.055  0.00  0.00    -0.148 SA
ATOM     22  C   UNL d   1       3.126  -6.364   5.390  0.00  0.00     0.085 C 
ATOM     23  C   UNL d   1       1.772  -6.703   4.801  0.00  0.00     0.085 C 
ATOM     24  S   UNL d   1       0.595  -5.431   5.328  0.00  0.00    -0.148 SA
ENDBRANCH  17  20
ENDBRANCH  13  14
ENDBRANCH   1  13
TORSDOF 4
