REMARK  7 active torsions:
REMARK  status: ('A' for Active; 'I' for Inactive)
REMARK       I    between atoms: N_2  and  C_1 
REMARK    1  A    between atoms: C_6  and  C_1 
REMARK    2  A    between atoms: C_9  and  N_2 
REMARK    3  A    between atoms: C_3  and  C_8 
REMARK    4  A    between atoms: O_11  and  C_3 
REMARK    5  A    between atoms: C_4  and  C_6 
REMARK    6  A    between atoms: C_8  and  C_4 
REMARK    7  A    between atoms: C_17  and  C_4 
ROOT
ATOM      1  C   UNL d   1       2.672  -1.539   0.029  0.00  0.00     0.222 C 
ATOM      2  N   UNL d   1       1.646  -2.466   0.047  0.00  0.00    -0.327 N 
ATOM      3  O   UNL d   1       3.854  -1.817   0.223  0.00  0.00    -0.273 OA
ATOM      4  H   UNL d   1       0.750  -2.181  -0.340  0.00  0.00     0.169 HD
ENDROOT
BRANCH   1   5
ATOM      5  C   UNL d   1       2.223  -0.094  -0.193  0.00  0.00     0.112 C 
BRANCH   5   6
ATOM      6  C   UNL d   1       3.171   0.817  -1.049  0.00  0.00    -0.027 C 
ATOM      7  C   UNL d   1       4.598   0.875  -0.444  0.00  0.00     0.016 C 
BRANCH   6   8
ATOM      8  C   UNL d   1       3.319   0.263  -2.493  0.00  0.00     0.119 C 
BRANCH   8   9
ATOM      9  C   UNL d   1       2.046   0.043  -3.287  0.00  0.00     0.140 C 
ATOM     10  O   UNL d   1       0.923   0.380  -2.953  0.00  0.00    -0.650 OA
BRANCH   9  11
ATOM     11  O   UNL d   1       2.280  -0.609  -4.448  0.00  0.00    -0.776 OA
ATOM     12  H   UNL d   1       3.216  -0.840  -4.597  0.00  0.00     0.167 HD
ENDBRANCH   9  11
ENDBRANCH   8   9
ENDBRANCH   6   8
BRANCH   6  13
ATOM     13  C   UNL d   1       2.584   2.269  -1.012  0.00  0.00     0.005 C 
ATOM     14  C   UNL d   1       3.436   3.372  -1.638  0.00  0.00     0.006 C 
ENDBRANCH   6  13
ENDBRANCH   5   6
ENDBRANCH   1   5
BRANCH   2  15
ATOM     15  C   UNL d   1       1.734  -3.795   0.531  0.00  0.00     0.034 A 
ATOM     16  C   UNL d   1       2.831  -4.274   1.258  0.00  0.00     0.031 A 
ATOM     17  C   UNL d   1       2.826  -5.561   1.806  0.00  0.00     0.026 A 
ATOM     18  C   UNL d   1       1.724  -6.386   1.622  0.00  0.00     0.034 A 
ATOM     19  C   UNL d   1       0.638  -5.942   0.873  0.00  0.00     0.026 A 
ATOM     20 CL   UNL d   1       1.694  -7.946   2.346  0.00  0.00    -0.084 Cl
ATOM     21  C   UNL d   1       0.642  -4.647   0.330  0.00  0.00     0.031 A 
ENDBRANCH   2  15
TORSDOF 7
