REMARK  5 active torsions:
REMARK  status: ('A' for Active; 'I' for Inactive)
REMARK    1  A    between atoms: C_4  and  C_1 
REMARK    2  A    between atoms: N_2  and  C_4 
REMARK    3  A    between atoms: C_5  and  N_2 
REMARK    4  A    between atoms: O_6  and  C_3 
REMARK    5  A    between atoms: C_7  and  C_5 
ROOT
ATOM      1  C   UNL d   1       1.086   2.437  -0.009  0.00  0.00     0.252 C 
ATOM      2  C   UNL d   1       2.610   2.495  -0.205  0.00  0.00     0.048 C 
ENDROOT
BRANCH   1   3
ATOM      3  N   UNL d   1       0.640   3.047   1.265  0.00  0.00     0.096 N 
ATOM      4  H   UNL d   1       1.033   2.509   2.039  0.00  0.00     0.317 HD
BRANCH   3   5
ATOM      5  C   UNL d   1       1.063   4.442   1.411  0.00  0.00     0.309 C 
BRANCH   5   6
ATOM      6  C   UNL d   1       0.633   5.037   2.732  0.00  0.00    -0.030 A 
ATOM      7  C   UNL d   1       1.591   5.360   3.707  0.00  0.00     0.009 A 
ATOM      8  C   UNL d   1       1.210   5.965   4.906  0.00  0.00     0.001 A 
ATOM      9  C   UNL d   1      -0.132   6.248   5.147  0.00  0.00     0.000 A 
ATOM     10  C   UNL d   1      -1.094   5.917   4.193  0.00  0.00     0.001 A 
ATOM     11  C   UNL d   1      -0.715   5.314   2.993  0.00  0.00     0.009 A 
ENDBRANCH   5   6
ENDBRANCH   3   5
ENDBRANCH   1   3
BRANCH   1  12
ATOM     12  C   UNL d   1       0.496   1.029  -0.135  0.00  0.00     0.007 A 
ATOM     13  C   UNL d   1      -0.898   0.845  -0.126  0.00  0.00     0.074 A 
ATOM     14  C   UNL d   1      -1.483  -0.398  -0.363  0.00  0.00     0.037 A 
ATOM     15  C   UNL d   1      -0.674  -1.510  -0.581  0.00  0.00     0.003 A 
ATOM     16  C   UNL d   1       0.710  -1.371  -0.549  0.00  0.00     0.001 A 
ATOM     17  C   UNL d   1       1.288  -0.116  -0.328  0.00  0.00     0.012 A 
BRANCH  13  18
ATOM     18  O   UNL d   1      -1.748   1.885   0.143  0.00  0.00    -0.360 OA
ATOM     19  H   UNL d   1      -1.214   2.534   0.653  0.00  0.00     0.217 HD
ENDBRANCH  13  18
ENDBRANCH   1  12
TORSDOF 5
