REMARK  3 active torsions:
REMARK  status: ('A' for Active; 'I' for Inactive)
REMARK    1  A    between atoms: C_2  and  C_1 
REMARK       I    between atoms: N_10  and  C_1 
REMARK    2  A    between atoms: N_4  and  N_10 
REMARK    3  A    between atoms: C_17  and  C_16 
ROOT
ATOM      1  N   UNL d   1      -1.157   1.002  -0.466  0.00  0.00    -0.308 N 
ATOM      2  HN  UNL d   1      -1.652   0.334   0.124  1.00  0.00     0.186 HD
ATOM      3  C   UNL d   1      -1.780   1.904  -1.153  0.00  0.00     0.118 C 
ENDROOT
BRANCH   1   4
ATOM      4  N   UNL d   1       0.200   0.998  -0.577  0.00  0.00    -0.266 N 
ATOM      5  C   UNL d   1       0.942   0.063   0.133  0.00  0.00     0.271 C 
ATOM      6  O   UNL d   1       0.495  -0.738   0.946  0.00  0.00    -0.266 OA
ATOM      7  H   UNL d   1       0.650   1.708  -1.140  0.00  0.00     0.190 HD
BRANCH   5   8
ATOM      8  C   UNL d   1       2.399   0.085  -0.128  0.00  0.00     0.049 A 
ATOM      9  C   UNL d   1       3.268  -0.298   0.885  0.00  0.00     0.104 A 
ATOM     10  N   UNL d   1       4.619  -0.300   0.757  0.00  0.00    -0.374 N 
ATOM     11  C   UNL d   1       5.119   0.073  -0.441  0.00  0.00     0.087 A 
ATOM     12  HN  UNL d   1       5.228  -0.570   1.530  1.00  0.00     0.164 HD
ATOM     13  C   UNL d   1       4.332   0.444  -1.520  0.00  0.00     0.018 A 
ATOM     14  C   UNL d   1       2.948   0.447  -1.362  0.00  0.00     0.020 A 
ENDBRANCH   5   8
ENDBRANCH   1   4
BRANCH   3  15
ATOM     15  C   UNL d   1      -3.254   1.988  -1.147  0.00  0.00    -0.017 A 
ATOM     16  C   UNL d   1      -3.881   2.953  -1.943  0.00  0.00     0.052 A 
ATOM     17  C   UNL d   1      -5.260   2.968  -1.946  0.00  0.00     0.105 A 
ATOM     18  O   UNL d   1      -6.042   3.814  -2.670  0.00  0.00    -0.323 OA
ATOM     19  C   UNL d   1      -6.002   2.086  -1.194  0.00  0.00     0.105 A 
ATOM     20  C   UNL d   1      -7.358   3.328  -2.328  0.00  0.00     0.352 A 
ATOM     21  O   UNL d   1      -7.340   2.265  -1.354  0.00  0.00    -0.323 OA
ATOM     22  C   UNL d   1      -5.409   1.136  -0.391  0.00  0.00     0.040 A 
ATOM     23  C   UNL d   1      -4.013   1.086  -0.371  0.00  0.00     0.016 A 
ENDBRANCH   3  15
TORSDOF 3
