REMARK  4 active torsions:
REMARK  status: ('A' for Active; 'I' for Inactive)
REMARK    1  A    between atoms: C_6  and  C_1 
REMARK    2  A    between atoms: S_9  and  C_7 
REMARK    3  A    between atoms: C_13  and  S_9 
REMARK    4  A    between atoms: C_15  and  C_13 
ROOT
ATOM      1  C   UNL d   1       0.112   1.057   0.033  0.00  0.00     0.207 A 
ATOM      2  N   UNL d   1       1.257   0.258   0.030  0.00  0.00    -0.317 N 
ATOM      3  HN  UNL d   1       2.234   0.552   0.011  1.00  0.00     0.169 HD
ATOM      4  N   UNL d   1      -1.037   0.344   0.064  0.00  0.00    -0.280 N 
ATOM      5  HN  UNL d   1      -2.001   0.679   0.073  1.00  0.00     0.188 HD
ATOM      6  C   UNL d   1       0.775  -0.958   0.059  0.00  0.00     0.161 A 
ATOM      7  N   UNL d   1      -0.583  -0.919   0.080  0.00  0.00    -0.278 N 
ATOM      8  H   UNL d   1      -1.233  -1.694   0.103  0.00  0.00     0.189 HD
ENDROOT
BRANCH   6   9
ATOM      9  S   UNL d   1       1.590  -2.470   0.072  0.00  0.00    -0.088 SA
BRANCH   9  10
ATOM     10  C   UNL d   1       3.332  -1.959   0.035  0.00  0.00     0.121 C 
BRANCH  10  11
ATOM     11  C   UNL d   1       4.247  -3.164   0.014  0.00  0.00    -0.048 A 
ATOM     12  C   UNL d   1       4.630  -3.748  -1.204  0.00  0.00     0.009 A 
ATOM     13  C   UNL d   1       5.463  -4.871  -1.225  0.00  0.00     0.024 A 
ATOM     14  C   UNL d   1       5.913  -5.422  -0.027  0.00  0.00     0.034 A 
ATOM     15  C   UNL d   1       5.533  -4.863   1.192  0.00  0.00     0.024 A 
ATOM     16 CL   UNL d   1       6.941  -6.801  -0.052  0.00  0.00    -0.084 Cl
ATOM     17  C   UNL d   1       4.700  -3.740   1.212  0.00  0.00     0.009 A 
ENDBRANCH  10  11
ENDBRANCH   9  10
ENDBRANCH   6   9
BRANCH   1  18
ATOM     18  C   UNL d   1       0.145   2.573   0.005  0.00  0.00     0.450 C 
ATOM     19  F   UNL d   1       1.412   3.072  -0.032  0.00  0.00    -0.163 F 
ATOM     20  F   UNL d   1      -0.499   3.083  -1.082  0.00  0.00    -0.163 F 
ATOM     21  F   UNL d   1      -0.449   3.121   1.101  0.00  0.00    -0.163 F 
ENDBRANCH   1  18
TORSDOF 4
