REMARK  3 active torsions:
REMARK  status: ('A' for Active; 'I' for Inactive)
REMARK    1  A    between atoms: C_11  and  N_1 
REMARK    2  A    between atoms: N_2  and  N_8 
REMARK    3  A    between atoms: C_3  and  C_13 
REMARK       I    between atoms: N_8  and  C_3 
ROOT
ATOM      1  C   UNL d   1      -2.201  -2.367   3.977  0.00  0.00     0.270 C 
ATOM      2  N   UNL d   1      -3.397  -2.955   3.634  0.00  0.00    -0.257 N 
ATOM      3  O   UNL d   1      -1.763  -2.348   5.122  0.00  0.00    -0.266 OA
ATOM      4  H   UNL d   1      -3.726  -3.074   2.690  0.00  0.00     0.191 HD
ENDROOT
BRANCH   1   5
ATOM      5  C   UNL d   1      -1.390  -1.754   2.877  0.00  0.00     0.033 A 
ATOM      6  C   UNL d   1      -1.870  -1.561   1.572  0.00  0.00     0.019 A 
ATOM      7  C   UNL d   1      -1.048  -0.982   0.594  0.00  0.00     0.037 A 
ATOM      8  C   UNL d   1       0.257  -0.587   0.920  0.00  0.00     0.102 A 
ATOM      9  C   UNL d   1       0.744  -0.763   2.216  0.00  0.00     0.037 A 
ATOM     10  C   UNL d   1      -0.081  -1.345   3.187  0.00  0.00     0.019 A 
BRANCH   8  11
ATOM     11  N   UNL d   1       1.113   0.017  -0.109  0.00  0.00    -0.116 N 
ATOM     12  O   UNL d   1       2.246   0.392   0.229  0.00  0.00    -0.532 OA
ATOM     13  O   UNL d   1       0.655   0.115  -1.254  0.00  0.00    -0.532 OA
ENDBRANCH   8  11
ENDBRANCH   1   5
BRANCH   2  14
ATOM     14  N   UNL d   1      -4.142  -3.578   4.582  0.00  0.00    -0.242 N 
ATOM     15  C   UNL d   1      -3.736  -4.541   5.449  0.00  0.00     0.224 A 
ATOM     16  N   UNL d   1      -4.796  -5.049   6.043  0.00  0.00    -0.293 N 
ATOM     17  N   UNL d   1      -5.911  -4.408   5.535  0.00  0.00    -0.293 N 
ATOM     18  HN  UNL d   1      -4.794  -5.784   6.751  1.00  0.00     0.187 HD
ATOM     19  C   UNL d   1      -5.496  -3.527   4.651  0.00  0.00     0.224 A 
ATOM     20  HN  UNL d   1      -6.880  -4.587   5.799  1.00  0.00     0.187 HD
ENDBRANCH   2  14
TORSDOF 3
