REMARK  6 active torsions:
REMARK  status: ('A' for Active; 'I' for Inactive)
REMARK    1  A    between atoms: N_7  and  C_1 
REMARK    2  A    between atoms: C_9  and  C_2 
REMARK    3  A    between atoms: S_13  and  C_5 
REMARK       I    between atoms: C_8  and  N_7 
REMARK    4  A    between atoms: C_10  and  C_8 
REMARK    5  A    between atoms: O_16  and  C_9 
REMARK    6  A    between atoms: C_18  and  O_16 
ROOT
ATOM      1  C   UNL d   1       1.250   0.685   0.078  0.00  0.00     0.132 A 
ATOM      2  C   UNL d   1      -0.004   1.279   0.078  0.00  0.00     0.126 A 
ATOM      3  N   UNL d   1       1.240  -0.691   0.125  0.00  0.00    -0.330 N 
ATOM      4  HN  UNL d   1       2.072  -1.279   0.124  1.00  0.00     0.168 HD
ATOM      5  C   UNL d   1       0.008  -1.137   0.170  0.00  0.00     0.114 A 
ATOM      6  S   UNL d   1      -1.211   0.060   0.193  0.00  0.00    -0.055 SA
ENDROOT
BRANCH   1   7
ATOM      7  N   UNL d   1       2.438   1.393  -0.004  0.00  0.00    -0.309 N 
ATOM      8  C   UNL d   1       3.708   0.845  -0.076  0.00  0.00     0.256 C 
ATOM      9  O   UNL d   1       3.959  -0.360  -0.035  0.00  0.00    -0.270 OA
ATOM     10  H   UNL d   1       2.352   2.406  -0.041  0.00  0.00     0.170 HD
BRANCH   8  11
ATOM     11  C   UNL d   1       4.844   1.863  -0.258  0.00  0.00     0.270 C 
ATOM     12 CL   UNL d   1       4.263   3.550  -0.331  0.00  0.00    -0.098 Cl
ATOM     13 CL   UNL d   1       6.007   1.700   1.074  0.00  0.00    -0.098 Cl
ENDBRANCH   8  11
ENDBRANCH   1   7
BRANCH   2  14
ATOM     14  C   UNL d   1      -0.416   2.654  -0.057  0.00  0.00     0.304 C 
ATOM     15  O   UNL d   1      -1.568   3.065  -0.107  0.00  0.00    -0.259 OA
BRANCH  14  16
ATOM     16  O   UNL d   1       0.686   3.450  -0.215  0.00  0.00    -0.317 OA
BRANCH  16  17
ATOM     17  C   UNL d   1       0.429   4.765  -0.735  0.00  0.00     0.174 C 
ATOM     18  C   UNL d   1       0.495   4.690  -2.249  0.00  0.00     0.034 C 
ENDBRANCH  16  17
ENDBRANCH  14  16
ENDBRANCH   2  14
BRANCH   5  19
ATOM     19  S   UNL d   1      -0.388  -2.841   0.189  0.00  0.00    -0.109 SA
ATOM     20  C   UNL d   1       1.256  -3.581   0.134  0.00  0.00     0.097 C 
ENDBRANCH   5  19
TORSDOF 6
