REMARK  3 active torsions:
REMARK  status: ('A' for Active; 'I' for Inactive)
REMARK    1  A    between atoms: C_4  and  C_1 
REMARK       I    between atoms: C_2  and  N_3 
REMARK    2  A    between atoms: C_5  and  C_2 
REMARK    3  A    between atoms: C_10  and  C_4 
ROOT
ATOM      1  C   UNL d   1      -0.811  -4.978  -2.285  0.00  0.00     0.260 C 
ATOM      2  N   UNL d   1       0.191  -4.314  -1.548  0.00  0.00    -0.347 N 
ATOM      3  C   UNL d   1       2.551  -3.188  -0.242  0.00  0.00     0.064 C 
ATOM      4  C   UNL d   1       0.514  -2.901  -1.715  0.00  0.00     0.127 C 
ATOM      5  O   UNL d   1      -1.314  -6.020  -1.859  0.00  0.00    -0.267 OA
ATOM      6  C   UNL d   1       0.543  -4.845  -0.236  0.00  0.00     0.127 C 
ATOM      7  C   UNL d   1       2.017  -2.713  -1.598  0.00  0.00     0.032 C 
ATOM      8  C   UNL d   1       2.000  -4.567   0.155  0.00  0.00     0.032 C 
ENDROOT
BRANCH   3   9
ATOM      9  C   UNL d   1       2.309  -2.132   0.837  0.00  0.00     0.166 C 
ATOM     10  O   UNL d   1       1.285  -1.448   0.857  0.00  0.00    -0.292 OA
BRANCH   9  11
ATOM     11  C   UNL d   1       3.357  -1.857   1.865  0.00  0.00     0.049 A 
ATOM     12  C   UNL d   1       4.379  -2.755   2.176  0.00  0.00     0.133 A 
ATOM     13  C   UNL d   1       5.360  -2.438   3.108  0.00  0.00     0.085 A 
ATOM     14  F   UNL d   1       4.449  -3.964   1.595  0.00  0.00    -0.205 F 
ATOM     15  C   UNL d   1       5.313  -1.209   3.750  0.00  0.00     0.119 A 
ATOM     16  C   UNL d   1       4.298  -0.296   3.480  0.00  0.00     0.043 A 
ATOM     17  F   UNL d   1       6.264  -0.895   4.637  0.00  0.00    -0.206 F 
ATOM     18  C   UNL d   1       3.316  -0.622   2.540  0.00  0.00     0.021 A 
ENDBRANCH   9  11
ENDBRANCH   3   9
BRANCH   1  19
ATOM     19  C   UNL d   1      -1.218  -4.392  -3.559  0.00  0.00     0.072 C 
ATOM     20  S   UNL d   1      -2.884  -4.355  -3.965  0.00  0.00    -0.097 SA
ATOM     21  C   UNL d   1      -2.588  -3.429  -5.372  0.00  0.00     0.050 C 
ATOM     22  C   UNL d   1      -1.244  -3.215  -5.576  0.00  0.00     0.009 C 
ATOM     23  C   UNL d   1      -0.451  -3.836  -4.569  0.00  0.00     0.025 C 
ENDBRANCH   1  19
TORSDOF 3
