REMARK  8 active torsions:
REMARK  status: ('A' for Active; 'I' for Inactive)
REMARK    1  A    between atoms: C_11  and  N_1 
REMARK    2  A    between atoms: C_16  and  C_11 
REMARK    3  A    between atoms: N_12  and  C_17 
REMARK    4  A    between atoms: C_25  and  N_14 
REMARK    5  A    between atoms: C_17  and  C_16 
REMARK    6  A    between atoms: O_23  and  C_16 
REMARK    7  A    between atoms: C_27  and  C_25 
REMARK    8  A    between atoms: O_26  and  C_27 
ROOT
ATOM      1  C   UNL d   1      -3.392   1.300  -0.472  0.00  0.00     0.170 C 
ENDROOT
BRANCH   1   2
ATOM      2  N   UNL d   1      -2.112   0.631  -0.671  0.00  0.00    -0.262 N 
ATOM      3  C   UNL d   1      -1.192   0.682   0.392  0.00  0.00     0.333 A 
ATOM      4  N   UNL d   1       0.119   0.297   0.120  0.00  0.00    -0.287 N 
ATOM      5  O   UNL d   1      -1.540   1.068   1.513  0.00  0.00    -0.246 OA
ATOM      6  C   UNL d   1       1.152   0.426   1.131  0.00  0.00     0.163 C 
ATOM      7  C   UNL d   1       0.435  -0.176  -1.131  0.00  0.00     0.145 A 
ATOM      8  C   UNL d   1      -0.496  -0.286  -2.120  0.00  0.00     0.149 A 
ATOM      9  N   UNL d   1       1.675  -0.560  -1.541  0.00  0.00    -0.336 N 
ATOM     10  C   UNL d   1      -1.854   0.105  -1.946  0.00  0.00     0.282 A 
ATOM     11  N   UNL d   1       0.199  -0.772  -3.195  0.00  0.00    -0.340 N 
ATOM     12  O   UNL d   1      -2.701   0.018  -2.828  0.00  0.00    -0.265 OA
ATOM     13  C   UNL d   1       1.508  -0.910  -2.799  0.00  0.00     0.184 A 
ATOM     14  C   UNL d   1      -0.280  -1.079  -4.519  0.00  0.00     0.157 C 
ATOM     15  HN  UNL d   1       2.538  -0.574  -0.997  1.00  0.00     0.168 HD
ENDBRANCH   1   2
BRANCH   1  16
ATOM     16  C   UNL d   1      -4.626   0.417  -0.205  0.00  0.00     0.165 C 
BRANCH  16  17
ATOM     17  C   UNL d   1      -4.583  -0.342   1.153  0.00  0.00     0.305 C 
BRANCH  17  18
ATOM     18  N   UNL d   1      -5.655  -1.354   1.306  0.00  0.00     0.094 N 
ATOM     19  C   UNL d   1      -7.007  -0.793   1.521  0.00  0.00     0.302 C 
ATOM     20  C   UNL d   1      -7.303  -0.305   2.964  0.00  0.00     0.302 C 
ATOM     21  N   UNL d   1      -7.052  -1.321   4.014  0.00  0.00     0.093 N 
ATOM     22  C   UNL d   1      -5.677  -1.828   3.822  0.00  0.00     0.302 C 
ATOM     23  C   UNL d   1      -5.358  -2.319   2.389  0.00  0.00     0.302 C 
BRANCH  21  24
ATOM     24  C   UNL d   1      -8.086  -2.376   3.948  0.00  0.00     0.298 C 
BRANCH  24  25
ATOM     25  C   UNL d   1      -8.009  -3.456   5.037  0.00  0.00     0.194 C 
BRANCH  25  26
ATOM     26  O   UNL d   1      -9.079  -4.382   4.850  0.00  0.00    -0.399 OA
ATOM     27  H   UNL d   1      -8.975  -5.075   5.525  0.00  0.00     0.209 HD
ENDBRANCH  25  26
ENDBRANCH  24  25
ENDBRANCH  21  24
ENDBRANCH  17  18
ENDBRANCH  16  17
BRANCH  16  28
ATOM     28  O   UNL d   1      -5.752   1.316  -0.250  0.00  0.00    -0.392 OA
ATOM     29  H   UNL d   1      -5.753   1.827   0.578  0.00  0.00     0.210 HD
ENDBRANCH  16  28
ENDBRANCH   1  16
TORSDOF 8
