REMARK  2 active torsions:
REMARK  status: ('A' for Active; 'I' for Inactive)
REMARK    1  A    between atoms: C_7  and  C_4 
REMARK    2  A    between atoms: N_12  and  C_10 
ROOT
ATOM      1  C   UNL d   1      -1.211  -0.781   0.572  0.00  0.00     0.045 A 
ATOM      2  C   UNL d   1      -1.822   0.455   1.200  0.00  0.00     0.257 A 
ATOM      3  N   UNL d   1      -0.743   1.244   1.552  0.00  0.00    -0.322 N 
ATOM      4  C   UNL d   1      -1.872  -1.821   0.040  0.00  0.00     0.031 C 
ATOM      5  C   UNL d   1       0.244  -0.604   0.616  0.00  0.00     0.006 A 
ATOM      6  C   UNL d   1       0.464   0.641   1.214  0.00  0.00     0.046 A 
ATOM      7  O   UNL d   1      -2.995   0.715   1.380  0.00  0.00    -0.267 OA
ATOM      8  C   UNL d   1       1.313  -1.375   0.200  0.00  0.00     0.015 A 
ATOM      9  C   UNL d   1       1.727   1.164   1.412  0.00  0.00     0.030 A 
ATOM     10  C   UNL d   1       2.606  -0.866   0.390  0.00  0.00     0.001 A 
ATOM     11  C   UNL d   1       2.810   0.391   0.988  0.00  0.00     0.002 A 
ATOM     12  H   UNL d   1      -0.854   2.145   1.991  0.00  0.00     0.169 HD
ENDROOT
BRANCH   4  13
ATOM     13  C   UNL d   1      -3.336  -1.887  -0.033  0.00  0.00    -0.013 A 
ATOM     14  C   UNL d   1      -4.058  -1.414  -1.137  0.00  0.00     0.046 A 
ATOM     15  C   UNL d   1      -5.461  -1.422  -1.133  0.00  0.00     0.054 A 
ATOM     16 CL   UNL d   1      -3.255  -0.807  -2.548  0.00  0.00    -0.083 Cl
ATOM     17  C   UNL d   1      -6.194  -1.901  -0.038  0.00  0.00     0.031 A 
ATOM     18  C   UNL d   1      -5.447  -2.401   1.044  0.00  0.00     0.030 A 
ATOM     19  C   UNL d   1      -4.046  -2.392   1.056  0.00  0.00     0.015 A 
BRANCH  17  20
ATOM     20  N   UNL d   1      -7.587  -1.953  -0.017  0.00  0.00    -0.390 N 
ATOM     21  C   UNL d   1      -8.357  -1.749  -1.241  0.00  0.00     0.149 C 
ATOM     22  C   UNL d   1      -8.280  -1.550   1.209  0.00  0.00     0.149 C 
ENDBRANCH  17  20
ENDBRANCH   4  13
TORSDOF 2
