REMARK  4 active torsions:
REMARK  status: ('A' for Active; 'I' for Inactive)
REMARK    1  A    between atoms: N_2  and  S_1 
REMARK    2  A    between atoms: C_4  and  S_1 
REMARK    3  A    between atoms: C_3  and  C_6 
REMARK    4  A    between atoms: N_5  and  C_10 
ROOT
ATOM      1  S   UNL d   1       0.853   0.068   0.124  0.00  0.00     0.260 S 
ATOM      2  O   UNL d   1       2.303   0.036   0.073  0.00  0.00    -0.200 OA
ATOM      3  O   UNL d   1       0.140   1.298   0.404  0.00  0.00    -0.200 OA
ENDROOT
BRANCH   1   4
ATOM      4  N   UNL d   1       0.346  -1.125   1.258  0.00  0.00    -0.307 N 
ATOM      5  C   UNL d   1      -1.087  -1.068   1.631  0.00  0.00     0.137 C 
ATOM      6  C   UNL d   1      -1.398  -2.053   2.753  0.00  0.00     0.046 C 
ATOM      7  C   UNL d   1      -1.020  -3.485   2.352  0.00  0.00     0.091 C 
ATOM      8  C   UNL d   1       0.488  -3.497   2.066  0.00  0.00     0.046 C 
ATOM      9  C   UNL d   1       0.899  -2.479   1.009  0.00  0.00     0.137 C 
BRANCH   7  10
ATOM     10  N   UNL d   1      -1.890  -4.011   1.297  0.00  0.00    -0.362 N 
ATOM     11  C   UNL d   1      -1.529  -4.571   0.098  0.00  0.00     0.091 A 
ATOM     12  C   UNL d   1      -2.673  -4.848  -0.618  0.00  0.00     0.019 A 
ATOM     13  C   UNL d   1      -3.773  -4.513   0.199  0.00  0.00     0.019 A 
ATOM     14  C   UNL d   1      -3.265  -4.038   1.386  0.00  0.00     0.091 A 
ENDBRANCH   7  10
ENDBRANCH   1   4
BRANCH   1  15
ATOM     15  C   UNL d   1       0.272  -0.547  -1.456  0.00  0.00     0.080 A 
ATOM     16  C   UNL d   1       1.111  -1.374  -2.219  0.00  0.00     0.041 A 
ATOM     17  C   UNL d   1       0.694  -1.850  -3.473  0.00  0.00     0.049 A 
ATOM     18  C   UNL d   1      -0.559  -1.450  -3.963  0.00  0.00     0.016 A 
ATOM     19  C   UNL d   1      -1.376  -0.595  -3.217  0.00  0.00     0.002 A 
ATOM     20  C   UNL d   1      -0.963  -0.139  -1.963  0.00  0.00     0.025 A 
BRANCH  17  21
ATOM     21  C   UNL d   1       1.569  -2.774  -4.288  0.00  0.00     0.417 C 
ATOM     22  F   UNL d   1       2.731  -3.109  -3.663  0.00  0.00    -0.166 F 
ATOM     23  F   UNL d   1       0.950  -3.954  -4.574  0.00  0.00    -0.166 F 
ATOM     24  F   UNL d   1       1.926  -2.237  -5.486  0.00  0.00    -0.166 F 
ENDBRANCH  17  21
ENDBRANCH   1  15
TORSDOF 4
