REMARK  4 active torsions:
REMARK  status: ('A' for Active; 'I' for Inactive)
REMARK    1  A    between atoms: C_7  and  N_1 
REMARK    2  A    between atoms: S_10  and  C_2 
REMARK    3  A    between atoms: C_9  and  C_12 
REMARK    4  A    between atoms: C_12  and  S_10 
ROOT
ATOM      1  N   UNL d   1       2.472  -0.725   0.036  0.00  0.00    -0.258 N 
ATOM      2  C   UNL d   1       2.412   0.669  -0.054  0.00  0.00     0.155 A 
ATOM      3  C   UNL d   1       1.293  -1.478   0.124  0.00  0.00     0.266 A 
ATOM      4  N   UNL d   1       1.304   1.338  -0.089  0.00  0.00    -0.335 N 
ATOM      5  HN  UNL d   1       1.317   2.356  -0.149  1.00  0.00     0.168 HD
ATOM      6  C   UNL d   1       0.026  -0.738   0.055  0.00  0.00     0.059 A 
ATOM      7  C   UNL d   1       0.091   0.648  -0.043  0.00  0.00     0.049 A 
ATOM      8  O   UNL d   1       1.240  -2.705   0.224  0.00  0.00    -0.267 OA
ATOM      9  C   UNL d   1      -1.206  -1.405   0.070  0.00  0.00     0.019 A 
ATOM     10  C   UNL d   1      -1.104   1.373  -0.097  0.00  0.00     0.030 A 
ATOM     11  C   UNL d   1      -2.390  -0.674   0.004  0.00  0.00     0.001 A 
ATOM     12  C   UNL d   1      -2.338   0.717  -0.074  0.00  0.00     0.002 A 
ENDROOT
BRANCH   2  13
ATOM     13  S   UNL d   1       3.913   1.609  -0.063  0.00  0.00    -0.088 SA
BRANCH  13  14
ATOM     14  C   UNL d   1       3.309   3.195   0.571  0.00  0.00     0.124 C 
BRANCH  14  15
ATOM     15  C   UNL d   1       4.377   4.260   0.710  0.00  0.00    -0.005 A 
ATOM     16  C   UNL d   1       4.574   5.236  -0.289  0.00  0.00     0.042 A 
ATOM     17 CL   UNL d   1       3.753   5.176  -1.811  0.00  0.00    -0.084 Cl
ATOM     18  C   UNL d   1       5.444   6.317  -0.086  0.00  0.00     0.024 A 
ATOM     19  C   UNL d   1       6.160   6.432   1.101  0.00  0.00     0.003 A 
ATOM     20  C   UNL d   1       6.036   5.442   2.071  0.00  0.00     0.024 A 
ATOM     21  C   UNL d   1       5.163   4.363   1.876  0.00  0.00     0.042 A 
ATOM     22 CL   UNL d   1       5.088   3.183   3.139  0.00  0.00    -0.084 Cl
ENDBRANCH  14  15
ENDBRANCH  13  14
ENDBRANCH   2  13
BRANCH   1  23
ATOM     23  C   UNL d   1       3.699  -1.460   0.041  0.00  0.00     0.046 A 
ATOM     24  C   UNL d   1       3.993  -2.323   1.110  0.00  0.00     0.057 A 
ATOM     25  C   UNL d   1       5.177  -3.059   1.113  0.00  0.00     0.074 A 
ATOM     26 CL   UNL d   1       5.533  -4.085   2.449  0.00  0.00    -0.081 Cl
ATOM     27  C   UNL d   1       6.061  -2.956   0.042  0.00  0.00     0.138 A 
ATOM     28  C   UNL d   1       5.771  -2.127  -1.038  0.00  0.00     0.046 A 
ATOM     29  F   UNL d   1       7.205  -3.656   0.025  0.00  0.00    -0.204 F 
ATOM     30  C   UNL d   1       4.590  -1.381  -1.041  0.00  0.00     0.033 A 
ENDBRANCH   1  23
TORSDOF 4
