REMARK  2 active torsions:
REMARK  status: ('A' for Active; 'I' for Inactive)
REMARK       I    between atoms: C_4  and  N_1 
REMARK    1  A    between atoms: C_2  and  C_4 
REMARK    2  A    between atoms: C_14  and  N_10 
ROOT
ATOM      1  N   UNL d   1      -2.539   0.105   0.079  0.00  0.00    -0.278 N 
ATOM      2  C   UNL d   1      -2.153  -0.851  -0.878  0.00  0.00     0.155 C 
ATOM      3  C   UNL d   1      -3.630   0.015   0.966  0.00  0.00     0.269 C 
ATOM      4  S   UNL d   1      -0.463  -0.577  -1.271  0.00  0.00    -0.056 SA
ATOM      5  C   UNL d   1      -1.881   1.456  -0.150  0.00  0.00     0.075 C 
ATOM      6  C   UNL d   1      -0.606   1.111  -0.956  0.00  0.00     0.005 C 
ATOM      7  N   UNL d   1      -2.928  -1.739  -1.419  0.00  0.00    -0.335 N 
ATOM      8  HN  UNL d   1      -3.882  -1.847  -1.076  1.00  0.00     0.168 HD
ATOM      9  O   UNL d   1      -3.982   1.014   1.597  0.00  0.00    -0.266 OA
ATOM     10  C   UNL d   1       0.302   1.963  -1.462  0.00  0.00     0.029 C 
ATOM     11  C   UNL d   1      -2.776   2.345  -1.066  0.00  0.00     0.037 C 
ATOM     12  C   UNL d   1      -1.422   2.208   1.138  0.00  0.00     0.037 C 
ATOM     13  C   UNL d   1      -3.823   3.187  -0.347  0.00  0.00     0.003 C 
ATOM     14  C   UNL d   1      -2.364   3.253   1.751  0.00  0.00     0.003 C 
ATOM     15  C   UNL d   1      -3.203   4.038   0.751  0.00  0.00     0.000 C 
ENDROOT
BRANCH   3  16
ATOM     16  C   UNL d   1      -4.373  -1.206   1.210  0.00  0.00     0.096 C 
ATOM     17  S   UNL d   1      -3.609  -2.686   1.558  0.00  0.00    -0.082 SA
ATOM     18  C   UNL d   1      -5.112  -3.518   1.722  0.00  0.00     0.017 A 
ATOM     19  C   UNL d   1      -5.317  -4.905   1.856  0.00  0.00     0.020 A 
ATOM     20  C   UNL d   1      -6.182  -2.622   1.749  0.00  0.00     0.004 A 
ATOM     21  C   UNL d   1      -6.615  -5.384   2.062  0.00  0.00     0.001 A 
ATOM     22  C   UNL d   1      -7.684  -4.510   2.177  0.00  0.00     0.001 A 
ATOM     23  C   UNL d   1      -7.478  -3.136   2.026  0.00  0.00     0.014 A 
ATOM     24  C   UNL d   1      -5.734  -1.291   1.453  0.00  0.00     0.068 C 
ATOM     25 CL   UNL d   1      -6.846   0.028   1.391  0.00  0.00    -0.082 Cl
ENDBRANCH   3  16
BRANCH   7  26
ATOM     26  C   UNL d   1      -2.467  -2.569  -2.484  0.00  0.00     0.056 A 
ATOM     27  C   UNL d   1      -2.519  -3.974  -2.435  0.00  0.00     0.060 A 
ATOM     28 CL   UNL d   1      -3.172  -4.837  -1.097  0.00  0.00    -0.082 Cl
ATOM     29  C   UNL d   1      -2.053  -4.758  -3.503  0.00  0.00     0.026 A 
ATOM     30  C   UNL d   1      -1.528  -4.161  -4.643  0.00  0.00     0.002 A 
ATOM     31  C   UNL d   1      -1.506  -2.777  -4.736  0.00  0.00     0.002 A 
ATOM     32  C   UNL d   1      -2.001  -1.996  -3.684  0.00  0.00     0.031 A 
ENDBRANCH   7  26
TORSDOF 2
