REMARK  4 active torsions:
REMARK  status: ('A' for Active; 'I' for Inactive)
REMARK    1  A    between atoms: C_2  and  C_1 
REMARK       I    between atoms: N_11  and  C_2 
REMARK    2  A    between atoms: C_23  and  C_5 
REMARK    3  A    between atoms: C_6  and  N_14 
REMARK    4  A    between atoms: C_7  and  C_8 
ROOT
ATOM      1  C   UNL d   1       0.223  -2.641   0.403  0.00  0.00     0.258 C 
ATOM      2  N   UNL d   1      -0.637  -3.704   0.110  0.00  0.00    -0.346 N 
ATOM      3  N   UNL d   1      -2.716  -5.600  -0.377  0.00  0.00    -0.265 NA
ATOM      4  O   UNL d   1       0.390  -1.725  -0.401  0.00  0.00    -0.267 OA
ATOM      5  C   UNL d   1      -1.370  -3.689  -1.170  0.00  0.00     0.141 C 
ATOM      6  C   UNL d   1      -0.646  -5.023   0.770  0.00  0.00     0.141 C 
ATOM      7  C   UNL d   1      -2.794  -4.272  -1.026  0.00  0.00     0.117 C 
ATOM      8  C   UNL d   1      -2.095  -5.530   0.955  0.00  0.00     0.117 C 
ENDROOT
BRANCH   1   9
ATOM      9  C   UNL d   1       0.897  -2.614   1.688  0.00  0.00     0.092 C 
ATOM     10  C   UNL d   1       2.243  -2.209   2.011  0.00  0.00     0.083 C 
ATOM     11  N   UNL d   1       2.444  -2.324   3.336  0.00  0.00    -0.259 N 
ATOM     12  O   UNL d   1       1.254  -2.687   3.896  0.00  0.00    -0.241 OA
ATOM     13  HN  UNL d   1       3.323  -2.169   3.830  1.00  0.00     0.195 HD
ATOM     14  C   UNL d   1       0.316  -2.812   2.929  0.00  0.00     0.090 C 
ATOM     15  C   UNL d   1      -1.047  -3.087   3.430  0.00  0.00     0.080 C 
BRANCH  10  16
ATOM     16  C   UNL d   1       3.350  -1.717   1.175  0.00  0.00    -0.006 A 
ATOM     17  C   UNL d   1       3.516  -2.076  -0.166  0.00  0.00     0.014 A 
ATOM     18  C   UNL d   1       4.610  -1.601  -0.903  0.00  0.00     0.001 A 
ATOM     19  C   UNL d   1       5.555  -0.765  -0.309  0.00  0.00     0.000 A 
ATOM     20  C   UNL d   1       5.406  -0.393   1.022  0.00  0.00     0.001 A 
ATOM     21  C   UNL d   1       4.313  -0.863   1.754  0.00  0.00     0.014 A 
ENDBRANCH  10  16
ENDBRANCH   1   9
BRANCH   3  22
ATOM     22  C   UNL d   1      -3.910  -6.330  -0.442  0.00  0.00     0.104 A 
ATOM     23  N   UNL d   1      -4.706  -6.389   0.658  0.00  0.00    -0.354 N 
ATOM     24  C   UNL d   1      -5.830  -7.152   0.599  0.00  0.00     0.105 A 
ATOM     25  HN  UNL d   1      -4.467  -5.875   1.505  1.00  0.00     0.166 HD
ATOM     26  C   UNL d   1      -6.217  -7.890  -0.509  0.00  0.00     0.065 A 
ATOM     27  C   UNL d   1      -5.398  -7.824  -1.636  0.00  0.00     0.044 A 
ATOM     28  C   UNL d   1      -4.243  -7.044  -1.606  0.00  0.00     0.073 A 
ATOM     29 CL   UNL d   1      -3.221  -7.071  -3.004  0.00  0.00    -0.081 Cl
BRANCH  26  30
ATOM     30  C   UNL d   1      -7.455  -8.730  -0.466  0.00  0.00     0.418 C 
ATOM     31  F   UNL d   1      -7.671  -9.431  -1.614  0.00  0.00    -0.166 F 
ATOM     32  F   UNL d   1      -7.424  -9.655   0.533  0.00  0.00    -0.166 F 
ATOM     33  F   UNL d   1      -8.579  -7.994  -0.262  0.00  0.00    -0.166 F 
ENDBRANCH  26  30
ENDBRANCH   3  22
TORSDOF 4
