REMARK  5 active torsions:
REMARK  status: ('A' for Active; 'I' for Inactive)
REMARK    1  A    between atoms: C_4  and  C_1 
REMARK    2  A    between atoms: C_7  and  N_5 
REMARK    3  A    between atoms: C_8  and  C_7 
REMARK    4  A    between atoms: N_15  and  C_8 
REMARK    5  A    between atoms: O_16  and  N_10 
ROOT
ATOM      1  C   UNL d   1      -0.464  -1.043  -0.041  0.00  0.00     0.133 A 
ATOM      2  N   UNL d   1       0.847  -0.737  -0.145  0.00  0.00    -0.294 N 
ATOM      3  HN  UNL d   1       1.631  -1.376  -0.279  1.00  0.00     0.187 HD
ATOM      4  N   UNL d   1       0.885   0.610  -0.031  0.00  0.00    -0.296 N 
ATOM      5  C   UNL d   1      -1.246   0.135   0.110  0.00  0.00     0.054 A 
ATOM      6  C   UNL d   1      -0.349   1.175   0.110  0.00  0.00     0.113 A 
ENDROOT
BRANCH   4   7
ATOM      7  C   UNL d   1       2.161   1.308  -0.064  0.00  0.00     0.225 C 
BRANCH   7   8
ATOM      8  C   UNL d   1       2.879   1.250   1.281  0.00  0.00     0.115 C 
ATOM      9  N   UNL d   1       3.605   2.229   1.754  0.00  0.00    -0.256 N 
ATOM     10  HN  UNL d   1       4.101   2.191   2.645  1.00  0.00     0.195 HD
BRANCH   9  11
ATOM     11  O   UNL d   1       3.623   3.334   0.900  0.00  0.00    -0.288 OA
ATOM     12  H   UNL d   1       4.150   3.979   1.408  0.00  0.00     0.244 HD
ENDBRANCH   9  11
BRANCH   8  13
ATOM     13  N   UNL d   1       2.829   0.095   2.022  0.00  0.00    -0.386 N 
ATOM     14  H   UNL d   1       2.560  -0.758   1.536  0.00  0.00     0.157 HD
ATOM     15  H   UNL d   1       3.564  -0.004   2.712  0.00  0.00     0.157 HD
ENDBRANCH   8  13
ENDBRANCH   7   8
ENDBRANCH   4   7
BRANCH   1  16
ATOM     16  C   UNL d   1      -0.991  -2.454  -0.061  0.00  0.00     0.433 C 
ATOM     17  F   UNL d   1      -0.051  -3.384  -0.378  0.00  0.00    -0.165 F 
ATOM     18  F   UNL d   1      -1.499  -2.812   1.151  0.00  0.00    -0.165 F 
ATOM     19  F   UNL d   1      -2.004  -2.603  -0.958  0.00  0.00    -0.165 F 
ENDBRANCH   1  16
TORSDOF 5
