REMARK  7 active torsions:
REMARK  status: ('A' for Active; 'I' for Inactive)
REMARK    1  A    between atoms: N_2  and  C_1 
REMARK    2  A    between atoms: N_3  and  C_8 
REMARK    3  A    between atoms: N_5  and  O_10 
REMARK    4  A    between atoms: C_11  and  C_7 
REMARK    5  A    between atoms: C_16  and  C_7 
REMARK    6  A    between atoms: O_10  and  C_9 
REMARK    7  A    between atoms: S_19  and  C_11 
ROOT
ATOM      1  N   UNL d   1       3.107   2.010  -0.440  0.00  0.00    -0.262 N 
ATOM      2  HN  UNL d   1       2.116   2.178  -0.266  1.00  0.00     0.194 HD
ATOM      3  C   UNL d   1       3.957   2.990  -0.612  0.00  0.00     0.060 C 
ENDROOT
BRANCH   1   4
ATOM      4  O   UNL d   1       3.640   0.720  -0.508  0.00  0.00    -0.235 OA
BRANCH   4   5
ATOM      5  C   UNL d   1       2.642  -0.172  -0.837  0.00  0.00     0.132 A 
ATOM      6  C   UNL d   1       2.682  -1.508  -0.399  0.00  0.00     0.141 A 
ATOM      7  C   UNL d   1       1.712  -2.431  -0.848  0.00  0.00     0.075 A 
ATOM      8  C   UNL d   1       0.702  -2.007  -1.721  0.00  0.00     0.105 A 
ATOM      9  C   UNL d   1       0.634  -0.674  -2.134  0.00  0.00     0.039 A 
ATOM     10  C   UNL d   1       1.603   0.226  -1.696  0.00  0.00     0.044 A 
BRANCH   6  11
ATOM     11  N   UNL d   1       3.704  -1.991   0.540  0.00  0.00    -0.113 N 
ATOM     12  O   UNL d   1       3.554  -3.132   1.003  0.00  0.00    -0.532 OA
ATOM     13  O   UNL d   1       4.664  -1.259   0.818  0.00  0.00    -0.532 OA
ENDBRANCH   6  11
BRANCH   8  14
ATOM     14  N   UNL d   1      -0.284  -2.967  -2.233  0.00  0.00    -0.116 N 
ATOM     15  O   UNL d   1      -0.151  -4.154  -1.901  0.00  0.00    -0.532 OA
ATOM     16  O   UNL d   1      -1.178  -2.536  -2.971  0.00  0.00    -0.532 OA
ENDBRANCH   8  14
ENDBRANCH   4   5
ENDBRANCH   1   4
BRANCH   3  17
ATOM     17  C   UNL d   1       3.301   4.419  -0.627  0.00  0.00     0.045 C 
ATOM     18  C   UNL d   1       1.813   4.369  -0.206  0.00  0.00     0.033 C 
ATOM     19  C   UNL d   1       4.021   5.357   0.351  0.00  0.00     0.033 C 
BRANCH  17  20
ATOM     20  S   UNL d   1       3.311   5.194  -2.314  0.00  0.00    -0.158 SA
ATOM     21  C   UNL d   1       2.675   3.849  -3.347  0.00  0.00     0.091 C 
ENDBRANCH  17  20
ENDBRANCH   3  17
BRANCH   3  22
ATOM     22  C   UNL d   1       5.457   2.819  -0.785  0.00  0.00    -0.010 A 
ATOM     23  C   UNL d   1       6.202   3.590  -1.688  0.00  0.00     0.013 A 
ATOM     24  C   UNL d   1       7.574   3.375  -1.872  0.00  0.00     0.001 A 
ATOM     25  C   UNL d   1       8.226   2.379  -1.160  0.00  0.00     0.000 A 
ATOM     26  C   UNL d   1       7.511   1.617  -0.240  0.00  0.00     0.001 A 
ATOM     27  C   UNL d   1       6.145   1.849  -0.041  0.00  0.00     0.013 A 
ENDBRANCH   3  22
TORSDOF 7
