REMARK  6 active torsions:
REMARK  status: ('A' for Active; 'I' for Inactive)
REMARK    1  A    between atoms: C_2  and  C_1 
REMARK    2  A    between atoms: C_3  and  C_1 
REMARK    3  A    between atoms: N_4  and  C_1 
REMARK    4  A    between atoms: N_5  and  C_1 
REMARK    5  A    between atoms: C_6  and  N_4 
REMARK       I    between atoms: C_7  and  N_5 
REMARK    6  A    between atoms: C_20  and  C_7 
ROOT
ATOM      1  C   UNL d   1       0.847   0.131  -0.069  0.00  0.00     0.291 C 
ENDROOT
BRANCH   1   2
ATOM      2  C   UNL d   1       0.221   1.576   0.159  0.00  0.00     0.435 C 
ATOM      3  F   UNL d   1      -0.630   2.027  -0.779  0.00  0.00    -0.167 F 
ATOM      4  F   UNL d   1      -0.441   1.636   1.356  0.00  0.00    -0.167 F 
ATOM      5  F   UNL d   1       1.183   2.532   0.310  0.00  0.00    -0.167 F 
ENDBRANCH   1   2
BRANCH   1   6
ATOM      6  C   UNL d   1       0.411  -0.448  -1.490  0.00  0.00     0.435 C 
ATOM      7  F   UNL d   1      -0.461   0.295  -2.196  0.00  0.00    -0.167 F 
ATOM      8  F   UNL d   1       1.494  -0.643  -2.301  0.00  0.00    -0.167 F 
ATOM      9  F   UNL d   1      -0.122  -1.702  -1.400  0.00  0.00    -0.167 F 
ENDBRANCH   1   6
BRANCH   1  10
ATOM     10  N   UNL d   1       0.562  -0.816   1.085  0.00  0.00    -0.237 NA
ATOM     11  H   UNL d   1       0.823  -0.370   1.965  0.00  0.00     0.132 HD
BRANCH  10  12
ATOM     12  C   UNL d   1      -0.804  -1.148   1.206  0.00  0.00     0.082 A 
ATOM     13  N   UNL d   1      -1.692  -0.547   0.395  0.00  0.00    -0.357 N 
ATOM     14  C   UNL d   1      -2.995  -0.888   0.518  0.00  0.00     0.090 A 
ATOM     15  HN  UNL d   1      -1.393   0.144  -0.292  1.00  0.00     0.166 HD
ATOM     16  C   UNL d   1      -3.461  -1.825   1.421  0.00  0.00     0.024 A 
ATOM     17  C   UNL d   1      -2.538  -2.453   2.256  0.00  0.00    -0.058 A 
ATOM     18  C   UNL d   1      -1.191  -2.090   2.155  0.00  0.00     0.049 A 
ATOM     19  C   UNL d   1      -2.998  -3.498   3.227  0.00  0.00     0.048 C 
ENDBRANCH  10  12
ENDBRANCH   1  10
BRANCH   1  20
ATOM     20  N   UNL d   1       2.338   0.152   0.066  0.00  0.00    -0.324 N 
ATOM     21  C   UNL d   1       3.069   0.918  -0.816  0.00  0.00     0.219 C 
ATOM     22  O   UNL d   1       2.523   1.648  -1.637  0.00  0.00    -0.274 OA
ATOM     23  H   UNL d   1       2.754  -0.687   0.442  0.00  0.00     0.165 HD
BRANCH  21  24
ATOM     24  C   UNL d   1       4.569   0.787  -0.670  0.00  0.00     0.098 C 
ATOM     25  C   UNL d   1       5.306   1.622  -1.706  0.00  0.00     0.014 C 
ENDBRANCH  21  24
ENDBRANCH   1  20
TORSDOF 6
