REMARK  2 active torsions:
REMARK  status: ('A' for Active; 'I' for Inactive)
REMARK    1  A    between atoms: C_2  and  N_1 
REMARK    2  A    between atoms: C_15  and  C_8 
ROOT
ATOM      1  C   UNL d   1      -0.014  -2.323  -0.174  0.00  0.00     0.057 A 
ATOM      2  C   UNL d   1       0.584  -3.163   0.792  0.00  0.00    -0.034 A 
ATOM      3  C   UNL d   1      -0.627  -2.874  -1.328  0.00  0.00    -0.030 A 
ATOM      4  C   UNL d   1      -0.042  -5.102  -0.532  0.00  0.00     0.001 A 
ATOM      5  C   UNL d   1       0.565  -4.552   0.593  0.00  0.00     0.009 A 
ATOM      6  C   UNL d   1      -0.628  -4.271  -1.484  0.00  0.00     0.009 A 
ATOM      7  C   UNL d   1       1.273  -2.652   2.028  0.00  0.00     0.050 C 
ENDROOT
BRANCH   1   8
ATOM      8  N   UNL d   1      -0.003  -0.909   0.014  0.00  0.00    -0.251 N 
ATOM      9  C   UNL d   1      -1.080  -0.355   0.718  0.00  0.00     0.231 C 
ATOM     10  O   UNL d   1      -1.975  -1.010   1.256  0.00  0.00    -0.273 OA
ATOM     11  C   UNL d   1      -1.073   1.149   0.884  0.00  0.00     0.104 C 
ATOM     12  C   UNL d   1      -0.243   1.837  -0.176  0.00  0.00     0.019 C 
ATOM     13  C   UNL d   1       1.156   1.266  -0.140  0.00  0.00     0.104 C 
ATOM     14  C   UNL d   1       1.144  -0.221  -0.409  0.00  0.00     0.231 C 
ATOM     15  O   UNL d   1       2.136  -0.750  -0.909  0.00  0.00    -0.273 OA
ENDBRANCH   1   8
BRANCH   3  16
ATOM     16  C   UNL d   1      -1.212  -2.024  -2.438  0.00  0.00     0.036 C 
ATOM     17  C   UNL d   1      -2.679  -2.309  -2.735  0.00  0.00     0.010 C 
ENDBRANCH   3  16
TORSDOF 2
