REMARK  7 active torsions:
REMARK  status: ('A' for Active; 'I' for Inactive)
REMARK    1  A    between atoms: C_8  and  C_1 
REMARK    2  A    between atoms: C_7  and  C_3 
REMARK    3  A    between atoms: N_16  and  C_4 
REMARK    4  A    between atoms: O_18  and  C_8 
REMARK    5  A    between atoms: O_21  and  C_14 
REMARK    6  A    between atoms: O_20  and  C_15 
REMARK    7  A    between atoms: C_22  and  O_18 
ROOT
ATOM      1  C   UNL d   1      -1.450  -1.471  -0.052  0.00  0.00     0.060 C 
ATOM      2  C   UNL d   1       0.807  -0.341   0.163  0.00  0.00     0.080 C 
ATOM      3  C   UNL d   1       0.034  -1.653   0.249  0.00  0.00     0.108 C 
ATOM      4  C   UNL d   1       0.163   0.837   0.037  0.00  0.00     0.138 C 
ATOM      5  C   UNL d   1      -1.996  -0.236  -0.079  0.00  0.00     0.064 C 
ATOM      6  O   UNL d   1      -1.217   0.903   0.056  0.00  0.00    -0.302 OA
ATOM      7  C   UNL d   1       2.230  -0.370   0.225  0.00  0.00     0.100 C 
ATOM      8  N   UNL d   1       3.392  -0.359   0.301  0.00  0.00    -0.191 NA
ATOM      9  C   UNL d   1      -3.447   0.142  -0.215  0.00  0.00     0.077 C 
ENDROOT
BRANCH   3  10
ATOM     10  C   UNL d   1       0.721  -2.756  -0.565  0.00  0.00    -0.039 A 
ATOM     11  C   UNL d   1       1.212  -3.899   0.098  0.00  0.00     0.045 A 
ATOM     12  C   UNL d   1       1.867  -4.909  -0.608  0.00  0.00     0.071 A 
ATOM     13  C   UNL d   1       2.047  -4.776  -1.987  0.00  0.00     0.073 A 
ATOM     14  C   UNL d   1       1.561  -3.657  -2.665  0.00  0.00     0.071 A 
ATOM     15  C   UNL d   1       0.902  -2.651  -1.952  0.00  0.00     0.045 A 
BRANCH  12  16
ATOM     16  O   UNL d   1       2.368  -6.066  -0.073  0.00  0.00    -0.356 OA
ATOM     17  C   UNL d   1       2.181  -6.266   1.323  0.00  0.00     0.210 C 
ENDBRANCH  12  16
BRANCH  14  18
ATOM     18  O   UNL d   1       1.656  -3.430  -4.011  0.00  0.00    -0.356 OA
ATOM     19  C   UNL d   1       2.312  -4.427  -4.785  0.00  0.00     0.210 C 
ENDBRANCH  14  18
ENDBRANCH   3  10
BRANCH   4  20
ATOM     20  N   UNL d   1       0.749   2.073  -0.098  0.00  0.00    -0.282 NA
ATOM     21  H   UNL d   1       0.149   2.829   0.219  0.00  0.00     0.126 HD
ATOM     22  H   UNL d   1       1.718   2.157   0.192  0.00  0.00     0.126 HD
ENDBRANCH   4  20
BRANCH   1  23
ATOM     23  C   UNL d   1      -2.232  -2.717  -0.285  0.00  0.00     0.292 C 
ATOM     24  O   UNL d   1      -1.948  -3.803   0.195  0.00  0.00    -0.259 OA
BRANCH  23  25
ATOM     25  O   UNL d   1      -3.182  -2.483  -1.219  0.00  0.00    -0.318 OA
BRANCH  25  26
ATOM     26  C   UNL d   1      -3.669  -3.604  -1.966  0.00  0.00     0.174 C 
ATOM     27  C   UNL d   1      -2.949  -3.556  -3.299  0.00  0.00     0.034 C 
ENDBRANCH  25  26
ENDBRANCH  23  25
ENDBRANCH   1  23
TORSDOF 7
