REMARK  5 active torsions:
REMARK  status: ('A' for Active; 'I' for Inactive)
REMARK       I    between atoms: N_2  and  C_1 
REMARK    1  A    between atoms: O_9  and  C_1 
REMARK    2  A    between atoms: C_3  and  N_2 
REMARK    3  A    between atoms: O_11  and  C_4 
REMARK    4  A    between atoms: O_12  and  C_8 
REMARK    5  A    between atoms: C_13  and  O_9 
ROOT
ATOM      1  C   UNL d   1       0.723   2.095   1.142  0.00  0.00     0.070 A 
ATOM      2  C   UNL d   1       1.741   2.763   0.438  0.00  0.00     0.097 A 
ATOM      3  C   UNL d   1       2.328   3.926   0.955  0.00  0.00     0.075 A 
ATOM      4  C   UNL d   1       0.276   2.633   2.348  0.00  0.00     0.035 A 
ATOM      5  C   UNL d   1       1.899   4.439   2.177  0.00  0.00     0.070 A 
ATOM      6  C   UNL d   1       0.867   3.793   2.862  0.00  0.00     0.039 A 
ENDROOT
BRANCH   1   7
ATOM      7  N   UNL d   1       0.259   0.864   0.645  0.00  0.00    -0.300 N 
ATOM      8  C   UNL d   1      -0.969   0.271   0.750  0.00  0.00     0.365 C 
ATOM      9  O   UNL d   1      -1.188  -0.797   0.192  0.00  0.00    -0.238 OA
ATOM     10  H   UNL d   1       0.862   0.387  -0.010  0.00  0.00     0.171 HD
BRANCH   8  11
ATOM     11  O   UNL d   1      -1.908   1.006   1.400  0.00  0.00    -0.304 OA
BRANCH  11  12
ATOM     12  C   UNL d   1      -3.258   0.539   1.273  0.00  0.00     0.176 C 
ATOM     13  C   UNL d   1      -3.557  -0.566   2.268  0.00  0.00     0.034 C 
ENDBRANCH  11  12
ENDBRANCH   8  11
ENDBRANCH   1   7
BRANCH   2  14
ATOM     14  O   UNL d   1       2.258   2.308  -0.754  0.00  0.00    -0.354 OA
ATOM     15  C   UNL d   1       1.290   2.224  -1.804  0.00  0.00     0.210 C 
ENDBRANCH   2  14
BRANCH   5  16
ATOM     16  O   UNL d   1       2.402   5.539   2.816  0.00  0.00    -0.356 OA
ATOM     17  C   UNL d   1       3.503   6.197   2.201  0.00  0.00     0.210 C 
ENDBRANCH   5  16
TORSDOF 5
