REMARK  3 active torsions:
REMARK  status: ('A' for Active; 'I' for Inactive)
REMARK    1  A    between atoms: C_4  and  N_1 
REMARK    2  A    between atoms: C_5  and  C_11 
REMARK    3  A    between atoms: C_15  and  C_9 
ROOT
ATOM      1  N   UNL d   1      -0.008  -0.964  -0.085  0.00  0.00    -0.249 N 
ATOM      2  C   UNL d   1      -1.256  -0.334   0.018  0.00  0.00     0.232 C 
ATOM      3  C   UNL d   1       1.235  -0.333  -0.011  0.00  0.00     0.232 C 
ATOM      4  C   UNL d   1       1.246   1.162   0.145  0.00  0.00     0.113 C 
ATOM      5  C   UNL d   1      -1.228   1.134   0.364  0.00  0.00     0.113 C 
ATOM      6  C   UNL d   1      -0.050   1.837  -0.284  0.00  0.00     0.036 C 
ATOM      7  O   UNL d   1      -2.340  -0.919  -0.017  0.00  0.00    -0.273 OA
ATOM      8  O   UNL d   1       2.319  -0.926  -0.030  0.00  0.00    -0.273 OA
ENDROOT
BRANCH   6   9
ATOM      9  C   UNL d   1      -0.010   3.313   0.076  0.00  0.00    -0.053 A 
ATOM     10  C   UNL d   1      -0.129   4.289  -0.922  0.00  0.00     0.008 A 
ATOM     11  C   UNL d   1      -0.037   5.647  -0.602  0.00  0.00     0.017 A 
ATOM     12  C   UNL d   1       0.173   6.059   0.722  0.00  0.00     0.047 A 
ATOM     13  C   UNL d   1       0.280   5.085   1.722  0.00  0.00     0.017 A 
ATOM     14  C   UNL d   1       0.181   3.731   1.404  0.00  0.00     0.008 A 
BRANCH  12  15
ATOM     15  C   UNL d   1       0.281   7.518   1.088  0.00  0.00     0.417 C 
ATOM     16  F   UNL d   1       0.146   8.360   0.025  0.00  0.00    -0.166 F 
ATOM     17  F   UNL d   1      -0.667   7.899   1.989  0.00  0.00    -0.166 F 
ATOM     18  F   UNL d   1       1.480   7.825   1.657  0.00  0.00    -0.166 F 
ENDBRANCH  12  15
ENDBRANCH   6   9
BRANCH   1  19
ATOM     19  C   UNL d   1      -0.006  -2.384  -0.253  0.00  0.00     0.084 A 
ATOM     20  C   UNL d   1      -0.634  -2.973  -1.356  0.00  0.00     0.144 A 
ATOM     21  C   UNL d   1      -0.614  -4.352  -1.545  0.00  0.00     0.062 A 
ATOM     22  F   UNL d   1      -1.197  -2.203  -2.300  0.00  0.00    -0.204 F 
ATOM     23  C   UNL d   1       0.028  -5.160  -0.609  0.00  0.00     0.009 A 
ATOM     24  C   UNL d   1       0.655  -4.595   0.503  0.00  0.00     0.020 A 
ATOM     25  I   UNL d   1       0.075  -7.219  -0.879  0.00  0.00    -0.044 I 
ATOM     26  C   UNL d   1       0.648  -3.208   0.675  0.00  0.00     0.034 A 
ENDBRANCH   1  19
TORSDOF 3
