REMARK  3 active torsions:
REMARK  status: ('A' for Active; 'I' for Inactive)
REMARK    1  A    between atoms: C_3  and  S_1 
REMARK    2  A    between atoms: N_5  and  S_1 
REMARK    3  A    between atoms: C_12  and  N_5 
ROOT
ATOM      1  S   UNL d   1       1.060   0.040   0.073  0.00  0.00     0.215 S 
ATOM      2  O   UNL d   1       0.445  -0.874   1.003  0.00  0.00    -0.211 OA
ATOM      3  O   UNL d   1       2.492   0.234   0.014  0.00  0.00    -0.211 OA
ENDROOT
BRANCH   1   4
ATOM      4  C   UNL d   1       0.344   1.639   0.305  0.00  0.00     0.139 C 
ATOM      5  C   UNL d   1       0.743   2.239   1.643  0.00  0.00     0.161 C 
ATOM      6  S   UNL d   1      -0.261   3.704   1.718  0.00  0.00     0.145 S 
ATOM      7  O   UNL d   1       0.427   4.756   0.995  0.00  0.00    -0.228 OA
ATOM      8  O   UNL d   1      -0.749   3.876   3.070  0.00  0.00    -0.228 OA
ATOM      9  C   UNL d   1      -1.585   3.088   0.681  0.00  0.00     0.142 C 
ATOM     10  C   UNL d   1      -1.185   1.664   0.297  0.00  0.00     0.037 C 
ENDBRANCH   1   4
BRANCH   1  11
ATOM     11  N   UNL d   1       0.532  -0.314  -1.497  0.00  0.00    -0.211 NA
ATOM     12  H   UNL d   1       0.721   0.470  -2.121  0.00  0.00     0.140 HD
BRANCH  11  13
ATOM     13  C   UNL d   1       0.934  -1.603  -2.163  0.00  0.00     0.014 C 
ATOM     14  C   UNL d   1       0.329  -2.814  -1.453  0.00  0.00     0.032 C 
ATOM     15  C   UNL d   1       0.366  -1.534  -3.594  0.00  0.00     0.032 C 
ATOM     16  C   UNL d   1       2.458  -1.736  -2.259  0.00  0.00     0.032 C 
ENDBRANCH  11  13
ENDBRANCH   1  11
TORSDOF 3
