REMARK  2 active torsions:
REMARK  status: ('A' for Active; 'I' for Inactive)
REMARK    1  A    between atoms: C_8  and  C_1 
REMARK    2  A    between atoms: O_13  and  C_8 
ROOT
ATOM      1  C   UNL d   1      -0.239   1.494  -0.319  0.00  0.00     0.058 A 
ATOM      2  C   UNL d   1      -1.473   0.815  -0.090  0.00  0.00     0.011 A 
ATOM      3  N   UNL d   1      -0.277  -1.271  -0.194  0.00  0.00    -0.358 N 
ATOM      4  HN  UNL d   1      -0.284  -2.289  -0.136  1.00  0.00     0.166 HD
ATOM      5  C   UNL d   1      -1.414  -0.588  -0.056  0.00  0.00     0.043 A 
ATOM      6  C   UNL d   1       0.964   0.774  -0.501  0.00  0.00    -0.018 A 
ATOM      7  C   UNL d   1       0.887  -0.614  -0.409  0.00  0.00     0.017 A 
ATOM      8  C   UNL d   1      -2.739   1.433   0.109  0.00  0.00     0.057 A 
ATOM      9  C   UNL d   1      -2.580  -1.326   0.129  0.00  0.00     0.033 A 
ATOM     10  C   UNL d   1      -3.886   0.667   0.297  0.00  0.00     0.117 A 
ATOM     11  C   UNL d   1      -3.818  -0.712   0.300  0.00  0.00     0.044 A 
ATOM     12  F   UNL d   1      -5.066   1.272   0.474  0.00  0.00    -0.206 F 
ATOM     13  C   UNL d   1       2.302   1.415  -0.783  0.00  0.00     0.042 C 
ATOM     14  C   UNL d   1       2.104  -1.496  -0.518  0.00  0.00     0.057 C 
ATOM     15  C   UNL d   1       3.245   1.287   0.418  0.00  0.00     0.005 C 
ATOM     16  C   UNL d   1       3.081  -1.285   0.641  0.00  0.00     0.006 C 
ATOM     17  C   UNL d   1       3.977  -0.054   0.487  0.00  0.00     0.001 C 
ENDROOT
BRANCH   1  18
ATOM     18  C   UNL d   1      -0.259   2.979  -0.416  0.00  0.00     0.177 C 
ATOM     19  O   UNL d   1      -1.014   3.585  -1.156  0.00  0.00    -0.646 OA
BRANCH  18  20
ATOM     20  O   UNL d   1       0.591   3.587   0.429  0.00  0.00    -0.773 OA
ATOM     21  H   UNL d   1       1.093   2.995   1.018  0.00  0.00     0.167 HD
ENDBRANCH  18  20
ENDBRANCH   1  18
TORSDOF 2
