REMARK  4 active torsions:
REMARK  status: ('A' for Active; 'I' for Inactive)
REMARK    1  A    between atoms: C_9  and  N_3 
REMARK    2  A    between atoms: O_10  and  C_5 
REMARK    3  A    between atoms: C_14  and  C_9 
REMARK    4  A    between atoms: O_13  and  C_14 
ROOT
ATOM      1  N   UNL d   1       2.395  -0.706   0.041  0.00  0.00    -0.274 N 
ATOM      2  HN  UNL d   1       3.278  -1.218   0.062  1.00  0.00     0.189 HD
ATOM      3  N   UNL d   1       2.365   0.673   0.017  0.00  0.00    -0.253 N 
ATOM      4  C   UNL d   1       1.189   1.427  -0.025  0.00  0.00     0.273 A 
ATOM      5  C   UNL d   1       1.263  -1.322   0.036  0.00  0.00     0.166 A 
ATOM      6  C   UNL d   1      -0.085   0.678  -0.008  0.00  0.00     0.048 A 
ATOM      7  C   UNL d   1      -0.058  -0.710   0.014  0.00  0.00     0.032 A 
ATOM      8  O   UNL d   1       1.162   2.655  -0.074  0.00  0.00    -0.266 OA
ATOM      9  C   UNL d   1      -1.311   1.353  -0.033  0.00  0.00     0.018 A 
ATOM     10  C   UNL d   1      -1.249  -1.444   0.003  0.00  0.00     0.017 A 
ATOM     11  C   UNL d   1      -2.503   0.626  -0.043  0.00  0.00     0.001 A 
ATOM     12  C   UNL d   1      -2.472  -0.770  -0.028  0.00  0.00     0.001 A 
ENDROOT
BRANCH   3  13
ATOM     13  C   UNL d   1       3.657   1.346  -0.096  0.00  0.00     0.178 C 
BRANCH  13  14
ATOM     14  C   UNL d   1       4.000   2.222   1.108  0.00  0.00     0.186 C 
BRANCH  14  15
ATOM     15  O   UNL d   1       5.298   2.792   0.938  0.00  0.00    -0.399 OA
ATOM     16  H   UNL d   1       5.412   3.444   1.651  0.00  0.00     0.209 HD
ENDBRANCH  14  15
ENDBRANCH  13  14
ENDBRANCH   3  13
BRANCH   5  17
ATOM     17  O   UNL d   1       1.259  -2.661   0.045  0.00  0.00    -0.344 OA
ATOM     18  H   UNL d   1       2.186  -2.957   0.042  0.00  0.00     0.219 HD
ENDBRANCH   5  17
TORSDOF 4
