REMARK  5 active torsions:
REMARK  status: ('A' for Active; 'I' for Inactive)
REMARK    1  A    between atoms: C_5  and  C_1 
REMARK       I    between atoms: C_2  and  N_3 
REMARK    2  A    between atoms: C_13  and  C_2 
REMARK    3  A    between atoms: N_3  and  C_4 
REMARK    4  A    between atoms: O_12  and  C_9 
REMARK    5  A    between atoms: C_10  and  O_12 
ROOT
ATOM      1  C   UNL d   1      -0.114  -1.341   3.150  0.00  0.00     0.069 A 
ATOM      2  C   UNL d   1       0.466  -1.224   0.775  0.00  0.00     0.050 A 
ATOM      3  C   UNL d   1       0.041  -2.741   3.095  0.00  0.00     0.102 A 
ATOM      4  C   UNL d   1       0.059  -0.604   1.971  0.00  0.00     0.048 A 
ATOM      5  C   UNL d   1       0.677  -2.609   0.762  0.00  0.00     0.019 A 
ATOM      6  C   UNL d   1       0.458  -3.364   1.913  0.00  0.00     0.040 A 
ENDROOT
BRANCH   3   7
ATOM      7  O   UNL d   1      -0.095  -3.580   4.181  0.00  0.00    -0.308 OA
BRANCH   7   8
ATOM      8  C   UNL d   1      -1.283  -3.620   4.879  0.00  0.00     0.077 A 
ATOM      9  C   UNL d   1      -2.499  -3.098   4.443  0.00  0.00     0.045 A 
ATOM     10  C   UNL d   1      -3.613  -3.067   5.301  0.00  0.00    -0.037 A 
ATOM     11  C   UNL d   1      -4.863  -2.369   4.836  0.00  0.00     0.050 C 
ATOM     12  C   UNL d   1      -3.517  -3.652   6.581  0.00  0.00     0.046 A 
ATOM     13  C   UNL d   1      -2.313  -4.243   7.006  0.00  0.00    -0.037 A 
ATOM     14 CL   UNL d   1      -4.899  -3.620   7.628  0.00  0.00    -0.083 Cl
ATOM     15  C   UNL d   1      -1.203  -4.209   6.144  0.00  0.00     0.045 A 
ATOM     16  C   UNL d   1      -2.120  -4.891   8.350  0.00  0.00     0.050 C 
ENDBRANCH   7   8
ENDBRANCH   3   7
BRANCH   1  17
ATOM     17  N   UNL d   1      -0.380  -0.726   4.396  0.00  0.00    -0.322 N 
ATOM     18  C   UNL d   1      -0.695   0.600   4.656  0.00  0.00     0.255 C 
ATOM     19  O   UNL d   1      -0.857   1.467   3.800  0.00  0.00    -0.270 OA
ATOM     20  H   UNL d   1      -0.378  -1.348   5.200  0.00  0.00     0.169 HD
BRANCH  18  21
ATOM     21  C   UNL d   1      -0.798   0.961   6.140  0.00  0.00     0.270 C 
ATOM     22 CL   UNL d   1      -1.544  -0.351   7.079  0.00  0.00    -0.098 Cl
ATOM     23 CL   UNL d   1       0.835   1.300   6.747  0.00  0.00    -0.098 Cl
ENDBRANCH  18  21
ENDBRANCH   1  17
BRANCH   2  24
ATOM     24  C   UNL d   1       0.740  -0.404  -0.464  0.00  0.00     0.417 C 
ATOM     25  F   UNL d   1       0.339   0.893  -0.368  0.00  0.00    -0.166 F 
ATOM     26  F   UNL d   1       0.121  -0.904  -1.569  0.00  0.00    -0.166 F 
ATOM     27  F   UNL d   1       2.068  -0.363  -0.767  0.00  0.00    -0.166 F 
ENDBRANCH   2  24
TORSDOF 5
