REMARK  3 active torsions:
REMARK  status: ('A' for Active; 'I' for Inactive)
REMARK    1  A    between atoms: C_3  and  N_1 
REMARK    2  A    between atoms: N_2  and  C_4 
REMARK    3  A    between atoms: C_8  and  C_11 
ROOT
ATOM      1  C   UNL d   1       0.338  -0.518  -0.996  0.00  0.00     0.103 A 
ATOM      2  C   UNL d   1       0.812  -1.802  -1.311  0.00  0.00     0.047 A 
ATOM      3  C   UNL d   1       0.178  -2.559  -2.306  0.00  0.00    -0.032 A 
ATOM      4  C   UNL d   1      -0.771   0.019  -1.658  0.00  0.00     0.036 A 
ATOM      5  C   UNL d   1      -1.411  -0.739  -2.637  0.00  0.00     0.003 A 
ATOM      6  C   UNL d   1      -0.943  -2.018  -2.954  0.00  0.00     0.011 A 
ENDROOT
BRANCH   3   7
ATOM      7  C   UNL d   1       0.606  -3.925  -2.647  0.00  0.00     0.035 C 
ATOM      8  C   UNL d   1       1.876  -4.343  -2.560  0.00  0.00     0.168 C 
BRANCH   8   9
ATOM      9  N   UNL d   1       2.214  -5.706  -2.899  0.00  0.00    -0.127 N 
ATOM     10  O   UNL d   1       1.315  -6.474  -3.264  0.00  0.00    -0.532 OA
ATOM     11  O   UNL d   1       3.409  -6.004  -2.789  0.00  0.00    -0.532 OA
ENDBRANCH   8   9
ENDBRANCH   3   7
BRANCH   1  12
ATOM     12  N   UNL d   1       1.013   0.264   0.047  0.00  0.00    -0.116 N 
ATOM     13  O   UNL d   1       1.990  -0.252   0.611  0.00  0.00    -0.532 OA
ATOM     14  O   UNL d   1       0.570   1.392   0.301  0.00  0.00    -0.532 OA
ENDBRANCH   1  12
TORSDOF 3
