REMARK  4 active torsions:
REMARK  status: ('A' for Active; 'I' for Inactive)
REMARK       I    between atoms: C_2  and  N_7 
REMARK    1  A    between atoms: C_3  and  C_2 
REMARK    2  A    between atoms: C_4  and  C_6 
REMARK    3  A    between atoms: O_13  and  C_4 
REMARK    4  A    between atoms: N_7  and  C_8 
ROOT
ATOM      1  N   UNL d   1      -2.645  -1.113  -0.156  0.00  0.00    -0.191 NA
ATOM      2  C   UNL d   1      -1.520  -0.845  -0.041  0.00  0.00     0.099 C 
ATOM      3  C   UNL d   1       1.625   1.160   0.139  0.00  0.00     0.036 A 
ATOM      4  C   UNL d   1      -0.130  -0.520   0.081  0.00  0.00     0.046 A 
ATOM      5  C   UNL d   1       0.270   0.822   0.097  0.00  0.00     0.052 A 
ATOM      6  C   UNL d   1       2.178  -1.207   0.240  0.00  0.00     0.004 A 
ATOM      7  C   UNL d   1       2.575   0.134   0.237  0.00  0.00     0.029 A 
ATOM      8  C   UNL d   1       0.827  -1.535   0.146  0.00  0.00     0.023 A 
ENDROOT
BRANCH   3   9
ATOM      9  N   UNL d   1       2.105   2.486   0.037  0.00  0.00    -0.324 N 
ATOM     10  C   UNL d   1       1.348   3.617  -0.191  0.00  0.00     0.245 C 
ATOM     11  O   UNL d   1       0.128   3.695  -0.246  0.00  0.00    -0.268 OA
ATOM     12  H   UNL d   1       3.112   2.591   0.051  0.00  0.00     0.169 HD
BRANCH  10  13
ATOM     13  C   UNL d   1       2.180   4.827  -0.407  0.00  0.00     0.081 C 
ATOM     14  C   UNL d   1       1.566   5.984  -0.700  0.00  0.00     0.086 C 
BRANCH  14  15
ATOM     15  C   UNL d   1       2.383   7.184  -0.924  0.00  0.00     0.165 C 
ATOM     16  O   UNL d   1       3.602   7.199  -0.882  0.00  0.00    -0.647 OA
BRANCH  15  17
ATOM     17  O   UNL d   1       1.635   8.273  -1.179  0.00  0.00    -0.773 OA
ATOM     18  H   UNL d   1       0.669   8.134  -1.178  0.00  0.00     0.167 HD
ENDBRANCH  15  17
ENDBRANCH  14  15
ENDBRANCH  10  13
ENDBRANCH   3   9
TORSDOF 4
