REMARK  2 active torsions:
REMARK  status: ('A' for Active; 'I' for Inactive)
REMARK    1  A    between atoms: N_5  and  C_1 
REMARK    2  A    between atoms: C_4  and  C_6 
ROOT
ATOM      1  C   UNL d   1       0.156   1.366  -0.090  0.00  0.00     0.160 A 
ATOM      2  N   UNL d   1       0.248   0.939  -1.359  0.00  0.00    -0.329 N 
ATOM      3  HN  UNL d   1       0.283   1.611  -2.126  1.00  0.00     0.168 HD
ATOM      4  C   UNL d   1       0.295  -0.393  -1.616  0.00  0.00     0.120 A 
ATOM      5  N   UNL d   1       0.116   0.501   0.935  0.00  0.00    -0.343 N 
ATOM      6  HN  UNL d   1       0.055   0.835   1.897  1.00  0.00     0.167 HD
ATOM      7  C   UNL d   1       0.247  -1.327  -0.604  0.00  0.00     0.051 A 
ATOM      8  C   UNL d   1       0.158  -0.817   0.665  0.00  0.00     0.093 A 
ENDROOT
BRANCH   1   9
ATOM      9  N   UNL d   1       0.147   2.743   0.164  0.00  0.00    -0.253 NA
ATOM     10  C   UNL d   1      -0.571   3.133   1.379  0.00  0.00     0.100 C 
ATOM     11  C   UNL d   1       0.190   4.184   2.182  0.00  0.00     0.045 C 
ATOM     12  C   UNL d   1       0.638   5.447   1.448  0.00  0.00     0.270 C 
ATOM     13  N   UNL d   1      -0.089   5.796   0.232  0.00  0.00     0.084 N 
ATOM     14  C   UNL d   1       0.395   5.009  -0.911  0.00  0.00     0.284 C 
ATOM     15  H   UNL d   1      -1.089   5.657   0.356  0.00  0.00     0.315 HD
ATOM     16  C   UNL d   1      -0.126   3.563  -1.031  0.00  0.00     0.128 C 
ENDBRANCH   1   9
BRANCH   4  17
ATOM     17  C   UNL d   1       0.407  -0.860  -3.055  0.00  0.00     0.432 C 
ATOM     18  F   UNL d   1       0.438   0.147  -3.973  0.00  0.00    -0.165 F 
ATOM     19  F   UNL d   1       1.531  -1.601  -3.277  0.00  0.00    -0.165 F 
ATOM     20  F   UNL d   1      -0.635  -1.663  -3.422  0.00  0.00    -0.165 F 
ENDBRANCH   4  17
TORSDOF 2
