REMARK  6 active torsions:
REMARK  status: ('A' for Active; 'I' for Inactive)
REMARK    1  A    between atoms: N_2  and  S_1 
REMARK    2  A    between atoms: C_4  and  S_1 
REMARK    3  A    between atoms: C_10  and  N_2 
REMARK    4  A    between atoms: N_3  and  C_13 
REMARK    5  A    between atoms: O_14  and  C_5 
REMARK    6  A    between atoms: C_21  and  O_14 
ROOT
ATOM      1  C   UNL d   1       0.469  -1.071   1.352  0.00  0.00     0.083 A 
ATOM      2  C   UNL d   1      -0.304  -2.924   3.300  0.00  0.00     0.119 A 
ATOM      3  C   UNL d   1      -0.353  -1.546   3.565  0.00  0.00     0.071 A 
ATOM      4  C   UNL d   1       0.065  -3.357   2.016  0.00  0.00     0.071 A 
ATOM      5  C   UNL d   1       0.031  -0.618   2.596  0.00  0.00     0.052 A 
ATOM      6  C   UNL d   1       0.474  -2.435   1.049  0.00  0.00     0.052 A 
ATOM      7 CL   UNL d   1      -0.011  -5.015   1.532  0.00  0.00    -0.081 Cl
ATOM      8 CL   UNL d   1      -0.908  -0.943   5.086  0.00  0.00    -0.081 Cl
ENDROOT
BRANCH   1   9
ATOM      9  S   UNL d   1       0.956   0.097   0.106  0.00  0.00     0.264 S 
ATOM     10  O   UNL d   1       0.359  -0.334  -1.137  0.00  0.00    -0.200 OA
ATOM     11  O   UNL d   1       0.762   1.423   0.644  0.00  0.00    -0.200 OA
BRANCH   9  12
ATOM     12  N   UNL d   1       2.592  -0.184  -0.020  0.00  0.00    -0.270 N 
ATOM     13  H   UNL d   1       2.829  -0.643  -0.895  0.00  0.00     0.180 HD
BRANCH  12  14
ATOM     14  C   UNL d   1       3.602   0.156   0.881  0.00  0.00     0.080 C 
ATOM     15  N   UNL d   1       3.398   0.825   1.959  0.00  0.00    -0.389 N 
ATOM     16  H   UNL d   1       2.428   1.151   2.009  0.00  0.00     0.157 HD
ATOM     17  HN  UNL d   1       4.107   1.007   2.669  1.00  0.00     0.157 HD
ATOM     18  C   UNL d   1       4.988  -0.308   0.538  0.00  0.00     0.089 C 
ENDBRANCH  12  14
ENDBRANCH   9  12
ENDBRANCH   1   9
BRANCH   2  19
ATOM     19  O   UNL d   1      -0.749  -3.771   4.289  0.00  0.00    -0.307 OA
BRANCH  19  20
ATOM     20  C   UNL d   1       0.077  -4.764   4.768  0.00  0.00     0.076 A 
ATOM     21  C   UNL d   1       1.465  -4.823   4.604  0.00  0.00     0.040 A 
ATOM     22  C   UNL d   1       2.176  -5.941   5.058  0.00  0.00     0.039 A 
ATOM     23  C   UNL d   1       1.496  -6.977   5.714  0.00  0.00     0.103 A 
ATOM     24  C   UNL d   1       0.119  -6.889   5.946  0.00  0.00     0.039 A 
ATOM     25  C   UNL d   1      -0.583  -5.779   5.471  0.00  0.00     0.040 A 
BRANCH  23  26
ATOM     26  N   UNL d   1       2.231  -8.173   6.146  0.00  0.00    -0.116 N 
ATOM     27  O   UNL d   1       1.614  -9.023   6.803  0.00  0.00    -0.532 OA
ATOM     28  O   UNL d   1       3.423  -8.265   5.819  0.00  0.00    -0.532 OA
ENDBRANCH  23  26
ENDBRANCH  19  20
ENDBRANCH   2  19
TORSDOF 6
