REMARK  5 active torsions:
REMARK  status: ('A' for Active; 'I' for Inactive)
REMARK    1  A    between atoms: C_2  and  C_1 
REMARK    2  A    between atoms: C_10  and  C_2 
REMARK    3  A    between atoms: C_15  and  N_3 
REMARK    4  A    between atoms: C_12  and  C_10 
REMARK    5  A    between atoms: N_19  and  C_11 
ROOT
ATOM      1  C   UNL d   1      -0.580  -2.920   0.324  0.00  0.00     0.077 C 
ATOM      2  C   UNL d   1       0.542  -3.667   0.226  0.00  0.00     0.104 C 
ENDROOT
BRANCH   1   3
ATOM      3  C   UNL d   1      -1.857  -3.476   0.116  0.00  0.00     0.160 A 
ATOM      4  N   UNL d   1      -2.644  -4.058   1.120  0.00  0.00    -0.222 N 
ATOM      5  N   UNL d   1      -3.794  -4.475   0.520  0.00  0.00    -0.219 N 
ATOM      6  N   UNL d   1      -3.711  -4.143  -0.754  0.00  0.00    -0.226 N 
ATOM      7  HN  UNL d   1      -4.574  -4.954   0.972  1.00  0.00     0.210 HD
ATOM      8  N   UNL d   1      -2.537  -3.518  -1.019  0.00  0.00    -0.267 N 
ATOM      9  HN  UNL d   1      -4.433  -4.332  -1.449  1.00  0.00     0.210 HD
ATOM     10  HN  UNL d   1      -2.235  -3.151  -1.921  1.00  0.00     0.190 HD
BRANCH   4  11
ATOM     11  C   UNL d   1      -2.493  -4.233   2.531  0.00  0.00     0.060 A 
ATOM     12  C   UNL d   1      -1.381  -3.780   3.250  0.00  0.00     0.031 A 
ATOM     13  C   UNL d   1      -1.284  -4.017   4.626  0.00  0.00     0.002 A 
ATOM     14  C   UNL d   1      -2.293  -4.699   5.306  0.00  0.00     0.000 A 
ATOM     15  C   UNL d   1      -3.418  -5.126   4.611  0.00  0.00     0.002 A 
ATOM     16  C   UNL d   1      -3.522  -4.889   3.238  0.00  0.00     0.031 A 
ENDBRANCH   4  11
ENDBRANCH   1   3
BRANCH   1  17
ATOM     17  C   UNL d   1      -0.375  -1.430   0.475  0.00  0.00     0.197 C 
ATOM     18  O   UNL d   1       0.739  -0.947   0.674  0.00  0.00    -0.286 OA
BRANCH  17  19
ATOM     19  C   UNL d   1      -1.504  -0.473   0.336  0.00  0.00     0.017 A 
ATOM     20  C   UNL d   1      -2.717  -0.626   1.009  0.00  0.00     0.041 A 
ATOM     21  C   UNL d   1      -3.745   0.309   0.836  0.00  0.00     0.056 A 
ATOM     22 CL   UNL d   1      -5.237   0.008   1.655  0.00  0.00    -0.083 Cl
ATOM     23  C   UNL d   1      -3.541   1.438   0.035  0.00  0.00     0.055 A 
ATOM     24  C   UNL d   1      -2.305   1.627  -0.588  0.00  0.00     0.026 A 
ATOM     25 CL   UNL d   1      -4.760   2.637  -0.203  0.00  0.00    -0.083 Cl
ATOM     26  C   UNL d   1      -1.291   0.676  -0.440  0.00  0.00     0.017 A 
ENDBRANCH  17  19
ENDBRANCH   1  17
BRANCH   2  27
ATOM     27  N   UNL d   1       0.816  -5.014  -0.027  0.00  0.00    -0.398 N 
ATOM     28  C   UNL d   1       2.205  -5.472  -0.188  0.00  0.00     0.148 C 
ATOM     29  C   UNL d   1      -0.179  -6.018  -0.406  0.00  0.00     0.148 C 
ENDBRANCH   2  27
TORSDOF 5
