REMARK  5 active torsions:
REMARK  status: ('A' for Active; 'I' for Inactive)
REMARK    1  A    between atoms: C_12  and  N_1 
REMARK    2  A    between atoms: C_2  and  C_16 
REMARK       I    between atoms: N_4  and  C_2 
REMARK    3  A    between atoms: C_7  and  N_4 
REMARK    4  A    between atoms: C_13  and  N_18 
REMARK    5  A    between atoms: N_18  and  C_14 
ROOT
ATOM      1  C   UNL d   1      -8.831  -1.511   2.669  0.00  0.00     0.140 C 
ATOM      2  C   UNL d   1      -9.649  -0.756   1.794  0.00  0.00     0.112 C 
ATOM      3  C   UNL d   1      -9.341  -2.724   3.222  0.00  0.00     0.112 C 
ATOM      4  N   UNL d   1     -10.309  -0.123   1.071  0.00  0.00    -0.191 NA
ATOM      5  N   UNL d   1      -9.723  -3.708   3.697  0.00  0.00    -0.191 NA
ATOM      6  C   UNL d   1      -7.580  -1.123   2.977  0.00  0.00     0.123 C 
ENDROOT
BRANCH   6   7
ATOM      7  N   UNL d   1      -6.873   0.003   2.615  0.00  0.00    -0.350 N 
ATOM      8  H   UNL d   1      -7.385   0.824   2.301  0.00  0.00     0.166 HD
BRANCH   7   9
ATOM      9  C   UNL d   1      -5.559   0.332   2.981  0.00  0.00     0.106 A 
ATOM     10  N   UNL d   1      -5.237   1.646   2.986  0.00  0.00    -0.329 N 
ATOM     11  C   UNL d   1      -3.962   1.978   3.295  0.00  0.00     0.109 A 
ATOM     12  HN  UNL d   1      -5.930   2.361   2.766  1.00  0.00     0.169 HD
ATOM     13  C   UNL d   1      -3.019   1.048   3.717  0.00  0.00     0.049 A 
ATOM     14  C   UNL d   1      -3.352  -0.294   3.701  0.00  0.00     0.007 A 
ATOM     15  C   UNL d   1      -4.627  -0.657   3.299  0.00  0.00     0.049 A 
BRANCH  11  16
ATOM     16  N   UNL d   1      -3.625   3.330   3.118  0.00  0.00    -0.309 N 
ATOM     17  C   UNL d   1      -2.372   3.725   2.681  0.00  0.00     0.257 C 
ATOM     18  O   UNL d   1      -1.444   2.959   2.430  0.00  0.00    -0.267 OA
ATOM     19  H   UNL d   1      -4.423   3.926   2.953  0.00  0.00     0.170 HD
BRANCH  17  20
ATOM     20  C   UNL d   1      -2.147   5.175   2.424  0.00  0.00     0.032 A 
ATOM     21  C   UNL d   1      -2.939   6.189   2.975  0.00  0.00     0.019 A 
ATOM     22  C   UNL d   1      -2.630   7.533   2.723  0.00  0.00     0.037 A 
ATOM     23  C   UNL d   1      -1.522   7.860   1.924  0.00  0.00     0.102 A 
ATOM     24  C   UNL d   1      -0.721   6.854   1.375  0.00  0.00     0.037 A 
ATOM     25  C   UNL d   1      -1.038   5.519   1.627  0.00  0.00     0.019 A 
BRANCH  23  26
ATOM     26  N   UNL d   1      -1.192   9.268   1.665  0.00  0.00    -0.116 N 
ATOM     27  O   UNL d   1      -0.174   9.509   1.000  0.00  0.00    -0.532 OA
ATOM     28  O   UNL d   1      -1.954  10.129   2.127  0.00  0.00    -0.532 OA
ENDBRANCH  23  26
ENDBRANCH  17  20
ENDBRANCH  11  16
ENDBRANCH   7   9
ENDBRANCH   6   7
TORSDOF 5
