REMARK  5 active torsions:
REMARK  status: ('A' for Active; 'I' for Inactive)
REMARK    1  A    between atoms: O_5  and  C_1 
REMARK    2  A    between atoms: C_2  and  N_3 
REMARK    3  A    between atoms: N_9  and  C_2 
REMARK    4  A    between atoms: N_3  and  C_10 
REMARK    5  A    between atoms: C_11  and  O_5 
ROOT
ATOM      1  C   UNL d   1       1.923   4.609  -1.654  0.00  0.00     0.034 A 
ATOM      2  C   UNL d   1       0.963   1.965  -1.343  0.00  0.00     0.078 A 
ATOM      3  C   UNL d   1       0.587   4.290  -1.925  0.00  0.00     0.032 A 
ATOM      4  C   UNL d   1       2.750   3.601  -1.164  0.00  0.00     0.032 A 
ATOM      5  C   UNL d   1       0.113   2.985  -1.766  0.00  0.00     0.039 A 
ATOM      6  C   UNL d   1       2.273   2.287  -1.004  0.00  0.00     0.039 A 
ENDROOT
BRANCH   1   7
ATOM      7  N   UNL d   1       2.304   5.949  -1.905  0.00  0.00    -0.334 N 
ATOM      8  H   UNL d   1       1.560   6.527  -2.262  0.00  0.00     0.168 HD
BRANCH   7   9
ATOM      9  C   UNL d   1       3.514   6.602  -1.876  0.00  0.00     0.169 C 
ATOM     10  S   UNL d   1       5.055   6.060  -1.601  0.00  0.00    -0.041 SA
BRANCH   9  11
ATOM     11  N   UNL d   1       3.367   7.932  -2.180  0.00  0.00    -0.376 N 
ATOM     12  H   UNL d   1       2.496   8.416  -2.015  0.00  0.00     0.158 HD
ATOM     13  H   UNL d   1       4.205   8.498  -2.109  0.00  0.00     0.158 HD
ENDBRANCH   9  11
ENDBRANCH   7   9
ENDBRANCH   1   7
BRANCH   2  14
ATOM     14  O   UNL d   1       0.391   0.731  -1.307  0.00  0.00    -0.255 OA
BRANCH  14  15
ATOM     15  C   UNL d   1       1.238  -0.404  -1.317  0.00  0.00     0.530 C 
ATOM     16  F   UNL d   1       2.344  -0.230  -2.071  0.00  0.00    -0.144 F 
ATOM     17  F   UNL d   1       0.546  -1.444  -1.838  0.00  0.00    -0.144 F 
ATOM     18  F   UNL d   1       1.598  -0.734  -0.058  0.00  0.00    -0.144 F 
ENDBRANCH  14  15
ENDBRANCH   2  14
TORSDOF 5
