REMARK  6 active torsions:
REMARK  status: ('A' for Active; 'I' for Inactive)
REMARK    1  A    between atoms: C_22  and  N_1 
REMARK    2  A    between atoms: C_3  and  C_2 
REMARK    3  A    between atoms: S_17  and  C_6 
REMARK    4  A    between atoms: C_9  and  C_19 
REMARK    5  A    between atoms: C_18  and  C_12 
REMARK    6  A    between atoms: C_19  and  S_17 
ROOT
ATOM      1  C   UNL d   1       2.279  -1.337  -0.070  0.00  0.00     0.091 C 
ATOM      2  C   UNL d   1       2.463  -0.914   1.206  0.00  0.00     0.039 C 
ATOM      3  C   UNL d   1       2.545  -0.449  -1.174  0.00  0.00     0.103 C 
ATOM      4  N   UNL d   1       2.735   0.285  -2.055  0.00  0.00    -0.191 NA
ENDROOT
BRANCH   1   5
ATOM      5  C   UNL d   1       2.178  -2.742  -0.359  0.00  0.00     0.150 A 
ATOM      6  N   UNL d   1       1.002  -3.547  -0.422  0.00  0.00    -0.274 N 
ATOM      7  C   UNL d   1       1.492  -4.792  -0.856  0.00  0.00     0.168 A 
ATOM      8  N   UNL d   1       2.812  -4.737  -0.908  0.00  0.00    -0.278 N 
ATOM      9  N   UNL d   1       3.225  -3.495  -0.602  0.00  0.00    -0.282 N 
ATOM     10  HN  UNL d   1       3.423  -5.518  -1.145  1.00  0.00     0.189 HD
ATOM     11  HN  UNL d   1       4.197  -3.187  -0.564  1.00  0.00     0.188 HD
BRANCH   6  12
ATOM     12  C   UNL d   1      -0.324  -3.163  -0.035  0.00  0.00     0.043 A 
ATOM     13  C   UNL d   1      -0.768  -1.853  -0.260  0.00  0.00     0.030 A 
ATOM     14  C   UNL d   1      -2.033  -1.432   0.184  0.00  0.00     0.002 A 
ATOM     15  C   UNL d   1      -2.870  -2.318   0.853  0.00  0.00     0.000 A 
ATOM     16  C   UNL d   1      -2.446  -3.632   1.066  0.00  0.00     0.002 A 
ATOM     17  C   UNL d   1      -1.181  -4.054   0.630  0.00  0.00     0.030 A 
ENDBRANCH   6  12
BRANCH   7  18
ATOM     18  S   UNL d   1       0.814  -6.343  -1.264  0.00  0.00    -0.087 SA
BRANCH  18  19
ATOM     19  C   UNL d   1      -0.858  -6.366  -1.920  0.00  0.00     0.122 C 
BRANCH  19  20
ATOM     20  C   UNL d   1      -1.448  -7.780  -2.237  0.00  0.00    -0.035 C 
ATOM     21  C   UNL d   1      -1.643  -8.761  -1.213  0.00  0.00    -0.048 C 
ATOM     22  C   UNL d   1      -2.511  -9.880  -1.416  0.00  0.00    -0.049 C 
ATOM     23  C   UNL d   1      -0.830  -8.670   0.062  0.00  0.00     0.049 C 
ATOM     24  C   UNL d   1      -2.714 -10.895  -0.308  0.00  0.00     0.049 C 
ATOM     25  C   UNL d   1      -3.257  -9.985  -2.617  0.00  0.00    -0.049 C 
ATOM     26  C   UNL d   1      -2.976  -9.087  -3.680  0.00  0.00    -0.049 C 
ATOM     27  C   UNL d   1      -4.327 -11.041  -2.810  0.00  0.00     0.049 C 
ATOM     28  C   UNL d   1      -1.999  -8.062  -3.521  0.00  0.00    -0.048 C 
ATOM     29  C   UNL d   1      -3.789  -9.195  -4.961  0.00  0.00     0.049 C 
ATOM     30  C   UNL d   1      -1.489  -7.351  -4.754  0.00  0.00     0.049 C 
ENDBRANCH  19  20
ENDBRANCH  18  19
ENDBRANCH   7  18
ENDBRANCH   1   5
BRANCH   2  31
ATOM     31  C   UNL d   1       2.910   0.455   1.559  0.00  0.00    -0.013 A 
ATOM     32  C   UNL d   1       2.037   1.544   1.715  0.00  0.00     0.045 A 
ATOM     33  C   UNL d   1       2.530   2.843   1.896  0.00  0.00     0.048 A 
ATOM     34 CL   UNL d   1       0.323   1.332   1.671  0.00  0.00    -0.083 Cl
ATOM     35  C   UNL d   1       3.906   3.063   1.934  0.00  0.00     0.035 A 
ATOM     36  C   UNL d   1       4.789   1.993   1.822  0.00  0.00     0.024 A 
ATOM     37 CL   UNL d   1       4.514   4.663   2.103  0.00  0.00    -0.084 Cl
ATOM     38  C   UNL d   1       4.295   0.695   1.640  0.00  0.00     0.015 A 
ENDBRANCH   2  31
TORSDOF 6
