REMARK  1 active torsions:
REMARK  status: ('A' for Active; 'I' for Inactive)
REMARK    1  A    between atoms: C_6  and  N_1 
ROOT
ATOM      1  C   UNL d   1       3.248  -1.050   0.607  0.00  0.00     0.095 A 
ATOM      2  C   UNL d   1       2.082  -1.461  -0.076  0.00  0.00     0.079 A 
ATOM      3  C   UNL d   1       3.251   0.044   1.547  0.00  0.00     0.103 C 
ATOM      4  N   UNL d   1       3.292   0.881   2.348  0.00  0.00    -0.191 NA
ATOM      5  C   UNL d   1       4.423  -1.806   0.440  0.00  0.00     0.057 A 
ATOM      6 CL   UNL d   1       5.903  -1.409   1.249  0.00  0.00    -0.083 Cl
ATOM      7  C   UNL d   1       2.119  -2.592  -0.914  0.00  0.00     0.033 A 
ATOM      8  C   UNL d   1       3.291  -3.331  -1.058  0.00  0.00     0.004 A 
ATOM      9  C   UNL d   1       4.441  -2.937  -0.384  0.00  0.00     0.025 A 
ENDROOT
BRANCH   2  10
ATOM     10  N   UNL d   1       0.870  -0.721   0.020  0.00  0.00    -0.259 N 
ATOM     11  N   UNL d   1       0.928   0.628   0.085  0.00  0.00    -0.298 N 
ATOM     12  C   UNL d   1      -0.336   1.048   0.015  0.00  0.00     0.024 A 
ATOM     13  HN  UNL d   1       1.764   1.205   0.171  1.00  0.00     0.187 HD
ATOM     14  C   UNL d   1      -0.660   2.495   0.038  0.00  0.00     0.070 C 
ATOM     15  C   UNL d   1      -1.231  -0.033  -0.060  0.00  0.00     0.052 A 
ATOM     16  C   UNL d   1      -0.445  -1.168  -0.024  0.00  0.00     0.032 A 
ATOM     17  C   UNL d   1      -0.899  -2.580   0.062  0.00  0.00     0.070 C 
ENDBRANCH   2  10
TORSDOF 1
