REMARK  3 active torsions:
REMARK  status: ('A' for Active; 'I' for Inactive)
REMARK    1  A    between atoms: C_6  and  S_1 
REMARK    2  A    between atoms: C_8  and  S_1 
REMARK    3  A    between atoms: C_5  and  C_8 
ROOT
ATOM      1  C   UNL d   1       0.945   4.516   1.170  0.00  0.00     0.207 A 
ATOM      2  N   UNL d   1       0.212   3.450   0.904  0.00  0.00    -0.320 N 
ATOM      3  HN  UNL d   1      -0.690   3.183   1.299  1.00  0.00     0.169 HD
ATOM      4  C   UNL d   1       0.964   2.788  -0.036  0.00  0.00     0.118 A 
ATOM      5  C   UNL d   1       0.576   5.534   2.099  0.00  0.00     0.153 A 
ATOM      6  N   UNL d   1       2.101   3.408  -0.373  0.00  0.00    -0.246 N 
ATOM      7  HN  UNL d   1       2.800   3.118  -1.057  1.00  0.00     0.196 HD
ATOM      8  O   UNL d   1       2.102   4.545   0.436  0.00  0.00    -0.215 OA
ATOM      9  N   UNL d   1       0.736   7.448   3.281  0.00  0.00    -0.272 N 
ATOM     10  HN  UNL d   1       1.080   8.334   3.651  1.00  0.00     0.194 HD
ATOM     11  O   UNL d   1       1.346   6.639   2.336  0.00  0.00    -0.234 OA
ATOM     12  C   UNL d   1      -0.550   5.621   2.893  0.00  0.00     0.063 A 
ATOM     13  C   UNL d   1      -0.396   6.823   3.603  0.00  0.00     0.117 A 
ENDROOT
BRANCH   4  14
ATOM     14  C   UNL d   1       0.476   1.588  -0.733  0.00  0.00     0.224 C 
BRANCH  14  15
ATOM     15  S   UNL d   1       0.999   0.071   0.011  0.00  0.00     0.182 S 
ATOM     16  O   UNL d   1       0.262  -1.018  -0.603  0.00  0.00    -0.222 OA
ATOM     17  O   UNL d   1       2.443   0.030   0.133  0.00  0.00    -0.222 OA
BRANCH  15  18
ATOM     18  C   UNL d   1       0.424   0.090   1.649  0.00  0.00     0.066 A 
ATOM     19  C   UNL d   1       1.187   0.577   2.755  0.00  0.00     0.031 A 
ATOM     20  C   UNL d   1       0.510   0.440   3.947  0.00  0.00     0.051 A 
ATOM     21  S   UNL d   1      -1.035  -0.264   3.734  0.00  0.00    -0.112 SA
ATOM     22  C   UNL d   1      -0.802  -0.405   2.043  0.00  0.00     0.072 A 
ENDBRANCH  15  18
ENDBRANCH  14  15
ENDBRANCH   4  14
TORSDOF 3
