REMARK  1 active torsions:
REMARK  status: ('A' for Active; 'I' for Inactive)
REMARK    1  A    between atoms: C_10  and  N_8 
ROOT
ATOM      1  C   UNL d   1      -1.540  -2.977  -0.639  0.00  0.00     0.179 A 
ATOM      2  N   UNL d   1      -1.968  -4.021  -1.324  0.00  0.00    -0.266 N 
ATOM      3  HN  UNL d   1      -1.401  -4.849  -1.508  1.00  0.00     0.190 HD
ATOM      4  N   UNL d   1      -3.275  -3.869  -1.766  0.00  0.00    -0.233 N 
ATOM      5  HN  UNL d   1      -3.758  -4.585  -2.308  1.00  0.00     0.204 HD
ATOM      6  N   UNL d   1      -3.845  -2.722  -1.430  0.00  0.00    -0.043 NA
ATOM      7  S   UNL d   1      -2.792  -1.774  -0.538  0.00  0.00     0.039 SA
ATOM      8  N   UNL d   1      -0.338  -2.793  -0.040  0.00  0.00    -0.333 N 
ATOM      9  H   UNL d   1      -0.250  -2.031   0.628  0.00  0.00     0.168 HD
ENDROOT
BRANCH   8  10
ATOM     10  C   UNL d   1       0.778  -3.662  -0.045  0.00  0.00     0.057 A 
ATOM     11  C   UNL d   1       1.716  -3.615   1.014  0.00  0.00     0.082 A 
ATOM     12  C   UNL d   1       2.804  -4.501   1.046  0.00  0.00     0.058 A 
ATOM     13 CL   UNL d   1       1.484  -2.441   2.277  0.00  0.00    -0.080 Cl
ATOM     14 CL   UNL d   1       3.970  -4.496   2.323  0.00  0.00    -0.082 Cl
ATOM     15  C   UNL d   1       2.976  -5.436   0.025  0.00  0.00     0.026 A 
ATOM     16  C   UNL d   1       2.065  -5.491  -1.027  0.00  0.00     0.004 A 
ATOM     17  C   UNL d   1       0.976  -4.617  -1.055  0.00  0.00     0.031 A 
ENDBRANCH   8  10
TORSDOF 1
