REMARK  7 active torsions:
REMARK  status: ('A' for Active; 'I' for Inactive)
REMARK    1  A    between atoms: N_10  and  C_1 
REMARK    2  A    between atoms: C_4  and  N_9 
REMARK    3  A    between atoms: N_14  and  C_4 
REMARK    4  A    between atoms: C_5  and  C_12 
REMARK    5  A    between atoms: C_6  and  C_13 
REMARK    6  A    between atoms: C_32  and  C_11 
REMARK    7  A    between atoms: C_15  and  N_14 
ROOT
ATOM      1  N   UNL d   1       5.269   3.606  -1.030  0.00  0.00    -0.355 N 
ATOM      2  N   UNL d   1       3.453   1.642   0.014  0.00  0.00    -0.363 N 
ATOM      3  C   UNL d   1       4.756   2.521  -1.878  0.00  0.00     0.145 C 
ATOM      4  C   UNL d   1       4.414   3.939   0.124  0.00  0.00     0.145 C 
ATOM      5  C   UNL d   1       4.397   1.278  -1.066  0.00  0.00     0.144 C 
ATOM      6  C   UNL d   1       3.940   2.690   0.915  0.00  0.00     0.144 C 
ENDROOT
BRANCH   1   7
ATOM      7  C   UNL d   1       6.543   4.097  -1.158  0.00  0.00     0.174 C 
ATOM      8  S   UNL d   1       7.905   3.125  -1.257  0.00  0.00    -0.041 SA
BRANCH   7   9
ATOM      9  N   UNL d   1       6.734   5.451  -1.135  0.00  0.00    -0.333 N 
ATOM     10  H   UNL d   1       7.706   5.709  -0.995  0.00  0.00     0.168 HD
BRANCH   9  11
ATOM     11  C   UNL d   1       5.851   6.506  -1.443  0.00  0.00     0.035 A 
ATOM     12  C   UNL d   1       4.617   6.327  -2.067  0.00  0.00     0.045 A 
ATOM     13  C   UNL d   1       3.736   7.399  -2.274  0.00  0.00     0.050 A 
ATOM     14  C   UNL d   1       4.138   8.687  -1.896  0.00  0.00     0.032 A 
ATOM     15  C   UNL d   1       5.399   8.901  -1.317  0.00  0.00     0.050 A 
ATOM     16  C   UNL d   1       6.257   7.804  -1.119  0.00  0.00     0.045 A 
BRANCH  13  17
ATOM     17  C   UNL d   1       2.374   7.131  -2.867  0.00  0.00     0.417 C 
ATOM     18  F   UNL d   1       1.574   8.232  -2.906  0.00  0.00    -0.166 F 
ATOM     19  F   UNL d   1       2.439   6.666  -4.143  0.00  0.00    -0.166 F 
ATOM     20  F   UNL d   1       1.682   6.195  -2.159  0.00  0.00    -0.166 F 
ENDBRANCH  13  17
BRANCH  15  21
ATOM     21  C   UNL d   1       5.835  10.281  -0.887  0.00  0.00     0.417 C 
ATOM     22  F   UNL d   1       4.812  11.179  -0.843  0.00  0.00    -0.166 F 
ATOM     23  F   UNL d   1       6.388  10.284   0.357  0.00  0.00    -0.166 F 
ATOM     24  F   UNL d   1       6.771  10.814  -1.717  0.00  0.00    -0.166 F 
ENDBRANCH  15  21
ENDBRANCH   9  11
ENDBRANCH   7   9
ENDBRANCH   1   7
BRANCH   2  25
ATOM     25  C   UNL d   1       2.429   0.752   0.232  0.00  0.00     0.127 A 
ATOM     26  N   UNL d   1       1.887   0.242  -0.908  0.00  0.00    -0.339 N 
ATOM     27  C   UNL d   1       0.898  -0.663  -0.837  0.00  0.00     0.060 A 
ATOM     28  HN  UNL d   1       2.232   0.549  -1.817  1.00  0.00     0.167 HD
ATOM     29  C   UNL d   1       0.371  -1.198  -2.006  0.00  0.00     0.032 A 
ATOM     30  C   UNL d   1       0.394  -1.087   0.400  0.00  0.00     0.059 A 
ATOM     31  C   UNL d   1      -0.635  -2.164  -1.976  0.00  0.00     0.002 A 
ATOM     32  C   UNL d   1      -1.126  -2.597  -0.751  0.00  0.00     0.002 A 
ATOM     33  C   UNL d   1      -0.611  -2.051   0.427  0.00  0.00     0.032 A 
ATOM     34  N   UNL d   1       0.881  -0.585   1.546  0.00  0.00    -0.355 N 
ATOM     35  C   UNL d   1       1.905   0.321   1.466  0.00  0.00     0.053 A 
ATOM     36  HN  UNL d   1       0.501  -0.870   2.448  1.00  0.00     0.166 HD
BRANCH  35  37
ATOM     37  C   UNL d   1       2.426   0.788   2.804  0.00  0.00     0.056 C 
ATOM     38  C   UNL d   1       2.141  -0.161   3.966  0.00  0.00     0.011 C 
ENDBRANCH  35  37
ENDBRANCH   2  25
TORSDOF 7
