REMARK  11 active torsions:
REMARK  status: ('A' for Active; 'I' for Inactive)
REMARK    1  A    between atoms: O_19  and  C_1 
REMARK    2  A    between atoms: O_20  and  C_2 
REMARK    3  A    between atoms: O_21  and  C_3 
REMARK    4  A    between atoms: O_23  and  C_4 
REMARK    5  A    between atoms: O_22  and  C_5 
REMARK    6  A    between atoms: O_24  and  C_6 
REMARK    7  A    between atoms: C_18  and  C_11 
REMARK    8  A    between atoms: C_12  and  C_17 
REMARK    9  A    between atoms: C_26  and  N_13 
REMARK   10  A    between atoms: N_15  and  C_25 
REMARK   11  A    between atoms: C_25  and  C_26 
ROOT
ATOM      1  C   UNL d   1      -5.905  -1.655  -0.547  0.00  0.00     0.138 C 
ENDROOT
BRANCH   1   2
ATOM      2  N   UNL d   1      -7.308  -1.371  -0.865  0.00  0.00    -0.397 N 
ATOM      3  C   UNL d   1      -8.032  -1.052   0.154  0.00  0.00     0.094 C 
ATOM      4  HN  UNL d   1      -7.681  -1.421  -1.813  1.00  0.00     0.158 HD
BRANCH   3   5
ATOM      5  C   UNL d   1      -9.468  -0.763   0.004  0.00  0.00    -0.016 A 
ATOM      6  C   UNL d   1     -10.142  -1.145  -1.157  0.00  0.00     0.052 A 
ATOM      7  C   UNL d   1     -11.520  -0.916  -1.294  0.00  0.00     0.105 A 
ATOM      8  C   UNL d   1     -12.223  -0.238  -0.277  0.00  0.00     0.135 A 
ATOM      9  C   UNL d   1     -11.508   0.184   0.871  0.00  0.00     0.105 A 
ATOM     10  C   UNL d   1     -10.150  -0.114   1.022  0.00  0.00     0.052 A 
BRANCH   7  11
ATOM     11  O   UNL d   1     -12.162  -1.297  -2.445  0.00  0.00    -0.353 OA
ATOM     12  C   UNL d   1     -11.752  -2.561  -2.975  0.00  0.00     0.210 C 
ENDBRANCH   7  11
BRANCH   8  13
ATOM     13  O   UNL d   1     -13.565   0.037  -0.255  0.00  0.00    -0.351 OA
ATOM     14  C   UNL d   1     -14.427  -0.545  -1.221  0.00  0.00     0.210 C 
ENDBRANCH   8  13
BRANCH   9  15
ATOM     15  O   UNL d   1     -12.035   0.837   1.960  0.00  0.00    -0.353 OA
ATOM     16  C   UNL d   1     -12.979   1.868   1.688  0.00  0.00     0.210 C 
ENDBRANCH   9  15
ENDBRANCH   3   5
ENDBRANCH   1   2
BRANCH   1  17
ATOM     17  C   UNL d   1      -5.081  -0.366  -0.479  0.00  0.00     0.138 C 
BRANCH  17  18
ATOM     18  N   UNL d   1      -3.694  -0.717  -0.150  0.00  0.00    -0.397 N 
ATOM     19  C   UNL d   1      -2.825   0.143  -0.555  0.00  0.00     0.094 C 
ATOM     20  HN  UNL d   1      -3.441  -1.566   0.354  1.00  0.00     0.158 HD
BRANCH  19  21
ATOM     21  C   UNL d   1      -1.378  -0.058  -0.344  0.00  0.00    -0.016 A 
ATOM     22  C   UNL d   1      -0.897  -1.200   0.293  0.00  0.00     0.052 A 
ATOM     23  C   UNL d   1       0.478  -1.390   0.486  0.00  0.00     0.105 A 
ATOM     24  C   UNL d   1       1.376  -0.412   0.019  0.00  0.00     0.135 A 
ATOM     25  C   UNL d   1       0.884   0.711  -0.691  0.00  0.00     0.105 A 
ATOM     26  C   UNL d   1      -0.494   0.903  -0.827  0.00  0.00     0.052 A 
BRANCH  23  27
ATOM     27  O   UNL d   1       0.740  -2.568   1.133  0.00  0.00    -0.353 OA
ATOM     28  C   UNL d   1       2.083  -2.935   1.399  0.00  0.00     0.210 C 
ENDBRANCH  23  27
BRANCH  24  29
ATOM     29  O   UNL d   1       2.728  -0.621   0.136  0.00  0.00    -0.351 OA
ATOM     30  C   UNL d   1       3.420   0.405   0.852  0.00  0.00     0.210 C 
ENDBRANCH  24  29
BRANCH  25  31
ATOM     31  O   UNL d   1       1.816   1.564  -1.233  0.00  0.00    -0.353 OA
ATOM     32  C   UNL d   1       1.365   2.453  -2.249  0.00  0.00     0.210 C 
ENDBRANCH  25  31
ENDBRANCH  19  21
ENDBRANCH  17  18
ENDBRANCH   1  17
TORSDOF 11
