REMARK  4 active torsions:
REMARK  status: ('A' for Active; 'I' for Inactive)
REMARK    1  A    between atoms: S_10  and  C_3 
REMARK    2  A    between atoms: C_4  and  C_8 
REMARK    3  A    between atoms: O_14  and  C_5 
REMARK    4  A    between atoms: C_8  and  S_10 
ROOT
ATOM      1  N   UNL d   1      -0.418  -0.779  -0.033  0.00  0.00    -0.318 N 
ATOM      2  HN  UNL d   1      -0.719  -1.754  -0.041  1.00  0.00     0.170 HD
ATOM      3  C   UNL d   1      -1.286   0.244  -0.043  0.00  0.00     0.146 A 
ATOM      4  C   UNL d   1       0.869  -0.425  -0.011  0.00  0.00     0.143 A 
ATOM      5  N   UNL d   1      -0.936   1.544  -0.037  0.00  0.00    -0.341 N 
ATOM      6  HN  UNL d   1      -1.641   2.281  -0.050  1.00  0.00     0.167 HD
ATOM      7  C   UNL d   1       1.348   0.858   0.002  0.00  0.00     0.080 A 
ATOM      8  C   UNL d   1       0.383   1.836  -0.012  0.00  0.00     0.011 A 
ATOM      9  C   UNL d   1       0.747   3.289   0.006  0.00  0.00     0.068 C 
ENDROOT
BRANCH   3  10
ATOM     10  S   UNL d   1      -3.015  -0.175  -0.055  0.00  0.00    -0.089 SA
BRANCH  10  11
ATOM     11  C   UNL d   1      -3.738   1.495  -0.055  0.00  0.00     0.124 C 
BRANCH  11  12
ATOM     12  C   UNL d   1      -5.248   1.474   0.049  0.00  0.00    -0.005 A 
ATOM     13  C   UNL d   1      -5.893   1.459   1.302  0.00  0.00     0.042 A 
ATOM     14 CL   UNL d   1      -5.012   1.441   2.793  0.00  0.00    -0.084 Cl
ATOM     15  C   UNL d   1      -7.290   1.470   1.402  0.00  0.00     0.024 A 
ATOM     16  C   UNL d   1      -8.076   1.486   0.255  0.00  0.00     0.003 A 
ATOM     17  C   UNL d   1      -7.463   1.482  -0.994  0.00  0.00     0.024 A 
ATOM     18  C   UNL d   1      -6.066   1.470  -1.098  0.00  0.00     0.042 A 
ATOM     19 CL   UNL d   1      -5.409   1.465  -2.699  0.00  0.00    -0.084 Cl
ENDBRANCH  11  12
ENDBRANCH  10  11
ENDBRANCH   3  10
BRANCH   4  20
ATOM     20  O   UNL d   1       1.738  -1.469   0.001  0.00  0.00    -0.346 OA
ATOM     21  H   UNL d   1       1.118  -2.221  -0.011  0.00  0.00     0.219 HD
ENDBRANCH   4  20
TORSDOF 4
