REMARK  5 active torsions:
REMARK  status: ('A' for Active; 'I' for Inactive)
REMARK    1  A    between atoms: C_6  and  N_1 
REMARK    2  A    between atoms: N_8  and  C_6 
REMARK    3  A    between atoms: C_9  and  N_7 
REMARK    4  A    between atoms: C_14  and  C_9 
REMARK    5  A    between atoms: C_15  and  C_9 
ROOT
ATOM      1  N   UNL d   1       3.432   4.111   0.627  0.00  0.00     0.104 N 
ATOM      2  N   UNL d   1       3.879   1.171   0.221  0.00  0.00    -0.393 N 
ATOM      3  C   UNL d   1       3.967   3.577  -0.652  0.00  0.00     0.293 C 
ATOM      4  C   UNL d   1       2.504   3.075   1.141  0.00  0.00     0.293 C 
ATOM      5  C   UNL d   1       4.603   2.161  -0.576  0.00  0.00     0.149 C 
ATOM      6  C   UNL d   1       3.138   1.690   1.363  0.00  0.00     0.149 C 
ENDROOT
BRANCH   1   7
ATOM      7  C   UNL d   1       4.530   4.461   1.586  0.00  0.00     0.289 C 
BRANCH   7   8
ATOM      8  C   UNL d   1       5.446   5.564   1.030  0.00  0.00    -0.021 A 
ATOM      9  C   UNL d   1       4.937   6.827   0.683  0.00  0.00     0.010 A 
ATOM     10  C   UNL d   1       5.779   7.826   0.191  0.00  0.00     0.001 A 
ATOM     11  C   UNL d   1       7.139   7.575   0.028  0.00  0.00     0.000 A 
ATOM     12  C   UNL d   1       7.659   6.323   0.352  0.00  0.00     0.001 A 
ATOM     13  C   UNL d   1       6.820   5.324   0.853  0.00  0.00     0.010 A 
ENDBRANCH   7   8
BRANCH   7  14
ATOM     14  C   UNL d   1       4.061   4.849   3.002  0.00  0.00    -0.021 A 
ATOM     15  C   UNL d   1       4.844   4.494   4.116  0.00  0.00     0.010 A 
ATOM     16  C   UNL d   1       4.438   4.817   5.414  0.00  0.00     0.001 A 
ATOM     17  C   UNL d   1       3.245   5.505   5.621  0.00  0.00     0.000 A 
ATOM     18  C   UNL d   1       2.471   5.894   4.530  0.00  0.00     0.001 A 
ATOM     19  C   UNL d   1       2.884   5.583   3.232  0.00  0.00     0.010 A 
ENDBRANCH   7  14
ENDBRANCH   1   7
BRANCH   2  20
ATOM     20  C   UNL d   1       3.338  -0.008  -0.435  0.00  0.00     0.256 C 
BRANCH  20  21
ATOM     21  N   UNL d   1       2.406   0.311  -1.486  0.00  0.00    -0.263 N 
ATOM     22  C   UNL d   1       2.791   0.469  -2.791  0.00  0.00     0.263 C 
ATOM     23  C   UNL d   1       1.579   0.747  -3.547  0.00  0.00     0.048 A 
ATOM     24  O   UNL d   1       3.880   0.345  -3.305  0.00  0.00    -0.267 OA
ATOM     25  C   UNL d   1       1.433   1.159  -4.857  0.00  0.00     0.018 A 
ATOM     26  C   UNL d   1       0.505   0.524  -2.705  0.00  0.00     0.048 A 
ATOM     27  C   UNL d   1       0.129   1.322  -5.326  0.00  0.00     0.001 A 
ATOM     28  C   UNL d   1      -0.975   1.036  -4.496  0.00  0.00     0.001 A 
ATOM     29  C   UNL d   1      -0.794   0.629  -3.166  0.00  0.00     0.018 A 
ATOM     30  C   UNL d   1       1.044   0.214  -1.380  0.00  0.00     0.263 C 
ATOM     31  O   UNL d   1       0.364  -0.087  -0.419  0.00  0.00    -0.267 OA
ENDBRANCH  20  21
ENDBRANCH   2  20
TORSDOF 5
