REMARK  0 active torsions:
REMARK  status: ('A' for Active; 'I' for Inactive)
ROOT
ATOM      1  N   UNL d   1      -0.654   1.220  -0.001  0.00  0.00    -0.321 N 
ATOM      2  C   UNL d   1      -1.425   0.090  -0.003  0.00  0.00     0.126 A 
ATOM      3  N   UNL d   1       0.641  -1.233  -0.001  0.00  0.00    -0.300 N 
ATOM      4  HN  UNL d   1       1.157  -2.114  -0.000  1.00  0.00     0.186 HD
ATOM      5  C   UNL d   1       0.705   1.191  -0.000  0.00  0.00     0.191 A 
ATOM      6  C   UNL d   1      -0.662  -1.222  -0.001  0.00  0.00     0.060 A 
ATOM      7  N   UNL d   1       1.298  -0.038  -0.002  0.00  0.00    -0.276 N 
ATOM      8  S   UNL d   1      -3.081   0.170  -0.008  0.00  0.00    -0.058 SA
ATOM      9  S   UNL d   1       1.597   2.594   0.002  0.00  0.00    -0.039 SA
ATOM     10  C   UNL d   1      -1.369  -2.555   0.004  0.00  0.00     0.073 C 
ATOM     11  H   UNL d   1      -1.112   2.122  -0.001  0.00  0.00     0.169 HD
ATOM     12  H   UNL d   1       2.315  -0.088  -0.002  0.00  0.00     0.189 HD
ENDROOT
TORSDOF 0
