REMARK  3 active torsions:
REMARK  status: ('A' for Active; 'I' for Inactive)
REMARK    1  A    between atoms: C_5  and  C_3 
REMARK    2  A    between atoms: C_9  and  C_4 
REMARK    3  A    between atoms: O_18  and  C_15 
ROOT
ATOM      1  N   UNL d   1       1.149   0.176   0.432  0.00  0.00    -0.317 N 
ATOM      2  HN  UNL d   1       2.058   0.317   0.874  1.00  0.00     0.169 HD
ATOM      3  C   UNL d   1       0.623  -0.938  -0.010  0.00  0.00     0.183 A 
ATOM      4  C   UNL d   1       0.175   1.111   0.157  0.00  0.00     0.154 A 
ATOM      5  N   UNL d   1      -0.892   0.604  -0.486  0.00  0.00    -0.241 N 
ATOM      6  HN  UNL d   1      -1.722   1.096  -0.815  1.00  0.00     0.196 HD
ATOM      7  O   UNL d   1      -0.597  -0.755  -0.596  0.00  0.00    -0.217 OA
ENDROOT
BRANCH   3   8
ATOM      8  C   UNL d   1       1.142  -2.296   0.038  0.00  0.00     0.037 A 
ATOM      9  C   UNL d   1       1.975  -2.741   1.080  0.00  0.00     0.025 A 
ATOM     10  C   UNL d   1       2.495  -4.038   1.062  0.00  0.00     0.023 A 
ATOM     11 BR   UNL d   1       2.429  -1.682   2.598  0.00  0.00    -0.050 Br
ATOM     12  C   UNL d   1       2.187  -4.899   0.009  0.00  0.00     0.038 A 
ATOM     13  C   UNL d   1       1.353  -4.484  -1.028  0.00  0.00     0.069 A 
ATOM     14  C   UNL d   1       0.830  -3.189  -1.009  0.00  0.00     0.054 A 
BRANCH  13  15
ATOM     15  O   UNL d   1       1.133  -5.427  -1.993  0.00  0.00    -0.356 OA
ATOM     16  C   UNL d   1       0.298  -5.056  -3.084  0.00  0.00     0.210 C 
ENDBRANCH  13  15
ENDBRANCH   3   8
BRANCH   4  17
ATOM     17  C   UNL d   1       0.326   2.503   0.575  0.00  0.00     0.078 A 
ATOM     18  N   UNL d   1      -0.687   3.362   0.294  0.00  0.00    -0.363 N 
ATOM     19  C   UNL d   1      -0.551   4.635   0.717  0.00  0.00     0.088 A 
ATOM     20  HN  UNL d   1      -1.517   3.057  -0.216  1.00  0.00     0.165 HD
ATOM     21  C   UNL d   1       0.554   5.105   1.407  0.00  0.00     0.017 A 
ATOM     22  C   UNL d   1       1.586   4.219   1.683  0.00  0.00     0.004 A 
ATOM     23  C   UNL d   1       1.475   2.897   1.264  0.00  0.00     0.033 A 
ENDBRANCH   4  17
TORSDOF 3
