REMARK  9 active torsions:
REMARK  status: ('A' for Active; 'I' for Inactive)
REMARK    1  A    between atoms: C_3  and  C_1 
REMARK    2  A    between atoms: C_2  and  C_4 
REMARK    3  A    between atoms: O_17  and  N_6 
REMARK    4  A    between atoms: C_8  and  C_10 
REMARK    5  A    between atoms: N_25  and  C_8 
REMARK    6  A    between atoms: C_9  and  O_17 
REMARK    7  A    between atoms: C_11  and  C_9 
REMARK    8  A    between atoms: C_12  and  C_14 
REMARK    9  A    between atoms: C_26  and  C_13 
ROOT
ATOM      1  N   UNL d   1       3.099   7.211  -1.243  0.00  0.00    -0.246 N 
ATOM      2  HN  UNL d   1       3.734   7.982  -1.453  1.00  0.00     0.196 HD
ATOM      3  C   UNL d   1       2.091   7.285  -0.412  0.00  0.00     0.098 C 
ENDROOT
BRANCH   3   4
ATOM      4  C   UNL d   1       1.918   8.607   0.270  0.00  0.00     0.044 C 
ATOM      5  C   UNL d   1       0.926   8.868   1.136  0.00  0.00     0.014 C 
BRANCH   5   6
ATOM      6  C   UNL d   1       0.792  10.119   1.904  0.00  0.00    -0.035 A 
ATOM      7  C   UNL d   1      -0.482  10.533   2.320  0.00  0.00     0.027 A 
ATOM      8  C   UNL d   1      -0.650  11.648   3.163  0.00  0.00     0.049 A 
ATOM      9  C   UNL d   1       0.485  12.355   3.588  0.00  0.00     0.032 A 
ATOM     10  C   UNL d   1       1.770  11.956   3.192  0.00  0.00     0.049 A 
ATOM     11  C   UNL d   1       1.908  10.840   2.348  0.00  0.00     0.027 A 
BRANCH   8  12
ATOM     12  C   UNL d   1      -2.033  12.041   3.628  0.00  0.00     0.417 C 
ATOM     13  F   UNL d   1      -2.036  13.091   4.495  0.00  0.00    -0.166 F 
ATOM     14  F   UNL d   1      -2.668  11.024   4.273  0.00  0.00    -0.166 F 
ATOM     15  F   UNL d   1      -2.848  12.401   2.599  0.00  0.00    -0.166 F 
ENDBRANCH   8  12
BRANCH  10  16
ATOM     16  C   UNL d   1       3.003  12.673   3.689  0.00  0.00     0.417 C 
ATOM     17  F   UNL d   1       2.730  13.691   4.551  0.00  0.00    -0.166 F 
ATOM     18  F   UNL d   1       3.850  11.839   4.354  0.00  0.00    -0.166 F 
ATOM     19  F   UNL d   1       3.731  13.220   2.678  0.00  0.00    -0.166 F 
ENDBRANCH  10  16
ENDBRANCH   5   6
ENDBRANCH   3   4
BRANCH   3  20
ATOM     20  N   UNL d   1       1.263   6.221  -0.152  0.00  0.00    -0.287 NA
ATOM     21  H   UNL d   1       1.645   5.336  -0.472  0.00  0.00     0.125 HD
ATOM     22  H   UNL d   1       0.873   6.159   0.779  0.00  0.00     0.125 HD
ENDBRANCH   3  20
BRANCH   1  23
ATOM     23  O   UNL d   1       3.190   5.922  -1.809  0.00  0.00    -0.194 OA
BRANCH  23  24
ATOM     24  C   UNL d   1       4.205   5.756  -2.718  0.00  0.00     0.304 C 
ATOM     25  O   UNL d   1       4.374   4.667  -3.270  0.00  0.00    -0.258 OA
BRANCH  24  26
ATOM     26  C   UNL d   1       5.095   6.909  -2.996  0.00  0.00     0.085 C 
ATOM     27  C   UNL d   1       6.109   6.786  -3.870  0.00  0.00     0.017 C 
BRANCH  27  28
ATOM     28  C   UNL d   1       7.083   7.843  -4.192  0.00  0.00    -0.036 A 
ATOM     29  C   UNL d   1       7.453   8.832  -3.271  0.00  0.00     0.011 A 
ATOM     30  C   UNL d   1       8.431   9.780  -3.590  0.00  0.00     0.001 A 
ATOM     31  C   UNL d   1       9.060   9.745  -4.831  0.00  0.00     0.000 A 
ATOM     32  C   UNL d   1       8.709   8.764  -5.755  0.00  0.00     0.001 A 
ATOM     33  C   UNL d   1       7.729   7.817  -5.436  0.00  0.00     0.011 A 
ENDBRANCH  27  28
ENDBRANCH  24  26
ENDBRANCH  23  24
ENDBRANCH   1  23
TORSDOF 9
