REMARK  5 active torsions:
REMARK  status: ('A' for Active; 'I' for Inactive)
REMARK    1  A    between atoms: C_3  and  C_1 
REMARK    2  A    between atoms: C_7  and  C_2 
REMARK    3  A    between atoms: N_13  and  C_2 
REMARK    4  A    between atoms: O_6  and  C_3 
REMARK    5  A    between atoms: N_4  and  O_6 
ROOT
ATOM      1  C   UNL d   1      -3.550   3.005  -0.016  0.00  0.00     0.125 C 
ATOM      2  N   UNL d   1      -2.435   2.415  -0.327  0.00  0.00    -0.244 N 
ATOM      3  HN  UNL d   1      -1.604   2.912  -0.646  1.00  0.00     0.196 HD
ENDROOT
BRANCH   2   4
ATOM      4  O   UNL d   1      -2.494   1.008  -0.176  0.00  0.00    -0.193 OA
BRANCH   4   5
ATOM      5  C   UNL d   1      -1.250   0.493  -0.448  0.00  0.00     0.321 C 
ATOM      6  O   UNL d   1      -0.285   1.126  -0.868  0.00  0.00    -0.257 OA
BRANCH   5   7
ATOM      7  C   UNL d   1      -1.169  -0.965  -0.177  0.00  0.00     0.118 A 
ATOM      8  C   UNL d   1       0.001  -1.652  -0.529  0.00  0.00     0.135 A 
ATOM      9  F   UNL d   1       1.033  -1.030  -1.118  0.00  0.00    -0.205 F 
ATOM     10  C   UNL d   1       0.147  -3.020  -0.287  0.00  0.00     0.043 A 
ATOM     11  C   UNL d   1      -0.881  -3.731   0.323  0.00  0.00     0.006 A 
ATOM     12  C   UNL d   1      -2.048  -3.063   0.686  0.00  0.00     0.043 A 
ATOM     13  C   UNL d   1      -2.187  -1.692   0.435  0.00  0.00     0.135 A 
ATOM     14  F   UNL d   1      -3.335  -1.113   0.812  0.00  0.00    -0.205 F 
ENDBRANCH   5   7
ENDBRANCH   4   5
ENDBRANCH   2   4
BRANCH   1  15
ATOM     15  C   UNL d   1      -3.587   4.518  -0.057  0.00  0.00     0.072 A 
ATOM     16  N   UNL d   1      -4.784   5.082   0.271  0.00  0.00    -0.363 N 
ATOM     17  C   UNL d   1      -4.816   6.434   0.312  0.00  0.00     0.088 A 
ATOM     18  HN  UNL d   1      -5.609   4.517   0.473  1.00  0.00     0.165 HD
ATOM     19  C   UNL d   1      -3.727   7.246   0.026  0.00  0.00     0.017 A 
ATOM     20  C   UNL d   1      -2.528   6.642  -0.336  0.00  0.00     0.004 A 
ATOM     21  C   UNL d   1      -2.451   5.253  -0.381  0.00  0.00     0.033 A 
ENDBRANCH   1  15
BRANCH   1  22
ATOM     22  N   UNL d   1      -4.708   2.352   0.347  0.00  0.00    -0.285 NA
ATOM     23  H   UNL d   1      -4.791   1.408  -0.005  0.00  0.00     0.125 HD
ATOM     24  H   UNL d   1      -5.544   2.926   0.254  0.00  0.00     0.125 HD
ENDBRANCH   1  22
TORSDOF 5
