REMARK  4 active torsions:
REMARK  status: ('A' for Active; 'I' for Inactive)
REMARK    1  A    between atoms: C_2  and  N_1 
REMARK    2  A    between atoms: O_10  and  C_3 
REMARK    3  A    between atoms: C_7  and  C_12 
REMARK    4  A    between atoms: C_12  and  O_10 
ROOT
ATOM      1  C   UNL d   1       0.326   0.480   1.192  0.00  0.00     0.136 A 
ATOM      2  C   UNL d   1      -0.712  -0.396   1.535  0.00  0.00     0.101 A 
ATOM      3  C   UNL d   1       0.682   1.577   1.997  0.00  0.00     0.045 A 
ATOM      4  C   UNL d   1      -1.424  -0.119   2.705  0.00  0.00     0.040 A 
ATOM      5  C   UNL d   1      -0.017   1.811   3.182  0.00  0.00    -0.059 A 
ATOM      6  C   UNL d   1      -1.079   0.967   3.517  0.00  0.00     0.009 A 
ATOM      7  C   UNL d   1       0.341   2.943   4.098  0.00  0.00     0.048 C 
ENDROOT
BRANCH   2   8
ATOM      8  O   UNL d   1      -0.983  -1.455   0.711  0.00  0.00    -0.346 OA
BRANCH   8   9
ATOM      9  C   UNL d   1      -1.984  -2.386   1.152  0.00  0.00     0.222 C 
BRANCH   9  10
ATOM     10  C   UNL d   1      -2.114  -3.636   0.246  0.00  0.00     0.305 C 
ATOM     11  N   UNL d   1      -0.942  -4.519   0.252  0.00  0.00     0.100 N 
ATOM     12  C   UNL d   1       0.052  -3.951  -0.682  0.00  0.00     0.281 C 
ATOM     13  H   UNL d   1      -1.253  -5.404  -0.149  0.00  0.00     0.317 HD
ATOM     14  C   UNL d   1      -0.607  -3.164  -1.821  0.00  0.00     0.106 C 
ATOM     15  S   UNL d   1      -2.381  -3.220  -1.490  0.00  0.00    -0.130 SA
ENDBRANCH   9  10
ENDBRANCH   8   9
ENDBRANCH   2   8
BRANCH   1  16
ATOM     16  N   UNL d   1       1.067   0.292  -0.044  0.00  0.00    -0.113 N 
ATOM     17  O   UNL d   1       1.733  -0.745  -0.162  0.00  0.00    -0.532 OA
ATOM     18  O   UNL d   1       1.026   1.217  -0.864  0.00  0.00    -0.532 OA
ENDBRANCH   1  16
TORSDOF 4
