REMARK  5 active torsions:
REMARK  status: ('A' for Active; 'I' for Inactive)
REMARK    1  A    between atoms: N_2  and  C_1 
REMARK    2  A    between atoms: N_7  and  C_1 
REMARK    3  A    between atoms: C_3  and  N_2 
REMARK    4  A    between atoms: C_11  and  N_7 
REMARK    5  A    between atoms: C_13  and  C_11 
ROOT
ATOM      1  C   UNL d   1       1.011   0.009  -0.063  0.00  0.00     0.172 C 
ATOM      2  S   UNL d   1       0.187   1.394   0.379  0.00  0.00    -0.041 SA
ENDROOT
BRANCH   1   3
ATOM      3  N   UNL d   1       0.462  -1.167  -0.503  0.00  0.00    -0.331 N 
ATOM      4  H   UNL d   1       0.779  -1.988   0.006  0.00  0.00     0.168 HD
BRANCH   3   5
ATOM      5  C   UNL d   1      -0.686  -1.341  -1.302  0.00  0.00     0.073 A 
ATOM      6  C   UNL d   1      -1.421  -2.527  -1.181  0.00  0.00     0.145 A 
ATOM      7  C   UNL d   1      -2.508  -2.792  -2.003  0.00  0.00     0.086 A 
ATOM      8  F   UNL d   1      -1.078  -3.428  -0.245  0.00  0.00    -0.204 F 
ATOM      9  C   UNL d   1      -2.844  -1.870  -2.985  0.00  0.00     0.119 A 
ATOM     10  C   UNL d   1      -2.121  -0.691  -3.141  0.00  0.00     0.044 A 
ATOM     11  F   UNL d   1      -3.866  -2.127  -3.810  0.00  0.00    -0.206 F 
ATOM     12  C   UNL d   1      -1.045  -0.420  -2.292  0.00  0.00     0.036 A 
ENDBRANCH   3   5
ENDBRANCH   1   3
BRANCH   1  13
ATOM     13  N   UNL d   1       2.372  -0.000   0.064  0.00  0.00    -0.363 N 
ATOM     14  H   UNL d   1       2.735   0.881   0.412  0.00  0.00     0.162 HD
BRANCH  13  15
ATOM     15  C   UNL d   1       3.252  -0.722  -0.839  0.00  0.00     0.160 C 
BRANCH  15  16
ATOM     16  C   UNL d   1       3.732  -2.038  -0.287  0.00  0.00    -0.040 A 
ATOM     17  C   UNL d   1       3.633  -3.205  -1.064  0.00  0.00     0.012 A 
ATOM     18  C   UNL d   1       4.148  -4.413  -0.593  0.00  0.00     0.043 A 
ATOM     19  C   UNL d   1       4.763  -4.458   0.652  0.00  0.00     0.116 A 
ATOM     20  C   UNL d   1       4.872  -3.317   1.437  0.00  0.00     0.043 A 
ATOM     21  F   UNL d   1       5.267  -5.616   1.097  0.00  0.00    -0.206 F 
ATOM     22  C   UNL d   1       4.358  -2.107   0.968  0.00  0.00     0.012 A 
ENDBRANCH  15  16
ENDBRANCH  13  15
ENDBRANCH   1  13
TORSDOF 5
