REMARK  1 active torsions:
REMARK  status: ('A' for Active; 'I' for Inactive)
REMARK    1  A    between atoms: S_11  and  C_5 
ROOT
ATOM      1  C   UNL d   1      -0.296  -0.682  -0.001  0.00  0.00     0.068 A 
ATOM      2  C   UNL d   1      -0.263   0.707  -0.002  0.00  0.00     0.068 A 
ATOM      3  N   UNL d   1      -1.598  -1.146  -0.000  0.00  0.00    -0.335 N 
ATOM      4  HN  UNL d   1      -1.913  -2.116   0.001  1.00  0.00     0.168 HD
ATOM      5  C   UNL d   1      -2.335  -0.067  -0.001  0.00  0.00     0.142 A 
ATOM      6  N   UNL d   1      -1.590   1.069  -0.003  0.00  0.00    -0.335 N 
ATOM      7  C   UNL d   1       0.908  -1.414  -0.002  0.00  0.00    -0.026 A 
ATOM      8  C   UNL d   1       0.914   1.468  -0.002  0.00  0.00    -0.026 A 
ATOM      9  C   UNL d   1       2.141   0.736   0.002  0.00  0.00    -0.047 A 
ATOM     10  C   UNL d   1       2.141  -0.688  -0.003  0.00  0.00    -0.047 A 
ATOM     11  C   UNL d   1       0.886  -2.921  -0.001  0.00  0.00     0.051 C 
ATOM     12  C   UNL d   1       0.891   2.973  -0.005  0.00  0.00     0.051 C 
ATOM     13  C   UNL d   1       3.418   1.552   0.012  0.00  0.00     0.049 C 
ATOM     14  C   UNL d   1       3.415  -1.508  -0.009  0.00  0.00     0.049 C 
ATOM     15  H   UNL d   1      -1.961   2.006  -0.004  0.00  0.00     0.168 HD
ENDROOT
BRANCH   5  16
ATOM     16  S   UNL d   1      -4.051   0.014   0.001  0.00  0.00    -0.107 SA
ATOM     17  H   UNL d   1      -4.267  -1.309   0.003  0.00  0.00     0.110 HD
ENDBRANCH   5  16
TORSDOF 1
