REMARK  2 active torsions:
REMARK  status: ('A' for Active; 'I' for Inactive)
REMARK    1  A    between atoms: C_3  and  C_6 
REMARK    2  A    between atoms: C_12  and  C_5 
ROOT
ATOM      1  C   UNL d   1       1.222  -1.425   0.050  0.00  0.00     0.189 C 
ATOM      2  C   UNL d   1       2.244  -0.729  -0.781  0.00  0.00    -0.006 C 
ATOM      3  C   UNL d   1      -0.130  -0.803   0.086  0.00  0.00     0.021 A 
ATOM      4  C   UNL d   1       2.569  -1.353  -1.930  0.00  0.00     0.022 C 
ATOM      5  O   UNL d   1       1.434  -2.521   0.556  0.00  0.00    -0.287 OA
ATOM      6  C   UNL d   1      -0.350   0.553   0.381  0.00  0.00    -0.044 A 
ATOM      7  C   UNL d   1       2.813   0.562  -0.269  0.00  0.00     0.043 C 
ATOM      8  C   UNL d   1      -1.206  -1.637  -0.250  0.00  0.00     0.016 A 
ATOM      9  C   UNL d   1       1.808   1.706  -0.223  0.00  0.00     0.009 C 
ATOM     10  C   UNL d   1       0.743   1.480   0.841  0.00  0.00     0.040 C 
ATOM     11  C   UNL d   1      -1.657   1.059   0.278  0.00  0.00     0.008 A 
ATOM     12  C   UNL d   1      -2.496  -1.115  -0.346  0.00  0.00     0.001 A 
ATOM     13  C   UNL d   1      -2.719   0.234  -0.093  0.00  0.00     0.001 A 
ENDROOT
BRANCH   4  14
ATOM     14  C   UNL d   1       3.459  -0.726  -2.907  0.00  0.00    -0.036 A 
ATOM     15  C   UNL d   1       4.846  -0.867  -2.813  0.00  0.00     0.012 A 
ATOM     16  C   UNL d   1       5.683  -0.074  -3.603  0.00  0.00     0.017 A 
ATOM     17  C   UNL d   1       5.141   0.864  -4.496  0.00  0.00     0.048 A 
ATOM     18  C   UNL d   1       3.747   0.946  -4.634  0.00  0.00     0.017 A 
ATOM     19  C   UNL d   1       2.912   0.156  -3.844  0.00  0.00     0.012 A 
BRANCH  17  20
ATOM     20  C   UNL d   1       6.022   1.818  -5.266  0.00  0.00     0.417 C 
ATOM     21  F   UNL d   1       7.348   1.683  -4.988  0.00  0.00    -0.166 F 
ATOM     22  F   UNL d   1       5.902   1.674  -6.613  0.00  0.00    -0.166 F 
ATOM     23  F   UNL d   1       5.720   3.121  -5.001  0.00  0.00    -0.166 F 
ENDBRANCH  17  20
ENDBRANCH   4  14
TORSDOF 2
