REMARK  3 active torsions:
REMARK  status: ('A' for Active; 'I' for Inactive)
REMARK    1  A    between atoms: N_2  and  C_1 
REMARK       I    between atoms: C_3  and  N_2 
REMARK    2  A    between atoms: C_7  and  N_2 
REMARK       I    between atoms: N_8  and  C_3 
REMARK    3  A    between atoms: C_12  and  N_8 
ROOT
ATOM      1  N   UNL d   1       2.943   0.572   0.300  0.00  0.00    -0.244 N 
ATOM      2  C   UNL d   1       4.139  -0.169   0.593  0.00  0.00     0.333 C 
ATOM      3  N   UNL d   1       4.124  -1.479   0.131  0.00  0.00    -0.308 N 
ATOM      4  O   UNL d   1       5.103   0.309   1.190  0.00  0.00    -0.246 OA
ATOM      5  H   UNL d   1       3.256  -1.784  -0.287  0.00  0.00     0.170 HD
ENDROOT
BRANCH   1   6
ATOM      6  C   UNL d   1       1.657   0.025   0.101  0.00  0.00     0.152 C 
ATOM      7  N   UNL d   1       0.690   0.634  -0.510  0.00  0.00    -0.369 N 
ATOM      8  C   UNL d   1      -0.545  -0.173  -0.488  0.00  0.00     0.142 C 
ATOM      9  HN  UNL d   1       0.773   1.551  -0.949  1.00  0.00     0.161 HD
ATOM     10  C   UNL d   1      -0.189  -1.656  -0.412  0.00  0.00     0.024 C 
ATOM     11  S   UNL d   1       1.285  -1.602   0.646  0.00  0.00    -0.083 SA
ATOM     12  C   UNL d   1       0.177  -2.219  -1.790  0.00  0.00     0.029 C 
ATOM     13  C   UNL d   1      -1.278  -2.493   0.247  0.00  0.00     0.029 C 
ENDBRANCH   1   6
BRANCH   1  14
ATOM     14  C   UNL d   1       3.053   2.035   0.329  0.00  0.00     0.046 A 
ATOM     15  C   UNL d   1       4.241   2.699  -0.025  0.00  0.00     0.037 A 
ATOM     16  C   UNL d   1       4.350   4.105   0.007  0.00  0.00    -0.060 A 
ATOM     17  C   UNL d   1       5.630   4.793  -0.358  0.00  0.00     0.048 C 
ATOM     18  C   UNL d   1       3.234   4.866   0.364  0.00  0.00     0.007 A 
ATOM     19  C   UNL d   1       2.048   4.240   0.717  0.00  0.00     0.003 A 
ATOM     20  C   UNL d   1       1.968   2.844   0.714  0.00  0.00     0.030 A 
ENDBRANCH   1  14
BRANCH   3  21
ATOM     21  C   UNL d   1       5.118  -2.475   0.235  0.00  0.00     0.037 A 
ATOM     22  C   UNL d   1       6.350  -2.302   0.865  0.00  0.00     0.053 A 
ATOM     23  C   UNL d   1       7.290  -3.337   0.853  0.00  0.00     0.036 A 
ATOM     24 CL   UNL d   1       8.818  -3.114   1.617  0.00  0.00    -0.084 Cl
ATOM     25  C   UNL d   1       7.014  -4.549   0.223  0.00  0.00     0.024 A 
ATOM     26  C   UNL d   1       5.773  -4.743  -0.375  0.00  0.00     0.004 A 
ATOM     27  C   UNL d   1       4.828  -3.715  -0.360  0.00  0.00     0.029 A 
ENDBRANCH   3  21
TORSDOF 3
