REMARK  1 active torsions:
REMARK  status: ('A' for Active; 'I' for Inactive)
REMARK    1  A    between atoms: C_5  and  C_3 
ROOT
ATOM      1  N   UNL d   1      -1.209   1.311  -0.015  0.00  0.00    -0.355 N 
ATOM      2  HN  UNL d   1      -1.227   2.331  -0.028  1.00  0.00     0.166 HD
ATOM      3  C   UNL d   1      -2.369   0.605   0.005  0.00  0.00     0.043 A 
ATOM      4  C   UNL d   1      -0.036   0.651  -0.018  0.00  0.00     0.043 A 
ATOM      5  C   UNL d   1      -2.373  -0.788  -0.007  0.00  0.00     0.031 A 
ATOM      6  C   UNL d   1       0.038  -0.756  -0.013  0.00  0.00    -0.009 A 
ATOM      7  C   UNL d   1      -1.162  -1.472  -0.014  0.00  0.00     0.016 A 
ATOM      8  C   UNL d   1       1.155   1.366  -0.022  0.00  0.00     0.030 A 
ATOM      9  C   UNL d   1       1.286  -1.405  -0.005  0.00  0.00     0.013 A 
ATOM     10  C   UNL d   1       2.399   0.727  -0.014  0.00  0.00     0.002 A 
ATOM     11  C   UNL d   1       2.464  -0.662  -0.005  0.00  0.00     0.001 A 
ENDROOT
BRANCH   3  12
ATOM     12  C   UNL d   1      -3.610   1.409   0.046  0.00  0.00    -0.009 A 
ATOM     13  C   UNL d   1      -3.667   2.679  -0.564  0.00  0.00     0.017 A 
ATOM     14  C   UNL d   1      -4.830   3.455  -0.528  0.00  0.00     0.043 A 
ATOM     15  C   UNL d   1      -5.954   2.970   0.125  0.00  0.00     0.116 A 
ATOM     16  C   UNL d   1      -5.936   1.728   0.743  0.00  0.00     0.043 A 
ATOM     17  F   UNL d   1      -7.069   3.711   0.165  0.00  0.00    -0.206 F 
ATOM     18  C   UNL d   1      -4.771   0.955   0.705  0.00  0.00     0.017 A 
ENDBRANCH   3  12
TORSDOF 1
