REMARK  4 active torsions:
REMARK  status: ('A' for Active; 'I' for Inactive)
REMARK    1  A    between atoms: N_5  and  C_3 
REMARK    2  A    between atoms: N_10  and  C_4 
REMARK    3  A    between atoms: C_12  and  N_10 
REMARK    4  A    between atoms: O_18  and  C_15 
ROOT
ATOM      1  N   UNL d   1       1.394   0.083   0.603  0.00  0.00    -0.021 N 
ATOM      2  HN  UNL d   1       2.356   0.086   0.264  1.00  0.00     0.203 HD
ATOM      3  C   UNL d   1       0.731   1.214   0.886  0.00  0.00     0.703 A 
ATOM      4  C   UNL d   1       0.713  -1.041   0.795  0.00  0.00     0.698 A 
ATOM      5  N   UNL d   1      -0.534   1.276   1.315  0.00  0.00    -0.186 N 
ATOM      6  HN  UNL d   1      -1.008   2.156   1.518  1.00  0.00     0.185 HD
ATOM      7  N   UNL d   1      -0.551  -1.077   1.218  0.00  0.00    -0.187 N 
ATOM      8  HN  UNL d   1      -1.051  -1.956   1.354  1.00  0.00     0.185 HD
ATOM      9  C   UNL d   1      -1.119   0.097   1.452  0.00  0.00     0.215 A 
ENDROOT
BRANCH   4  10
ATOM     10  N   UNL d   1       1.395  -2.242   0.583  0.00  0.00    -0.188 N 
ATOM     11  H   UNL d   1       2.300  -2.067   0.164  0.00  0.00     0.184 HD
BRANCH  10  12
ATOM     12  C   UNL d   1       0.843  -3.490   0.239  0.00  0.00     0.082 A 
ATOM     13  C   UNL d   1       1.442  -4.705   0.621  0.00  0.00     0.095 A 
ATOM     14  C   UNL d   1       0.885  -5.924   0.209  0.00  0.00     0.039 A 
ATOM     15  C   UNL d   1      -0.265  -5.956  -0.580  0.00  0.00     0.003 A 
ATOM     16  C   UNL d   1      -0.854  -4.767  -0.982  0.00  0.00     0.002 A 
ATOM     17  C   UNL d   1      -0.303  -3.549  -0.582  0.00  0.00     0.033 A 
BRANCH  13  18
ATOM     18  O   UNL d   1       2.595  -4.847   1.352  0.00  0.00    -0.354 OA
ATOM     19  C   UNL d   1       2.754  -3.966   2.458  0.00  0.00     0.210 C 
ENDBRANCH  13  18
ENDBRANCH  10  12
ENDBRANCH   4  10
BRANCH   3  20
ATOM     20  N   UNL d   1       1.438   2.449   0.762  0.00  0.00    -0.168 N 
ATOM     21  C   UNL d   1       0.970   3.694   1.144  0.00  0.00     0.114 A 
ATOM     22  C   UNL d   1       1.966   4.624   0.943  0.00  0.00     0.020 A 
ATOM     23  C   UNL d   1       3.067   3.944   0.376  0.00  0.00     0.020 A 
ATOM     24  C   UNL d   1       2.717   2.615   0.265  0.00  0.00     0.114 A 
ENDBRANCH   3  20
TORSDOF 4
