REMARK  4 active torsions:
REMARK  status: ('A' for Active; 'I' for Inactive)
REMARK    1  A    between atoms: N_3  and  C_1 
REMARK    2  A    between atoms: C_2  and  N_3 
REMARK    3  A    between atoms: N_7  and  C_2 
REMARK    4  A    between atoms: C_11  and  N_7 
ROOT
ATOM      1  C   UNL d   1       0.875  -3.264   0.133  0.00  0.00     0.178 C 
ATOM      2  S   UNL d   1      -0.508  -2.317   0.213  0.00  0.00    -0.040 SA
ENDROOT
BRANCH   1   3
ATOM      3  N   UNL d   1       0.652  -4.614   0.138  0.00  0.00    -0.313 N 
ATOM      4  H   UNL d   1      -0.310  -4.908   0.237  0.00  0.00     0.170 HD
BRANCH   3   5
ATOM      5  C   UNL d   1       1.590  -5.602   0.081  0.00  0.00     0.150 A 
ATOM      6  N   UNL d   1       2.889  -5.492  -0.069  0.00  0.00    -0.346 N 
ATOM      7  C   UNL d   1       3.444  -6.759  -0.036  0.00  0.00     0.097 A 
ATOM      8  HN  UNL d   1       3.403  -4.619  -0.189  1.00  0.00     0.167 HD
ATOM      9  C   UNL d   1       2.551  -7.802   0.113  0.00  0.00     0.070 A 
ATOM     10  S   UNL d   1       0.957  -7.178   0.218  0.00  0.00    -0.064 SA
ENDBRANCH   3   5
ENDBRANCH   1   3
BRANCH   1  11
ATOM     11  N   UNL d   1       2.178  -2.846   0.023  0.00  0.00    -0.333 N 
ATOM     12  H   UNL d   1       2.810  -3.553  -0.352  0.00  0.00     0.168 HD
BRANCH  11  13
ATOM     13  C   UNL d   1       2.744  -1.565   0.207  0.00  0.00     0.034 A 
ATOM     14  C   UNL d   1       2.228  -0.616   1.092  0.00  0.00     0.029 A 
ATOM     15  C   UNL d   1       2.841   0.632   1.237  0.00  0.00     0.002 A 
ATOM     16  C   UNL d   1       3.981   0.941   0.499  0.00  0.00     0.000 A 
ATOM     17  C   UNL d   1       4.523  -0.009  -0.363  0.00  0.00     0.002 A 
ATOM     18  C   UNL d   1       3.918  -1.264  -0.494  0.00  0.00     0.029 A 
ENDBRANCH  11  13
ENDBRANCH   1  11
TORSDOF 4
