REMARK  4 active torsions:
REMARK  status: ('A' for Active; 'I' for Inactive)
REMARK    1  A    between atoms: C_2  and  S_1 
REMARK    2  A    between atoms: N_8  and  S_1 
REMARK    3  A    between atoms: C_13  and  N_8 
REMARK    4  A    between atoms: C_11  and  C_12 
ROOT
ATOM      1  N   UNL d   1       0.638   1.313  -0.665  0.00  0.00    -0.281 N 
ATOM      2  H   UNL d   1       0.025   0.778  -0.049  0.00  0.00     0.179 HD
ENDROOT
BRANCH   1   3
ATOM      3  S   UNL d   1       0.441   0.882  -2.276  0.00  0.00     0.267 S 
ATOM      4  O   UNL d   1       0.064  -0.513  -2.276  0.00  0.00    -0.200 OA
ATOM      5  O   UNL d   1      -0.349   1.878  -2.962  0.00  0.00    -0.200 OA
BRANCH   3   6
ATOM      6  C   UNL d   1       1.972   0.885  -3.024  0.00  0.00     0.135 A 
ATOM      7  C   UNL d   1       3.102   0.246  -2.571  0.00  0.00     0.098 A 
ATOM      8  O   UNL d   1       4.118   0.485  -3.443  0.00  0.00    -0.241 OA
ATOM      9  C   UNL d   1       3.436  -0.611  -1.419  0.00  0.00     0.081 C 
ATOM     10  N   UNL d   1       3.659   1.263  -4.487  0.00  0.00    -0.264 N 
ATOM     11  C   UNL d   1       2.359   1.484  -4.242  0.00  0.00     0.054 A 
ATOM     12  HN  UNL d   1       4.199   1.601  -5.284  1.00  0.00     0.194 HD
ATOM     13  C   UNL d   1       1.557   2.262  -5.215  0.00  0.00     0.072 C 
ENDBRANCH   3   6
ENDBRANCH   1   3
BRANCH   1  14
ATOM     14  C   UNL d   1       0.834   2.678  -0.305  0.00  0.00     0.042 A 
ATOM     15  C   UNL d   1      -0.213   3.586  -0.219  0.00  0.00     0.030 A 
ATOM     16  C   UNL d   1       0.009   4.856   0.334  0.00  0.00     0.010 A 
ATOM     17  C   UNL d   1       1.275   5.239   0.822  0.00  0.00    -0.051 A 
ATOM     18  C   UNL d   1       2.320   4.316   0.675  0.00  0.00     0.010 A 
ATOM     19  C   UNL d   1       2.104   3.044   0.123  0.00  0.00     0.030 A 
BRANCH  17  20
ATOM     20  C   UNL d   1       1.482   6.598   1.526  0.00  0.00    -0.024 C 
ATOM     21  C   UNL d   1       2.925   6.809   2.043  0.00  0.00     0.019 C 
ATOM     22  C   UNL d   1       1.168   7.756   0.558  0.00  0.00     0.019 C 
ATOM     23  C   UNL d   1       0.549   6.703   2.753  0.00  0.00     0.019 C 
ENDBRANCH  17  20
ENDBRANCH   1  14
TORSDOF 4
