REMARK  5 active torsions:
REMARK  status: ('A' for Active; 'I' for Inactive)
REMARK    1  A    between atoms: C_2  and  S_1 
REMARK    2  A    between atoms: C_3  and  S_1 
REMARK    3  A    between atoms: C_9  and  C_3 
REMARK    4  A    between atoms: S_8  and  C_9 
REMARK    5  A    between atoms: C_10  and  S_8 
ROOT
ATOM      1  S   UNL d   1       1.023  -0.091   0.105  0.00  0.00     0.176 S 
ATOM      2  O   UNL d   1       2.464   0.039   0.021  0.00  0.00    -0.223 OA
ATOM      3  O   UNL d   1       0.384  -1.389   0.011  0.00  0.00    -0.223 OA
ENDROOT
BRANCH   1   4
ATOM      4  C   UNL d   1       0.322   0.936  -1.174  0.00  0.00     0.059 A 
ATOM      5  C   UNL d   1       1.069   1.997  -1.695  0.00  0.00     0.025 A 
ATOM      6  C   UNL d   1       0.517   2.796  -2.700  0.00  0.00     0.025 A 
ATOM      7  C   UNL d   1      -0.765   2.522  -3.182  0.00  0.00     0.034 A 
ATOM      8  C   UNL d   1      -1.500   1.452  -2.673  0.00  0.00     0.025 A 
ATOM      9 CL   UNL d   1      -1.440   3.510  -4.419  0.00  0.00    -0.084 Cl
ATOM     10  C   UNL d   1      -0.955   0.648  -1.667  0.00  0.00     0.025 A 
ENDBRANCH   1   4
BRANCH   1  11
ATOM     11  C   UNL d   1       0.473   0.702   1.599  0.00  0.00     0.156 C 
BRANCH  11  12
ATOM     12  C   UNL d   1       0.983  -0.038   2.822  0.00  0.00     0.095 C 
BRANCH  12  13
ATOM     13  S   UNL d   1       0.393   0.847   4.313  0.00  0.00    -0.129 SA
BRANCH  13  14
ATOM     14  C   UNL d   1       1.020  -0.225   5.591  0.00  0.00     0.000 A 
ATOM     15  C   UNL d   1       2.392  -0.391   5.793  0.00  0.00     0.019 A 
ATOM     16  C   UNL d   1       2.859  -1.229   6.810  0.00  0.00     0.008 A 
ATOM     17  C   UNL d   1       1.960  -1.909   7.641  0.00  0.00    -0.062 A 
ATOM     18  C   UNL d   1       0.587  -1.717   7.455  0.00  0.00     0.008 A 
ATOM     19  C   UNL d   1       2.474  -2.830   8.708  0.00  0.00     0.048 C 
ATOM     20  C   UNL d   1       0.121  -0.877   6.440  0.00  0.00     0.019 A 
ENDBRANCH  13  14
ENDBRANCH  12  13
ENDBRANCH  11  12
ENDBRANCH   1  11
TORSDOF 5
