REMARK  4 active torsions:
REMARK  status: ('A' for Active; 'I' for Inactive)
REMARK    1  A    between atoms: N_7  and  C_1 
REMARK    2  A    between atoms: C_9  and  N_2 
REMARK    3  A    between atoms: C_10  and  C_6 
REMARK       I    between atoms: C_8  and  N_7 
REMARK    4  A    between atoms: C_12  and  C_8 
ROOT
ATOM      1  C   UNL d   1      -0.497  -1.200  -0.082  0.00  0.00     0.132 C 
ATOM      2  N   UNL d   1       0.801  -0.798   0.203  0.00  0.00    -0.240 N 
ATOM      3  N   UNL d   1       0.861   0.533   0.478  0.00  0.00    -0.291 N 
ATOM      4  HN  UNL d   1       1.638   1.047   0.893  1.00  0.00     0.187 HD
ATOM      5  C   UNL d   1      -1.213  -0.036  -0.242  0.00  0.00     0.082 C 
ATOM      6  C   UNL d   1      -0.326   1.023   0.084  0.00  0.00     0.062 C 
ENDROOT
BRANCH   1   7
ATOM      7  N   UNL d   1      -0.915  -2.522  -0.177  0.00  0.00    -0.311 N 
ATOM      8  C   UNL d   1      -1.833  -2.894  -1.147  0.00  0.00     0.227 C 
ATOM      9  O   UNL d   1      -2.326  -2.103  -1.957  0.00  0.00    -0.273 OA
ATOM     10  H   UNL d   1      -0.364  -3.242   0.278  0.00  0.00     0.170 HD
BRANCH   8  11
ATOM     11  C   UNL d   1      -2.130  -4.404  -1.213  0.00  0.00     0.078 C 
ATOM     12  C   UNL d   1      -3.637  -4.770  -1.331  0.00  0.00     0.014 C 
ATOM     13  C   UNL d   1      -3.313  -6.062  -0.564  0.00  0.00     0.002 C 
ATOM     14  C   UNL d   1      -2.120  -5.301   0.055  0.00  0.00     0.014 C 
ENDBRANCH   8  11
ENDBRANCH   1   7
BRANCH   2  15
ATOM     15  C   UNL d   1       1.995  -1.576   0.121  0.00  0.00     0.058 A 
ATOM     16  C   UNL d   1       2.052  -2.727  -0.685  0.00  0.00     0.033 A 
ATOM     17  C   UNL d   1       3.221  -3.482  -0.758  0.00  0.00     0.020 A 
ATOM     18  C   UNL d   1       4.346  -3.089  -0.042  0.00  0.00     0.006 A 
ATOM     19  C   UNL d   1       4.313  -1.925   0.732  0.00  0.00     0.020 A 
ATOM     20  I   UNL d   1       6.079  -4.225  -0.140  0.00  0.00    -0.045 I 
ATOM     21  C   UNL d   1       3.144  -1.160   0.802  0.00  0.00     0.033 A 
ENDBRANCH   2  15
BRANCH   6  22
ATOM     22  C   UNL d   1      -0.616   2.458   0.038  0.00  0.00    -0.008 A 
ATOM     23  C   UNL d   1       0.155   3.375   0.773  0.00  0.00     0.015 A 
ATOM     24  C   UNL d   1      -0.118   4.746   0.725  0.00  0.00     0.024 A 
ATOM     25  C   UNL d   1      -1.167   5.216  -0.070  0.00  0.00     0.034 A 
ATOM     26  C   UNL d   1      -1.939   4.327  -0.811  0.00  0.00     0.024 A 
ATOM     27 CL   UNL d   1      -1.500   6.900  -0.137  0.00  0.00    -0.084 Cl
ATOM     28  C   UNL d   1      -1.664   2.955  -0.757  0.00  0.00     0.015 A 
ENDBRANCH   6  22
TORSDOF 4
