REMARK  1 active torsions:
REMARK  status: ('A' for Active; 'I' for Inactive)
REMARK    1  A    between atoms: C_4  and  N_1 
ROOT
ATOM      1  O   UNL d   1       0.149   1.825  -1.190  0.00  0.00    -0.285 OA
ATOM      2  C   UNL d   1      -0.657   2.444  -2.088  0.00  0.00     0.296 C 
ATOM      3  C   UNL d   1       0.302   0.397  -1.276  0.00  0.00     0.305 C 
ATOM      4  C   UNL d   1      -1.552   1.575  -2.904  0.00  0.00     0.046 A 
ATOM      5  C   UNL d   1      -1.744   0.228  -2.560  0.00  0.00    -0.038 A 
ATOM      6  C   UNL d   1      -1.038  -0.311  -1.349  0.00  0.00     0.100 C 
ATOM      7  O   UNL d   1      -0.657   3.658  -2.224  0.00  0.00    -0.259 OA
ATOM      8  C   UNL d   1      -2.608  -0.566  -3.321  0.00  0.00     0.008 A 
ATOM      9  C   UNL d   1      -2.218   2.120  -4.007  0.00  0.00     0.018 A 
ATOM     10  C   UNL d   1      -3.261  -0.020  -4.428  0.00  0.00     0.001 A 
ATOM     11  C   UNL d   1      -3.067   1.319  -4.770  0.00  0.00     0.001 A 
ENDROOT
BRANCH   3  12
ATOM     12  N   UNL d   1       1.021  -0.071  -0.030  0.00  0.00    -0.123 N 
ATOM     13  O   UNL d   1       0.487   0.148   1.066  0.00  0.00    -0.534 OA
ATOM     14  O   UNL d   1       2.085  -0.683  -0.199  0.00  0.00    -0.534 OA
ENDBRANCH   3  12
TORSDOF 1
