REMARK  6 active torsions:
REMARK  status: ('A' for Active; 'I' for Inactive)
REMARK    1  A    between atoms: C_2  and  N_1 
REMARK       I    between atoms: C_4  and  N_1 
REMARK    2  A    between atoms: C_15  and  C_4 
REMARK    3  A    between atoms: C_6  and  C_16 
REMARK    4  A    between atoms: O_12  and  C_6 
REMARK    5  A    between atoms: C_17  and  C_15 
REMARK    6  A    between atoms: C_16  and  C_17 
ROOT
ATOM      1  N   UNL d   1       1.153  -0.098  -0.093  0.00  0.00    -0.325 N 
ATOM      2  C   UNL d   1       2.515  -0.032   0.139  0.00  0.00     0.222 C 
ATOM      3  O   UNL d   1       3.068   0.607   1.028  0.00  0.00    -0.273 OA
ATOM      4  H   UNL d   1       0.830  -0.880  -0.651  0.00  0.00     0.169 HD
ENDROOT
BRANCH   1   5
ATOM      5  C   UNL d   1       0.158   0.649   0.579  0.00  0.00     0.073 A 
ATOM      6  C   UNL d   1       0.372   1.881   1.217  0.00  0.00     0.145 A 
ATOM      7  C   UNL d   1      -0.659   2.538   1.884  0.00  0.00     0.086 A 
ATOM      8  F   UNL d   1       1.546   2.521   1.139  0.00  0.00    -0.204 F 
ATOM      9  C   UNL d   1      -1.925   1.975   1.897  0.00  0.00     0.119 A 
ATOM     10  C   UNL d   1      -2.178   0.775   1.242  0.00  0.00     0.044 A 
ATOM     11  F   UNL d   1      -2.921   2.601   2.535  0.00  0.00    -0.206 F 
ATOM     12  C   UNL d   1      -1.140   0.117   0.576  0.00  0.00     0.036 A 
ENDBRANCH   1   5
BRANCH   2  13
ATOM     13  C   UNL d   1       3.315  -0.915  -0.806  0.00  0.00     0.103 C 
BRANCH  13  14
ATOM     14  C   UNL d   1       4.630  -1.398  -0.181  0.00  0.00     0.019 C 
BRANCH  14  15
ATOM     15  C   UNL d   1       4.437  -2.255   1.075  0.00  0.00     0.110 C 
BRANCH  15  16
ATOM     16  C   UNL d   1       3.632  -3.503   0.799  0.00  0.00     0.139 C 
ATOM     17  O   UNL d   1       3.642  -4.114  -0.259  0.00  0.00    -0.650 OA
BRANCH  16  18
ATOM     18  O   UNL d   1       2.876  -3.892   1.848  0.00  0.00    -0.776 OA
ATOM     19  H   UNL d   1       2.966  -3.324   2.638  0.00  0.00     0.167 HD
ENDBRANCH  16  18
ENDBRANCH  15  16
ENDBRANCH  14  15
ENDBRANCH  13  14
ENDBRANCH   2  13
TORSDOF 6
