REMARK  7 active torsions:
REMARK  status: ('A' for Active; 'I' for Inactive)
REMARK    1  A    between atoms: C_7  and  C_1 
REMARK       I    between atoms: C_6  and  N_8 
REMARK    2  A    between atoms: C_14  and  C_6 
REMARK    3  A    between atoms: N_8  and  C_7 
REMARK    4  A    between atoms: C_9  and  C_15 
REMARK    5  A    between atoms: O_13  and  C_9 
REMARK    6  A    between atoms: S_12  and  C_14 
REMARK    7  A    between atoms: C_15  and  S_12 
ROOT
ATOM      1  C   UNL d   1      -0.425  -5.248   0.027  0.00  0.00     0.227 C 
ATOM      2  N   UNL d   1      -0.298  -3.883   0.106  0.00  0.00    -0.356 N 
ATOM      3  O   UNL d   1       0.526  -6.015  -0.139  0.00  0.00    -0.273 OA
ATOM      4  H   UNL d   1      -1.123  -3.301   0.194  0.00  0.00     0.162 HD
ENDROOT
BRANCH   2   5
ATOM      5  C   UNL d   1       0.987  -3.237  -0.039  0.00  0.00     0.162 C 
BRANCH   5   6
ATOM      6  C   UNL d   1       0.799  -1.753   0.034  0.00  0.00    -0.022 A 
ATOM      7  C   UNL d   1       0.759  -1.052   1.225  0.00  0.00     0.060 A 
ATOM      8  S   UNL d   1       0.554   0.623   1.007  0.00  0.00    -0.101 SA
ATOM      9  C   UNL d   1       0.517   0.470  -0.706  0.00  0.00     0.015 A 
ATOM     10  C   UNL d   1       0.656  -0.864  -1.105  0.00  0.00    -0.011 A 
ATOM     11  C   UNL d   1       0.370   1.519  -1.637  0.00  0.00     0.019 A 
ATOM     12  C   UNL d   1       0.644  -1.129  -2.502  0.00  0.00     0.013 A 
ATOM     13  C   UNL d   1       0.501  -0.090  -3.429  0.00  0.00     0.001 A 
ATOM     14  C   UNL d   1       0.365   1.221  -3.000  0.00  0.00     0.001 A 
ENDBRANCH   5   6
ENDBRANCH   2   5
BRANCH   1  15
ATOM     15  C   UNL d   1      -1.850  -5.771   0.089  0.00  0.00     0.177 C 
BRANCH  15  16
ATOM     16  S   UNL d   1      -2.490  -6.071  -1.591  0.00  0.00    -0.149 SA
BRANCH  16  17
ATOM     17  C   UNL d   1      -1.282  -7.280  -2.231  0.00  0.00     0.184 C 
BRANCH  17  18
ATOM     18  C   UNL d   1      -1.218  -8.539  -1.397  0.00  0.00     0.149 C 
ATOM     19  O   UNL d   1      -1.990  -9.480  -1.519  0.00  0.00    -0.649 OA
BRANCH  18  20
ATOM     20  O   UNL d   1      -0.233  -8.538  -0.467  0.00  0.00    -0.776 OA
ATOM     21  H   UNL d   1       0.300  -7.707  -0.427  0.00  0.00     0.167 HD
ENDBRANCH  18  20
ENDBRANCH  17  18
ENDBRANCH  16  17
ENDBRANCH  15  16
ENDBRANCH   1  15
TORSDOF 7
