REMARK  3 active torsions:
REMARK  status: ('A' for Active; 'I' for Inactive)
REMARK    1  A    between atoms: N_4  and  C_3 
REMARK       I    between atoms: C_5  and  N_4 
REMARK    2  A    between atoms: C_9  and  C_5 
REMARK    3  A    between atoms: C_10  and  C_11 
ROOT
ATOM      1  N   UNL d   1      -1.153  -1.217  -1.967  0.00  0.00    -0.351 N 
ATOM      2  C   UNL d   1      -2.216  -1.103  -2.839  0.00  0.00     0.252 C 
ATOM      3  O   UNL d   1      -3.296  -0.606  -2.547  0.00  0.00    -0.268 OA
ATOM      4  H   UNL d   1      -0.375  -1.807  -2.234  0.00  0.00     0.163 HD
ENDROOT
BRANCH   1   5
ATOM      5  C   UNL d   1      -1.171  -0.695  -0.607  0.00  0.00     0.094 C 
ATOM      6  C   UNL d   1      -1.610  -1.709   0.511  0.00  0.00    -0.016 C 
ATOM      7  C   UNL d   1      -0.974  -1.085   1.801  0.00  0.00    -0.035 C 
ATOM      8  C   UNL d   1      -0.784  -3.013   0.341  0.00  0.00     0.012 C 
ATOM      9  C   UNL d   1      -3.106  -1.957   0.571  0.00  0.00     0.018 C 
ATOM     10  C   UNL d   1       0.437  -1.100   1.162  0.00  0.00    -0.004 C 
ATOM     11  C   UNL d   1      -1.076  -1.932   3.088  0.00  0.00     0.016 C 
ATOM     12  C   UNL d   1      -1.477   0.322   2.184  0.00  0.00     0.016 C 
ATOM     13  C   UNL d   1       0.632  -2.577   0.752  0.00  0.00     0.006 C 
ATOM     14  C   UNL d   1       0.251  -0.296  -0.145  0.00  0.00     0.031 C 
ENDBRANCH   1   5
BRANCH   2  15
ATOM     15  C   UNL d   1      -1.982  -1.653  -4.207  0.00  0.00     0.032 A 
ATOM     16  C   UNL d   1      -3.034  -2.254  -4.898  0.00  0.00     0.017 A 
ATOM     17  C   UNL d   1      -2.815  -2.829  -6.159  0.00  0.00     0.009 A 
ATOM     18  C   UNL d   1      -1.545  -2.804  -6.771  0.00  0.00    -0.051 A 
ATOM     19  C   UNL d   1      -0.518  -2.134  -6.084  0.00  0.00     0.009 A 
ATOM     20  C   UNL d   1      -0.730  -1.566  -4.820  0.00  0.00     0.017 A 
BRANCH  18  21
ATOM     21  C   UNL d   1      -1.307  -3.521  -8.116  0.00  0.00    -0.024 C 
ATOM     22  C   UNL d   1       0.129  -3.348  -8.665  0.00  0.00     0.019 C 
ATOM     23  C   UNL d   1      -1.543  -5.036  -7.933  0.00  0.00     0.019 C 
ATOM     24  C   UNL d   1      -2.270  -2.995  -9.203  0.00  0.00     0.019 C 
ENDBRANCH  18  21
ENDBRANCH   2  15
TORSDOF 3
