REMARK  6 active torsions:
REMARK  status: ('A' for Active; 'I' for Inactive)
REMARK    1  A    between atoms: C_5  and  N_1 
REMARK    2  A    between atoms: N_2  and  C_6 
REMARK    3  A    between atoms: C_3  and  C_7 
REMARK    4  A    between atoms: C_4  and  C_8 
REMARK    5  A    between atoms: C_11  and  C_21 
REMARK    6  A    between atoms: C_21  and  C_12 
ROOT
ATOM      1  C   UNL d   1      -3.187  -2.358   1.258  0.00  0.00     0.077 C 
ENDROOT
BRANCH   1   2
ATOM      2  C   UNL d   1      -4.069  -2.790   2.410  0.00  0.00    -0.051 A 
ATOM      3  C   UNL d   1      -4.109  -4.134   2.811  0.00  0.00     0.043 A 
ATOM      4  C   UNL d   1      -4.996  -4.542   3.817  0.00  0.00     0.104 A 
ATOM      5  C   UNL d   1      -5.838  -3.617   4.448  0.00  0.00     0.052 A 
ATOM      6  C   UNL d   1      -5.794  -2.265   4.074  0.00  0.00     0.050 A 
ATOM      7  C   UNL d   1      -4.895  -1.862   3.067  0.00  0.00     0.023 A 
BRANCH   4   8
ATOM      8  N   UNL d   1      -5.077  -5.965   4.178  0.00  0.00    -0.116 N 
ATOM      9  O   UNL d   1      -5.958  -6.305   4.980  0.00  0.00    -0.532 OA
ATOM     10  O   UNL d   1      -4.268  -6.739   3.649  0.00  0.00    -0.532 OA
ENDBRANCH   4   8
BRANCH   6  11
ATOM     11  C   UNL d   1      -6.722  -1.251   4.706  0.00  0.00     0.417 C 
ATOM     12  F   UNL d   1      -7.607  -1.798   5.582  0.00  0.00    -0.166 F 
ATOM     13  F   UNL d   1      -6.051  -0.290   5.396  0.00  0.00    -0.166 F 
ATOM     14  F   UNL d   1      -7.471  -0.596   3.777  0.00  0.00    -0.166 F 
ENDBRANCH   6  11
ENDBRANCH   1   2
BRANCH   1  15
ATOM     15  C   UNL d   1      -1.780  -1.987   1.663  0.00  0.00    -0.051 A 
ATOM     16  C   UNL d   1      -1.450  -0.654   1.944  0.00  0.00     0.043 A 
ATOM     17  C   UNL d   1      -0.148  -0.323   2.344  0.00  0.00     0.104 A 
ATOM     18  C   UNL d   1       0.834  -1.315   2.480  0.00  0.00     0.052 A 
ATOM     19  C   UNL d   1       0.515  -2.655   2.211  0.00  0.00     0.050 A 
ATOM     20  C   UNL d   1      -0.788  -2.974   1.787  0.00  0.00     0.023 A 
BRANCH  17  21
ATOM     21  N   UNL d   1       0.188   1.077   2.638  0.00  0.00    -0.116 N 
ATOM     22  O   UNL d   1       1.333   1.323   3.037  0.00  0.00    -0.532 OA
ATOM     23  O   UNL d   1      -0.698   1.929   2.461  0.00  0.00    -0.532 OA
ENDBRANCH  17  21
BRANCH  19  24
ATOM     24  C   UNL d   1       1.536  -3.756   2.387  0.00  0.00     0.417 C 
ATOM     25  F   UNL d   1       2.711  -3.325   2.920  0.00  0.00    -0.166 F 
ATOM     26  F   UNL d   1       1.088  -4.740   3.213  0.00  0.00    -0.166 F 
ATOM     27  F   UNL d   1       1.852  -4.364   1.212  0.00  0.00    -0.166 F 
ENDBRANCH  19  24
ENDBRANCH   1  15
TORSDOF 6
