REMARK  6 active torsions:
REMARK  status: ('A' for Active; 'I' for Inactive)
REMARK    1  A    between atoms: C_8  and  C_1 
REMARK    2  A    between atoms: C_10  and  C_3 
REMARK    3  A    between atoms: C_9  and  C_4 
REMARK    4  A    between atoms: C_6  and  C_12 
REMARK    5  A    between atoms: O_26  and  C_8 
REMARK    6  A    between atoms: C_29  and  O_26 
ROOT
ATOM      1  C   UNL d   1       0.226   1.299   0.297  0.00  0.00     0.168 C 
ATOM      2  C   UNL d   1       0.995  -0.007   0.332  0.00  0.00     0.164 C 
ATOM      3  C   UNL d   1      -1.121   1.174  -0.440  0.00  0.00     0.044 C 
ATOM      4  C   UNL d   1      -1.111  -1.268   0.239  0.00  0.00    -0.044 C 
ATOM      5  C   UNL d   1       0.229  -1.281   0.309  0.00  0.00     0.059 C 
ATOM      6  C   UNL d   1      -1.925  -0.002   0.156  0.00  0.00     0.050 C 
ATOM      7  O   UNL d   1       2.217  -0.073   0.437  0.00  0.00    -0.292 OA
ENDROOT
BRANCH   3   8
ATOM      8  C   UNL d   1      -1.063   1.080  -1.967  0.00  0.00    -0.052 A 
ATOM      9  C   UNL d   1       0.012   0.509  -2.663  0.00  0.00     0.008 A 
ATOM     10  C   UNL d   1       0.036   0.475  -4.056  0.00  0.00     0.017 A 
ATOM     11  C   UNL d   1      -1.020   1.006  -4.800  0.00  0.00     0.047 A 
ATOM     12  C   UNL d   1      -2.111   1.558  -4.118  0.00  0.00     0.017 A 
ATOM     13  C   UNL d   1      -2.133   1.592  -2.718  0.00  0.00     0.008 A 
BRANCH  11  14
ATOM     14  C   UNL d   1      -0.942   0.982  -6.303  0.00  0.00     0.417 C 
ATOM     15  F   UNL d   1      -2.023   1.542  -6.917  0.00  0.00    -0.166 F 
ATOM     16  F   UNL d   1       0.145   1.649  -6.781  0.00  0.00    -0.166 F 
ATOM     17  F   UNL d   1      -0.848  -0.284  -6.798  0.00  0.00    -0.166 F 
ENDBRANCH  11  14
ENDBRANCH   3   8
BRANCH   1  18
ATOM     18  C   UNL d   1       1.023   2.472  -0.223  0.00  0.00     0.271 C 
ATOM     19  O   UNL d   1       1.920   2.426  -1.051  0.00  0.00    -0.264 OA
BRANCH  18  20
ATOM     20  O   UNL d   1       0.597   3.618   0.394  0.00  0.00    -0.321 OA
BRANCH  20  21
ATOM     21  C   UNL d   1       1.489   4.737   0.275  0.00  0.00     0.174 C 
ATOM     22  C   UNL d   1       2.492   4.656   1.412  0.00  0.00     0.034 C 
ENDBRANCH  20  21
ENDBRANCH  18  20
ENDBRANCH   1  18
BRANCH   4  23
ATOM     23  C   UNL d   1      -1.841  -2.537   0.114  0.00  0.00    -0.029 A 
ATOM     24  C   UNL d   1      -2.126  -3.033  -1.165  0.00  0.00     0.024 A 
ATOM     25  C   UNL d   1      -2.826  -4.238  -1.335  0.00  0.00    -0.025 A 
ATOM     26  C   UNL d   1      -3.117  -4.734  -2.615  0.00  0.00     0.012 A 
ATOM     27  C   UNL d   1      -3.247  -4.962  -0.197  0.00  0.00    -0.026 A 
ATOM     28  C   UNL d   1      -3.818  -5.929  -2.775  0.00  0.00     0.001 A 
ATOM     29  C   UNL d   1      -4.237  -6.643  -1.656  0.00  0.00     0.001 A 
ATOM     30  C   UNL d   1      -3.954  -6.164  -0.376  0.00  0.00     0.012 A 
ATOM     31  C   UNL d   1      -2.948  -4.461   1.081  0.00  0.00     0.013 A 
ATOM     32  C   UNL d   1      -2.252  -3.256   1.234  0.00  0.00     0.013 A 
ENDBRANCH   4  23
TORSDOF 6
