REMARK  4 active torsions:
REMARK  status: ('A' for Active; 'I' for Inactive)
REMARK    1  A    between atoms: C_9  and  C_1 
REMARK    2  A    between atoms: C_7  and  S_8 
REMARK    3  A    between atoms: N_11  and  C_7 
REMARK    4  A    between atoms: S_8  and  C_9 
ROOT
ATOM      1  C   UNL d   1      -1.208   1.119   0.043  0.00  0.00    -0.035 C 
ATOM      2  C   UNL d   1       0.068   1.739   0.183  0.00  0.00    -0.048 C 
ATOM      3  C   UNL d   1      -1.260  -0.310  -0.008  0.00  0.00    -0.048 C 
ATOM      4  C   UNL d   1      -0.061  -1.076  -0.077  0.00  0.00    -0.049 C 
ATOM      5  C   UNL d   1       1.197  -0.428  -0.067  0.00  0.00    -0.049 C 
ATOM      6  C   UNL d   1       1.259   0.982   0.019  0.00  0.00    -0.049 C 
ATOM      7  C   UNL d   1       0.189   3.204   0.545  0.00  0.00     0.049 C 
ATOM      8  C   UNL d   1      -2.578  -1.060   0.038  0.00  0.00     0.049 C 
ATOM      9  C   UNL d   1       2.494  -1.214  -0.129  0.00  0.00     0.049 C 
ATOM     10  C   UNL d   1      -0.097  -2.593  -0.124  0.00  0.00     0.049 C 
ATOM     11  C   UNL d   1       2.608   1.671  -0.010  0.00  0.00     0.049 C 
ENDROOT
BRANCH   1  12
ATOM     12  C   UNL d   1      -2.504   1.929   0.052  0.00  0.00     0.121 C 
BRANCH  12  13
ATOM     13  S   UNL d   1      -2.563   3.390  -1.031  0.00  0.00    -0.096 SA
BRANCH  13  14
ATOM     14  C   UNL d   1      -4.213   3.979  -0.747  0.00  0.00     0.136 C 
ATOM     15  S   UNL d   1      -4.742   4.284   0.827  0.00  0.00    -0.053 SA
BRANCH  14  16
ATOM     16  N   UNL d   1      -4.980   4.213  -1.902  0.00  0.00    -0.375 N 
ATOM     17  C   UNL d   1      -4.463   4.115  -3.269  0.00  0.00     0.150 C 
ATOM     18  C   UNL d   1      -6.413   4.515  -1.851  0.00  0.00     0.150 C 
ENDBRANCH  14  16
ENDBRANCH  13  14
ENDBRANCH  12  13
ENDBRANCH   1  12
TORSDOF 4
