REMARK  7 active torsions:
REMARK  status: ('A' for Active; 'I' for Inactive)
REMARK    1  A    between atoms: N_15  and  C_4 
REMARK    2  A    between atoms: O_16  and  C_8 
REMARK    3  A    between atoms: O_17  and  C_9 
REMARK    4  A    between atoms: N_12  and  C_18 
REMARK    5  A    between atoms: C_22  and  N_15 
REMARK    6  A    between atoms: C_18  and  C_19 
REMARK    7  A    between atoms: C_19  and  C_22 
ROOT
ATOM      1  C   UNL d   1      -1.964   0.391  -0.512  0.00  0.00     0.032 A 
ATOM      2  C   UNL d   1      -1.715  -0.922  -0.150  0.00  0.00     0.049 A 
ATOM      3  C   UNL d   1      -3.154   0.687  -1.228  0.00  0.00     0.056 A 
ATOM      4  C   UNL d   1      -0.976   1.327  -0.146  0.00  0.00     0.093 A 
ATOM      5  C   UNL d   1      -2.656  -1.876  -0.523  0.00  0.00     0.070 A 
ATOM      6  N   UNL d   1       0.147   0.969   0.496  0.00  0.00    -0.342 N 
ATOM      7  HN  UNL d   1       0.871   1.647   0.734  1.00  0.00     0.167 HD
ATOM      8  C   UNL d   1      -4.110  -0.289  -1.607  0.00  0.00     0.102 A 
ATOM      9  C   UNL d   1      -3.849  -1.607  -1.250  0.00  0.00     0.103 A 
ATOM     10  N   UNL d   1      -0.616  -1.290   0.520  0.00  0.00    -0.351 N 
ATOM     11  HN  UNL d   1      -0.458  -2.259   0.800  1.00  0.00     0.166 HD
ATOM     12  C   UNL d   1       0.264  -0.324   0.805  0.00  0.00     0.182 A 
ENDROOT
BRANCH   4  13
ATOM     13  N   UNL d   1      -1.173   2.680  -0.465  0.00  0.00    -0.278 NA
ATOM     14  H   UNL d   1      -2.031   2.997  -0.022  0.00  0.00     0.129 HD
BRANCH  13  15
ATOM     15  C   UNL d   1      -0.046   3.579  -0.230  0.00  0.00     0.095 C 
BRANCH  15  16
ATOM     16  C   UNL d   1      -0.547   4.998  -0.453  0.00  0.00     0.045 C 
BRANCH  16  17
ATOM     17  C   UNL d   1       0.567   6.043  -0.528  0.00  0.00     0.273 C 
BRANCH  17  18
ATOM     18  N   UNL d   1      -0.111   7.260  -0.930  0.00  0.00     0.092 N 
ATOM     19  C   UNL d   1      -0.581   8.128   0.153  0.00  0.00     0.298 C 
ATOM     20  C   UNL d   1      -1.622   9.099  -0.430  0.00  0.00     0.198 C 
ATOM     21  O   UNL d   1      -1.083   9.861  -1.524  0.00  0.00    -0.388 OA
ATOM     22  C   UNL d   1      -0.572   8.988  -2.546  0.00  0.00     0.198 C 
ATOM     23  C   UNL d   1       0.512   8.053  -1.988  0.00  0.00     0.298 C 
ENDBRANCH  17  18
ENDBRANCH  16  17
ENDBRANCH  15  16
ENDBRANCH  13  15
ENDBRANCH   4  13
BRANCH   8  24
ATOM     24  O   UNL d   1      -5.098   0.370  -2.264  0.00  0.00    -0.353 OA
ATOM     25  C   UNL d   1      -6.195  -0.206  -2.922  0.00  0.00     0.210 C 
ENDBRANCH   8  24
BRANCH   9  26
ATOM     26  O   UNL d   1      -4.460  -2.804  -1.450  0.00  0.00    -0.353 OA
ATOM     27  C   UNL d   1      -5.742  -2.991  -1.984  0.00  0.00     0.210 C 
ENDBRANCH   9  26
TORSDOF 7
