REMARK  6 active torsions:
REMARK  status: ('A' for Active; 'I' for Inactive)
REMARK    1  A    between atoms: C_5  and  S_10 
REMARK    2  A    between atoms: S_9  and  C_6 
REMARK    3  A    between atoms: C_7  and  C_12 
REMARK    4  A    between atoms: C_11  and  C_8 
REMARK    5  A    between atoms: C_12  and  S_9 
REMARK    6  A    between atoms: S_10  and  C_11 
ROOT
ATOM      1  C   UNL d   1      -1.382   5.338  -0.018  0.00  0.00    -0.020 C 
ATOM      2  C   UNL d   1      -0.808   6.556   0.016  0.00  0.00    -0.020 C 
ENDROOT
BRANCH   1   3
ATOM      3  C   UNL d   1      -0.605   4.052  -0.008  0.00  0.00     0.107 C 
BRANCH   3   4
ATOM      4  S   UNL d   1      -1.500   2.788  -0.967  0.00  0.00    -0.109 SA
BRANCH   4   5
ATOM      5  C   UNL d   1      -0.412   1.390  -0.744  0.00  0.00     0.069 A 
ATOM      6  N   UNL d   1       0.755   1.576  -0.089  0.00  0.00    -0.361 N 
ATOM      7  C   UNL d   1       1.569   0.506   0.046  0.00  0.00     0.089 A 
ATOM      8  HN  UNL d   1       1.012   2.488   0.288  1.00  0.00     0.165 HD
ATOM      9  C   UNL d   1       1.275  -0.754  -0.445  0.00  0.00     0.017 A 
ATOM     10  C   UNL d   1       0.070  -0.930  -1.112  0.00  0.00     0.004 A 
ATOM     11  C   UNL d   1      -0.789   0.156  -1.265  0.00  0.00     0.037 A 
ENDBRANCH   4   5
ENDBRANCH   3   4
ENDBRANCH   1   3
BRANCH   2  12
ATOM     12  C   UNL d   1      -1.568   7.851  -0.019  0.00  0.00     0.107 C 
BRANCH  12  13
ATOM     13  S   UNL d   1      -1.797   8.460   1.679  0.00  0.00    -0.109 SA
BRANCH  13  14
ATOM     14  C   UNL d   1      -2.728   9.949   1.357  0.00  0.00     0.069 A 
ATOM     15  N   UNL d   1      -2.940  10.315   0.074  0.00  0.00    -0.361 N 
ATOM     16  C   UNL d   1      -3.638  11.454  -0.139  0.00  0.00     0.089 A 
ATOM     17  HN  UNL d   1      -2.587   9.756  -0.702  1.00  0.00     0.165 HD
ATOM     18  C   UNL d   1      -4.138  12.254   0.873  0.00  0.00     0.017 A 
ATOM     19  C   UNL d   1      -3.913  11.863   2.186  0.00  0.00     0.004 A 
ATOM     20  C   UNL d   1      -3.198  10.693   2.435  0.00  0.00     0.037 A 
ENDBRANCH  13  14
ENDBRANCH  12  13
ENDBRANCH   2  12
TORSDOF 6
