REMARK  4 active torsions:
REMARK  status: ('A' for Active; 'I' for Inactive)
REMARK    1  A    between atoms: S_4  and  C_10 
REMARK    2  A    between atoms: C_17  and  S_4 
REMARK    3  A    between atoms: C_10  and  C_5 
REMARK    4  A    between atoms: C_19  and  C_17 
ROOT
ATOM      1  C   UNL d   1      -0.779   4.426  -2.591  0.00  0.00     0.207 A 
ATOM      2  N   UNL d   1      -0.223   4.392  -1.393  0.00  0.00    -0.320 N 
ATOM      3  HN  UNL d   1      -0.090   5.156  -0.730  1.00  0.00     0.169 HD
ATOM      4  C   UNL d   1       0.134   3.071  -1.262  0.00  0.00     0.118 A 
ATOM      5  C   UNL d   1      -1.342   5.596  -3.183  0.00  0.00     0.153 A 
ATOM      6  N   UNL d   1      -0.189   2.303  -2.308  0.00  0.00    -0.246 N 
ATOM      7  HN  UNL d   1      -0.041   1.300  -2.424  1.00  0.00     0.196 HD
ATOM      8  O   UNL d   1      -0.774   3.199  -3.201  0.00  0.00    -0.215 OA
ATOM      9  N   UNL d   1      -2.367   6.872  -4.734  0.00  0.00    -0.272 N 
ATOM     10  HN  UNL d   1      -2.823   7.175  -5.595  1.00  0.00     0.194 HD
ATOM     11  O   UNL d   1      -1.889   5.607  -4.437  0.00  0.00    -0.234 OA
ATOM     12  C   UNL d   1      -1.462   6.866  -2.656  0.00  0.00     0.063 A 
ATOM     13  C   UNL d   1      -2.105   7.611  -3.657  0.00  0.00     0.117 A 
ENDROOT
BRANCH   4  14
ATOM     14  C   UNL d   1       0.720   2.531  -0.025  0.00  0.00     0.218 C 
BRANCH  14  15
ATOM     15  S   UNL d   1       2.495   2.631  -0.005  0.00  0.00     0.155 S 
ATOM     16  O   UNL d   1       2.917   2.120   1.290  0.00  0.00    -0.227 OA
ATOM     17  O   UNL d   1       3.002   2.033  -1.226  0.00  0.00    -0.227 OA
BRANCH  15  18
ATOM     18  C   UNL d   1       2.827   4.395  -0.032  0.00  0.00     0.179 C 
BRANCH  18  19
ATOM     19  C   UNL d   1       4.318   4.623  -0.075  0.00  0.00    -0.044 A 
ATOM     20  C   UNL d   1       4.982   4.707  -1.310  0.00  0.00     0.011 A 
ATOM     21  C   UNL d   1       6.362   4.912  -1.360  0.00  0.00     0.043 A 
ATOM     22  C   UNL d   1       7.080   5.031  -0.177  0.00  0.00     0.116 A 
ATOM     23  C   UNL d   1       6.444   4.943   1.055  0.00  0.00     0.043 A 
ATOM     24  F   UNL d   1       8.404   5.229  -0.226  0.00  0.00    -0.206 F 
ATOM     25  C   UNL d   1       5.064   4.737   1.109  0.00  0.00     0.011 A 
ENDBRANCH  18  19
ENDBRANCH  15  18
ENDBRANCH  14  15
ENDBRANCH   4  14
TORSDOF 4
