REMARK  4 active torsions:
REMARK  status: ('A' for Active; 'I' for Inactive)
REMARK    1  A    between atoms: N_4  and  S_1 
REMARK    2  A    between atoms: C_5  and  S_1 
REMARK    3  A    between atoms: C_6  and  C_2 
REMARK    4  A    between atoms: C_3  and  N_4 
REMARK       I    between atoms: N_18  and  C_6 
ROOT
ATOM      1  N   UNL d   1       0.367  -1.516  -0.278  0.00  0.00    -0.180 NA
ATOM      2  H   UNL d   1      -0.659  -1.633  -0.257  0.00  0.00     0.146 HD
ENDROOT
BRANCH   1   3
ATOM      3  C   UNL d   1       0.896  -2.065  -1.478  0.00  0.00     0.045 A 
ATOM      4  C   UNL d   1       0.177  -2.294  -2.639  0.00  0.00     0.094 A 
ATOM      5  S   UNL d   1       1.159  -2.952  -3.878  0.00  0.00    -0.095 SA
ATOM      6  C   UNL d   1       2.544  -2.935  -2.879  0.00  0.00     0.052 A 
ATOM      7  C   UNL d   1       2.267  -2.434  -1.627  0.00  0.00     0.033 A 
BRANCH   4   8
ATOM      8  C   UNL d   1      -1.231  -2.025  -2.847  0.00  0.00     0.258 C 
ATOM      9  O   UNL d   1      -2.040  -1.935  -1.925  0.00  0.00    -0.267 OA
ATOM     10  N   UNL d   1      -1.635  -1.800  -4.133  0.00  0.00    -0.365 N 
ATOM     11  H   UNL d   1      -0.960  -1.683  -4.877  0.00  0.00     0.159 HD
ATOM     12  H   UNL d   1      -2.576  -1.457  -4.272  0.00  0.00     0.159 HD
ENDBRANCH   4   8
ENDBRANCH   1   3
BRANCH   1  13
ATOM     13  S   UNL d   1       0.594   0.168  -0.052  0.00  0.00     0.246 S 
ATOM     14  O   UNL d   1      -0.684   0.791  -0.314  0.00  0.00    -0.206 OA
ATOM     15  O   UNL d   1       1.806   0.603  -0.716  0.00  0.00    -0.206 OA
BRANCH  13  16
ATOM     16  C   UNL d   1       0.908   0.279   1.693  0.00  0.00     0.076 A 
ATOM     17  C   UNL d   1       0.033   0.994   2.516  0.00  0.00     0.050 A 
ATOM     18  C   UNL d   1       0.342   1.162   3.869  0.00  0.00     0.057 A 
ATOM     19 CL   UNL d   1      -0.760   2.076   4.837  0.00  0.00    -0.083 Cl
ATOM     20  C   UNL d   1       1.520   0.613   4.394  0.00  0.00     0.055 A 
ATOM     21  C   UNL d   1       2.386  -0.107   3.561  0.00  0.00     0.027 A 
ATOM     22 CL   UNL d   1       1.972   0.799   6.051  0.00  0.00    -0.083 Cl
ATOM     23  C   UNL d   1       2.084  -0.273   2.208  0.00  0.00     0.026 A 
ENDBRANCH  13  16
ENDBRANCH   1  13
TORSDOF 4
