REMARK  1 active torsions:
REMARK  status: ('A' for Active; 'I' for Inactive)
REMARK    1  A    between atoms: C_6  and  N_5 
ROOT
ATOM      1  C   UNL d   1       0.886   0.809  -0.000  0.00  0.00     0.141 C 
ATOM      2  N   UNL d   1      -0.310   1.230   0.245  0.00  0.00    -0.370 N 
ATOM      3  HN  UNL d   1      -0.568   2.209   0.367  1.00  0.00     0.161 HD
ATOM      4  S   UNL d   1       1.103  -0.930  -0.044  0.00  0.00    -0.088 SA
ATOM      5  N   UNL d   1       2.013   1.540  -0.216  0.00  0.00    -0.335 N 
ATOM      6  C   UNL d   1      -1.251   0.098   0.322  0.00  0.00     0.137 C 
ATOM      7  C   UNL d   1      -0.509  -1.160   0.753  0.00  0.00     0.069 C 
ATOM      8  C   UNL d   1      -0.367  -1.250   2.268  0.00  0.00     0.023 C 
ATOM      9  H   UNL d   1       2.802   1.057  -0.630  0.00  0.00     0.168 HD
ENDROOT
BRANCH   5  10
ATOM     10  C   UNL d   1       2.182   2.919  -0.011  0.00  0.00     0.073 A 
ATOM     11  C   UNL d   1       3.144   3.621  -0.755  0.00  0.00     0.145 A 
ATOM     12  C   UNL d   1       3.316   4.997  -0.628  0.00  0.00     0.086 A 
ATOM     13  F   UNL d   1       3.917   2.953  -1.627  0.00  0.00    -0.204 F 
ATOM     14  C   UNL d   1       2.513   5.691   0.264  0.00  0.00     0.119 A 
ATOM     15  C   UNL d   1       1.547   5.035   1.015  0.00  0.00     0.044 A 
ATOM     16  F   UNL d   1       2.669   7.014   0.403  0.00  0.00    -0.206 F 
ATOM     17  C   UNL d   1       1.377   3.656   0.868  0.00  0.00     0.036 A 
ENDBRANCH   5  10
TORSDOF 1
