REMARK  7 active torsions:
REMARK  status: ('A' for Active; 'I' for Inactive)
REMARK    1  A    between atoms: C_7  and  C_1 
REMARK    2  A    between atoms: C_2  and  C_4 
REMARK    3  A    between atoms: C_3  and  C_5 
REMARK    4  A    between atoms: C_8  and  C_28 
REMARK    5  A    between atoms: C_17  and  C_10 
REMARK    6  A    between atoms: O_29  and  N_18 
REMARK    7  A    between atoms: C_28  and  O_29 
ROOT
ATOM      1  C   UNL d   1      -0.040   1.078  -0.064  0.00  0.00     0.086 A 
ATOM      2  O   UNL d   1      -0.905   0.014  -0.113  0.00  0.00    -0.309 OA
ATOM      3  C   UNL d   1       1.260   0.607  -0.058  0.00  0.00     0.041 A 
ATOM      4  C   UNL d   1      -0.149  -1.130  -0.059  0.00  0.00     0.093 A 
ATOM      5  C   UNL d   1       1.189  -0.802  -0.030  0.00  0.00     0.041 A 
ENDROOT
BRANCH   1   6
ATOM      6  C   UNL d   1      -0.617   2.421   0.041  0.00  0.00    -0.001 A 
ATOM      7  C   UNL d   1      -2.000   2.650   0.046  0.00  0.00     0.030 A 
ATOM      8  C   UNL d   1      -2.529   3.942   0.258  0.00  0.00     0.049 A 
ATOM      9  C   UNL d   1      -1.648   5.019   0.445  0.00  0.00     0.032 A 
ATOM     10  C   UNL d   1      -0.262   4.821   0.439  0.00  0.00     0.049 A 
ATOM     11  C   UNL d   1       0.235   3.524   0.224  0.00  0.00     0.030 A 
BRANCH   8  12
ATOM     12  C   UNL d   1      -4.024   4.151   0.327  0.00  0.00     0.417 C 
ATOM     13  F   UNL d   1      -4.376   5.428   0.646  0.00  0.00    -0.166 F 
ATOM     14  F   UNL d   1      -4.648   3.876  -0.850  0.00  0.00    -0.166 F 
ATOM     15  F   UNL d   1      -4.616   3.360   1.264  0.00  0.00    -0.166 F 
ENDBRANCH   8  12
BRANCH  10  16
ATOM     16  C   UNL d   1       0.703   5.952   0.703  0.00  0.00     0.417 C 
ATOM     17  F   UNL d   1       0.092   7.143   0.950  0.00  0.00    -0.166 F 
ATOM     18  F   UNL d   1       1.496   5.707   1.783  0.00  0.00    -0.166 F 
ATOM     19  F   UNL d   1       1.550   6.171  -0.340  0.00  0.00    -0.166 F 
ENDBRANCH  10  16
ENDBRANCH   1   6
BRANCH   4  20
ATOM     20  C   UNL d   1      -0.811  -2.403   0.005  0.00  0.00     0.151 C 
ATOM     21  N   UNL d   1      -0.169  -3.448   0.432  0.00  0.00    -0.275 N 
ATOM     22  HN  UNL d   1       0.809  -3.457   0.725  1.00  0.00     0.193 HD
BRANCH  21  23
ATOM     23  O   UNL d   1      -1.023  -4.566   0.432  0.00  0.00    -0.276 OA
BRANCH  23  24
ATOM     24  C   UNL d   1      -0.582  -5.466   1.453  0.00  0.00     0.243 C 
BRANCH  24  25
ATOM     25  C   UNL d   1      -1.256  -6.807   1.293  0.00  0.00     0.011 A 
ATOM     26  C   UNL d   1      -0.634  -7.861   0.598  0.00  0.00     0.044 A 
ATOM     27 CL   UNL d   1       0.914  -7.685  -0.155  0.00  0.00    -0.084 Cl
ATOM     28  C   UNL d   1      -1.247  -9.116   0.486  0.00  0.00     0.024 A 
ATOM     29  C   UNL d   1      -2.498  -9.342   1.050  0.00  0.00     0.003 A 
ATOM     30  C   UNL d   1      -3.145  -8.304   1.714  0.00  0.00     0.024 A 
ATOM     31  C   UNL d   1      -2.535  -7.048   1.828  0.00  0.00     0.044 A 
ATOM     32 CL   UNL d   1      -3.430  -5.820   2.656  0.00  0.00    -0.084 Cl
ENDBRANCH  24  25
ENDBRANCH  23  24
ENDBRANCH  21  23
ENDBRANCH   4  20
TORSDOF 7
