REMARK  6 active torsions:
REMARK  status: ('A' for Active; 'I' for Inactive)
REMARK    1  A    between atoms: N_3  and  S_1 
REMARK    2  A    between atoms: C_8  and  S_1 
REMARK    3  A    between atoms: N_2  and  C_5 
REMARK    4  A    between atoms: C_6  and  O_9 
REMARK    5  A    between atoms: N_15  and  C_7 
REMARK    6  A    between atoms: O_9  and  C_18 
ROOT
ATOM      1  C   UNL d   1       0.608   0.377   1.505  0.00  0.00     0.080 A 
ATOM      2  C   UNL d   1       0.347  -0.624   2.447  0.00  0.00     0.028 A 
ATOM      3  C   UNL d   1       0.606   1.723   1.879  0.00  0.00     0.028 A 
ATOM      4  C   UNL d   1      -0.026   1.074   4.129  0.00  0.00     0.076 A 
ATOM      5  C   UNL d   1       0.058  -0.273   3.770  0.00  0.00     0.039 A 
ATOM      6  C   UNL d   1       0.287   2.067   3.195  0.00  0.00     0.039 A 
ENDROOT
BRANCH   4   7
ATOM      7  O   UNL d   1      -0.385   1.524   5.379  0.00  0.00    -0.307 OA
BRANCH   7   8
ATOM      8  C   UNL d   1      -1.339   0.863   6.123  0.00  0.00     0.130 A 
ATOM      9  C   UNL d   1      -1.136   0.800   7.511  0.00  0.00     0.138 A 
ATOM     10  C   UNL d   1      -2.050   0.186   8.384  0.00  0.00     0.039 A 
ATOM     11  C   UNL d   1      -3.198  -0.395   7.862  0.00  0.00     0.004 A 
ATOM     12  C   UNL d   1      -3.439  -0.324   6.490  0.00  0.00     0.027 A 
ATOM     13  C   UNL d   1      -2.544   0.333   5.629  0.00  0.00     0.070 A 
ATOM     14 CL   UNL d   1      -3.084   0.505   3.993  0.00  0.00    -0.081 Cl
BRANCH   9  15
ATOM     15  N   UNL d   1       0.046   1.393   8.113  0.00  0.00    -0.113 N 
ATOM     16  O   UNL d   1       0.224   2.606   7.947  0.00  0.00    -0.532 OA
ATOM     17  O   UNL d   1       0.752   0.647   8.802  0.00  0.00    -0.532 OA
ENDBRANCH   9  15
ENDBRANCH   7   8
ENDBRANCH   4   7
BRANCH   1  18
ATOM     18  S   UNL d   1       1.049  -0.080  -0.164  0.00  0.00     0.263 S 
ATOM     19  O   UNL d   1       1.886   0.989  -0.685  0.00  0.00    -0.200 OA
ATOM     20  O   UNL d   1       1.561  -1.433  -0.108  0.00  0.00    -0.200 OA
BRANCH  18  21
ATOM     21  N   UNL d   1      -0.369  -0.078  -0.958  0.00  0.00    -0.277 N 
ATOM     22  C   UNL d   1      -0.305  -0.397  -2.205  0.00  0.00     0.188 C 
ATOM     23  HN  UNL d   1      -1.249   0.159  -0.501  1.00  0.00     0.179 HD
BRANCH  22  24
ATOM     24  N   UNL d   1      -1.358  -0.476  -3.089  0.00  0.00    -0.385 N 
ATOM     25  C   UNL d   1      -2.724  -0.176  -2.691  0.00  0.00     0.149 C 
ATOM     26  C   UNL d   1      -1.169  -0.834  -4.486  0.00  0.00     0.149 C 
ENDBRANCH  22  24
ENDBRANCH  18  21
ENDBRANCH   1  18
TORSDOF 6
