REMARK  5 active torsions:
REMARK  status: ('A' for Active; 'I' for Inactive)
REMARK    1  A    between atoms: C_4  and  C_1 
REMARK    2  A    between atoms: O_14  and  C_1 
REMARK    3  A    between atoms: C_11  and  C_7 
REMARK    4  A    between atoms: C_9  and  C_8 
REMARK    5  A    between atoms: O_15  and  C_9 
ROOT
ATOM      1  C   UNL d   1      -0.649   0.769   7.476  0.00  0.00     0.106 C 
ATOM      2  C   UNL d   1       0.853   0.985   7.591  0.00  0.00    -0.042 C 
ATOM      3  C   UNL d   1      -1.141  -0.754   7.502  0.00  0.00    -0.002 C 
ATOM      4  C   UNL d   1       1.766   0.008   7.571  0.00  0.00     0.056 C 
ATOM      5  C   UNL d   1       1.412  -1.405   7.419  0.00  0.00     0.150 C 
ATOM      6  C   UNL d   1      -0.027  -1.817   7.286  0.00  0.00     0.095 C 
ATOM      7  O   UNL d   1       2.320  -2.233   7.366  0.00  0.00    -0.293 OA
ATOM      8  C   UNL d   1       1.357   2.410   7.688  0.00  0.00     0.047 C 
ATOM      9  C   UNL d   1      -2.215  -1.042   6.411  0.00  0.00     0.019 C 
ATOM     10  C   UNL d   1      -1.845  -1.088   8.849  0.00  0.00     0.019 C 
ENDROOT
BRANCH   1  11
ATOM     11  C   UNL d   1      -1.131   1.541   6.252  0.00  0.00     0.017 C 
ATOM     12  C   UNL d   1      -2.040   2.533   6.257  0.00  0.00     0.006 C 
BRANCH  12  13
ATOM     13  C   UNL d   1      -2.443   3.360   5.116  0.00  0.00    -0.056 C 
ATOM     14  C   UNL d   1      -3.422   4.263   5.305  0.00  0.00     0.087 C 
ATOM     15  C   UNL d   1      -1.682   3.160   3.826  0.00  0.00     0.048 C 
BRANCH  14  16
ATOM     16  C   UNL d   1      -3.962   5.196   4.287  0.00  0.00     0.165 C 
ATOM     17  O   UNL d   1      -3.899   5.049   3.082  0.00  0.00    -0.647 OA
BRANCH  16  18
ATOM     18  O   UNL d   1      -4.571   6.256   4.862  0.00  0.00    -0.773 OA
ATOM     19  H   UNL d   1      -4.518   6.296   5.834  0.00  0.00     0.167 HD
ENDBRANCH  16  18
ENDBRANCH  14  16
ENDBRANCH  12  13
ENDBRANCH   1  11
BRANCH   1  20
ATOM     20  O   UNL d   1      -1.200   1.433   8.627  0.00  0.00    -0.380 OA
ATOM     21  H   UNL d   1      -0.632   1.224   9.388  0.00  0.00     0.211 HD
ENDBRANCH   1  20
TORSDOF 5
