REMARK  3 active torsions:
REMARK  status: ('A' for Active; 'I' for Inactive)
REMARK    1  A    between atoms: C_4  and  C_1 
REMARK    2  A    between atoms: C_15  and  C_5 
REMARK    3  A    between atoms: C_11  and  C_16 
ROOT
ATOM      1  C   UNL d   1       0.529  -0.999  -0.009  0.00  0.00     0.186 A 
ATOM      2  N   UNL d   1       1.195   0.115   0.218  0.00  0.00    -0.318 N 
ATOM      3  HN  UNL d   1       2.171   0.226   0.493  1.00  0.00     0.169 HD
ATOM      4  C   UNL d   1       0.251   1.095  -0.007  0.00  0.00     0.138 A 
ATOM      5  N   UNL d   1      -0.965   0.614  -0.306  0.00  0.00    -0.242 N 
ATOM      6  HN  UNL d   1      -1.823   1.137  -0.482  1.00  0.00     0.196 HD
ATOM      7  O   UNL d   1      -0.783  -0.762  -0.318  0.00  0.00    -0.217 OA
ENDROOT
BRANCH   4   8
ATOM      8  C   UNL d   1       0.584   2.516   0.002  0.00  0.00     0.011 A 
ATOM      9  C   UNL d   1       1.901   2.934   0.253  0.00  0.00     0.031 A 
ATOM     10  C   UNL d   1       2.257   4.292   0.186  0.00  0.00     0.048 A 
ATOM     11  C   UNL d   1       1.268   5.238  -0.122  0.00  0.00     0.016 A 
ATOM     12  C   UNL d   1      -0.047   4.838  -0.354  0.00  0.00     0.002 A 
ATOM     13  C   UNL d   1      -0.386   3.485  -0.292  0.00  0.00     0.015 A 
BRANCH  10  14
ATOM     14  C   UNL d   1       3.680   4.740   0.413  0.00  0.00     0.417 C 
ATOM     15  F   UNL d   1       4.528   3.723   0.732  0.00  0.00    -0.166 F 
ATOM     16  F   UNL d   1       4.215   5.340  -0.686  0.00  0.00    -0.166 F 
ATOM     17  F   UNL d   1       3.787   5.646   1.424  0.00  0.00    -0.166 F 
ENDBRANCH  10  14
ENDBRANCH   4   8
BRANCH   1  18
ATOM     18  C   UNL d   1       1.126  -2.350   0.027  0.00  0.00     0.073 A 
ATOM     19  C   UNL d   1       2.409  -2.670   0.394  0.00  0.00     0.089 A 
ATOM     20  O   UNL d   1       2.574  -4.016   0.281  0.00  0.00    -0.242 OA
ATOM     21  C   UNL d   1       3.576  -1.903   0.868  0.00  0.00     0.080 C 
ATOM     22  N   UNL d   1       1.398  -4.593  -0.168  0.00  0.00    -0.265 N 
ATOM     23  C   UNL d   1       0.530  -3.584  -0.320  0.00  0.00     0.045 A 
ATOM     24  HN  UNL d   1       1.227  -5.583  -0.346  1.00  0.00     0.194 HD
ATOM     25  C   UNL d   1      -0.839  -3.853  -0.819  0.00  0.00     0.071 C 
ENDBRANCH   1  18
TORSDOF 3
