REMARK  5 active torsions:
REMARK  status: ('A' for Active; 'I' for Inactive)
REMARK    1  A    between atoms: C_5  and  C_1 
REMARK       I    between atoms: C_2  and  N_7 
REMARK    2  A    between atoms: C_3  and  C_2 
REMARK    3  A    between atoms: N_6  and  C_4 
REMARK    4  A    between atoms: O_17  and  C_5 
REMARK    5  A    between atoms: N_7  and  C_13 
ROOT
ATOM      1  C   UNL d   1       1.475  -0.252   0.038  0.00  0.00     0.068 A 
ATOM      2  C   UNL d   1       0.672  -1.398  -0.185  0.00  0.00     0.046 A 
ATOM      3  C   UNL d   1       0.903   1.039   0.065  0.00  0.00     0.049 A 
ATOM      4  C   UNL d   1      -0.694  -1.167  -0.424  0.00  0.00     0.032 A 
ATOM      5  C   UNL d   1      -0.461   1.234  -0.123  0.00  0.00     0.036 A 
ATOM      6  C   UNL d   1      -1.252   0.122  -0.394  0.00  0.00     0.032 A 
ENDROOT
BRANCH   5   7
ATOM      7  N   UNL d   1      -1.090   2.498  -0.028  0.00  0.00    -0.323 N 
ATOM      8  C   UNL d   1      -0.509   3.675   0.420  0.00  0.00     0.259 C 
ATOM      9  O   UNL d   1       0.669   3.852   0.698  0.00  0.00    -0.267 OA
ATOM     10  H   UNL d   1      -2.094   2.497  -0.163  0.00  0.00     0.169 HD
BRANCH   8  11
ATOM     11  C   UNL d   1      -1.436   4.816   0.622  0.00  0.00     0.075 A 
ATOM     12  C   UNL d   1      -2.572   4.691   1.440  0.00  0.00     0.051 A 
ATOM     13 CL   UNL d   1      -3.025   3.212   2.217  0.00  0.00    -0.083 Cl
ATOM     14  C   UNL d   1      -3.389   5.799   1.692  0.00  0.00     0.025 A 
ATOM     15  C   UNL d   1      -3.076   7.044   1.151  0.00  0.00     0.003 A 
ATOM     16  C   UNL d   1      -1.946   7.181   0.350  0.00  0.00     0.025 A 
ATOM     17  C   UNL d   1      -1.128   6.076   0.080  0.00  0.00     0.051 A 
ATOM     18 CL   UNL d   1       0.215   6.353  -0.975  0.00  0.00    -0.083 Cl
ENDBRANCH   8  11
ENDBRANCH   5   7
BRANCH   1  19
ATOM     19  C   UNL d   1       2.965  -0.328   0.151  0.00  0.00     0.295 C 
ATOM     20  O   UNL d   1       3.683  -1.139  -0.410  0.00  0.00    -0.259 OA
BRANCH  19  21
ATOM     21  O   UNL d   1       3.393   0.644   0.995  0.00  0.00    -0.322 OA
ATOM     22  C   UNL d   1       4.808   0.776   1.121  0.00  0.00     0.213 C 
ENDBRANCH  19  21
ENDBRANCH   1  19
BRANCH   2  23
ATOM     23  N   UNL d   1       1.190  -2.690  -0.190  0.00  0.00    -0.376 N 
ATOM     24  C   UNL d   1       0.549  -3.779  -0.947  0.00  0.00     0.149 C 
ATOM     25  C   UNL d   1       1.606  -4.857  -1.249  0.00  0.00     0.187 C 
ATOM     26  O   UNL d   1       2.211  -5.356  -0.042  0.00  0.00    -0.388 OA
ATOM     27  C   UNL d   1       2.853  -4.280   0.669  0.00  0.00     0.187 C 
ATOM     28  C   UNL d   1       1.842  -3.182   1.044  0.00  0.00     0.149 C 
ENDBRANCH   2  23
TORSDOF 5
