REMARK  1 active torsions:
REMARK  status: ('A' for Active; 'I' for Inactive)
REMARK    1  A    between atoms: C_4  and  C_1 
ROOT
ATOM      1  C   UNL d   1       0.890   0.057   0.018  0.00  0.00     0.027 C 
ATOM      2  C   UNL d   1       0.545   1.362   0.055  0.00  0.00    -0.006 C 
ATOM      3  C   UNL d   1       1.751   2.238   0.008  0.00  0.00     0.189 C 
ATOM      4  C   UNL d   1       2.113   2.907   1.270  0.00  0.00     0.021 A 
ATOM      5  O   UNL d   1       2.485   2.297  -0.974  0.00  0.00    -0.287 OA
ATOM      6  C   UNL d   1       1.255   3.840   1.867  0.00  0.00    -0.044 A 
ATOM      7  C   UNL d   1      -0.793   2.040   0.071  0.00  0.00     0.043 C 
ATOM      8  C   UNL d   1       3.328   2.554   1.869  0.00  0.00     0.016 A 
ATOM      9  C   UNL d   1      -1.034   3.049   1.202  0.00  0.00     0.009 C 
ATOM     10  C   UNL d   1      -0.052   4.222   1.225  0.00  0.00     0.040 C 
ATOM     11  C   UNL d   1       1.639   4.410   3.089  0.00  0.00     0.008 A 
ATOM     12  C   UNL d   1       3.684   3.115   3.092  0.00  0.00     0.001 A 
ATOM     13  C   UNL d   1       2.841   4.043   3.700  0.00  0.00     0.001 A 
ENDROOT
BRANCH   1  14
ATOM     14  C   UNL d   1       0.137  -1.217   0.002  0.00  0.00     0.025 A 
ATOM     15  C   UNL d   1      -1.047  -1.396  -0.724  0.00  0.00     0.128 A 
ATOM     16  F   UNL d   1      -1.632  -0.367  -1.355  0.00  0.00    -0.205 F 
ATOM     17  C   UNL d   1      -1.641  -2.654  -0.874  0.00  0.00     0.043 A 
ATOM     18  C   UNL d   1      -1.045  -3.783  -0.321  0.00  0.00     0.005 A 
ATOM     19  C   UNL d   1       0.127  -3.642   0.414  0.00  0.00     0.025 A 
ATOM     20  C   UNL d   1       0.704  -2.375   0.586  0.00  0.00     0.047 A 
ATOM     21 CL   UNL d   1       2.150  -2.321   1.548  0.00  0.00    -0.083 Cl
ENDBRANCH   1  14
TORSDOF 1
