REMARK  8 active torsions:
REMARK  status: ('A' for Active; 'I' for Inactive)
REMARK    1  A    between atoms: C_8  and  N_1 
REMARK    2  A    between atoms: C_4  and  C_10 
REMARK    3  A    between atoms: C_13  and  C_5 
REMARK    4  A    between atoms: C_12  and  C_21 
REMARK    5  A    between atoms: O_20  and  C_12 
REMARK    6  A    between atoms: C_22  and  C_13 
REMARK    7  A    between atoms: S_19  and  C_22 
REMARK    8  A    between atoms: C_21  and  S_19 
ROOT
ATOM      1  N   UNL d   1      -2.492   0.881   5.423  0.00  0.00    -0.353 N 
ATOM      2  HN  UNL d   1      -2.381   1.832   5.071  1.00  0.00     0.166 HD
ATOM      3  C   UNL d   1      -1.992  -0.257   4.807  0.00  0.00     0.049 A 
ATOM      4  C   UNL d   1      -3.133   0.558   6.528  0.00  0.00     0.051 A 
ATOM      5  S   UNL d   1      -3.200  -1.129   6.868  0.00  0.00    -0.086 SA
ATOM      6  C   UNL d   1      -2.277  -1.439   5.461  0.00  0.00     0.081 A 
ENDROOT
BRANCH   3   7
ATOM      7  C   UNL d   1      -1.249  -0.179   3.553  0.00  0.00    -0.009 A 
ATOM      8  C   UNL d   1      -0.271  -1.130   3.222  0.00  0.00     0.016 A 
ATOM      9  C   UNL d   1       0.432  -1.046   2.016  0.00  0.00     0.037 A 
ATOM     10  C   UNL d   1       0.157   0.000   1.128  0.00  0.00     0.102 A 
ATOM     11  C   UNL d   1      -0.813   0.960   1.441  0.00  0.00     0.037 A 
ATOM     12  C   UNL d   1      -1.508   0.867   2.653  0.00  0.00     0.016 A 
BRANCH  10  13
ATOM     13  N   UNL d   1       0.896   0.089  -0.137  0.00  0.00    -0.116 N 
ATOM     14  O   UNL d   1       0.622   1.027  -0.901  0.00  0.00    -0.532 OA
ATOM     15  O   UNL d   1       1.748  -0.779  -0.368  0.00  0.00    -0.532 OA
ENDBRANCH  10  13
ENDBRANCH   3   7
BRANCH   4  16
ATOM     16  C   UNL d   1      -3.830   1.546   7.418  0.00  0.00     0.075 C 
BRANCH  16  17
ATOM     17  C   UNL d   1      -3.276   1.555   8.843  0.00  0.00     0.081 C 
BRANCH  17  18
ATOM     18  S   UNL d   1      -4.220   2.745   9.865  0.00  0.00    -0.159 SA
BRANCH  18  19
ATOM     19  C   UNL d   1      -3.375   2.530  11.463  0.00  0.00     0.184 C 
BRANCH  19  20
ATOM     20  C   UNL d   1      -3.511   1.122  11.991  0.00  0.00     0.267 C 
ATOM     21  O   UNL d   1      -2.700   0.228  11.775  0.00  0.00    -0.264 OA
BRANCH  20  22
ATOM     22  O   UNL d   1      -4.662   0.975  12.705  0.00  0.00    -0.326 OA
ATOM     23  C   UNL d   1      -4.877  -0.350  13.194  0.00  0.00     0.213 C 
ENDBRANCH  20  22
ENDBRANCH  19  20
ENDBRANCH  18  19
ENDBRANCH  17  18
ENDBRANCH  16  17
ENDBRANCH   4  16
TORSDOF 8
