REMARK  4 active torsions:
REMARK  status: ('A' for Active; 'I' for Inactive)
REMARK    1  A    between atoms: C_15  and  C_3 
REMARK    2  A    between atoms: C_16  and  C_4 
REMARK    3  A    between atoms: C_7  and  C_17 
REMARK    4  A    between atoms: C_10  and  C_14 
ROOT
ATOM      1  N   UNL d   1       1.394  -0.593   0.020  0.00  0.00    -0.349 N 
ATOM      2  HN  UNL d   1       2.279  -1.101   0.046  1.00  0.00     0.166 HD
ATOM      3  C   UNL d   1       0.202  -1.160  -0.003  0.00  0.00     0.084 A 
ATOM      4  C   UNL d   1       1.276   0.791   0.003  0.00  0.00     0.050 A 
ATOM      5  S   UNL d   1      -1.120  -0.053   0.067  0.00  0.00    -0.081 SA
ATOM      6  C   UNL d   1      -0.023   1.256   0.058  0.00  0.00     0.082 A 
ENDROOT
BRANCH   3   7
ATOM      7  C   UNL d   1      -0.040  -2.614  -0.034  0.00  0.00    -0.002 A 
ATOM      8  C   UNL d   1       0.881  -3.484   0.567  0.00  0.00     0.015 A 
ATOM      9  C   UNL d   1       0.677  -4.871   0.562  0.00  0.00     0.014 A 
ATOM     10  C   UNL d   1      -0.451  -5.423  -0.059  0.00  0.00    -0.008 A 
ATOM     11  C   UNL d   1      -1.361  -4.560  -0.681  0.00  0.00     0.014 A 
ATOM     12  C   UNL d   1      -1.159  -3.175  -0.667  0.00  0.00     0.015 A 
BRANCH  10  13
ATOM     13  C   UNL d   1      -0.688  -6.860  -0.099  0.00  0.00     0.063 A 
ATOM     14  N   UNL d   1      -1.372  -7.444  -1.162  0.00  0.00    -0.292 N 
ATOM     15  N   UNL d   1      -1.491  -8.753  -1.016  0.00  0.00    -0.061 NA
ATOM     16  HN  UNL d   1      -1.739  -6.924  -1.959  1.00  0.00     0.183 HD
ATOM     17  S   UNL d   1      -0.807  -9.312   0.403  0.00  0.00    -0.010 SA
ATOM     18  C   UNL d   1      -0.300  -7.746   0.891  0.00  0.00     0.096 A 
ENDBRANCH  10  13
ENDBRANCH   3   7
BRANCH   4  19
ATOM     19  C   UNL d   1       2.446   1.664  -0.051  0.00  0.00    -0.009 A 
ATOM     20  C   UNL d   1       2.372   2.950  -0.608  0.00  0.00     0.014 A 
ATOM     21  C   UNL d   1       3.498   3.777  -0.654  0.00  0.00     0.017 A 
ATOM     22  C   UNL d   1       4.728   3.337  -0.148  0.00  0.00     0.048 A 
ATOM     23  C   UNL d   1       4.807   2.047   0.401  0.00  0.00     0.017 A 
ATOM     24  C   UNL d   1       3.678   1.220   0.444  0.00  0.00     0.014 A 
BRANCH  22  25
ATOM     25  C   UNL d   1       5.949   4.223  -0.194  0.00  0.00     0.417 C 
ATOM     26  F   UNL d   1       5.716   5.441  -0.760  0.00  0.00    -0.166 F 
ATOM     27  F   UNL d   1       6.453   4.481   1.045  0.00  0.00    -0.166 F 
ATOM     28  F   UNL d   1       6.969   3.671  -0.907  0.00  0.00    -0.166 F 
ENDBRANCH  22  25
ENDBRANCH   4  19
TORSDOF 4
