REMARK  5 active torsions:
REMARK  status: ('A' for Active; 'I' for Inactive)
REMARK    1  A    between atoms: C_6  and  C_1 
REMARK    2  A    between atoms: C_5  and  C_2 
REMARK       I    between atoms: N_13  and  C_5 
REMARK    3  A    between atoms: C_7  and  C_11 
REMARK    4  A    between atoms: C_8  and  C_12 
REMARK    5  A    between atoms: C_14  and  N_13 
ROOT
ATOM      1  C   UNL d   1       0.435  -2.677   0.487  0.00  0.00     0.261 C 
ATOM      2  N   UNL d   1      -0.674  -3.464   0.777  0.00  0.00    -0.323 N 
ATOM      3  O   UNL d   1       1.600  -3.041   0.613  0.00  0.00    -0.267 OA
ATOM      4  H   UNL d   1      -1.577  -3.094   0.523  0.00  0.00     0.169 HD
ENDROOT
BRANCH   1   5
ATOM      5  C   UNL d   1       0.159  -1.374  -0.094  0.00  0.00     0.093 A 
ATOM      6  C   UNL d   1      -0.751  -0.308   0.211  0.00  0.00     0.088 A 
ATOM      7  N   UNL d   1      -0.554   0.711  -0.646  0.00  0.00    -0.259 N 
ATOM      8  O   UNL d   1       0.491   0.373  -1.454  0.00  0.00    -0.241 OA
ATOM      9  HN  UNL d   1      -1.090   1.579  -0.685  1.00  0.00     0.195 HD
ATOM     10  C   UNL d   1       0.942  -0.851  -1.113  0.00  0.00     0.090 A 
ATOM     11  C   UNL d   1       2.133  -1.310  -1.855  0.00  0.00     0.080 C 
BRANCH   6  12
ATOM     12  C   UNL d   1      -1.727  -0.073   1.283  0.00  0.00     0.054 A 
ATOM     13  C   UNL d   1      -2.924   0.594   0.952  0.00  0.00     0.130 A 
ATOM     14  F   UNL d   1      -3.277   0.764  -0.333  0.00  0.00    -0.205 F 
ATOM     15  C   UNL d   1      -3.773   1.132   1.919  0.00  0.00     0.043 A 
ATOM     16  C   UNL d   1      -3.464   0.981   3.264  0.00  0.00     0.005 A 
ATOM     17  C   UNL d   1      -2.324   0.265   3.624  0.00  0.00     0.025 A 
ATOM     18  C   UNL d   1      -1.455  -0.254   2.648  0.00  0.00     0.049 A 
ATOM     19 CL   UNL d   1      -0.031  -1.030   3.242  0.00  0.00    -0.083 Cl
ENDBRANCH   6  12
ENDBRANCH   1   5
BRANCH   2  20
ATOM     20  C   UNL d   1      -0.642  -4.777   1.322  0.00  0.00     0.036 A 
ATOM     21  C   UNL d   1       0.528  -5.430   1.726  0.00  0.00     0.045 A 
ATOM     22  C   UNL d   1       0.503  -6.717   2.293  0.00  0.00     0.050 A 
ATOM     23  C   UNL d   1      -0.726  -7.372   2.435  0.00  0.00     0.032 A 
ATOM     24  C   UNL d   1      -1.918  -6.746   2.038  0.00  0.00     0.050 A 
ATOM     25  C   UNL d   1      -1.861  -5.452   1.477  0.00  0.00     0.045 A 
BRANCH  22  26
ATOM     26  C   UNL d   1       1.790  -7.391   2.714  0.00  0.00     0.417 C 
ATOM     27  F   UNL d   1       1.609  -8.286   3.726  0.00  0.00    -0.166 F 
ATOM     28  F   UNL d   1       2.366  -8.089   1.698  0.00  0.00    -0.166 F 
ATOM     29  F   UNL d   1       2.735  -6.518   3.158  0.00  0.00    -0.166 F 
ENDBRANCH  22  26
BRANCH  24  30
ATOM     30  C   UNL d   1      -3.246  -7.446   2.204  0.00  0.00     0.417 C 
ATOM     31  F   UNL d   1      -3.165  -8.610   2.908  0.00  0.00    -0.166 F 
ATOM     32  F   UNL d   1      -4.157  -6.677   2.860  0.00  0.00    -0.166 F 
ATOM     33  F   UNL d   1      -3.815  -7.768   1.012  0.00  0.00    -0.166 F 
ENDBRANCH  24  30
ENDBRANCH   2  20
TORSDOF 5
