REMARK  6 active torsions:
REMARK  status: ('A' for Active; 'I' for Inactive)
REMARK    1  A    between atoms: C_12  and  N_1 
REMARK    2  A    between atoms: C_8  and  C_2 
REMARK       I    between atoms: C_7  and  N_13 
REMARK       I    between atoms: N_9  and  C_7 
REMARK    3  A    between atoms: O_21  and  C_8 
REMARK    4  A    between atoms: C_10  and  N_9 
REMARK    5  A    between atoms: N_13  and  C_19 
REMARK    6  A    between atoms: C_30  and  O_21 
ROOT
ATOM      1  C   UNL d   1      -0.343  -2.530  -0.581  0.00  0.00     0.056 C 
ATOM      2  C   UNL d   1       0.679  -3.382  -0.112  0.00  0.00     0.034 C 
ATOM      3  C   UNL d   1      -1.469  -3.131  -1.138  0.00  0.00     0.034 C 
ATOM      4  C   UNL d   1      -0.670  -5.361  -0.501  0.00  0.00     0.036 C 
ATOM      5  C   UNL d   1       0.518  -4.776  -0.072  0.00  0.00     0.032 C 
ATOM      6  C   UNL d   1      -1.622  -4.533  -1.105  0.00  0.00     0.032 C 
ENDROOT
BRANCH   4   7
ATOM      7  N   UNL d   1      -0.858  -6.745  -0.245  0.00  0.00    -0.309 N 
ATOM      8  C   UNL d   1      -2.053  -7.436  -0.372  0.00  0.00     0.325 C 
ATOM      9  N   UNL d   1      -1.937  -8.765   0.046  0.00  0.00    -0.308 N 
ATOM     10  O   UNL d   1      -3.092  -6.958  -0.809  0.00  0.00    -0.247 OA
ATOM     11  H   UNL d   1      -1.009  -9.149  -0.011  0.00  0.00     0.170 HD
ATOM     12  H   UNL d   1      -0.117  -7.207   0.260  0.00  0.00     0.170 HD
BRANCH   9  13
ATOM     13  C   UNL d   1      -3.031  -9.665  -0.105  0.00  0.00     0.043 A 
ATOM     14  C   UNL d   1      -2.868 -10.934  -0.698  0.00  0.00    -0.013 A 
ATOM     15  C   UNL d   1      -4.036 -11.675  -0.999  0.00  0.00     0.042 A 
ATOM     16  C   UNL d   1      -1.530 -11.467  -1.135  0.00  0.00     0.052 C 
ATOM     17 CL   UNL d   1      -3.967 -13.167  -1.879  0.00  0.00    -0.084 Cl
ATOM     18  C   UNL d   1      -5.308 -11.215  -0.644  0.00  0.00     0.024 A 
ATOM     19  C   UNL d   1      -5.444 -10.013   0.035  0.00  0.00     0.004 A 
ATOM     20  C   UNL d   1      -4.312  -9.246   0.299  0.00  0.00     0.030 A 
ENDBRANCH   9  13
ENDBRANCH   4   7
BRANCH   1  21
ATOM     21  N   UNL d   1      -0.169  -1.108  -0.431  0.00  0.00    -0.260 N 
ATOM     22  N   UNL d   1       1.028  -0.685   0.052  0.00  0.00    -0.297 N 
ATOM     23  C   UNL d   1       0.969   0.641   0.106  0.00  0.00     0.041 A 
ATOM     24  HN  UNL d   1       1.819  -1.271   0.321  1.00  0.00     0.187 HD
ATOM     25  C   UNL d   1       2.153   1.381   0.616  0.00  0.00     0.071 C 
ATOM     26  C   UNL d   1      -0.282   1.137  -0.340  0.00  0.00     0.087 A 
ATOM     27  C   UNL d   1      -1.025  -0.015  -0.625  0.00  0.00     0.049 A 
ATOM     28  C   UNL d   1      -2.466  -0.114  -0.992  0.00  0.00     0.071 C 
BRANCH  26  29
ATOM     29  C   UNL d   1      -0.700   2.534  -0.443  0.00  0.00     0.297 C 
ATOM     30  O   UNL d   1      -1.800   2.900  -0.861  0.00  0.00    -0.259 OA
BRANCH  29  31
ATOM     31  O   UNL d   1       0.272   3.400  -0.036  0.00  0.00    -0.318 OA
BRANCH  31  32
ATOM     32  C   UNL d   1      -0.008   4.805  -0.131  0.00  0.00     0.174 C 
ATOM     33  C   UNL d   1      -0.748   5.278   1.105  0.00  0.00     0.034 C 
ENDBRANCH  31  32
ENDBRANCH  29  31
ENDBRANCH  26  29
ENDBRANCH   1  21
TORSDOF 6
