REMARK  8 active torsions:
REMARK  status: ('A' for Active; 'I' for Inactive)
REMARK    1  A    between atoms: N_7  and  C_1 
REMARK    2  A    between atoms: N_8  and  C_1 
REMARK    3  A    between atoms: N_2  and  N_7 
REMARK    4  A    between atoms: N_4  and  N_8 
REMARK    5  A    between atoms: C_11  and  C_9 
REMARK    6  A    between atoms: C_12  and  C_10 
REMARK    7  A    between atoms: O_23  and  C_13 
REMARK    8  A    between atoms: O_24  and  C_14 
ROOT
ATOM      1  C   UNL d   1       1.050  -0.070  -0.077  0.00  0.00     0.205 C 
ATOM      2  S   UNL d   1       0.043  -0.530  -1.329  0.00  0.00    -0.038 SA
ENDROOT
BRANCH   1   3
ATOM      3  N   UNL d   1       0.507   0.204   1.166  0.00  0.00    -0.275 N 
ATOM      4  H   UNL d   1      -0.505   0.151   1.241  0.00  0.00     0.189 HD
BRANCH   3   5
ATOM      5  N   UNL d   1       1.222   0.933   2.068  0.00  0.00    -0.309 N 
ATOM      6  C   UNL d   1       0.556   1.360   3.096  0.00  0.00     0.118 C 
ATOM      7  HN  UNL d   1       2.215   1.130   1.943  1.00  0.00     0.186 HD
BRANCH   6   8
ATOM      8  C   UNL d   1       1.186   2.267   4.073  0.00  0.00    -0.019 A 
ATOM      9  C   UNL d   1       2.420   2.858   3.780  0.00  0.00     0.015 A 
ATOM     10  C   UNL d   1       3.015   3.730   4.693  0.00  0.00     0.037 A 
ATOM     11  C   UNL d   1       2.382   4.007   5.904  0.00  0.00     0.068 A 
ATOM     12  C   UNL d   1       1.131   3.443   6.176  0.00  0.00     0.037 A 
ATOM     13  C   UNL d   1       0.530   2.568   5.266  0.00  0.00     0.015 A 
BRANCH  11  14
ATOM     14  O   UNL d   1       2.875   4.839   6.872  0.00  0.00    -0.356 OA
ATOM     15  C   UNL d   1       4.294   4.960   6.909  0.00  0.00     0.210 C 
ENDBRANCH  11  14
ENDBRANCH   6   8
ENDBRANCH   3   5
ENDBRANCH   1   3
BRANCH   1  16
ATOM     16  N   UNL d   1       2.420   0.093  -0.128  0.00  0.00    -0.275 N 
ATOM     17  H   UNL d   1       2.843   0.393   0.746  0.00  0.00     0.189 HD
BRANCH  16  18
ATOM     18  N   UNL d   1       3.081   0.253  -1.306  0.00  0.00    -0.309 N 
ATOM     19  C   UNL d   1       4.359   0.434  -1.218  0.00  0.00     0.118 C 
ATOM     20  HN  UNL d   1       2.598   0.231  -2.204  1.00  0.00     0.186 HD
BRANCH  19  21
ATOM     21  C   UNL d   1       5.159   0.742  -2.421  0.00  0.00    -0.019 A 
ATOM     22  C   UNL d   1       4.519   1.033  -3.630  0.00  0.00     0.015 A 
ATOM     23  C   UNL d   1       5.266   1.364  -4.762  0.00  0.00     0.037 A 
ATOM     24  C   UNL d   1       6.659   1.394  -4.695  0.00  0.00     0.068 A 
ATOM     25  C   UNL d   1       7.294   1.103  -3.482  0.00  0.00     0.037 A 
ATOM     26  C   UNL d   1       6.552   0.781  -2.340  0.00  0.00     0.015 A 
BRANCH  24  27
ATOM     27  O   UNL d   1       7.503   1.689  -5.731  0.00  0.00    -0.356 OA
ATOM     28  C   UNL d   1       6.898   1.972  -6.988  0.00  0.00     0.210 C 
ENDBRANCH  24  27
ENDBRANCH  19  21
ENDBRANCH  16  18
ENDBRANCH   1  16
TORSDOF 8
