REMARK  4 active torsions:
REMARK  status: ('A' for Active; 'I' for Inactive)
REMARK    1  A    between atoms: C_7  and  C_1 
REMARK    2  A    between atoms: C_8  and  S_11 
REMARK    3  A    between atoms: S_11  and  C_14 
REMARK    4  A    between atoms: C_14  and  C_15 
ROOT
ATOM      1  C   UNL d   1      -3.327  -1.477  -0.000  0.00  0.00    -0.002 A 
ATOM      2  C   UNL d   1      -4.145  -1.072  -1.066  0.00  0.00     0.015 A 
ATOM      3  C   UNL d   1      -3.848  -2.404   0.914  0.00  0.00     0.015 A 
ATOM      4  C   UNL d   1      -5.948  -2.520  -0.310  0.00  0.00    -0.049 A 
ATOM      5  C   UNL d   1      -5.438  -1.588  -1.223  0.00  0.00     0.009 A 
ATOM      6  C   UNL d   1      -5.137  -2.925   0.758  0.00  0.00     0.009 A 
ENDROOT
BRANCH   1   7
ATOM      7  C   UNL d   1      -1.976  -0.899   0.140  0.00  0.00     0.085 A 
ATOM      8  N   UNL d   1      -1.620   0.279  -0.335  0.00  0.00    -0.349 N 
ATOM      9  C   UNL d   1      -0.307   0.561   0.004  0.00  0.00     0.050 A 
ATOM     10  HN  UNL d   1      -2.227   0.896  -0.876  1.00  0.00     0.166 HD
ATOM     11  C   UNL d   1       0.389   1.751  -0.291  0.00  0.00     0.031 A 
ATOM     12  C   UNL d   1       0.357  -0.444   0.707  0.00  0.00     0.033 A 
ATOM     13  C   UNL d   1       1.714   1.906   0.131  0.00  0.00     0.002 A 
ATOM     14  C   UNL d   1       2.355   0.889   0.832  0.00  0.00     0.002 A 
ATOM     15  C   UNL d   1       1.690  -0.305   1.127  0.00  0.00     0.021 A 
ATOM     16  S   UNL d   1      -0.714  -1.767   0.930  0.00  0.00    -0.070 SA
ENDBRANCH   1   7
BRANCH   4  17
ATOM     17  C   UNL d   1      -7.332  -3.103  -0.485  0.00  0.00     0.119 C 
BRANCH  17  18
ATOM     18  S   UNL d   1      -8.458  -2.615   0.864  0.00  0.00    -0.108 SA
BRANCH  18  19
ATOM     19  C   UNL d   1      -9.866  -3.641   0.484  0.00  0.00     0.069 A 
ATOM     20  N   UNL d   1      -9.881  -4.307  -0.693  0.00  0.00    -0.361 N 
ATOM     21  C   UNL d   1     -10.960  -5.076  -0.958  0.00  0.00     0.089 A 
ATOM     22  HN  UNL d   1      -9.108  -4.231  -1.355  1.00  0.00     0.165 HD
ATOM     23  C   UNL d   1     -12.036  -5.215  -0.099  0.00  0.00     0.017 A 
ATOM     24  C   UNL d   1     -12.006  -4.524   1.105  0.00  0.00     0.004 A 
ATOM     25  C   UNL d   1     -10.906  -3.724   1.404  0.00  0.00     0.037 A 
ENDBRANCH  18  19
ENDBRANCH  17  18
ENDBRANCH   4  17
TORSDOF 4
