REMARK  2 active torsions:
REMARK  status: ('A' for Active; 'I' for Inactive)
REMARK    1  A    between atoms: C_3  and  N_1 
REMARK    2  A    between atoms: C_5  and  C_3 
ROOT
ATOM      1  N   UNL d   1      -2.759  -2.178  -2.680  0.00  0.00    -0.195 NA
ATOM      2  C   UNL d   1      -1.589   0.011  -1.730  0.00  0.00     0.361 C 
ATOM      3  C   UNL d   1      -2.269  -1.209  -2.264  0.00  0.00     0.100 C 
ENDROOT
BRANCH   2   4
ATOM      4  N   UNL d   1      -1.445  -0.017  -0.239  0.00  0.00     0.115 N 
ATOM      5  C   UNL d   1      -0.600  -1.161   0.205  0.00  0.00     0.300 C 
ATOM      6  C   UNL d   1       0.893  -1.008  -0.147  0.00  0.00     0.198 C 
ATOM      7  O   UNL d   1       1.433   0.214   0.369  0.00  0.00    -0.388 OA
ATOM      8  C   UNL d   1       0.675   1.354  -0.051  0.00  0.00     0.198 C 
ATOM      9  C   UNL d   1      -0.811   1.204   0.316  0.00  0.00     0.300 C 
ENDBRANCH   2   4
BRANCH   2  10
ATOM     10  C   UNL d   1      -2.308   1.254  -2.259  0.00  0.00    -0.011 A 
ATOM     11  C   UNL d   1      -1.630   2.137  -3.120  0.00  0.00     0.010 A 
ATOM     12  C   UNL d   1      -2.278   3.251  -3.655  0.00  0.00     0.001 A 
ATOM     13  C   UNL d   1      -3.612   3.496  -3.342  0.00  0.00     0.000 A 
ATOM     14  C   UNL d   1      -4.297   2.636  -2.485  0.00  0.00     0.001 A 
ATOM     15  C   UNL d   1      -3.649   1.525  -1.941  0.00  0.00     0.010 A 
ENDBRANCH   2  10
TORSDOF 2
