REMARK  6 active torsions:
REMARK  status: ('A' for Active; 'I' for Inactive)
REMARK    1  A    between atoms: C_7  and  C_1 
REMARK    2  A    between atoms: N_11  and  C_4 
REMARK    3  A    between atoms: O_17  and  C_7 
REMARK    4  A    between atoms: N_8  and  N_11 
REMARK    5  A    between atoms: C_10  and  N_8 
REMARK    6  A    between atoms: C_20  and  O_17 
ROOT
ATOM      1  N   UNL d   1       0.092  -2.530   0.222  0.00  0.00    -0.279 N 
ATOM      2  H   UNL d   1       0.204  -1.692   0.781  0.00  0.00     0.189 HD
ENDROOT
BRANCH   1   3
ATOM      3  N   UNL d   1       1.107  -3.435   0.137  0.00  0.00    -0.302 N 
ATOM      4  HN  UNL d   1       1.056  -4.220  -0.513  1.00  0.00     0.186 HD
BRANCH   3   5
ATOM      5  C   UNL d   1       2.136  -3.271   0.902  0.00  0.00     0.037 C 
ATOM      6  C   UNL d   1       3.303  -4.141   0.844  0.00  0.00    -0.006 A 
ATOM      7  C   UNL d   1       4.196  -3.733   1.829  0.00  0.00    -0.046 A 
ATOM      8  C   UNL d   1       3.569  -5.186  -0.024  0.00  0.00     0.014 A 
ATOM      9  C   UNL d   1       5.407  -4.389   1.976  0.00  0.00     0.008 A 
ATOM     10  C   UNL d   1       3.661  -2.604   2.650  0.00  0.00     0.045 C 
ATOM     11  C   UNL d   1       5.703  -5.448   1.110  0.00  0.00     0.001 A 
ATOM     12  C   UNL d   1       4.791  -5.845   0.117  0.00  0.00     0.001 A 
ATOM     13  C   UNL d   1       2.369  -2.192   1.928  0.00  0.00     0.064 C 
ENDBRANCH   3   5
ENDBRANCH   1   3
BRANCH   1  14
ATOM     14  C   UNL d   1      -0.918  -2.522  -0.686  0.00  0.00     0.164 A 
ATOM     15  N   UNL d   1      -1.345  -3.565  -1.359  0.00  0.00    -0.330 N 
ATOM     16  C   UNL d   1      -2.388  -3.226  -2.210  0.00  0.00     0.117 A 
ATOM     17  HN  UNL d   1      -0.959  -4.505  -1.268  1.00  0.00     0.168 HD
ATOM     18  C   UNL d   1      -2.690  -1.876  -2.222  0.00  0.00     0.089 A 
ATOM     19  S   UNL d   1      -1.749  -1.053  -1.048  0.00  0.00    -0.062 SA
BRANCH  16  20
ATOM     20  C   UNL d   1      -3.128  -4.229  -2.968  0.00  0.00     0.310 C 
ATOM     21  O   UNL d   1      -4.054  -3.959  -3.718  0.00  0.00    -0.258 OA
BRANCH  20  22
ATOM     22  O   UNL d   1      -2.733  -5.502  -2.653  0.00  0.00    -0.317 OA
BRANCH  22  23
ATOM     23  C   UNL d   1      -3.643  -6.547  -3.009  0.00  0.00     0.175 C 
ATOM     24  C   UNL d   1      -4.658  -6.707  -1.890  0.00  0.00     0.034 C 
ENDBRANCH  22  23
ENDBRANCH  20  22
ENDBRANCH  16  20
ENDBRANCH   1  14
TORSDOF 6
