REMARK  4 active torsions:
REMARK  status: ('A' for Active; 'I' for Inactive)
REMARK    1  A    between atoms: O_9  and  C_4 
REMARK    2  A    between atoms: C_12  and  O_9 
REMARK    3  A    between atoms: O_10  and  C_11 
REMARK    4  A    between atoms: C_11  and  C_12 
ROOT
ATOM      1  N   UNL d   1      -3.059  -0.054  -0.102  0.00  0.00    -0.191 NA
ATOM      2  C   UNL d   1      -1.899  -0.034  -0.072  0.00  0.00     0.099 C 
ATOM      3  C   UNL d   1      -0.466  -0.004  -0.031  0.00  0.00     0.044 A 
ATOM      4  C   UNL d   1       2.340   0.067   0.062  0.00  0.00     0.068 A 
ATOM      5  C   UNL d   1       0.209   1.220  -0.013  0.00  0.00     0.025 A 
ATOM      6  C   UNL d   1       0.264  -1.194  -0.007  0.00  0.00     0.025 A 
ATOM      7  C   UNL d   1       1.609   1.255   0.033  0.00  0.00     0.038 A 
ATOM      8  C   UNL d   1       1.661  -1.155   0.039  0.00  0.00     0.038 A 
ENDROOT
BRANCH   4   9
ATOM      9  O   UNL d   1       3.704  -0.035   0.113  0.00  0.00    -0.349 OA
BRANCH   9  10
ATOM     10  C   UNL d   1       4.436   1.190   0.160  0.00  0.00     0.201 C 
BRANCH  10  11
ATOM     11  C   UNL d   1       5.926   0.875   0.236  0.00  0.00     0.190 C 
BRANCH  11  12
ATOM     12  O   UNL d   1       6.675   2.083   0.275  0.00  0.00    -0.399 OA
ATOM     13  H   UNL d   1       7.614   1.834   0.320  0.00  0.00     0.209 HD
ENDBRANCH  11  12
ENDBRANCH  10  11
ENDBRANCH   9  10
ENDBRANCH   4   9
TORSDOF 4
