REMARK  2 active torsions:
REMARK  status: ('A' for Active; 'I' for Inactive)
REMARK    1  A    between atoms: C_11  and  C_4 
REMARK    2  A    between atoms: O_14  and  C_11 
ROOT
ATOM      1  N   UNL d   1      -0.831   0.693   1.116  0.00  0.00     0.171 N 
ATOM      2  C   UNL d   1      -0.288  -0.653   0.837  0.00  0.00     0.399 C 
ATOM      3  C   UNL d   1      -0.789   1.284  -0.212  0.00  0.00     0.399 C 
ATOM      4  C   UNL d   1      -2.198   0.364   1.472  0.00  0.00     0.229 C 
ATOM      5  C   UNL d   1       0.960  -0.307   0.111  0.00  0.00     0.011 A 
ATOM      6  C   UNL d   1       0.591   0.826  -0.666  0.00  0.00     0.011 A 
ATOM      7  O   UNL d   1      -0.556  -1.376   2.004  0.00  0.00    -0.351 OA
ATOM      8  O   UNL d   1      -1.902   0.742  -0.920  0.00  0.00    -0.351 OA
ATOM      9  C   UNL d   1      -1.962  -0.988   2.226  0.00  0.00     0.217 C 
ATOM     10  C   UNL d   1      -2.881   0.331   0.087  0.00  0.00     0.217 C 
ATOM     11  C   UNL d   1       2.203  -0.886   0.019  0.00  0.00     0.012 A 
ATOM     12  C   UNL d   1       1.485   1.407  -1.541  0.00  0.00     0.012 A 
ATOM     13  C   UNL d   1       3.117  -0.286  -0.852  0.00  0.00     0.001 A 
ATOM     14  C   UNL d   1       2.762   0.842  -1.625  0.00  0.00     0.001 A 
ENDROOT
BRANCH   4  15
ATOM     15  C   UNL d   1      -2.819   1.402   2.419  0.00  0.00     0.210 C 
BRANCH  15  16
ATOM     16  O   UNL d   1      -2.776   2.715   1.866  0.00  0.00    -0.398 OA
ATOM     17  H   UNL d   1      -1.831   2.949   1.824  0.00  0.00     0.209 HD
ENDBRANCH  15  16
ENDBRANCH   4  15
TORSDOF 2
