REMARK  1 active torsions:
REMARK  status: ('A' for Active; 'I' for Inactive)
REMARK    1  A    between atoms: C_8  and  N_3 
ROOT
ATOM      1  C   UNL d   1      -1.281  -0.026   0.164  0.00  0.00     0.281 C 
ATOM      2  C   UNL d   1      -0.370   1.156   0.182  0.00  0.00     0.081 C 
ATOM      3  N   UNL d   1      -0.406  -1.116   0.268  0.00  0.00    -0.220 N 
ATOM      4  N   UNL d   1       0.931  -0.768   0.188  0.00  0.00    -0.294 N 
ATOM      5  HN  UNL d   1       1.728  -1.404   0.208  1.00  0.00     0.187 HD
ATOM      6  C   UNL d   1       0.974   0.535   0.082  0.00  0.00     0.040 C 
ATOM      7  C   UNL d   1      -0.771   2.432   0.336  0.00  0.00     0.054 C 
ATOM      8  S   UNL d   1       0.318   3.799   0.434  0.00  0.00    -0.121 SA
ATOM      9  S   UNL d   1      -2.454   2.901   0.512  0.00  0.00    -0.121 SA
ATOM     10  O   UNL d   1      -2.498  -0.015   0.065  0.00  0.00    -0.265 OA
ATOM     11  C   UNL d   1       2.284   1.223  -0.144  0.00  0.00     0.071 C 
ATOM     12  C   UNL d   1      -0.942   5.103   0.592  0.00  0.00     0.090 C 
ATOM     13  C   UNL d   1      -2.231   4.608  -0.031  0.00  0.00     0.090 C 
ENDROOT
BRANCH   3  14
ATOM     14  C   UNL d   1      -0.750  -2.487   0.393  0.00  0.00     0.060 A 
ATOM     15  C   UNL d   1      -2.083  -2.919   0.363  0.00  0.00     0.032 A 
ATOM     16  C   UNL d   1      -2.409  -4.272   0.501  0.00  0.00     0.009 A 
ATOM     17  C   UNL d   1      -1.411  -5.230   0.686  0.00  0.00    -0.062 A 
ATOM     18  C   UNL d   1      -0.079  -4.814   0.722  0.00  0.00     0.009 A 
ATOM     19  C   UNL d   1      -1.784  -6.676   0.813  0.00  0.00     0.048 C 
ATOM     20  C   UNL d   1       0.246  -3.458   0.575  0.00  0.00     0.032 A 
ENDBRANCH   3  14
TORSDOF 1
