REMARK  1 active torsions:
REMARK  status: ('A' for Active; 'I' for Inactive)
REMARK    1  A    between atoms: C_9  and  C_6 
ROOT
ATOM      1  N   UNL d   1      -1.700   1.502  -0.263  0.00  0.00    -0.305 N 
ATOM      2  HN  UNL d   1      -1.396   2.394  -0.653  1.00  0.00     0.186 HD
ATOM      3  C   UNL d   1      -0.966   0.481   0.048  0.00  0.00     0.043 C 
ATOM      4  N   UNL d   1      -2.963   1.118   0.045  0.00  0.00    -0.322 N 
ATOM      5  C   UNL d   1      -1.712  -0.692   0.628  0.00  0.00     0.067 C 
ATOM      6  C   UNL d   1      -3.142  -0.340   0.187  0.00  0.00     0.144 C 
ATOM      7  C   UNL d   1       0.492   0.409  -0.037  0.00  0.00    -0.005 A 
ATOM      8  C   UNL d   1      -1.103  -2.062   0.352  0.00  0.00     0.018 C 
ATOM      9  C   UNL d   1       1.058  -0.860  -0.222  0.00  0.00    -0.046 A 
ATOM     10  C   UNL d   1       0.163  -2.037  -0.514  0.00  0.00     0.040 C 
ATOM     11  C   UNL d   1      -4.112   1.911  -0.332  0.00  0.00     0.171 C 
ATOM     12  C   UNL d   1       1.276   1.546   0.131  0.00  0.00     0.014 A 
ATOM     13  C   UNL d   1       2.453  -0.970  -0.227  0.00  0.00     0.008 A 
ATOM     14  C   UNL d   1       2.665   1.419   0.141  0.00  0.00     0.001 A 
ATOM     15  C   UNL d   1       3.249   0.161  -0.033  0.00  0.00     0.001 A 
ENDROOT
BRANCH   6  16
ATOM     16  C   UNL d   1      -3.720  -1.014  -1.050  0.00  0.00    -0.033 A 
ATOM     17  C   UNL d   1      -3.087  -0.993  -2.303  0.00  0.00     0.011 A 
ATOM     18  C   UNL d   1      -3.717  -1.534  -3.432  0.00  0.00     0.024 A 
ATOM     19  C   UNL d   1      -4.989  -2.095  -3.319  0.00  0.00     0.034 A 
ATOM     20  C   UNL d   1      -5.628  -2.140  -2.086  0.00  0.00     0.024 A 
ATOM     21 CL   UNL d   1      -5.784  -2.707  -4.717  0.00  0.00    -0.084 Cl
ATOM     22  C   UNL d   1      -4.997  -1.605  -0.959  0.00  0.00     0.011 A 
ENDBRANCH   6  16
TORSDOF 1
