REMARK  3 active torsions:
REMARK  status: ('A' for Active; 'I' for Inactive)
REMARK    1  A    between atoms: C_8  and  C_2 
REMARK    2  A    between atoms: N_9  and  C_7 
REMARK    3  A    between atoms: N_13  and  C_12 
ROOT
ATOM      1  O   UNL d   1       0.426   0.678   1.018  0.00  0.00    -0.259 OA
ATOM      2  C   UNL d   1       1.319   0.666  -0.024  0.00  0.00     0.176 A 
ATOM      3  N   UNL d   1       1.048  -0.273  -0.909  0.00  0.00    -0.276 N 
ATOM      4  HN  UNL d   1       1.562  -0.470  -1.768  1.00  0.00     0.189 HD
ATOM      5  N   UNL d   1      -0.068  -0.937  -0.441  0.00  0.00    -0.263 N 
ATOM      6  HN  UNL d   1      -0.545  -1.721  -0.887  1.00  0.00     0.190 HD
ATOM      7  C   UNL d   1      -0.395  -0.357   0.689  0.00  0.00     0.238 A 
ENDROOT
BRANCH   2   8
ATOM      8  C   UNL d   1       2.401   1.642   0.005  0.00  0.00     0.017 A 
ATOM      9  C   UNL d   1       2.522   2.589   1.031  0.00  0.00     0.017 A 
ATOM     10  C   UNL d   1       3.592   3.493   1.047  0.00  0.00     0.024 A 
ATOM     11  C   UNL d   1       4.538   3.502   0.021  0.00  0.00     0.005 A 
ATOM     12  C   UNL d   1       4.446   2.530  -0.977  0.00  0.00     0.024 A 
ATOM     13  C   UNL d   1       3.378   1.625  -0.999  0.00  0.00     0.017 A 
BRANCH  11  14
ATOM     14  N   UNL d   1       5.679   4.304   0.121  0.00  0.00    -0.303 NA
ATOM     15  H   UNL d   1       6.143   4.475  -0.766  0.00  0.00     0.124 HD
ATOM     16  H   UNL d   1       5.542   5.156   0.655  0.00  0.00     0.124 HD
ENDBRANCH  11  14
ENDBRANCH   2   8
BRANCH   7  17
ATOM     17  N   UNL d   1      -1.397  -0.617   1.532  0.00  0.00    -0.364 N 
ATOM     18  H   UNL d   1      -2.156  -1.182   1.170  0.00  0.00     0.159 HD
ATOM     19  H   UNL d   1      -1.683   0.121   2.162  0.00  0.00     0.159 HD
ENDBRANCH   7  17
TORSDOF 3
