REMARK  7 active torsions:
REMARK  status: ('A' for Active; 'I' for Inactive)
REMARK    1  A    between atoms: C_7  and  C_1 
REMARK    2  A    between atoms: C_3  and  C_2 
REMARK    3  A    between atoms: N_12  and  C_6 
REMARK    4  A    between atoms: O_23  and  C_7 
REMARK    5  A    between atoms: C_14  and  N_12 
REMARK    6  A    between atoms: O_24  and  C_15 
REMARK    7  A    between atoms: C_25  and  O_23 
ROOT
ATOM      1  C   UNL d   1       0.006  -1.556   0.011  0.00  0.00     0.087 A 
ATOM      2  C   UNL d   1       1.189  -0.839   0.024  0.00  0.00     0.150 A 
ATOM      3  N   UNL d   1       1.179   0.539   0.024  0.00  0.00    -0.185 N 
ATOM      4  HN  UNL d   1       2.055   1.061   0.068  1.00  0.00     0.184 HD
ATOM      5  C   UNL d   1       0.009   1.184  -0.033  0.00  0.00     0.683 A 
ATOM      6  N   UNL d   1      -1.165   0.543  -0.045  0.00  0.00    -0.201 N 
ATOM      7  HN  UNL d   1      -2.045   1.057  -0.084  1.00  0.00     0.183 HD
ATOM      8  C   UNL d   1      -1.146  -0.799  -0.003  0.00  0.00     0.126 A 
ENDROOT
BRANCH   5   9
ATOM      9  N   UNL d   1       0.030   2.573  -0.062  0.00  0.00    -0.192 N 
ATOM     10  H   UNL d   1       0.943   2.950   0.141  0.00  0.00     0.184 HD
BRANCH   9  11
ATOM     11  C   UNL d   1      -0.912   3.435  -0.638  0.00  0.00     0.051 A 
ATOM     12  C   UNL d   1      -1.070   4.732  -0.142  0.00  0.00     0.056 A 
ATOM     13  C   UNL d   1      -2.087   5.585  -0.617  0.00  0.00     0.069 A 
ATOM     14 CL   UNL d   1      -2.142   7.137   0.145  0.00  0.00    -0.081 Cl
ATOM     15  C   UNL d   1      -2.960   5.147  -1.622  0.00  0.00     0.090 A 
ATOM     16  C   UNL d   1      -2.781   3.855  -2.131  0.00  0.00     0.041 A 
ATOM     17  C   UNL d   1      -1.785   3.013  -1.642  0.00  0.00     0.033 A 
BRANCH  15  18
ATOM     18  O   UNL d   1      -4.010   5.766  -2.239  0.00  0.00    -0.354 OA
ATOM     19  C   UNL d   1      -4.431   7.053  -1.831  0.00  0.00     0.210 C 
ENDBRANCH  15  18
ENDBRANCH   9  11
ENDBRANCH   5   9
BRANCH   2  20
ATOM     20  C   UNL d   1       2.573  -1.457   0.042  0.00  0.00     0.434 C 
ATOM     21  F   UNL d   1       2.645  -2.796   0.259  0.00  0.00    -0.165 F 
ATOM     22  F   UNL d   1       3.245  -1.233  -1.126  0.00  0.00    -0.165 F 
ATOM     23  F   UNL d   1       3.358  -0.917   1.021  0.00  0.00    -0.165 F 
ENDBRANCH   2  20
BRANCH   1  24
ATOM     24  C   UNL d   1      -0.209  -3.003   0.061  0.00  0.00     0.296 C 
ATOM     25  O   UNL d   1      -1.155  -3.494   0.665  0.00  0.00    -0.259 OA
BRANCH  24  26
ATOM     26  O   UNL d   1       0.677  -3.669  -0.704  0.00  0.00    -0.318 OA
BRANCH  26  27
ATOM     27  C   UNL d   1       0.549  -5.103  -0.669  0.00  0.00     0.174 C 
ATOM     28  C   UNL d   1       1.040  -5.671   0.652  0.00  0.00     0.034 C 
ENDBRANCH  26  27
ENDBRANCH  24  26
ENDBRANCH   1  24
TORSDOF 7
