REMARK  3 active torsions:
REMARK  status: ('A' for Active; 'I' for Inactive)
REMARK    1  A    between atoms: C_2  and  S_1 
REMARK    2  A    between atoms: N_3  and  S_1 
REMARK    3  A    between atoms: C_6  and  C_7 
ROOT
ATOM      1  C   UNL d   1       0.490   0.902  -1.519  0.00  0.00     0.118 A 
ATOM      2  C   UNL d   1      -0.365   1.962  -1.163  0.00  0.00     0.059 A 
ATOM      3  C   UNL d   1       0.720   0.663  -2.886  0.00  0.00     0.059 A 
ATOM      4  C   UNL d   1      -0.801   2.471  -3.513  0.00  0.00     0.051 A 
ATOM      5  C   UNL d   1       0.064   1.433  -3.863  0.00  0.00     0.041 A 
ATOM      6  C   UNL d   1      -0.986   2.742  -2.156  0.00  0.00     0.041 A 
ATOM      7 CL   UNL d   1       1.728  -0.581  -3.543  0.00  0.00    -0.083 Cl
ATOM      8 CL   UNL d   1      -0.813   2.393   0.451  0.00  0.00    -0.083 Cl
ENDROOT
BRANCH   1   9
ATOM      9  S   UNL d   1       1.250  -0.093  -0.256  0.00  0.00     0.247 S 
ATOM     10  O   UNL d   1       1.460   0.720   0.920  0.00  0.00    -0.206 OA
ATOM     11  O   UNL d   1       2.381  -0.815  -0.792  0.00  0.00    -0.206 OA
BRANCH   9  12
ATOM     12  N   UNL d   1       0.026  -1.239   0.093  0.00  0.00    -0.202 NA
ATOM     13  C   UNL d   1      -0.229  -2.310  -0.928  0.00  0.00     0.134 C 
ATOM     14  C   UNL d   1       0.758  -3.481  -0.800  0.00  0.00     0.183 C 
ATOM     15  O   UNL d   1       0.760  -4.019   0.531  0.00  0.00    -0.389 OA
ATOM     16  C   UNL d   1       1.118  -3.006   1.484  0.00  0.00     0.183 C 
ATOM     17  C   UNL d   1       0.103  -1.861   1.455  0.00  0.00     0.134 C 
ENDBRANCH   9  12
ENDBRANCH   1   9
BRANCH   4  18
ATOM     18  C   UNL d   1      -1.538   3.272  -4.559  0.00  0.00     0.417 C 
ATOM     19  F   UNL d   1      -1.342   2.814  -5.825  0.00  0.00    -0.166 F 
ATOM     20  F   UNL d   1      -2.884   3.256  -4.360  0.00  0.00    -0.166 F 
ATOM     21  F   UNL d   1      -1.170   4.580  -4.567  0.00  0.00    -0.166 F 
ENDBRANCH   4  18
TORSDOF 3
