REMARK  5 active torsions:
REMARK  status: ('A' for Active; 'I' for Inactive)
REMARK    1  A    between atoms: C_16  and  N_2 
REMARK    2  A    between atoms: C_6  and  C_7 
REMARK    3  A    between atoms: C_7  and  O_17 
REMARK    4  A    between atoms: C_18  and  C_16 
REMARK    5  A    between atoms: O_17  and  C_18 
ROOT
ATOM      1  C   UNL d   1       1.959   0.268  -1.043  0.00  0.00     0.273 A 
ATOM      2  N   UNL d   1       2.406  -0.622  -0.065  0.00  0.00    -0.255 N 
ATOM      3  N   UNL d   1       1.663  -0.986   1.038  0.00  0.00    -0.306 N 
ATOM      4  HN  UNL d   1       2.004  -1.695   1.687  1.00  0.00     0.186 HD
ATOM      5  C   UNL d   1       0.689   0.965  -0.770  0.00  0.00     0.045 A 
ATOM      6  C   UNL d   1       0.520  -0.406   1.232  0.00  0.00     0.119 A 
ATOM      7  C   UNL d   1      -0.026   0.635   0.370  0.00  0.00    -0.004 A 
ATOM      8  O   UNL d   1       2.571   0.519  -2.078  0.00  0.00    -0.266 OA
ATOM      9  C   UNL d   1       0.215   1.972  -1.618  0.00  0.00     0.018 A 
ATOM     10  C   UNL d   1      -1.214   1.295   0.693  0.00  0.00     0.014 A 
ATOM     11  C   UNL d   1      -0.965   2.647  -1.300  0.00  0.00     0.001 A 
ATOM     12  C   UNL d   1      -1.677   2.311  -0.146  0.00  0.00     0.001 A 
ENDROOT
BRANCH   2  13
ATOM     13  C   UNL d   1       3.704  -1.284  -0.221  0.00  0.00     0.179 C 
BRANCH  13  14
ATOM     14  C   UNL d   1       4.883  -0.302  -0.187  0.00  0.00     0.201 C 
BRANCH  14  15
ATOM     15  O   UNL d   1       6.148  -0.972  -0.370  0.00  0.00    -0.315 OA
BRANCH  15  16
ATOM     16  C   UNL d   1       6.713  -1.464   0.774  0.00  0.00     0.300 C 
ATOM     17  O   UNL d   1       6.166  -1.413   1.872  0.00  0.00    -0.259 OA
BRANCH  16  18
ATOM     18  C   UNL d   1       8.020  -2.037   0.499  0.00  0.00     0.080 A 
ATOM     19  S   UNL d   1       8.864  -2.797   1.791  0.00  0.00    -0.096 SA
ATOM     20  C   UNL d   1      10.180  -3.218   0.789  0.00  0.00     0.050 A 
ATOM     21  C   UNL d   1      10.004  -2.779  -0.503  0.00  0.00     0.009 A 
ATOM     22  C   UNL d   1       8.762  -2.089  -0.670  0.00  0.00     0.025 A 
ENDBRANCH  16  18
ENDBRANCH  15  16
ENDBRANCH  14  15
ENDBRANCH  13  14
ENDBRANCH   2  13
TORSDOF 5
