REMARK  6 active torsions:
REMARK  status: ('A' for Active; 'I' for Inactive)
REMARK    1  A    between atoms: C_8  and  C_1 
REMARK    2  A    between atoms: N_9  and  C_1 
REMARK    3  A    between atoms: O_12  and  N_2 
REMARK    4  A    between atoms: C_4  and  C_5 
REMARK    5  A    between atoms: O_10  and  C_8 
REMARK    6  A    between atoms: C_11  and  O_10 
ROOT
ATOM      1  C   UNL d   1      -4.019  -4.017   1.091  0.00  0.00    -0.050 A 
ATOM      2  C   UNL d   1      -4.220  -3.204  -0.041  0.00  0.00     0.011 A 
ATOM      3  C   UNL d   1      -2.854  -3.789   1.842  0.00  0.00     0.011 A 
ATOM      4  C   UNL d   1      -2.198  -1.954   0.396  0.00  0.00     0.069 A 
ATOM      5  C   UNL d   1      -3.321  -2.195  -0.391  0.00  0.00     0.037 A 
ATOM      6  C   UNL d   1      -1.953  -2.776   1.494  0.00  0.00     0.037 A 
ENDROOT
BRANCH   4   7
ATOM      7  O   UNL d   1      -1.290  -0.953   0.182  0.00  0.00    -0.344 OA
BRANCH   7   8
ATOM      8  C   UNL d   1      -1.797   0.160  -0.554  0.00  0.00     0.247 C 
BRANCH   8   9
ATOM      9  C   UNL d   1      -0.934   1.397  -0.306  0.00  0.00     0.099 C 
ATOM     10  N   UNL d   1      -0.945   2.329  -1.215  0.00  0.00    -0.260 N 
ATOM     11  HN  UNL d   1      -1.480   2.287  -2.082  1.00  0.00     0.195 HD
BRANCH  10  12
ATOM     12  O   UNL d   1      -0.117   3.399  -0.838  0.00  0.00    -0.289 OA
ATOM     13  H   UNL d   1      -0.298   4.052  -1.540  0.00  0.00     0.244 HD
ENDBRANCH  10  12
BRANCH   9  14
ATOM     14  N   UNL d   1      -0.224   1.474   0.867  0.00  0.00    -0.289 NA
ATOM     15  H   UNL d   1       0.510   2.175   0.815  0.00  0.00     0.125 HD
ATOM     16  H   UNL d   1       0.067   0.579   1.244  0.00  0.00     0.125 HD
ENDBRANCH   9  14
ENDBRANCH   8   9
ENDBRANCH   7   8
ENDBRANCH   4   7
BRANCH   1  17
ATOM     17  C   UNL d   1      -5.060  -5.086   1.459  0.00  0.00    -0.024 C 
ATOM     18  C   UNL d   1      -4.684  -5.919   2.705  0.00  0.00     0.019 C 
ATOM     19  C   UNL d   1      -6.414  -4.405   1.754  0.00  0.00     0.019 C 
ATOM     20  C   UNL d   1      -5.236  -6.072   0.284  0.00  0.00     0.019 C 
ENDBRANCH   1  17
TORSDOF 6
