REMARK  2 active torsions:
REMARK  status: ('A' for Active; 'I' for Inactive)
REMARK    1  A    between atoms: C_12  and  C_3 
REMARK    2  A    between atoms: C_10  and  C_13 
ROOT
ATOM      1  N   UNL d   1      -1.911  -0.518  -0.501  0.00  0.00    -0.220 N 
ATOM      2  C   UNL d   1      -1.601   0.762  -0.246  0.00  0.00     0.145 A 
ATOM      3  C   UNL d   1      -0.941  -1.362   0.014  0.00  0.00     0.154 A 
ATOM      4  N   UNL d   1      -0.015  -0.613   0.593  0.00  0.00    -0.282 N 
ATOM      5  HN  UNL d   1       0.824  -0.934   1.076  1.00  0.00     0.188 HD
ATOM      6  N   UNL d   1      -3.080  -0.714  -1.120  0.00  0.00    -0.295 N 
ATOM      7  HN  UNL d   1      -3.519  -1.588  -1.407  1.00  0.00     0.187 HD
ATOM      8  C   UNL d   1      -2.608   1.528  -0.739  0.00  0.00     0.077 A 
ATOM      9  N   UNL d   1      -0.430   0.720   0.405  0.00  0.00    -0.282 N 
ATOM     10  C   UNL d   1      -3.526   0.554  -1.266  0.00  0.00     0.026 A 
ATOM     11  C   UNL d   1      -4.844   0.811  -1.897  0.00  0.00     0.070 C 
ATOM     12  H   UNL d   1       0.104   1.496   0.787  0.00  0.00     0.188 HD
ENDROOT
BRANCH   3  13
ATOM     13  C   UNL d   1      -0.911  -2.830  -0.039  0.00  0.00     0.011 A 
ATOM     14  C   UNL d   1      -1.561  -3.523  -1.065  0.00  0.00     0.016 A 
ATOM     15  C   UNL d   1      -1.525  -4.919  -1.101  0.00  0.00     0.017 A 
ATOM     16  C   UNL d   1      -0.845  -5.642  -0.110  0.00  0.00     0.048 A 
ATOM     17  C   UNL d   1      -0.193  -4.937   0.916  0.00  0.00     0.017 A 
ATOM     18  C   UNL d   1      -0.218  -3.539   0.948  0.00  0.00     0.016 A 
BRANCH  16  19
ATOM     19  C   UNL d   1      -0.807  -7.151  -0.136  0.00  0.00     0.417 C 
ATOM     20  F   UNL d   1      -1.463  -7.695  -1.199  0.00  0.00    -0.166 F 
ATOM     21  F   UNL d   1       0.464  -7.638  -0.193  0.00  0.00    -0.166 F 
ATOM     22  F   UNL d   1      -1.370  -7.705   0.973  0.00  0.00    -0.166 F 
ENDBRANCH  16  19
ENDBRANCH   3  13
TORSDOF 2
