REMARK  8 active torsions:
REMARK  status: ('A' for Active; 'I' for Inactive)
REMARK    1  A    between atoms: C_7  and  C_1 
REMARK    2  A    between atoms: C_8  and  C_2 
REMARK    3  A    between atoms: C_11  and  C_5 
REMARK    4  A    between atoms: C_15  and  C_6 
REMARK       I    between atoms: N_13  and  C_7 
REMARK    5  A    between atoms: N_12  and  C_9 
REMARK    6  A    between atoms: C_10  and  C_16 
REMARK    7  A    between atoms: O_33  and  C_11 
REMARK    8  A    between atoms: C_18  and  N_13 
ROOT
ATOM      1  C   UNL d   1       2.436   1.512  -0.448  0.00  0.00     0.259 C 
ATOM      2  N   UNL d   1       3.512   0.779   0.024  0.00  0.00    -0.323 N 
ATOM      3  O   UNL d   1       1.496   1.048  -1.078  0.00  0.00    -0.267 OA
ATOM      4  H   UNL d   1       4.168   1.232   0.642  0.00  0.00     0.169 HD
ENDROOT
BRANCH   1   5
ATOM      5  C   UNL d   1       2.467   2.949  -0.210  0.00  0.00     0.073 A 
ATOM      6  C   UNL d   1       3.065   3.702   0.793  0.00  0.00     0.175 A 
ATOM      7  O   UNL d   1       2.842   5.038   0.559  0.00  0.00    -0.304 OA
ATOM      8  C   UNL d   1       2.060   5.146  -0.552  0.00  0.00     0.087 A 
ATOM      9  C   UNL d   1       1.762   3.888  -1.017  0.00  0.00     0.058 A 
BRANCH   6  10
ATOM     10  C   UNL d   1       3.836   3.392   2.020  0.00  0.00     0.440 C 
ATOM     11  F   UNL d   1       3.897   2.053   2.252  0.00  0.00    -0.164 F 
ATOM     12  F   UNL d   1       5.122   3.810   1.930  0.00  0.00    -0.164 F 
ATOM     13  F   UNL d   1       3.301   3.954   3.131  0.00  0.00    -0.164 F 
ENDBRANCH   6  10
BRANCH   8  14
ATOM     14  C   UNL d   1       1.711   6.487  -1.001  0.00  0.00    -0.002 A 
ATOM     15  C   UNL d   1       1.839   7.598  -0.159  0.00  0.00     0.015 A 
ATOM     16  C   UNL d   1       1.446   8.870  -0.590  0.00  0.00     0.017 A 
ATOM     17  C   UNL d   1       0.920   9.058  -1.876  0.00  0.00     0.048 A 
ATOM     18  C   UNL d   1       0.822   7.954  -2.732  0.00  0.00     0.017 A 
ATOM     19  C   UNL d   1       1.212   6.684  -2.298  0.00  0.00     0.015 A 
BRANCH  17  20
ATOM     20  C   UNL d   1       0.447  10.413  -2.341  0.00  0.00     0.417 C 
ATOM     21  F   UNL d   1       0.571  11.388  -1.398  0.00  0.00    -0.166 F 
ATOM     22  F   UNL d   1       1.129  10.858  -3.432  0.00  0.00    -0.166 F 
ATOM     23  F   UNL d   1      -0.867  10.407  -2.700  0.00  0.00    -0.166 F 
ENDBRANCH  17  20
ENDBRANCH   8  14
ENDBRANCH   1   5
BRANCH   2  24
ATOM     24  C   UNL d   1       3.694  -0.612  -0.139  0.00  0.00     0.036 A 
ATOM     25  C   UNL d   1       2.940  -1.392  -1.005  0.00  0.00     0.049 A 
ATOM     26  C   UNL d   1       3.046  -2.798  -0.998  0.00  0.00     0.068 A 
ATOM     27  C   UNL d   1       4.004  -3.473  -0.202  0.00  0.00     0.046 A 
ATOM     28  C   UNL d   1       4.797  -2.637   0.614  0.00  0.00     0.032 A 
ATOM     29  C   UNL d   1       4.645  -1.241   0.655  0.00  0.00     0.032 A 
BRANCH  26  30
ATOM     30  C   UNL d   1       1.945  -3.500  -1.702  0.00  0.00     0.295 C 
ATOM     31  O   UNL d   1       1.265  -4.385  -1.213  0.00  0.00    -0.259 OA
BRANCH  30  32
ATOM     32  O   UNL d   1       1.839  -3.026  -2.971  0.00  0.00    -0.322 OA
ATOM     33  C   UNL d   1       0.797  -3.637  -3.736  0.00  0.00     0.213 C 
ENDBRANCH  30  32
ENDBRANCH  26  30
BRANCH  27  34
ATOM     34  N   UNL d   1       4.152  -4.856  -0.158  0.00  0.00    -0.376 N 
ATOM     35  C   UNL d   1       4.062  -5.668  -1.394  0.00  0.00     0.149 C 
ATOM     36  C   UNL d   1       3.501  -7.052  -1.036  0.00  0.00     0.187 C 
ATOM     37  O   UNL d   1       4.381  -7.723  -0.117  0.00  0.00    -0.388 OA
ATOM     38  C   UNL d   1       4.489  -6.964   1.098  0.00  0.00     0.187 C 
ATOM     39  C   UNL d   1       4.995  -5.528   0.856  0.00  0.00     0.149 C 
ENDBRANCH  27  34
ENDBRANCH   2  24
TORSDOF 8
