REMARK  4 active torsions:
REMARK  status: ('A' for Active; 'I' for Inactive)
REMARK    1  A    between atoms: C_11  and  C_3 
REMARK    2  A    between atoms: C_8  and  C_4 
REMARK    3  A    between atoms: O_17  and  C_10 
REMARK    4  A    between atoms: O_21  and  C_12 
ROOT
ATOM      1  N   UNL d   1       0.782   0.051   0.695  0.00  0.00    -0.319 N 
ATOM      2  HN  UNL d   1       1.408   0.119   1.498  1.00  0.00     0.169 HD
ATOM      3  C   UNL d   1      -0.021   1.026   0.146  0.00  0.00     0.138 A 
ATOM      4  C   UNL d   1       0.543  -0.989  -0.071  0.00  0.00     0.182 A 
ATOM      5  N   UNL d   1      -0.730   0.611  -0.917  0.00  0.00    -0.242 N 
ATOM      6  HN  UNL d   1      -1.388   1.146  -1.484  1.00  0.00     0.196 HD
ATOM      7  O   UNL d   1      -0.355  -0.725  -1.064  0.00  0.00    -0.217 OA
ENDROOT
BRANCH   4   8
ATOM      8  C   UNL d   1       1.077  -2.341   0.022  0.00  0.00     0.020 A 
ATOM      9  C   UNL d   1       1.897  -2.672   1.115  0.00  0.00     0.055 A 
ATOM     10  C   UNL d   1       2.430  -3.960   1.285  0.00  0.00     0.102 A 
ATOM     11  C   UNL d   1       2.146  -4.939   0.319  0.00  0.00     0.101 A 
ATOM     12  C   UNL d   1       1.331  -4.609  -0.776  0.00  0.00     0.040 A 
ATOM     13  C   UNL d   1       0.799  -3.327  -0.926  0.00  0.00     0.019 A 
BRANCH  10  14
ATOM     14  O   UNL d   1       3.209  -4.302   2.358  0.00  0.00    -0.353 OA
ATOM     15  C   UNL d   1       3.490  -3.309   3.337  0.00  0.00     0.210 C 
ENDBRANCH  10  14
BRANCH  11  16
ATOM     16  O   UNL d   1       2.558  -6.246   0.274  0.00  0.00    -0.353 OA
ATOM     17  C   UNL d   1       3.433  -6.727   1.283  0.00  0.00     0.210 C 
ENDBRANCH  11  16
ENDBRANCH   4   8
BRANCH   3  18
ATOM     18  C   UNL d   1      -0.074   2.376   0.696  0.00  0.00     0.010 A 
ATOM     19  C   UNL d   1       0.756   2.732   1.769  0.00  0.00     0.016 A 
ATOM     20  C   UNL d   1       0.718   4.022   2.306  0.00  0.00     0.007 A 
ATOM     21  C   UNL d   1      -0.152   4.981   1.780  0.00  0.00    -0.062 A 
ATOM     22  C   UNL d   1      -0.986   4.631   0.712  0.00  0.00     0.007 A 
ATOM     23  C   UNL d   1      -0.184   6.363   2.364  0.00  0.00     0.048 C 
ATOM     24  C   UNL d   1      -0.947   3.340   0.175  0.00  0.00     0.016 A 
ENDBRANCH   3  18
TORSDOF 4
