REMARK  5 active torsions:
REMARK  status: ('A' for Active; 'I' for Inactive)
REMARK    1  A    between atoms: C_4  and  N_1 
REMARK       I    between atoms: C_2  and  N_3 
REMARK       I    between atoms: N_10  and  C_2 
REMARK    2  A    between atoms: N_5  and  C_7 
REMARK    3  A    between atoms: C_6  and  O_17 
REMARK    4  A    between atoms: C_22  and  N_10 
REMARK    5  A    between atoms: O_17  and  C_26 
ROOT
ATOM      1  C   UNL d   1      -4.041   5.022   6.718  0.00  0.00     0.323 C 
ATOM      2  N   UNL d   1      -3.389   4.225   5.779  0.00  0.00    -0.331 N 
ATOM      3  N   UNL d   1      -2.048   2.815   3.683  0.00  0.00    -0.364 N 
ATOM      4  N   UNL d   1      -4.340   4.411   7.912  0.00  0.00    -0.309 N 
ATOM      5  O   UNL d   1      -4.325   6.189   6.454  0.00  0.00    -0.247 OA
ATOM      6  C   UNL d   1      -2.780   2.898   6.019  0.00  0.00     0.147 C 
ATOM      7  C   UNL d   1      -2.878   4.924   4.585  0.00  0.00     0.147 C 
ATOM      8  C   UNL d   1      -2.687   2.028   4.744  0.00  0.00     0.144 C 
ATOM      9  C   UNL d   1      -2.814   4.022   3.342  0.00  0.00     0.144 C 
ATOM     10  H   UNL d   1      -4.027   3.468   8.040  0.00  0.00     0.170 HD
ENDROOT
BRANCH   4  11
ATOM     11  C   UNL d   1      -5.042   4.955   9.010  0.00  0.00     0.036 A 
ATOM     12  C   UNL d   1      -5.566   6.247   9.053  0.00  0.00     0.032 A 
ATOM     13  C   UNL d   1      -6.275   6.702  10.175  0.00  0.00     0.039 A 
ATOM     14  C   UNL d   1      -6.484   5.860  11.265  0.00  0.00     0.078 A 
ATOM     15  C   UNL d   1      -5.940   4.574  11.235  0.00  0.00     0.039 A 
ATOM     16  C   UNL d   1      -5.227   4.124  10.120  0.00  0.00     0.032 A 
BRANCH  14  17
ATOM     17  O   UNL d   1      -7.190   6.146  12.395  0.00  0.00    -0.255 OA
BRANCH  17  18
ATOM     18  C   UNL d   1      -7.870   7.388  12.460  0.00  0.00     0.530 C 
ATOM     19  F   UNL d   1      -8.656   7.589  11.381  0.00  0.00    -0.144 F 
ATOM     20  F   UNL d   1      -8.664   7.385  13.555  0.00  0.00    -0.144 F 
ATOM     21  F   UNL d   1      -6.993   8.407  12.579  0.00  0.00    -0.144 F 
ENDBRANCH  17  18
ENDBRANCH  14  17
ENDBRANCH   4  11
BRANCH   3  22
ATOM     22  C   UNL d   1      -1.402   2.128   2.670  0.00  0.00     0.103 A 
ATOM     23  C   UNL d   1      -0.510   2.812   1.834  0.00  0.00     0.051 A 
ATOM     24  C   UNL d   1       0.261   2.119   0.902  0.00  0.00     0.041 A 
ATOM     25  C   UNL d   1       0.119   0.739   0.822  0.00  0.00     0.118 A 
ATOM     26  C   UNL d   1      -0.788   0.117   1.659  0.00  0.00     0.125 A 
ATOM     27  N   UNL d   1      -1.537   0.785   2.577  0.00  0.00    -0.350 N 
ATOM     28  HN  UNL d   1      -2.186   0.284   3.183  1.00  0.00     0.166 HD
BRANCH  25  29
ATOM     29  N   UNL d   1       0.929  -0.040  -0.096  0.00  0.00    -0.114 N 
ATOM     30  O   UNL d   1       0.726  -1.264  -0.150  0.00  0.00    -0.532 OA
ATOM     31  O   UNL d   1       1.780   0.558  -0.768  0.00  0.00    -0.532 OA
ENDBRANCH  25  29
ENDBRANCH   3  22
TORSDOF 5
