REMARK  4 active torsions:
REMARK  status: ('A' for Active; 'I' for Inactive)
REMARK    1  A    between atoms: C_7  and  C_1 
REMARK    2  A    between atoms: C_10  and  C_6 
REMARK    3  A    between atoms: C_9  and  O_13 
REMARK    4  A    between atoms: O_13  and  C_19 
ROOT
ATOM      1  C   UNL d   1       0.302   1.123  -0.147  0.00  0.00     0.141 A 
ATOM      2  N   UNL d   1       1.214   0.174   0.262  0.00  0.00    -0.318 N 
ATOM      3  HN  UNL d   1       2.125   0.314   0.700  1.00  0.00     0.169 HD
ATOM      4  N   UNL d   1      -0.823   0.607  -0.669  0.00  0.00    -0.242 N 
ATOM      5  HN  UNL d   1      -1.634   1.105  -1.035  1.00  0.00     0.196 HD
ATOM      6  C   UNL d   1       0.619  -0.953  -0.052  0.00  0.00     0.182 A 
ATOM      7  O   UNL d   1      -0.620  -0.769  -0.595  0.00  0.00    -0.217 OA
ENDROOT
BRANCH   6   8
ATOM      8  C   UNL d   1       1.099  -2.327   0.056  0.00  0.00     0.017 A 
ATOM      9  C   UNL d   1       2.451  -2.575   0.335  0.00  0.00     0.018 A 
ATOM     10  C   UNL d   1       2.940  -3.884   0.455  0.00  0.00     0.038 A 
ATOM     11  C   UNL d   1       2.074  -4.968   0.316  0.00  0.00     0.078 A 
ATOM     12  C   UNL d   1       0.734  -4.729   0.004  0.00  0.00     0.038 A 
ATOM     13  C   UNL d   1       0.247  -3.424  -0.123  0.00  0.00     0.018 A 
BRANCH  11  14
ATOM     14  O   UNL d   1       2.395  -6.286   0.455  0.00  0.00    -0.255 OA
BRANCH  14  15
ATOM     15  C   UNL d   1       3.619  -6.602   1.097  0.00  0.00     0.530 C 
ATOM     16  F   UNL d   1       3.795  -5.885   2.228  0.00  0.00    -0.144 F 
ATOM     17  F   UNL d   1       3.603  -7.911   1.435  0.00  0.00    -0.144 F 
ATOM     18  F   UNL d   1       4.661  -6.392   0.265  0.00  0.00    -0.144 F 
ENDBRANCH  14  15
ENDBRANCH  11  14
ENDBRANCH   6   8
BRANCH   1  19
ATOM     19  C   UNL d   1       0.575   2.551  -0.078  0.00  0.00     0.053 A 
ATOM     20  C   UNL d   1       1.775   3.078  -0.602  0.00  0.00     0.049 A 
ATOM     21 CL   UNL d   1       2.986   2.097  -1.363  0.00  0.00    -0.083 Cl
ATOM     22  C   UNL d   1       2.033   4.454  -0.562  0.00  0.00     0.025 A 
ATOM     23  C   UNL d   1       1.103   5.331  -0.014  0.00  0.00     0.003 A 
ATOM     24  C   UNL d   1      -0.085   4.830   0.509  0.00  0.00     0.025 A 
ATOM     25  C   UNL d   1      -0.347   3.452   0.485  0.00  0.00     0.049 A 
ATOM     26 CL   UNL d   1      -1.835   2.948   1.221  0.00  0.00    -0.083 Cl
ENDBRANCH   1  19
TORSDOF 4
