REMARK  5 active torsions:
REMARK  status: ('A' for Active; 'I' for Inactive)
REMARK    1  A    between atoms: C_6  and  C_1 
REMARK    2  A    between atoms: C_9  and  C_3 
REMARK    3  A    between atoms: S_14  and  C_5 
REMARK       I    between atoms: N_10  and  C_6 
REMARK    4  A    between atoms: C_18  and  N_10 
REMARK    5  A    between atoms: C_11  and  C_18 
ROOT
ATOM      1  C   UNL d   1       1.199  -1.378  -0.071  0.00  0.00     0.086 A 
ATOM      2  C   UNL d   1      -0.689   0.000   0.215  0.00  0.00     0.081 A 
ATOM      3  C   UNL d   1      -0.186  -1.369   0.114  0.00  0.00     0.019 A 
ATOM      4  S   UNL d   1       1.810   0.236  -0.207  0.00  0.00    -0.075 SA
ATOM      5  C   UNL d   1       0.287   0.955   0.032  0.00  0.00     0.063 A 
ATOM      6  C   UNL d   1      -2.061   0.348   0.453  0.00  0.00     0.102 C 
ATOM      7  N   UNL d   1      -3.175   0.629   0.638  0.00  0.00    -0.191 NA
ENDROOT
BRANCH   3   8
ATOM      8  C   UNL d   1      -1.062  -2.563   0.175  0.00  0.00    -0.023 A 
ATOM      9  C   UNL d   1      -2.300  -2.543  -0.501  0.00  0.00     0.014 A 
ATOM     10  C   UNL d   1      -3.251  -3.551  -0.312  0.00  0.00     0.024 A 
ATOM     11  C   UNL d   1      -2.950  -4.639   0.495  0.00  0.00     0.034 A 
ATOM     12  C   UNL d   1      -1.708  -4.718   1.115  0.00  0.00     0.024 A 
ATOM     13 CL   UNL d   1      -4.123  -5.870   0.750  0.00  0.00    -0.084 Cl
ATOM     14  C   UNL d   1      -0.786  -3.670   0.981  0.00  0.00     0.014 A 
ENDBRANCH   3   8
BRANCH   5  15
ATOM     15  S   UNL d   1       0.132   2.711  -0.072  0.00  0.00    -0.126 SA
ATOM     16  C   UNL d   1      -0.631   3.148   1.506  0.00  0.00     0.096 C 
ENDBRANCH   5  15
BRANCH   1  17
ATOM     17  C   UNL d   1       2.198  -2.465  -0.123  0.00  0.00     0.259 C 
ATOM     18  N   UNL d   1       3.333  -2.195  -0.866  0.00  0.00    -0.356 N 
ATOM     19  H   UNL d   1       3.415  -1.283  -1.289  0.00  0.00     0.162 HD
ATOM     20  O   UNL d   1       2.088  -3.526   0.484  0.00  0.00    -0.267 OA
BRANCH  18  21
ATOM     21  C   UNL d   1       4.530  -3.007  -0.780  0.00  0.00     0.127 C 
BRANCH  21  22
ATOM     22  C   UNL d   1       4.378  -4.334  -1.455  0.00  0.00     0.003 A 
ATOM     23  C   UNL d   1       5.051  -4.607  -2.781  0.00  0.00     0.007 A 
ATOM     24  C   UNL d   1       3.556  -4.511  -2.709  0.00  0.00     0.007 A 
ENDBRANCH  21  22
ENDBRANCH  18  21
ENDBRANCH   1  17
TORSDOF 5
