REMARK  7 active torsions:
REMARK  status: ('A' for Active; 'I' for Inactive)
REMARK    1  A    between atoms: C_14  and  C_3 
REMARK    2  A    between atoms: O_25  and  C_6 
REMARK    3  A    between atoms: C_12  and  C_7 
REMARK    4  A    between atoms: C_9  and  O_16 
REMARK    5  A    between atoms: C_13  and  C_11 
REMARK    6  A    between atoms: O_29  and  C_15 
REMARK    7  A    between atoms: O_16  and  C_26 
ROOT
ATOM      1  N   UNL d   1       1.273   0.157   0.085  0.00  0.00    -0.319 N 
ATOM      2  HN  UNL d   1       2.278   0.302  -0.011  1.00  0.00     0.169 HD
ATOM      3  C   UNL d   1       0.276   1.110   0.109  0.00  0.00     0.138 A 
ATOM      4  N   UNL d   1      -0.950   0.596   0.265  0.00  0.00    -0.242 N 
ATOM      5  HN  UNL d   1      -1.839   1.093   0.319  1.00  0.00     0.196 HD
ATOM      6  C   UNL d   1       0.625  -0.985   0.216  0.00  0.00     0.171 A 
ATOM      7  O   UNL d   1      -0.730  -0.772   0.338  0.00  0.00    -0.218 OA
ENDROOT
BRANCH   6   8
ATOM      8  C   UNL d   1       1.175  -2.300   0.215  0.00  0.00     0.059 C 
ATOM      9  C   UNL d   1       2.489  -2.509   0.080  0.00  0.00     0.017 C 
BRANCH   9  10
ATOM     10  C   UNL d   1       3.021  -3.878  -0.011  0.00  0.00    -0.011 A 
ATOM     11  C   UNL d   1       3.199  -4.545  -1.247  0.00  0.00     0.080 A 
ATOM     12  C   UNL d   1       3.654  -5.886  -1.286  0.00  0.00     0.124 A 
ATOM     13 CL   UNL d   1       2.918  -3.619  -2.697  0.00  0.00    -0.080 Cl
ATOM     14  C   UNL d   1       3.974  -6.523  -0.067  0.00  0.00     0.103 A 
ATOM     15  C   UNL d   1       3.824  -5.831   1.146  0.00  0.00     0.040 A 
ATOM     16  C   UNL d   1       3.349  -4.525   1.179  0.00  0.00     0.016 A 
BRANCH  12  17
ATOM     17  O   UNL d   1       3.934  -6.574  -2.440  0.00  0.00    -0.351 OA
ATOM     18  C   UNL d   1       2.982  -6.533  -3.498  0.00  0.00     0.210 C 
ENDBRANCH  12  17
BRANCH  14  19
ATOM     19  O   UNL d   1       4.449  -7.791   0.151  0.00  0.00    -0.353 OA
ATOM     20  C   UNL d   1       4.602  -8.683  -0.940  0.00  0.00     0.210 C 
ENDBRANCH  14  19
ENDBRANCH   9  10
ENDBRANCH   6   8
BRANCH   3  21
ATOM     21  C   UNL d   1       0.551   2.535  -0.032  0.00  0.00     0.010 A 
ATOM     22  C   UNL d   1       1.866   2.998  -0.187  0.00  0.00     0.018 A 
ATOM     23  C   UNL d   1       2.139   4.368  -0.324  0.00  0.00     0.038 A 
ATOM     24  C   UNL d   1       1.095   5.290  -0.344  0.00  0.00     0.078 A 
ATOM     25  C   UNL d   1      -0.213   4.837  -0.158  0.00  0.00     0.038 A 
ATOM     26  C   UNL d   1      -0.487   3.474  -0.010  0.00  0.00     0.018 A 
BRANCH  24  27
ATOM     27  O   UNL d   1       1.207   6.638  -0.482  0.00  0.00    -0.255 OA
BRANCH  27  28
ATOM     28  C   UNL d   1       2.293   7.189  -1.212  0.00  0.00     0.530 C 
ATOM     29  F   UNL d   1       2.989   6.288  -1.935  0.00  0.00    -0.144 F 
ATOM     30  F   UNL d   1       1.803   8.113  -2.069  0.00  0.00    -0.144 F 
ATOM     31  F   UNL d   1       3.135   7.813  -0.360  0.00  0.00    -0.144 F 
ENDBRANCH  27  28
ENDBRANCH  24  27
ENDBRANCH   3  21
TORSDOF 7
