REMARK  5 active torsions:
REMARK  status: ('A' for Active; 'I' for Inactive)
REMARK    1  A    between atoms: N_3  and  C_1 
REMARK    2  A    between atoms: N_4  and  C_1 
REMARK    3  A    between atoms: C_5  and  N_3 
REMARK    4  A    between atoms: N_7  and  N_4 
REMARK    5  A    between atoms: C_8  and  C_5 
ROOT
ATOM      1  N   UNL d   1       0.186   0.876  -0.609  0.00  0.00    -0.362 N 
ATOM      2  H   UNL d   1       0.738   1.298  -1.342  0.00  0.00     0.162 HD
ENDROOT
BRANCH   1   3
ATOM      3  C   UNL d   1       0.862  -0.052   0.143  0.00  0.00     0.182 C 
ATOM      4  S   UNL d   1       0.187  -1.270   1.058  0.00  0.00    -0.040 SA
BRANCH   3   5
ATOM      5  N   UNL d   1       2.235   0.096   0.127  0.00  0.00    -0.300 N 
ATOM      6  H   UNL d   1       2.750  -0.542   0.735  0.00  0.00     0.183 HD
BRANCH   5   7
ATOM      7  N   UNL d   1       2.854   1.311  -0.228  0.00  0.00    -0.248 NA
ATOM      8  H   UNL d   1       2.192   2.075  -0.071  0.00  0.00     0.143 HD
ATOM      9  H   UNL d   1       3.082   1.293  -1.223  0.00  0.00     0.143 HD
ENDBRANCH   5   7
ENDBRANCH   3   5
ENDBRANCH   1   3
BRANCH   1  10
ATOM     10  C   UNL d   1      -1.256   0.922  -0.779  0.00  0.00     0.160 C 
BRANCH  10  11
ATOM     11  C   UNL d   1      -1.650   2.013  -1.740  0.00  0.00    -0.040 A 
ATOM     12  C   UNL d   1      -1.780   1.734  -3.110  0.00  0.00     0.012 A 
ATOM     13  C   UNL d   1      -2.136   2.744  -4.006  0.00  0.00     0.043 A 
ATOM     14  C   UNL d   1      -2.350   4.033  -3.534  0.00  0.00     0.116 A 
ATOM     15  C   UNL d   1      -2.213   4.335  -2.185  0.00  0.00     0.043 A 
ATOM     16  F   UNL d   1      -2.694   5.001  -4.395  0.00  0.00    -0.206 F 
ATOM     17  C   UNL d   1      -1.856   3.325  -1.288  0.00  0.00     0.012 A 
ENDBRANCH  10  11
ENDBRANCH   1  10
TORSDOF 5
