REMARK  4 active torsions:
REMARK  status: ('A' for Active; 'I' for Inactive)
REMARK    1  A    between atoms: C_3  and  S_1 
REMARK    2  A    between atoms: N_5  and  S_1 
REMARK    3  A    between atoms: C_12  and  N_5 
REMARK    4  A    between atoms: C_13  and  C_12 
ROOT
ATOM      1  S   UNL d   1       1.017   0.043  -0.065  0.00  0.00     0.214 S 
ATOM      2  O   UNL d   1       0.484  -1.146   0.555  0.00  0.00    -0.211 OA
ATOM      3  O   UNL d   1       2.435   0.238  -0.263  0.00  0.00    -0.211 OA
ENDROOT
BRANCH   1   4
ATOM      4  C   UNL d   1       0.366   1.463   0.776  0.00  0.00     0.139 C 
ATOM      5  C   UNL d   1       0.884   1.526   2.203  0.00  0.00     0.161 C 
ATOM      6  S   UNL d   1      -0.175   2.721   2.980  0.00  0.00     0.145 S 
ATOM      7  O   UNL d   1       0.408   4.032   2.782  0.00  0.00    -0.228 OA
ATOM      8  O   UNL d   1      -0.564   2.229   4.282  0.00  0.00    -0.228 OA
ATOM      9  C   UNL d   1      -1.551   2.551   1.852  0.00  0.00     0.142 C 
ATOM     10  C   UNL d   1      -1.161   1.444   0.882  0.00  0.00     0.037 C 
ENDBRANCH   1   4
BRANCH   1  11
ATOM     11  N   UNL d   1       0.311   0.229  -1.583  0.00  0.00    -0.215 NA
ATOM     12  H   UNL d   1       0.903   0.828  -2.164  0.00  0.00     0.140 HD
BRANCH  11  13
ATOM     13  C   UNL d   1       0.027  -1.037  -2.288  0.00  0.00     0.142 C 
BRANCH  13  14
ATOM     14  C   UNL d   1      -0.535  -0.760  -3.662  0.00  0.00    -0.044 A 
ATOM     15  C   UNL d   1       0.299  -0.758  -4.790  0.00  0.00     0.008 A 
ATOM     16  C   UNL d   1      -0.225  -0.494  -6.056  0.00  0.00     0.001 A 
ATOM     17  C   UNL d   1      -1.583  -0.218  -6.207  0.00  0.00     0.000 A 
ATOM     18  C   UNL d   1      -2.418  -0.198  -5.091  0.00  0.00     0.001 A 
ATOM     19  C   UNL d   1      -1.896  -0.461  -3.824  0.00  0.00     0.008 A 
ENDBRANCH  13  14
ENDBRANCH  11  13
ENDBRANCH   1  11
TORSDOF 4
