REMARK  3 active torsions:
REMARK  status: ('A' for Active; 'I' for Inactive)
REMARK    1  A    between atoms: N_4  and  C_1 
REMARK       I    between atoms: C_5  and  N_4 
REMARK    2  A    between atoms: C_8  and  C_5 
REMARK    3  A    between atoms: O_15  and  C_9 
ROOT
ATOM      1  C   UNL d   1      -0.671   0.932  -0.098  0.00  0.00     0.687 A 
ATOM      2  N   UNL d   1      -1.286  -0.253  -0.113  0.00  0.00    -0.170 N 
ATOM      3  HN  UNL d   1      -2.301  -0.340  -0.160  1.00  0.00     0.186 HD
ATOM      4  N   UNL d   1       0.662   1.089  -0.014  0.00  0.00    -0.196 N 
ATOM      5  HN  UNL d   1       1.081   2.018   0.029  1.00  0.00     0.184 HD
ATOM      6  C   UNL d   1      -0.481  -1.317  -0.062  0.00  0.00     0.157 A 
ATOM      7  C   UNL d   1       0.885  -1.285  -0.009  0.00  0.00     0.081 A 
ATOM      8  C   UNL d   1       1.430  -0.025   0.011  0.00  0.00     0.026 A 
ATOM      9  C   UNL d   1       2.914   0.177   0.032  0.00  0.00     0.069 C 
ENDROOT
BRANCH   1  10
ATOM     10  N   UNL d   1      -1.370   2.121  -0.182  0.00  0.00    -0.159 N 
ATOM     11  C   UNL d   1      -2.681   2.387  -0.446  0.00  0.00     0.240 C 
ATOM     12  O   UNL d   1      -3.072   3.553  -0.418  0.00  0.00    -0.272 OA
ATOM     13  H   UNL d   1      -0.790   2.936  -0.055  0.00  0.00     0.187 HD
BRANCH  11  14
ATOM     14  C   UNL d   1      -3.639   1.294  -0.780  0.00  0.00     0.079 A 
ATOM     15  C   UNL d   1      -4.993   1.602  -1.381  0.00  0.00     0.015 A 
ATOM     16  C   UNL d   1      -4.897   1.149   0.046  0.00  0.00     0.015 A 
ENDBRANCH  11  14
ENDBRANCH   1  10
BRANCH   6  17
ATOM     17  O   UNL d   1      -1.129  -2.511  -0.084  0.00  0.00    -0.346 OA
ATOM     18  H   UNL d   1      -2.058  -2.218  -0.108  0.00  0.00     0.219 HD
ENDBRANCH   6  17
TORSDOF 3
