REMARK  5 active torsions:
REMARK  status: ('A' for Active; 'I' for Inactive)
REMARK    1  A    between atoms: C_2  and  CA_1 
REMARK    2  A    between atoms: N_3  and  CA_1 
REMARK    3  A    between atoms: C_5  and  CA_1 
REMARK    4  A    between atoms: OXT_7  and  C_2 
REMARK    5  A    between atoms: C_6  and  N_3 
ROOT
ATOM      1  CA  UNL d   1       1.018   0.059   0.088  0.00  0.00     0.192 C 
ENDROOT
BRANCH   1   2
ATOM      2  C   UNL d   1       0.687  -0.564   1.464  0.00  0.00     0.163 C 
ATOM      3  O   UNL d   1       0.377   0.083   2.460  0.00  0.00    -0.649 OA
BRANCH   2   4
ATOM      4  OXT UNL d   1       0.777  -1.919   1.496  0.00  0.00    -0.775 OA
ATOM      5  HXT UNL d   1       1.079  -2.323   0.660  0.00  0.00     0.167 HD
ENDBRANCH   2   4
ENDBRANCH   1   2
BRANCH   1   6
ATOM      6  N   UNL d   1       0.414   1.395  -0.061  0.00  0.00    -0.275 NA
ATOM      7  H   UNL d   1       0.462   1.881   0.840  0.00  0.00     0.129 HD
BRANCH   6   8
ATOM      8  C   UNL d   1      -0.883   1.557  -0.555  0.00  0.00     0.009 A 
ATOM      9  C   UNL d   1      -1.904   0.610  -0.447  0.00  0.00     0.024 A 
ATOM     10  C   UNL d   1      -3.206   0.909  -0.873  0.00  0.00     0.008 A 
ATOM     11  C   UNL d   1      -3.517   2.168  -1.399  0.00  0.00    -0.062 A 
ATOM     12  C   UNL d   1      -2.505   3.124  -1.492  0.00  0.00     0.008 A 
ATOM     13  C   UNL d   1      -4.918   2.486  -1.826  0.00  0.00     0.048 C 
ATOM     14  C   UNL d   1      -1.212   2.821  -1.062  0.00  0.00     0.024 A 
ENDBRANCH   6   8
ENDBRANCH   1   6
BRANCH   1  15
ATOM     15  C   UNL d   1       2.525   0.216  -0.085  0.00  0.00    -0.030 A 
ATOM     16  C   UNL d   1       3.203  -0.457  -1.114  0.00  0.00     0.009 A 
ATOM     17  C   UNL d   1       4.572  -0.256  -1.312  0.00  0.00     0.001 A 
ATOM     18  C   UNL d   1       5.279   0.620  -0.491  0.00  0.00     0.000 A 
ATOM     19  C   UNL d   1       4.625   1.284   0.543  0.00  0.00     0.001 A 
ATOM     20  C   UNL d   1       3.261   1.078   0.750  0.00  0.00     0.009 A 
ENDBRANCH   1  15
TORSDOF 5
