REMARK  7 active torsions:
REMARK  status: ('A' for Active; 'I' for Inactive)
REMARK    1  A    between atoms: N_4  and  S_1 
REMARK    2  A    between atoms: C_6  and  S_1 
REMARK    3  A    between atoms: N_3  and  C_2 
REMARK    4  A    between atoms: C_5  and  N_8 
REMARK    5  A    between atoms: C_7  and  C_10 
REMARK    6  A    between atoms: O_29  and  C_16 
REMARK    7  A    between atoms: O_30  and  C_22 
ROOT
ATOM      1  N   UNL d   1       0.472  -0.636   1.039  0.00  0.00    -0.203 NA
ATOM      2  N   UNL d   1       1.682  -3.137   1.819  0.00  0.00    -0.377 N 
ATOM      3  C   UNL d   1       1.522  -0.674   2.111  0.00  0.00     0.127 C 
ATOM      4  C   UNL d   1      -0.267  -1.932   0.961  0.00  0.00     0.127 C 
ATOM      5  C   UNL d   1       0.695  -3.108   0.719  0.00  0.00     0.138 C 
ATOM      6  C   UNL d   1       2.473  -1.885   1.925  0.00  0.00     0.138 C 
ENDROOT
BRANCH   1   7
ATOM      7  S   UNL d   1       0.933   0.052  -0.443  0.00  0.00     0.243 S 
ATOM      8  O   UNL d   1       0.037  -0.420  -1.472  0.00  0.00    -0.206 OA
ATOM      9  O   UNL d   1       2.371  -0.064  -0.577  0.00  0.00    -0.206 OA
BRANCH   7  10
ATOM     10  C   UNL d   1       0.532   1.756  -0.165  0.00  0.00     0.077 A 
ATOM     11  C   UNL d   1      -0.803   2.080   0.110  0.00  0.00     0.064 A 
ATOM     12  C   UNL d   1      -1.192   3.413   0.285  0.00  0.00     0.102 A 
ATOM     13  C   UNL d   1      -0.218   4.423   0.161  0.00  0.00     0.101 A 
ATOM     14  C   UNL d   1       1.121   4.072  -0.097  0.00  0.00     0.041 A 
ATOM     15  C   UNL d   1       1.504   2.743  -0.259  0.00  0.00     0.028 A 
BRANCH  12  16
ATOM     16  O   UNL d   1      -2.481   3.774   0.575  0.00  0.00    -0.353 OA
ATOM     17  C   UNL d   1      -3.462   2.751   0.688  0.00  0.00     0.210 C 
ENDBRANCH  12  16
BRANCH  13  18
ATOM     18  O   UNL d   1      -0.378   5.782   0.255  0.00  0.00    -0.353 OA
ATOM     19  C   UNL d   1      -1.684   6.310   0.422  0.00  0.00     0.210 C 
ENDBRANCH  13  18
ENDBRANCH   7  10
ENDBRANCH   1   7
BRANCH   2  20
ATOM     20  C   UNL d   1       2.165  -4.333   2.325  0.00  0.00     0.063 A 
ATOM     21  C   UNL d   1       2.631  -4.506   3.646  0.00  0.00     0.130 A 
ATOM     22  C   UNL d   1       3.124  -5.729   4.138  0.00  0.00     0.054 A 
ATOM     23  C   UNL d   1       3.149  -6.856   3.314  0.00  0.00     0.050 A 
ATOM     24  C   UNL d   1       2.654  -6.732   2.011  0.00  0.00     0.018 A 
ATOM     25  C   UNL d   1       2.181  -5.498   1.533  0.00  0.00     0.032 A 
BRANCH  21  26
ATOM     26  N   UNL d   1       2.553  -3.430   4.619  0.00  0.00    -0.113 N 
ATOM     27  O   UNL d   1       1.437  -2.963   4.883  0.00  0.00    -0.532 OA
ATOM     28  O   UNL d   1       3.620  -3.073   5.141  0.00  0.00    -0.532 OA
ENDBRANCH  21  26
BRANCH  23  29
ATOM     29  C   UNL d   1       3.695  -8.173   3.809  0.00  0.00     0.417 C 
ATOM     30  F   UNL d   1       4.178  -8.111   5.080  0.00  0.00    -0.166 F 
ATOM     31  F   UNL d   1       2.758  -9.159   3.812  0.00  0.00    -0.166 F 
ATOM     32  F   UNL d   1       4.722  -8.628   3.041  0.00  0.00    -0.166 F 
ENDBRANCH  23  29
ENDBRANCH   2  20
TORSDOF 7
