REMARK  5 active torsions:
REMARK  status: ('A' for Active; 'I' for Inactive)
REMARK    1  A    between atoms: CA_4  and  C_1 
REMARK    2  A    between atoms: OXT_5  and  C_1 
REMARK    3  A    between atoms: N_2  and  CA_4 
REMARK    4  A    between atoms: C3_9  and  N_2 
REMARK    5  A    between atoms: C4_10  and  C3_9 
ROOT
ATOM      1  N   ALA d   1       0.719  -2.372  -0.280  0.00  0.00     0.102 N 
ATOM      2  H   ALA d   1       0.126  -3.064  -0.729  0.00  0.00     0.317 HD
ENDROOT
BRANCH   1   3
ATOM      3  CA  ALA d   1       0.416  -0.992  -0.720  0.00  0.00     0.313 C 
ATOM      4  CB  ALA d   1       1.207   0.060   0.060  0.00  0.00     0.054 C 
BRANCH   3   5
ATOM      5  C   ALA d   1       0.595  -0.816  -2.239  0.00  0.00     0.173 C 
ATOM      6  O   ALA d   1       1.342  -0.014  -2.774  0.00  0.00    -0.648 OA
BRANCH   5   7
ATOM      7  OXT ALA d   1      -0.184  -1.663  -2.959  0.00  0.00    -0.775 OA
ATOM      8  HXT ALA d   1      -0.757  -2.218  -2.400  0.00  0.00     0.167 HD
ENDBRANCH   5   7
ENDBRANCH   3   5
ENDBRANCH   1   3
BRANCH   1   9
ATOM      9  C3  <1> d   1       2.117  -2.764  -0.485  0.00  0.00     0.309 C 
BRANCH   9  10
ATOM     10  C4  <1> d   1       2.356  -4.176  -0.002  0.00  0.00    -0.030 A 
ATOM     11  C6  <1> d   1       2.778  -5.175  -0.890  0.00  0.00     0.009 A 
ATOM     12  C9  <1> d   1       3.041  -6.466  -0.428  0.00  0.00     0.001 A 
ATOM     13  C10 <1> d   1       2.884  -6.771   0.923  0.00  0.00     0.000 A 
ATOM     14  C8  <1> d   1       2.458  -5.788   1.814  0.00  0.00     0.001 A 
ATOM     15  C7  <1> d   1       2.196  -4.497   1.354  0.00  0.00     0.009 A 
ENDBRANCH   9  10
ENDBRANCH   1   9
TORSDOF 5
