REMARK  3 active torsions:
REMARK  status: ('A' for Active; 'I' for Inactive)
REMARK    1  A    between atoms: N_10  and  C_3 
REMARK    2  A    between atoms: C_15  and  C_4 
REMARK    3  A    between atoms: N_7  and  N_10 
ROOT
ATOM      1  N   UNL d   1       0.048  -2.724  -0.126  0.00  0.00    -0.280 N 
ATOM      2  H   UNL d   1      -0.818  -3.052   0.292  0.00  0.00     0.189 HD
ENDROOT
BRANCH   1   3
ATOM      3  N   UNL d   1       1.133  -3.543  -0.134  0.00  0.00    -0.306 N 
ATOM      4  C   UNL d   1       0.994  -4.829  -0.103  0.00  0.00     0.012 A 
ATOM      5  C   UNL d   1      -0.280  -5.667  -0.107  0.00  0.00     0.093 A 
ATOM      6  C   UNL d   1       2.240  -5.697  -0.061  0.00  0.00     0.093 A 
ATOM      7  C   UNL d   1       0.268  -7.070  -0.126  0.00  0.00    -0.046 A 
ATOM      8  C   UNL d   1      -0.438  -8.263  -0.168  0.00  0.00     0.008 A 
ATOM      9  C   UNL d   1       1.673  -7.080  -0.099  0.00  0.00    -0.046 A 
ATOM     10  C   UNL d   1       0.277  -9.464  -0.183  0.00  0.00     0.001 A 
ATOM     11  C   UNL d   1       1.681  -9.468  -0.153  0.00  0.00     0.001 A 
ATOM     12  C   UNL d   1       2.389  -8.266  -0.109  0.00  0.00     0.008 A 
ATOM     13  HN  UNL d   1       2.069  -3.139  -0.165  1.00  0.00     0.186 HD
ENDBRANCH   1   3
BRANCH   1  14
ATOM     14  C   UNL d   1       0.232  -1.370  -0.128  0.00  0.00     0.163 A 
ATOM     15  N   UNL d   1       1.303  -0.746  -0.572  0.00  0.00    -0.334 N 
ATOM     16  C   UNL d   1       1.222   0.619  -0.354  0.00  0.00     0.051 A 
ATOM     17  HN  UNL d   1       2.093  -1.210  -1.021  1.00  0.00     0.168 HD
ATOM     18  C   UNL d   1       0.050   1.031   0.248  0.00  0.00     0.083 A 
ATOM     19  S   UNL d   1      -0.976  -0.319   0.518  0.00  0.00    -0.062 SA
BRANCH  16  20
ATOM     20  C   UNL d   1       2.301   1.510  -0.769  0.00  0.00    -0.009 A 
ATOM     21  C   UNL d   1       3.063   1.180  -1.901  0.00  0.00     0.014 A 
ATOM     22  C   UNL d   1       4.108   2.005  -2.326  0.00  0.00     0.001 A 
ATOM     23  C   UNL d   1       4.412   3.163  -1.616  0.00  0.00     0.000 A 
ATOM     24  C   UNL d   1       3.671   3.499  -0.484  0.00  0.00     0.001 A 
ATOM     25  C   UNL d   1       2.618   2.677  -0.063  0.00  0.00     0.014 A 
ENDBRANCH  16  20
ENDBRANCH   1  14
TORSDOF 3
