REMARK  1 active torsions:
REMARK  status: ('A' for Active; 'I' for Inactive)
REMARK       I    between atoms: N_2  and  C_1 
REMARK       I    between atoms: N_4  and  C_1 
REMARK       I    between atoms: C_3  and  N_2 
REMARK       I    between atoms: N_13  and  C_3 
REMARK    1  A    between atoms: C_11  and  N_4 
ROOT
ATOM      1  C   UNL d   1       1.020  -0.879  -0.225  0.00  0.00     0.678 C 
ATOM      2  N   UNL d   1       2.175  -0.147  -0.162  0.00  0.00    -0.167 N 
ATOM      3  C   UNL d   1       2.472   1.090   0.317  0.00  0.00     0.163 C 
ATOM      4  N   UNL d   1       0.088  -0.542   0.715  0.00  0.00    -0.192 N 
ATOM      5  N   UNL d   1       0.868  -1.833  -1.085  0.00  0.00    -0.234 N 
ATOM      6  HN  UNL d   1       0.037  -2.421  -1.152  1.00  0.00     0.174 HD
ATOM      7  N   UNL d   1       1.655   1.961   0.793  0.00  0.00    -0.376 N 
ATOM      8  HN  UNL d   1       1.910   2.866   1.188  1.00  0.00     0.158 HD
ATOM      9  N   UNL d   1       3.785   1.409   0.269  0.00  0.00    -0.274 NA
ATOM     10  H   UNL d   1       2.955  -0.585  -0.624  0.00  0.00     0.187 HD
ATOM     11  H   UNL d   1       0.458  -0.352   1.639  0.00  0.00     0.184 HD
ATOM     12  H   UNL d   1       1.686  -1.921  -1.685  0.00  0.00     0.174 HD
ATOM     13  H   UNL d   1       0.700   1.588   0.707  0.00  0.00     0.158 HD
ATOM     14  H   UNL d   1       4.233   1.266  -0.626  0.00  0.00     0.127 HD
ATOM     15  H   UNL d   1       3.894   2.383   0.546  0.00  0.00     0.127 HD
ENDROOT
BRANCH   4  16
ATOM     16  C   UNL d   1      -1.298  -0.758   0.659  0.00  0.00     0.050 A 
ATOM     17  C   UNL d   1      -2.005  -1.026   1.837  0.00  0.00     0.054 A 
ATOM     18  C   UNL d   1      -3.397  -1.172   1.824  0.00  0.00     0.042 A 
ATOM     19 CL   UNL d   1      -4.187  -1.503   3.325  0.00  0.00    -0.084 Cl
ATOM     20  C   UNL d   1      -4.120  -1.038   0.631  0.00  0.00    -0.040 A 
ATOM     21  C   UNL d   1      -3.408  -0.824  -0.556  0.00  0.00     0.011 A 
ATOM     22  C   UNL d   1      -5.621  -1.101   0.598  0.00  0.00     0.050 C 
ATOM     23  C   UNL d   1      -2.014  -0.704  -0.541  0.00  0.00     0.030 A 
ENDBRANCH   4  16
TORSDOF 1
