REMARK  3 active torsions:
REMARK  status: ('A' for Active; 'I' for Inactive)
REMARK    1  A    between atoms: N_3  and  C_1 
REMARK    2  A    between atoms: N_2  and  C_5 
REMARK    3  A    between atoms: C_4  and  N_3 
ROOT
ATOM      1  C   UNL d   1       0.813  -1.939  -1.824  0.00  0.00     0.061 A 
ATOM      2  C   UNL d   1       2.018  -2.460  -1.276  0.00  0.00     0.057 A 
ATOM      3  C   UNL d   1       0.378  -2.323  -3.098  0.00  0.00     0.032 A 
ATOM      4  C   UNL d   1       2.733  -3.385  -2.053  0.00  0.00     0.031 A 
ATOM      5  C   UNL d   1       1.116  -3.236  -3.845  0.00  0.00     0.002 A 
ATOM      6  C   UNL d   1       2.287  -3.770  -3.323  0.00  0.00     0.002 A 
ENDROOT
BRANCH   1   7
ATOM      7  N   UNL d   1       0.147  -0.932  -1.092  0.00  0.00    -0.332 N 
ATOM      8  H   UNL d   1       0.750  -0.456  -0.425  0.00  0.00     0.168 HD
BRANCH   7   9
ATOM      9  C   UNL d   1      -1.151  -0.555  -1.081  0.00  0.00     0.170 C 
ATOM     10  S   UNL d   1      -1.640   0.822  -0.291  0.00  0.00    -0.041 SA
ATOM     11  N   UNL d   1      -2.067  -1.366  -1.657  0.00  0.00    -0.376 N 
ATOM     12  H   UNL d   1      -1.851  -2.352  -1.722  0.00  0.00     0.158 HD
ATOM     13  H   UNL d   1      -3.041  -1.139  -1.494  0.00  0.00     0.158 HD
ENDBRANCH   7   9
ENDBRANCH   1   7
BRANCH   2  14
ATOM     14  N   UNL d   1       2.462  -2.025  -0.015  0.00  0.00    -0.375 N 
ATOM     15  C   UNL d   1       3.898  -2.147   0.315  0.00  0.00     0.149 C 
ATOM     16  C   UNL d   1       4.196  -1.281   1.552  0.00  0.00     0.187 C 
ATOM     17  O   UNL d   1       3.374  -1.657   2.672  0.00  0.00    -0.388 OA
ATOM     18  C   UNL d   1       1.979  -1.550   2.336  0.00  0.00     0.187 C 
ATOM     19  C   UNL d   1       1.627  -2.450   1.138  0.00  0.00     0.149 C 
ENDBRANCH   2  14
TORSDOF 3
