REMARK  4 active torsions:
REMARK  status: ('A' for Active; 'I' for Inactive)
REMARK    1  A    between atoms: C_17  and  C_9 
REMARK    2  A    between atoms: C_14  and  N_22 
REMARK    3  A    between atoms: S_24  and  C_15 
REMARK    4  A    between atoms: N_22  and  C_16 
ROOT
ATOM      1  N   UNL d   1      -4.670  -0.407   1.588  0.00  0.00    -0.200 N 
ATOM      2  H   UNL d   1      -4.909   0.466   1.120  0.00  0.00     0.183 HD
ENDROOT
BRANCH   1   3
ATOM      3  C   UNL d   1      -5.570  -0.734   2.604  0.00  0.00     0.685 A 
ATOM      4  N   UNL d   1      -5.332  -1.783   3.387  0.00  0.00    -0.180 N 
ATOM      5  C   UNL d   1      -6.240  -2.049   4.327  0.00  0.00     0.103 A 
ATOM      6  HN  UNL d   1      -4.495  -2.356   3.274  1.00  0.00     0.185 HD
ATOM      7  N   UNL d   1      -7.343  -1.326   4.494  0.00  0.00    -0.325 N 
ATOM      8  C   UNL d   1      -7.494  -0.299   3.668  0.00  0.00     0.160 A 
ATOM      9  HN  UNL d   1      -8.032  -1.548   5.213  1.00  0.00     0.169 HD
ATOM     10  N   UNL d   1      -6.636   0.050   2.717  0.00  0.00    -0.170 N 
ATOM     11  HN  UNL d   1      -6.784   0.862   2.117  1.00  0.00     0.186 HD
BRANCH   5  12
ATOM     12  C   UNL d   1      -6.041  -3.245   5.224  0.00  0.00     0.054 A 
ATOM     13  C   UNL d   1      -5.920  -3.049   6.720  0.00  0.00     0.013 A 
ATOM     14  C   UNL d   1      -4.725  -3.487   5.927  0.00  0.00     0.013 A 
ENDBRANCH   5  12
BRANCH   8  15
ATOM     15  S   UNL d   1      -9.005   0.619   3.884  0.00  0.00    -0.098 SA
ATOM     16  C   UNL d   1      -8.835   1.889   2.611  0.00  0.00     0.099 C 
ENDBRANCH   8  15
ENDBRANCH   1   3
BRANCH   1  17
ATOM     17  C   UNL d   1      -3.509  -1.053   1.237  0.00  0.00     0.135 C 
ATOM     18  C   UNL d   1      -2.564  -0.695   0.354  0.00  0.00     0.146 C 
ATOM     19  S   UNL d   1      -2.602   0.785  -0.505  0.00  0.00     0.270 S 
ATOM     20  C   UNL d   1      -1.302  -1.450   0.244  0.00  0.00     0.209 C 
ATOM     21  N   UNL d   1      -1.226   1.517   0.154  0.00  0.00    -0.275 N 
ATOM     22  O   UNL d   1      -2.331   0.541  -1.906  0.00  0.00    -0.200 OA
ATOM     23  O   UNL d   1      -3.764   1.568  -0.121  0.00  0.00    -0.200 OA
ATOM     24  C   UNL d   1      -0.008   0.747   0.071  0.00  0.00     0.059 A 
ATOM     25  C   UNL d   1      -1.253   2.943   0.472  0.00  0.00     0.170 C 
ATOM     26  C   UNL d   1      -0.036  -0.667   0.075  0.00  0.00     0.043 A 
ATOM     27  C   UNL d   1       1.236   1.394   0.049  0.00  0.00     0.031 A 
ATOM     28  C   UNL d   1       1.165  -1.393  -0.000  0.00  0.00     0.018 A 
ATOM     29  C   UNL d   1       2.390  -0.729  -0.040  0.00  0.00     0.001 A 
ATOM     30  C   UNL d   1       2.425   0.661  -0.004  0.00  0.00     0.002 A 
ATOM     31  O   UNL d   1      -1.278  -2.671   0.351  0.00  0.00    -0.286 OA
ENDBRANCH   1  17
TORSDOF 4
