REMARK  3 active torsions:
REMARK  status: ('A' for Active; 'I' for Inactive)
REMARK    1  A    between atoms: O_6  and  C_2 
REMARK    2  A    between atoms: C_4  and  O_6 
REMARK    3  A    between atoms: C_7  and  C_4 
ROOT
ATOM      1  C   UNL d   1      -0.619   1.430   0.290  0.00  0.00    -0.015 A 
ATOM      2  C   UNL d   1      -0.791  -0.989   0.445  0.00  0.00     0.102 A 
ATOM      3  C   UNL d   1      -1.368   0.277   0.603  0.00  0.00     0.075 A 
ATOM      4  C   UNL d   1       0.756   1.278  -0.029  0.00  0.00     0.047 A 
ATOM      5  C   UNL d   1       1.359   0.009  -0.079  0.00  0.00    -0.037 A 
ATOM      6  C   UNL d   1       0.560  -1.123   0.117  0.00  0.00     0.047 A 
ATOM      7 CL   UNL d   1      -2.953   0.408   1.300  0.00  0.00    -0.081 Cl
ATOM      8 CL   UNL d   1       1.721   2.697  -0.318  0.00  0.00    -0.083 Cl
ATOM      9  C   UNL d   1      -1.243   2.803   0.340  0.00  0.00     0.052 C 
ATOM     10  C   UNL d   1       2.828  -0.223  -0.326  0.00  0.00     0.050 C 
ENDROOT
BRANCH   2  11
ATOM     11  O   UNL d   1      -1.467  -2.192   0.712  0.00  0.00    -0.273 OA
BRANCH  11  12
ATOM     12  C   UNL d   1      -2.552  -2.520  -0.107  0.00  0.00     0.305 C 
ATOM     13  O   UNL d   1      -3.039  -1.786  -0.960  0.00  0.00    -0.258 OA
BRANCH  12  14
ATOM     14  C   UNL d   1      -3.024  -3.861   0.191  0.00  0.00     0.080 A 
ATOM     15  S   UNL d   1      -1.972  -5.066   0.814  0.00  0.00    -0.096 SA
ATOM     16  C   UNL d   1      -3.193  -6.260   0.764  0.00  0.00     0.050 A 
ATOM     17  C   UNL d   1      -4.390  -5.755   0.310  0.00  0.00     0.009 A 
ATOM     18  C   UNL d   1      -4.290  -4.374  -0.030  0.00  0.00     0.025 A 
ENDBRANCH  12  14
ENDBRANCH  11  12
ENDBRANCH   2  11
TORSDOF 3
