REMARK  3 active torsions:
REMARK  status: ('A' for Active; 'I' for Inactive)
REMARK    1  A    between atoms: C_8  and  C_3 
REMARK    2  A    between atoms: C_12  and  C_7 
REMARK    3  A    between atoms: N_11  and  C_10 
ROOT
ATOM      1  N   UNL d   1       1.546  -0.045   0.007  0.00  0.00    -0.331 N 
ATOM      2  HN  UNL d   1       2.490  -0.430  -0.015  1.00  0.00     0.168 HD
ATOM      3  C   UNL d   1       1.179   1.195   0.006  0.00  0.00     0.162 A 
ATOM      4  C   UNL d   1       0.350  -0.716   0.043  0.00  0.00     0.111 A 
ATOM      5  O   UNL d   1      -0.143   1.461   0.054  0.00  0.00    -0.256 OA
ATOM      6  C   UNL d   1      -0.781   0.257   0.083  0.00  0.00     0.316 A 
ATOM      7  C   UNL d   1       0.255  -2.052   0.018  0.00  0.00     0.047 C 
ATOM      8  O   UNL d   1      -1.983   0.081   0.127  0.00  0.00    -0.257 OA
ENDROOT
BRANCH   7   9
ATOM      9  C   UNL d   1      -0.991  -2.810   0.020  0.00  0.00    -0.034 A 
ATOM     10  C   UNL d   1      -1.556  -3.239  -1.178  0.00  0.00     0.013 A 
ATOM     11  C   UNL d   1      -2.751  -3.976  -1.174  0.00  0.00     0.030 A 
ATOM     12  C   UNL d   1      -3.420  -4.319   0.013  0.00  0.00     0.029 A 
ATOM     13  C   UNL d   1      -2.819  -3.869   1.203  0.00  0.00     0.030 A 
ATOM     14  C   UNL d   1      -1.631  -3.124   1.215  0.00  0.00     0.013 A 
BRANCH  12  15
ATOM     15  N   UNL d   1      -4.566  -5.102   0.033  0.00  0.00    -0.390 N 
ATOM     16  C   UNL d   1      -5.593  -4.901   1.056  0.00  0.00     0.149 C 
ATOM     17  C   UNL d   1      -5.022  -5.846  -1.137  0.00  0.00     0.149 C 
ENDBRANCH  12  15
ENDBRANCH   7   9
BRANCH   3  18
ATOM     18  C   UNL d   1       2.054   2.375  -0.067  0.00  0.00     0.015 A 
ATOM     19  C   UNL d   1       3.438   2.189  -0.154  0.00  0.00     0.016 A 
ATOM     20  C   UNL d   1       4.285   3.292  -0.281  0.00  0.00     0.001 A 
ATOM     21  C   UNL d   1       3.751   4.580  -0.317  0.00  0.00     0.000 A 
ATOM     22  C   UNL d   1       2.373   4.770  -0.213  0.00  0.00     0.001 A 
ATOM     23  C   UNL d   1       1.523   3.671  -0.087  0.00  0.00     0.016 A 
ENDBRANCH   3  18
TORSDOF 3
