REMARK  5 active torsions:
REMARK  status: ('A' for Active; 'I' for Inactive)
REMARK    1  A    between atoms: N_3  and  S_1 
REMARK    2  A    between atoms: C_4  and  S_1 
REMARK    3  A    between atoms: C_2  and  C_7 
REMARK    4  A    between atoms: C_16  and  N_3 
REMARK       I    between atoms: C_8  and  N_9 
REMARK    5  A    between atoms: N_9  and  C_19 
ROOT
ATOM      1  S   UNL d   1       0.936   0.152   0.032  0.00  0.00     0.263 S 
ATOM      2  O   UNL d   1       0.217   0.580   1.212  0.00  0.00    -0.200 OA
ATOM      3  O   UNL d   1       2.383   0.201  -0.021  0.00  0.00    -0.200 OA
ENDROOT
BRANCH   1   4
ATOM      4  N   UNL d   1       0.395   1.022  -1.289  0.00  0.00    -0.281 N 
ATOM      5  H   UNL d   1       1.093   1.379  -1.937  0.00  0.00     0.179 HD
BRANCH   4   6
ATOM      6  C   UNL d   1      -0.984   1.131  -1.573  0.00  0.00     0.042 A 
ATOM      7  C   UNL d   1      -1.743   2.124  -0.959  0.00  0.00     0.031 A 
ATOM      8  C   UNL d   1      -3.106   2.232  -1.244  0.00  0.00     0.018 A 
ATOM      9  C   UNL d   1      -3.721   1.342  -2.140  0.00  0.00     0.048 A 
ATOM     10  C   UNL d   1      -2.938   0.354  -2.758  0.00  0.00     0.018 A 
ATOM     11  C   UNL d   1      -1.572   0.257  -2.484  0.00  0.00     0.031 A 
BRANCH   9  12
ATOM     12  C   UNL d   1      -5.200   1.456  -2.425  0.00  0.00     0.417 C 
ATOM     13  F   UNL d   1      -5.660   0.516  -3.298  0.00  0.00    -0.166 F 
ATOM     14  F   UNL d   1      -5.960   1.325  -1.303  0.00  0.00    -0.166 F 
ATOM     15  F   UNL d   1      -5.534   2.660  -2.966  0.00  0.00    -0.166 F 
ENDBRANCH   9  12
ENDBRANCH   4   6
ENDBRANCH   1   4
BRANCH   1  16
ATOM     16  C   UNL d   1       0.449  -1.518  -0.345  0.00  0.00     0.080 A 
ATOM     17  C   UNL d   1       1.304  -2.349  -1.072  0.00  0.00     0.027 A 
ATOM     18  C   UNL d   1       0.929  -3.674  -1.325  0.00  0.00     0.031 A 
ATOM     19  C   UNL d   1      -0.290  -4.180  -0.851  0.00  0.00     0.034 A 
ATOM     20  C   UNL d   1      -1.131  -3.334  -0.119  0.00  0.00     0.031 A 
ATOM     21  C   UNL d   1      -0.762  -2.010   0.142  0.00  0.00     0.027 A 
BRANCH  19  22
ATOM     22  N   UNL d   1      -0.588  -5.532  -1.132  0.00  0.00    -0.328 N 
ATOM     23  C   UNL d   1      -1.725  -6.232  -0.766  0.00  0.00     0.218 C 
ATOM     24  O   UNL d   1      -2.694  -5.790  -0.156  0.00  0.00    -0.274 OA
ATOM     25  C   UNL d   1      -1.702  -7.678  -1.196  0.00  0.00     0.117 C 
ATOM     26  H   UNL d   1       0.117  -6.040  -1.649  0.00  0.00     0.169 HD
ENDBRANCH  19  22
ENDBRANCH   1  16
TORSDOF 5
