REMARK  3 active torsions:
REMARK  status: ('A' for Active; 'I' for Inactive)
REMARK    1  A    between atoms: C_6  and  C_1 
REMARK    2  A    between atoms: C_5  and  C_2 
REMARK       I    between atoms: N_9  and  C_5 
REMARK    3  A    between atoms: C_15  and  N_9 
ROOT
ATOM      1  N   UNL d   1       1.160  -8.460  -1.661  0.00  0.00    -0.191 NA
ATOM      2  C   UNL d   1       1.542  -7.576  -1.015  0.00  0.00     0.099 C 
ATOM      3  C   UNL d   1       1.881  -4.188   0.520  0.00  0.00     0.036 A 
ATOM      4  C   UNL d   1       2.031  -6.495  -0.211  0.00  0.00     0.046 A 
ATOM      5  C   UNL d   1       1.413  -5.236  -0.272  0.00  0.00     0.052 A 
ATOM      6  C   UNL d   1       3.609  -5.655   1.415  0.00  0.00     0.004 A 
ATOM      7  C   UNL d   1       2.991  -4.404   1.352  0.00  0.00     0.029 A 
ATOM      8  C   UNL d   1       3.126  -6.702   0.638  0.00  0.00     0.023 A 
ENDROOT
BRANCH   3   9
ATOM      9  N   UNL d   1       1.306  -2.903   0.556  0.00  0.00    -0.323 N 
ATOM     10  C   UNL d   1       0.156  -2.447  -0.071  0.00  0.00     0.261 C 
ATOM     11  O   UNL d   1      -0.597  -3.105  -0.776  0.00  0.00    -0.267 OA
ATOM     12  H   UNL d   1       1.736  -2.260   1.208  0.00  0.00     0.169 HD
BRANCH  10  13
ATOM     13  C   UNL d   1      -0.129  -1.057   0.251  0.00  0.00     0.093 A 
ATOM     14  C   UNL d   1      -1.368  -0.434   0.621  0.00  0.00     0.086 A 
ATOM     15  N   UNL d   1      -1.151   0.858   0.925  0.00  0.00    -0.259 N 
ATOM     16  O   UNL d   1       0.165   1.119   0.655  0.00  0.00    -0.241 OA
ATOM     17  HN  UNL d   1      -1.838   1.519   1.287  1.00  0.00     0.195 HD
ATOM     18  C   UNL d   1       0.781  -0.015   0.248  0.00  0.00     0.090 A 
ATOM     19  C   UNL d   1       2.208   0.150  -0.099  0.00  0.00     0.080 C 
BRANCH  14  20
ATOM     20  C   UNL d   1      -2.725  -0.974   0.780  0.00  0.00     0.037 A 
ATOM     21  C   UNL d   1      -3.000  -2.082   1.607  0.00  0.00     0.048 A 
ATOM     22 CL   UNL d   1      -1.777  -2.937   2.489  0.00  0.00    -0.083 Cl
ATOM     23  C   UNL d   1      -4.319  -2.511   1.825  0.00  0.00     0.025 A 
ATOM     24  C   UNL d   1      -5.392  -1.826   1.264  0.00  0.00     0.003 A 
ATOM     25  C   UNL d   1      -5.147  -0.727   0.450  0.00  0.00     0.025 A 
ATOM     26  C   UNL d   1      -3.831  -0.316   0.191  0.00  0.00     0.048 A 
ATOM     27 CL   UNL d   1      -3.668   1.027  -0.898  0.00  0.00    -0.083 Cl
ENDBRANCH  14  20
ENDBRANCH  10  13
ENDBRANCH   3   9
TORSDOF 3
