REMARK  4 active torsions:
REMARK  status: ('A' for Active; 'I' for Inactive)
REMARK    1  A    between atoms: N_15  and  C_4 
REMARK    2  A    between atoms: N_13  and  C_8 
REMARK    3  A    between atoms: C_9  and  C_19 
REMARK    4  A    between atoms: N_10  and  N_15 
ROOT
ATOM      1  N   UNL d   1       3.502   1.528  -0.265  0.00  0.00    -0.285 N 
ATOM      2  H   UNL d   1       4.207   0.993   0.240  0.00  0.00     0.188 HD
ENDROOT
BRANCH   1   3
ATOM      3  N   UNL d   1       3.457   2.880  -0.182  0.00  0.00    -0.309 N 
ATOM      4  C   UNL d   1       4.588   3.510  -0.171  0.00  0.00     0.120 C 
ATOM      5  HN  UNL d   1       2.570   3.380  -0.130  1.00  0.00     0.186 HD
BRANCH   4   6
ATOM      6  C   UNL d   1       4.598   4.988  -0.059  0.00  0.00     0.003 A 
ATOM      7  C   UNL d   1       5.768   5.744  -0.083  0.00  0.00     0.047 A 
ATOM      8  C   UNL d   1       5.703   7.141   0.066  0.00  0.00     0.054 A 
ATOM      9 CL   UNL d   1       7.331   5.034  -0.284  0.00  0.00    -0.083 Cl
ATOM     10  C   UNL d   1       4.488   7.828   0.240  0.00  0.00     0.031 A 
ATOM     11  C   UNL d   1       3.328   7.041   0.235  0.00  0.00     0.030 A 
ATOM     12  C   UNL d   1       3.375   5.650   0.093  0.00  0.00     0.017 A 
BRANCH  10  13
ATOM     13  N   UNL d   1       4.439   9.197   0.432  0.00  0.00    -0.390 N 
ATOM     14  C   UNL d   1       5.428  10.098  -0.150  0.00  0.00     0.149 C 
ATOM     15  C   UNL d   1       3.315   9.848   1.099  0.00  0.00     0.149 C 
ENDBRANCH  10  13
ENDBRANCH   4   6
ENDBRANCH   1   3
BRANCH   1  16
ATOM     16  C   UNL d   1       2.260   0.864  -0.185  0.00  0.00     0.136 A 
ATOM     17  N   UNL d   1       2.224  -0.385   0.331  0.00  0.00    -0.338 N 
ATOM     18  C   UNL d   1       1.009  -0.975   0.420  0.00  0.00     0.060 A 
ATOM     19  HN  UNL d   1       3.072  -0.861   0.639  1.00  0.00     0.167 HD
ATOM     20  C   UNL d   1      -0.174  -0.320  -0.014  0.00  0.00     0.059 A 
ATOM     21  C   UNL d   1       0.896  -2.253   0.954  0.00  0.00     0.032 A 
ATOM     22  N   UNL d   1      -0.139   0.906  -0.552  0.00  0.00    -0.360 N 
ATOM     23  C   UNL d   1      -1.400  -0.955   0.119  0.00  0.00     0.032 A 
ATOM     24  C   UNL d   1       1.086   1.476  -0.633  0.00  0.00     0.138 A 
ATOM     25  HN  UNL d   1      -0.981   1.380  -0.879  1.00  0.00     0.165 HD
ATOM     26  C   UNL d   1      -1.497  -2.233   0.665  0.00  0.00     0.002 A 
ATOM     27  C   UNL d   1      -0.344  -2.886   1.080  0.00  0.00     0.002 A 
ENDBRANCH   1  16
TORSDOF 4
