REMARK  3 active torsions:
REMARK  status: ('A' for Active; 'I' for Inactive)
REMARK    1  A    between atoms: C_7  and  C_6 
REMARK    2  A    between atoms: O_18  and  C_11 
REMARK    3  A    between atoms: O_17  and  C_12 
ROOT
ATOM      1  C   UNL d   1       1.947  -0.036   0.744  0.00  0.00     0.067 A 
ATOM      2  C   UNL d   1       1.304  -1.108   1.552  0.00  0.00     0.197 A 
ATOM      3  C   UNL d   1       1.062   1.161   0.753  0.00  0.00     0.197 A 
ATOM      4  C   UNL d   1       0.037  -0.533   2.015  0.00  0.00     0.029 A 
ATOM      5  C   UNL d   1      -0.112   0.769   1.545  0.00  0.00     0.029 A 
ATOM      6  C   UNL d   1       3.095  -0.076   0.054  0.00  0.00     0.031 C 
ATOM      7  O   UNL d   1       1.240   2.228   0.207  0.00  0.00    -0.286 OA
ATOM      8  O   UNL d   1       1.697  -2.227   1.798  0.00  0.00    -0.286 OA
ATOM      9  C   UNL d   1      -1.247   1.510   1.820  0.00  0.00     0.016 A 
ATOM     10  C   UNL d   1      -0.932  -1.143   2.793  0.00  0.00     0.016 A 
ATOM     11  C   UNL d   1      -2.240   0.908   2.600  0.00  0.00     0.001 A 
ATOM     12  C   UNL d   1      -2.082  -0.405   3.086  0.00  0.00     0.001 A 
ENDROOT
BRANCH   6  13
ATOM     13  C   UNL d   1       3.920  -1.277  -0.089  0.00  0.00    -0.030 A 
ATOM     14  C   UNL d   1       3.650  -2.163  -1.140  0.00  0.00     0.048 A 
ATOM     15  C   UNL d   1       4.394  -3.333  -1.281  0.00  0.00     0.071 A 
ATOM     16  C   UNL d   1       5.419  -3.613  -0.372  0.00  0.00     0.073 A 
ATOM     17  C   UNL d   1       5.717  -2.724   0.663  0.00  0.00     0.071 A 
ATOM     18  C   UNL d   1       4.957  -1.559   0.805  0.00  0.00     0.048 A 
BRANCH  15  19
ATOM     19  O   UNL d   1       4.227  -4.277  -2.259  0.00  0.00    -0.356 OA
ATOM     20  C   UNL d   1       3.208  -4.033  -3.219  0.00  0.00     0.210 C 
ENDBRANCH  15  19
BRANCH  17  21
ATOM     21  O   UNL d   1       6.721  -2.876   1.582  0.00  0.00    -0.356 OA
ATOM     22  C   UNL d   1       7.530  -4.041   1.461  0.00  0.00     0.210 C 
ENDBRANCH  17  21
ENDBRANCH   6  13
TORSDOF 3
