REMARK  3 active torsions:
REMARK  status: ('A' for Active; 'I' for Inactive)
REMARK    1  A    between atoms: S_7  and  C_1 
REMARK    2  A    between atoms: C_10  and  C_5 
REMARK    3  A    between atoms: C_13  and  S_7 
ROOT
ATOM      1  C   UNL d   1      -1.510   1.261   0.058  0.00  0.00     0.110 A 
ATOM      2  N   UNL d   1      -0.221   0.752   0.052  0.00  0.00    -0.300 N 
ATOM      3  N   UNL d   1      -1.605  -1.004  -0.126  0.00  0.00    -0.339 N 
ATOM      4  HN  UNL d   1      -1.960  -1.954  -0.236  1.00  0.00     0.167 HD
ATOM      5  C   UNL d   1      -2.346   0.156  -0.020  0.00  0.00     0.079 A 
ATOM      6  C   UNL d   1      -0.347  -0.632  -0.056  0.00  0.00     0.113 A 
ATOM      7  C   UNL d   1       1.026   1.386   0.133  0.00  0.00     0.099 A 
ATOM      8  C   UNL d   1       0.849  -1.407  -0.070  0.00  0.00     0.049 A 
ATOM      9  C   UNL d   1       2.151   0.649   0.117  0.00  0.00     0.018 A 
ATOM     10  C   UNL d   1       2.045  -0.797   0.016  0.00  0.00     0.005 A 
ENDROOT
BRANCH   1  11
ATOM     11  S   UNL d   1      -1.804   2.967   0.221  0.00  0.00    -0.070 SA
BRANCH  11  12
ATOM     12  C   UNL d   1      -2.020   3.523  -1.464  0.00  0.00     0.007 A 
ATOM     13  C   UNL d   1      -2.282   2.703  -2.565  0.00  0.00     0.019 A 
ATOM     14  C   UNL d   1      -2.429   3.251  -3.846  0.00  0.00     0.008 A 
ATOM     15  C   UNL d   1      -2.327   4.632  -4.050  0.00  0.00    -0.062 A 
ATOM     16  C   UNL d   1      -2.088   5.458  -2.951  0.00  0.00     0.008 A 
ATOM     17  C   UNL d   1      -2.443   5.203  -5.432  0.00  0.00     0.048 C 
ATOM     18  C   UNL d   1      -1.940   4.908  -1.674  0.00  0.00     0.019 A 
ENDBRANCH  11  12
ENDBRANCH   1  11
BRANCH   5  19
ATOM     19  C   UNL d   1      -3.804   0.116  -0.056  0.00  0.00    -0.007 A 
ATOM     20  C   UNL d   1      -4.611   1.049   0.606  0.00  0.00     0.014 A 
ATOM     21  C   UNL d   1      -6.005   0.979   0.518  0.00  0.00     0.001 A 
ATOM     22  C   UNL d   1      -6.611  -0.041  -0.211  0.00  0.00     0.000 A 
ATOM     23  C   UNL d   1      -5.824  -0.997  -0.847  0.00  0.00     0.001 A 
ATOM     24  C   UNL d   1      -4.431  -0.919  -0.768  0.00  0.00     0.014 A 
ENDBRANCH   5  19
TORSDOF 3
