REMARK  4 active torsions:
REMARK  status: ('A' for Active; 'I' for Inactive)
REMARK    1  A    between atoms: C_14  and  C_3 
REMARK    2  A    between atoms: N_10  and  C_5 
REMARK       I    between atoms: C_9  and  N_11 
REMARK    3  A    between atoms: C_16  and  C_9 
REMARK    4  A    between atoms: N_11  and  N_10 
ROOT
ATOM      1  C   UNL d   1       0.040  -0.633  -0.079  0.00  0.00     0.072 A 
ATOM      2  S   UNL d   1       1.745  -0.843  -0.102  0.00  0.00    -0.088 SA
ATOM      3  C   UNL d   1       2.062   0.850  -0.025  0.00  0.00    -0.007 A 
ATOM      4  C   UNL d   1       0.869   1.549   0.037  0.00  0.00     0.046 A 
ATOM      5  C   UNL d   1      -0.985  -1.588  -0.140  0.00  0.00     0.119 A 
ATOM      6  C   UNL d   1      -0.287   0.712   0.010  0.00  0.00     0.054 A 
ATOM      7  N   UNL d   1      -2.268  -1.139  -0.099  0.00  0.00    -0.341 N 
ATOM      8  HN  UNL d   1      -3.051  -1.791  -0.141  1.00  0.00     0.167 HD
ATOM      9  N   UNL d   1      -1.566   1.156   0.053  0.00  0.00    -0.351 N 
ATOM     10  HN  UNL d   1      -1.810   2.144   0.123  1.00  0.00     0.166 HD
ATOM     11  C   UNL d   1      -2.479   0.185  -0.003  0.00  0.00     0.182 A 
ENDROOT
BRANCH   5  12
ATOM     12  N   UNL d   1      -0.722  -2.965  -0.286  0.00  0.00    -0.186 NA
ATOM     13  H   UNL d   1       0.210  -3.228   0.049  0.00  0.00     0.154 HD
BRANCH  12  14
ATOM     14  N   UNL d   1      -1.736  -3.784   0.230  0.00  0.00    -0.281 N 
ATOM     15  C   UNL d   1      -1.348  -4.943   0.879  0.00  0.00     0.266 C 
ATOM     16  O   UNL d   1      -0.164  -5.221   1.063  0.00  0.00    -0.266 OA
ATOM     17  H   UNL d   1      -2.680  -3.537  -0.048  0.00  0.00     0.184 HD
BRANCH  15  18
ATOM     18  C   UNL d   1      -2.426  -5.867   1.347  0.00  0.00     0.033 A 
ATOM     19  C   UNL d   1      -3.776  -5.502   1.398  0.00  0.00     0.017 A 
ATOM     20  C   UNL d   1      -4.738  -6.416   1.845  0.00  0.00     0.007 A 
ATOM     21  C   UNL d   1      -4.368  -7.704   2.253  0.00  0.00    -0.062 A 
ATOM     22  C   UNL d   1      -3.017  -8.062   2.220  0.00  0.00     0.007 A 
ATOM     23  C   UNL d   1      -5.414  -8.671   2.724  0.00  0.00     0.048 C 
ATOM     24  C   UNL d   1      -2.054  -7.152   1.770  0.00  0.00     0.017 A 
ENDBRANCH  15  18
ENDBRANCH  12  14
ENDBRANCH   5  12
BRANCH   3  25
ATOM     25  C   UNL d   1       3.503   1.385  -0.034  0.00  0.00    -0.018 C 
ATOM     26  C   UNL d   1       4.234   0.946  -1.319  0.00  0.00     0.020 C 
ATOM     27  C   UNL d   1       3.527   2.929   0.008  0.00  0.00     0.020 C 
ATOM     28  C   UNL d   1       4.278   0.875   1.197  0.00  0.00     0.020 C 
ENDBRANCH   3  25
TORSDOF 4
