REMARK  3 active torsions:
REMARK  status: ('A' for Active; 'I' for Inactive)
REMARK    1  A    between atoms: C_5  and  C_1 
REMARK    2  A    between atoms: O_10  and  C_5 
REMARK    3  A    between atoms: C_12  and  O_10 
ROOT
ATOM      1  C   UNL d   1       1.386   1.028   0.095  0.00  0.00     0.057 C 
ATOM      2  C   UNL d   1       1.331  -0.314  -0.002  0.00  0.00     0.024 C 
ATOM      3  N   UNL d   1       0.094  -0.907  -0.153  0.00  0.00    -0.312 N 
ATOM      4  C   UNL d   1      -1.105  -0.262  -0.086  0.00  0.00     0.320 C 
ATOM      5  N   UNL d   1      -1.054   1.080   0.102  0.00  0.00    -0.338 N 
ATOM      6  C   UNL d   1       0.150   1.866  -0.021  0.00  0.00     0.171 C 
ATOM      7  O   UNL d   1      -2.173  -0.860  -0.161  0.00  0.00    -0.247 OA
ATOM      8  C   UNL d   1       2.486  -1.276   0.021  0.00  0.00     0.069 C 
ATOM      9  H   UNL d   1       0.022  -1.913  -0.238  0.00  0.00     0.170 HD
ATOM     10  H   UNL d   1      -1.953   1.540   0.111  0.00  0.00     0.164 HD
ENDROOT
BRANCH   1  11
ATOM     11  C   UNL d   1       2.642   1.766   0.385  0.00  0.00     0.292 C 
ATOM     12  O   UNL d   1       3.602   1.306   0.982  0.00  0.00    -0.259 OA
BRANCH  11  13
ATOM     13  O   UNL d   1       2.515   3.053  -0.032  0.00  0.00    -0.318 OA
BRANCH  13  14
ATOM     14  C   UNL d   1       3.532   3.958   0.420  0.00  0.00     0.174 C 
ATOM     15  C   UNL d   1       3.163   4.473   1.801  0.00  0.00     0.034 C 
ENDBRANCH  13  14
ENDBRANCH  11  13
ENDBRANCH   1  11
TORSDOF 3
