REMARK  6 active torsions:
REMARK  status: ('A' for Active; 'I' for Inactive)
REMARK    1  A    between atoms: C_6  and  S_1 
REMARK    2  A    between atoms: C_10  and  S_1 
REMARK    3  A    between atoms: C_4  and  C_6 
REMARK    4  A    between atoms: C_13  and  C_5 
REMARK    5  A    between atoms: C_22  and  C_18 
REMARK    6  A    between atoms: C_23  and  C_22 
ROOT
ATOM      1  N   UNL d   1       1.556  -1.518  -2.360  0.00  0.00    -0.322 N 
ATOM      2  HN  UNL d   1       1.947  -0.584  -2.244  1.00  0.00     0.169 HD
ATOM      3  C   UNL d   1       0.871  -2.283  -1.448  0.00  0.00     0.118 A 
ATOM      4  C   UNL d   1       1.580  -2.296  -3.421  0.00  0.00     0.182 A 
ATOM      5  N   UNL d   1       0.452  -3.466  -1.917  0.00  0.00    -0.246 N 
ATOM      6  HN  UNL d   1      -0.098  -4.178  -1.435  1.00  0.00     0.196 HD
ATOM      7  O   UNL d   1       0.948  -3.491  -3.223  0.00  0.00    -0.217 OA
ENDROOT
BRANCH   4   8
ATOM      8  C   UNL d   1       2.135  -2.039  -4.741  0.00  0.00     0.017 A 
ATOM      9  C   UNL d   1       3.147  -1.082  -4.882  0.00  0.00     0.016 A 
ATOM     10  C   UNL d   1       3.655  -0.756  -6.141  0.00  0.00     0.008 A 
ATOM     11  C   UNL d   1       3.147  -1.372  -7.291  0.00  0.00    -0.058 A 
ATOM     12  C   UNL d   1       2.152  -2.348  -7.153  0.00  0.00     0.008 A 
ATOM     13  C   UNL d   1       1.651  -2.680  -5.890  0.00  0.00     0.016 A 
BRANCH  11  14
ATOM     14  C   UNL d   1       3.655  -0.967  -8.654  0.00  0.00     0.038 C 
BRANCH  14  15
ATOM     15  C   UNL d   1       2.583  -0.343  -9.556  0.00  0.00     0.000 C 
ATOM     16  C   UNL d   1       1.993   0.943  -8.991  0.00  0.00     0.005 C 
ENDBRANCH  14  15
ENDBRANCH  11  14
ENDBRANCH   4   8
BRANCH   3  17
ATOM     17  C   UNL d   1       0.451  -1.743  -0.146  0.00  0.00     0.219 C 
BRANCH  17  18
ATOM     18  S   UNL d   1       1.365  -2.462   1.208  0.00  0.00     0.158 S 
ATOM     19  O   UNL d   1       2.755  -2.061   1.079  0.00  0.00    -0.227 OA
ATOM     20  O   UNL d   1       1.018  -3.869   1.302  0.00  0.00    -0.227 OA
BRANCH  18  21
ATOM     21  C   UNL d   1       0.705  -1.653   2.715  0.00  0.00     0.053 C 
ATOM     22  C   UNL d   1      -0.806  -1.899   2.839  0.00  0.00     0.031 C 
ATOM     23  C   UNL d   1       1.413  -2.271   3.932  0.00  0.00     0.031 C 
ATOM     24  C   UNL d   1       0.986  -0.145   2.686  0.00  0.00     0.031 C 
ENDBRANCH  18  21
ENDBRANCH  17  18
ENDBRANCH   3  17
TORSDOF 6
