REMARK  1 active torsions:
REMARK  status: ('A' for Active; 'I' for Inactive)
REMARK    1  A    between atoms: C_11  and  C_4 
ROOT
ATOM      1  C   UNL d   1      -2.068   0.353   0.028  0.00  0.00    -0.006 C 
ATOM      2  C   UNL d   1      -1.091  -0.780  -0.023  0.00  0.00     0.189 C 
ATOM      3  C   UNL d   1       0.353  -0.405  -0.002  0.00  0.00     0.021 A 
ATOM      4  C   UNL d   1      -3.285   0.154  -0.514  0.00  0.00     0.022 C 
ATOM      5  C   UNL d   1       0.748   0.946  -0.029  0.00  0.00    -0.044 A 
ATOM      6  C   UNL d   1      -1.555   1.617   0.653  0.00  0.00     0.047 C 
ATOM      7  O   UNL d   1      -1.448  -1.950  -0.093  0.00  0.00    -0.287 OA
ATOM      8  C   UNL d   1      -0.274   2.052  -0.048  0.00  0.00     0.044 C 
ATOM      9  C   UNL d   1       1.319  -1.417   0.008  0.00  0.00     0.016 A 
ATOM     10  C   UNL d   1       2.113   1.261  -0.085  0.00  0.00     0.008 A 
ATOM     11  C   UNL d   1       2.675  -1.090  -0.025  0.00  0.00     0.001 A 
ATOM     12  C   UNL d   1       3.070   0.246  -0.078  0.00  0.00     0.001 A 
ENDROOT
BRANCH   4  13
ATOM     13  C   UNL d   1      -4.294   1.209  -0.606  0.00  0.00    -0.033 A 
ATOM     14  C   UNL d   1      -4.315   2.057  -1.714  0.00  0.00     0.028 A 
ATOM     15  C   UNL d   1      -5.239   3.087  -1.730  0.00  0.00     0.088 A 
ATOM     16  N   UNL d   1      -6.122   3.319  -0.735  0.00  0.00    -0.375 N 
ATOM     17  C   UNL d   1      -6.084   2.477   0.321  0.00  0.00     0.088 A 
ATOM     18  HN  UNL d   1      -6.785   4.093  -0.778  1.00  0.00     0.164 HD
ATOM     19  C   UNL d   1      -5.198   1.418   0.432  0.00  0.00     0.028 A 
ENDBRANCH   4  13
TORSDOF 1
