REMARK  5 active torsions:
REMARK  status: ('A' for Active; 'I' for Inactive)
REMARK    1  A    between atoms: C_3  and  N_1 
REMARK    2  A    between atoms: C_8  and  N_4 
REMARK    3  A    between atoms: C_6  and  O_9 
REMARK    4  A    between atoms: O_9  and  C_10 
REMARK    5  A    between atoms: O_18  and  C_11 
ROOT
ATOM      1  N   UNL d   1       1.369   0.183  -0.965  0.00  0.00    -0.297 N 
ATOM      2  HN  UNL d   1       2.241   0.223  -1.493  1.00  0.00     0.187 HD
ATOM      3  N   UNL d   1       1.073   0.991  -0.060  0.00  0.00    -0.298 N 
ATOM      4  HN  UNL d   1       0.263   0.882   0.550  1.00  0.00     0.187 HD
ENDROOT
BRANCH   1   5
ATOM      5  C   UNL d   1       0.370  -0.794  -1.183  0.00  0.00     0.092 A 
ATOM      6  C   UNL d   1      -0.896  -0.484  -1.748  0.00  0.00     0.005 A 
ATOM      7  C   UNL d   1      -1.773  -1.546  -2.091  0.00  0.00    -0.024 A 
ATOM      8  C   UNL d   1      -1.330   0.837  -2.013  0.00  0.00     0.014 A 
ATOM      9  C   UNL d   1      -3.027  -1.263  -2.657  0.00  0.00     0.012 A 
ATOM     10  C   UNL d   1      -1.381  -2.878  -1.878  0.00  0.00     0.015 A 
ATOM     11  C   UNL d   1      -3.432   0.051  -2.886  0.00  0.00     0.001 A 
ATOM     12  C   UNL d   1      -2.585   1.102  -2.562  0.00  0.00     0.001 A 
ATOM     13  C   UNL d   1      -0.143  -3.177  -1.317  0.00  0.00     0.040 A 
ATOM     14  C   UNL d   1       0.715  -2.142  -0.975  0.00  0.00     0.094 A 
BRANCH  14  15
ATOM     15  O   UNL d   1       1.929  -2.489  -0.441  0.00  0.00    -0.358 OA
ATOM     16  H   UNL d   1       2.368  -1.654  -0.193  0.00  0.00     0.217 HD
ENDBRANCH  14  15
ENDBRANCH   1   5
BRANCH   3  17
ATOM     17  C   UNL d   1       1.982   2.078   0.031  0.00  0.00     0.081 A 
ATOM     18  C   UNL d   1       1.748   3.154   0.912  0.00  0.00     0.106 A 
ATOM     19  C   UNL d   1       2.635   4.248   0.933  0.00  0.00     0.039 A 
ATOM     20  C   UNL d   1       3.761   4.289   0.115  0.00  0.00     0.003 A 
ATOM     21  C   UNL d   1       4.012   3.237  -0.750  0.00  0.00     0.002 A 
ATOM     22  C   UNL d   1       3.133   2.152  -0.791  0.00  0.00     0.034 A 
BRANCH  18  23
ATOM     23  O   UNL d   1       0.706   3.341   1.779  0.00  0.00    -0.253 OA
BRANCH  23  24
ATOM     24  C   UNL d   1      -0.057   2.239   2.229  0.00  0.00     0.530 C 
ATOM     25  F   UNL d   1       0.717   1.180   2.545  0.00  0.00    -0.144 F 
ATOM     26  F   UNL d   1      -0.707   2.617   3.354  0.00  0.00    -0.144 F 
ATOM     27  F   UNL d   1      -0.988   1.897   1.315  0.00  0.00    -0.144 F 
ENDBRANCH  23  24
ENDBRANCH  18  23
ENDBRANCH   3  17
TORSDOF 5
