REMARK  5 active torsions:
REMARK  status: ('A' for Active; 'I' for Inactive)
REMARK    1  A    between atoms: N_3  and  C_2 
REMARK    2  A    between atoms: S_13  and  C_4 
REMARK    3  A    between atoms: C_17  and  C_5 
REMARK    4  A    between atoms: C_10  and  C_14 
REMARK    5  A    between atoms: C_11  and  S_13 
ROOT
ATOM      1  N   UNL d   1      -0.017   0.438   0.977  0.00  0.00    -0.320 N 
ATOM      2  C   UNL d   1      -0.389   1.155  -0.117  0.00  0.00     0.165 A 
ATOM      3  C   UNL d   1       0.306  -0.820   0.528  0.00  0.00     0.132 A 
ATOM      4  N   UNL d   1       0.104  -0.841  -0.782  0.00  0.00    -0.283 N 
ATOM      5  HN  UNL d   1       0.248  -1.646  -1.391  1.00  0.00     0.188 HD
ATOM      6  N   UNL d   1      -0.333   0.405  -1.186  0.00  0.00    -0.278 N 
ATOM      7  HN  UNL d   1      -0.568   0.686  -2.138  1.00  0.00     0.189 HD
ATOM      8  H   UNL d   1      -0.009   0.775   1.928  0.00  0.00     0.169 HD
ENDROOT
BRANCH   2   9
ATOM      9  S   UNL d   1      -0.779   2.829  -0.008  0.00  0.00    -0.050 SA
BRANCH   9  10
ATOM     10  C   UNL d   1      -2.561   2.690   0.031  0.00  0.00     0.041 A 
ATOM     11  C   UNL d   1      -3.335   2.714   1.201  0.00  0.00     0.120 A 
ATOM     12  C   UNL d   1      -4.742   2.678   1.165  0.00  0.00     0.053 A 
ATOM     13  C   UNL d   1      -5.409   2.611  -0.066  0.00  0.00     0.050 A 
ATOM     14  C   UNL d   1      -4.644   2.601  -1.243  0.00  0.00     0.017 A 
ATOM     15  C   UNL d   1      -3.243   2.642  -1.194  0.00  0.00     0.022 A 
BRANCH  11  16
ATOM     16  N   UNL d   1      -2.709   2.791   2.510  0.00  0.00    -0.114 N 
ATOM     17  O   UNL d   1      -1.896   1.900   2.809  0.00  0.00    -0.532 OA
ATOM     18  O   UNL d   1      -3.061   3.719   3.247  0.00  0.00    -0.532 OA
ENDBRANCH  11  16
BRANCH  13  19
ATOM     19  C   UNL d   1      -6.918   2.549  -0.142  0.00  0.00     0.417 C 
ATOM     20  F   UNL d   1      -7.516   2.513   1.081  0.00  0.00    -0.166 F 
ATOM     21  F   UNL d   1      -7.450   3.620  -0.790  0.00  0.00    -0.166 F 
ATOM     22  F   UNL d   1      -7.358   1.446  -0.806  0.00  0.00    -0.166 F 
ENDBRANCH  13  19
ENDBRANCH   9  10
ENDBRANCH   2   9
BRANCH   3  23
ATOM     23  C   UNL d   1       0.784  -1.927   1.362  0.00  0.00     0.009 A 
ATOM     24  C   UNL d   1       0.933  -1.814   2.753  0.00  0.00     0.015 A 
ATOM     25  C   UNL d   1       1.380  -2.899   3.516  0.00  0.00     0.001 A 
ATOM     26  C   UNL d   1       1.687  -4.111   2.901  0.00  0.00     0.000 A 
ATOM     27  C   UNL d   1       1.554  -4.238   1.521  0.00  0.00     0.001 A 
ATOM     28  C   UNL d   1       1.107  -3.154   0.759  0.00  0.00     0.015 A 
ENDBRANCH   3  23
TORSDOF 5
