REMARK  5 active torsions:
REMARK  status: ('A' for Active; 'I' for Inactive)
REMARK    1  A    between atoms: C_7  and  C_1 
REMARK    2  A    between atoms: C_16  and  C_3 
REMARK    3  A    between atoms: C_8  and  C_7 
REMARK    4  A    between atoms: O_19  and  C_14 
REMARK    5  A    between atoms: C_23  and  C_16 
ROOT
ATOM      1  C   UNL d   1       2.283  -1.042  -0.055  0.00  0.00     0.029 C 
ATOM      2  C   UNL d   1       2.290   0.442  -0.216  0.00  0.00     0.295 C 
ATOM      3  C   UNL d   1       1.124  -1.744   0.001  0.00  0.00    -0.033 C 
ATOM      4  O   UNL d   1       1.095   1.104  -0.034  0.00  0.00    -0.274 OA
ATOM      5  C   UNL d   1      -0.116   0.401   0.014  0.00  0.00     0.092 A 
ATOM      6  C   UNL d   1      -0.154  -0.994  -0.006  0.00  0.00     0.005 A 
ATOM      7  C   UNL d   1      -1.266   1.198   0.044  0.00  0.00     0.074 A 
ATOM      8  C   UNL d   1      -1.428  -1.586  -0.011  0.00  0.00     0.017 A 
ATOM      9  O   UNL d   1       3.315   1.060  -0.487  0.00  0.00    -0.259 OA
ATOM     10  C   UNL d   1      -2.504   0.580   0.036  0.00  0.00     0.068 A 
ATOM     11  C   UNL d   1      -2.593  -0.803   0.004  0.00  0.00     0.037 A 
ENDROOT
BRANCH   1  12
ATOM     12  C   UNL d   1       3.679  -1.640  -0.001  0.00  0.00     0.089 C 
BRANCH  12  13
ATOM     13  C   UNL d   1       4.593  -1.144   1.109  0.00  0.00     0.007 A 
ATOM     14  C   UNL d   1       4.087  -0.731   2.351  0.00  0.00     0.124 A 
ATOM     15  F   UNL d   1       2.774  -0.809   2.610  0.00  0.00    -0.205 F 
ATOM     16  C   UNL d   1       4.911  -0.227   3.357  0.00  0.00     0.043 A 
ATOM     17  C   UNL d   1       6.284  -0.153   3.156  0.00  0.00     0.005 A 
ATOM     18  C   UNL d   1       6.824  -0.614   1.958  0.00  0.00     0.024 A 
ATOM     19  C   UNL d   1       5.990  -1.113   0.949  0.00  0.00     0.043 A 
ATOM     20 CL   UNL d   1       6.763  -1.716  -0.477  0.00  0.00    -0.084 Cl
ENDBRANCH  12  13
ENDBRANCH   1  12
BRANCH   3  21
ATOM     21  C   UNL d   1       1.103  -3.265   0.009  0.00  0.00     0.040 C 
BRANCH  21  22
ATOM     22  C   UNL d   1       1.315  -3.928   1.376  0.00  0.00     0.000 C 
ATOM     23  C   UNL d   1       0.154  -3.755   2.341  0.00  0.00     0.005 C 
ENDBRANCH  21  22
ENDBRANCH   3  21
BRANCH  10  24
ATOM     24  O   UNL d   1      -3.660   1.298   0.051  0.00  0.00    -0.361 OA
ATOM     25  H   UNL d   1      -3.445   2.245   0.074  0.00  0.00     0.217 HD
ENDBRANCH  10  24
TORSDOF 5
