REMARK  8 active torsions:
REMARK  status: ('A' for Active; 'I' for Inactive)
REMARK    1  A    between atoms: N_6  and  C_2 
REMARK    2  A    between atoms: C_8  and  C_5 
REMARK    3  A    between atoms: N_9  and  N_6 
REMARK    4  A    between atoms: C_11  and  C_8 
REMARK    5  A    between atoms: O_19  and  C_11 
REMARK    6  A    between atoms: C_14  and  C_12 
REMARK    7  A    between atoms: C_22  and  C_18 
REMARK    8  A    between atoms: C_24  and  C_22 
ROOT
ATOM      1  N   UNL d   1       3.837  -0.409   0.601  0.00  0.00    -0.280 N 
ATOM      2  HN  UNL d   1       4.628  -0.785   0.077  1.00  0.00     0.189 HD
ENDROOT
BRANCH   1   3
ATOM      3  C   UNL d   1       3.038  -1.129   1.308  0.00  0.00     0.162 A 
ATOM      4  N   UNL d   1       1.983  -0.660   2.011  0.00  0.00    -0.305 N 
ATOM      5  C   UNL d   1       1.171  -1.550   2.639  0.00  0.00     0.238 A 
ATOM      6  H   UNL d   1       1.809   0.334   2.002  0.00  0.00     0.171 HD
ATOM      7  C   UNL d   1       1.626  -2.982   2.424  0.00  0.00     0.157 A 
ATOM      8  O   UNL d   1       0.158  -1.229   3.250  0.00  0.00    -0.272 OA
ATOM      9  S   UNL d   1       3.178  -2.846   1.456  0.00  0.00    -0.077 SA
BRANCH   7  10
ATOM     10  C   UNL d   1       0.553  -3.732   1.645  0.00  0.00     0.135 C 
BRANCH  10  11
ATOM     11  C   UNL d   1       0.904  -5.187   1.492  0.00  0.00     0.141 C 
ATOM     12  O   UNL d   1       1.481  -5.848   2.341  0.00  0.00    -0.650 OA
BRANCH  11  13
ATOM     13  O   UNL d   1       0.469  -5.724   0.331  0.00  0.00    -0.776 OA
ATOM     14  H   UNL d   1       0.011  -5.103  -0.267  0.00  0.00     0.167 HD
ENDBRANCH  11  13
ENDBRANCH  10  11
ENDBRANCH   7  10
ENDBRANCH   1   3
BRANCH   1  15
ATOM     15  N   UNL d   1       3.499   0.942   0.633  0.00  0.00    -0.302 N 
ATOM     16  C   UNL d   1       4.300   1.726  -0.031  0.00  0.00     0.032 C 
ATOM     17  C   UNL d   1       5.514   1.244  -0.806  0.00  0.00     0.070 C 
ATOM     18  HN  UNL d   1       2.685   1.291   1.139  1.00  0.00     0.186 HD
BRANCH  16  19
ATOM     19  C   UNL d   1       4.009   3.199  -0.021  0.00  0.00    -0.013 A 
ATOM     20  C   UNL d   1       2.922   3.670   0.729  0.00  0.00     0.014 A 
ATOM     21  C   UNL d   1       2.643   5.035   0.804  0.00  0.00     0.008 A 
ATOM     22  C   UNL d   1       3.444   5.961   0.128  0.00  0.00    -0.058 A 
ATOM     23  C   UNL d   1       4.524   5.491  -0.632  0.00  0.00     0.008 A 
ATOM     24  C   UNL d   1       4.801   4.121  -0.713  0.00  0.00     0.014 A 
BRANCH  22  25
ATOM     25  C   UNL d   1       3.166   7.440   0.263  0.00  0.00     0.042 C 
BRANCH  25  26
ATOM     26  C   UNL d   1       2.896   8.176  -1.063  0.00  0.00    -0.019 C 
ATOM     27  C   UNL d   1       1.646   7.651  -1.774  0.00  0.00     0.010 C 
ATOM     28  C   UNL d   1       2.742   9.676  -0.795  0.00  0.00     0.010 C 
ENDBRANCH  25  26
ENDBRANCH  22  25
ENDBRANCH  16  19
ENDBRANCH   1  15
TORSDOF 8
