REMARK  3 active torsions:
REMARK  status: ('A' for Active; 'I' for Inactive)
REMARK    1  A    between atoms: C_7  and  C_1 
REMARK    2  A    between atoms: C_2  and  C_7 
REMARK       I    between atoms: N_3  and  C_2 
REMARK    3  A    between atoms: C_15  and  N_3 
ROOT
ATOM      1  C   UNL d   1       0.834   1.663   3.726  0.00  0.00     0.222 C 
ATOM      2  N   UNL d   1       1.109   0.634   4.605  0.00  0.00    -0.327 N 
ATOM      3  O   UNL d   1       0.139   2.648   3.958  0.00  0.00    -0.273 OA
ATOM      4  H   UNL d   1       1.715  -0.102   4.270  0.00  0.00     0.169 HD
ENDROOT
BRANCH   1   5
ATOM      5  C   UNL d   1       1.510   1.519   2.369  0.00  0.00     0.112 C 
BRANCH   5   6
ATOM      6  C   UNL d   1       0.910   0.500   1.371  0.00  0.00    -0.031 C 
ATOM      7  C   UNL d   1      -0.639   0.531   1.355  0.00  0.00     0.014 C 
ATOM      8  C   UNL d   1      -1.192  -0.425   0.279  0.00  0.00    -0.013 C 
ATOM      9  C   UNL d   1      -0.665   0.002  -1.100  0.00  0.00     0.009 C 
ATOM     10  C   UNL d   1      -0.722  -1.859   0.578  0.00  0.00     0.009 C 
ATOM     11  C   UNL d   1       0.869  -0.066  -1.120  0.00  0.00    -0.013 C 
ATOM     12  C   UNL d   1       1.424   0.882  -0.049  0.00  0.00     0.014 C 
ATOM     13  C   UNL d   1       1.329  -1.497  -0.806  0.00  0.00     0.009 C 
ATOM     14  C   UNL d   1       0.814  -1.919   0.579  0.00  0.00    -0.013 C 
ATOM     15  C   UNL d   1       1.361  -0.956   1.654  0.00  0.00     0.014 C 
ENDBRANCH   5   6
ENDBRANCH   1   5
BRANCH   2  16
ATOM     16  C   UNL d   1       0.663   0.512   5.940  0.00  0.00     0.034 A 
ATOM     17  C   UNL d   1      -0.142   1.454   6.587  0.00  0.00     0.031 A 
ATOM     18  C   UNL d   1      -0.538   1.264   7.916  0.00  0.00     0.026 A 
ATOM     19  C   UNL d   1      -0.130   0.128   8.607  0.00  0.00     0.034 A 
ATOM     20  C   UNL d   1       0.671  -0.820   7.979  0.00  0.00     0.026 A 
ATOM     21 CL   UNL d   1      -0.620  -0.106  10.239  0.00  0.00    -0.084 Cl
ATOM     22  C   UNL d   1       1.070  -0.629   6.652  0.00  0.00     0.031 A 
ENDBRANCH   2  16
TORSDOF 3
