REMARK  3 active torsions:
REMARK  status: ('A' for Active; 'I' for Inactive)
REMARK       I    between atoms: N_2  and  C_1 
REMARK    1  A    between atoms: C_4  and  C_1 
REMARK       I    between atoms: C_5  and  N_2 
REMARK    2  A    between atoms: C_3  and  N_6 
REMARK       I    between atoms: N_9  and  C_5 
REMARK    3  A    between atoms: N_6  and  N_9 
ROOT
ATOM      1  C   UNL d   1       1.207   0.159  -0.353  0.00  0.00     0.265 C 
ATOM      2  N   UNL d   1       0.548   0.926   0.595  0.00  0.00    -0.274 N 
ATOM      3  C   UNL d   1       1.089   1.762   1.540  0.00  0.00     0.337 C 
ATOM      4  N   UNL d   1       2.463   1.856   1.584  0.00  0.00    -0.268 N 
ATOM      5  O   UNL d   1       2.428   0.090  -0.429  0.00  0.00    -0.267 OA
ATOM      6  O   UNL d   1       0.349   2.405   2.288  0.00  0.00    -0.246 OA
ATOM      7  H   UNL d   1      -0.461   0.901   0.641  0.00  0.00     0.173 HD
ATOM      8  H   UNL d   1       2.993   1.076   1.184  0.00  0.00     0.185 HD
ENDROOT
BRANCH   4   9
ATOM      9  N   UNL d   1       2.998   2.417   2.770  0.00  0.00    -0.199 NA
ATOM     10  H   UNL d   1       2.314   3.078   3.170  0.00  0.00     0.153 HD
BRANCH   9  11
ATOM     11  C   UNL d   1       4.272   3.049   2.632  0.00  0.00     0.071 A 
ATOM     12  C   UNL d   1       4.513   4.248   3.346  0.00  0.00     0.060 A 
ATOM     13  C   UNL d   1       5.771   4.857   3.381  0.00  0.00     0.049 A 
ATOM     14 CL   UNL d   1       3.233   5.023   4.226  0.00  0.00    -0.082 Cl
ATOM     15  C   UNL d   1       6.830   4.268   2.705  0.00  0.00     0.037 A 
ATOM     16  C   UNL d   1       6.641   3.085   1.998  0.00  0.00     0.049 A 
ATOM     17 CL   UNL d   1       8.392   4.984   2.771  0.00  0.00    -0.084 Cl
ATOM     18  C   UNL d   1       5.380   2.471   1.974  0.00  0.00     0.060 A 
ATOM     19 CL   UNL d   1       5.306   0.941   1.167  0.00  0.00    -0.082 Cl
ENDBRANCH   9  11
ENDBRANCH   4   9
BRANCH   1  20
ATOM     20  C   UNL d   1       0.363  -0.628  -1.282  0.00  0.00     0.109 A 
ATOM     21  C   UNL d   1       0.830  -0.916  -2.566  0.00  0.00     0.135 A 
ATOM     22  F   UNL d   1       1.984  -0.402  -3.013  0.00  0.00    -0.205 F 
ATOM     23  C   UNL d   1       0.097  -1.724  -3.437  0.00  0.00     0.043 A 
ATOM     24  C   UNL d   1      -1.124  -2.259  -3.030  0.00  0.00     0.006 A 
ATOM     25  C   UNL d   1      -1.614  -1.964  -1.759  0.00  0.00     0.043 A 
ATOM     26  C   UNL d   1      -0.872  -1.150  -0.898  0.00  0.00     0.135 A 
ATOM     27  F   UNL d   1      -1.376  -0.889   0.317  0.00  0.00    -0.205 F 
ENDBRANCH   1  20
TORSDOF 3
