REMARK  2 active torsions:
REMARK  status: ('A' for Active; 'I' for Inactive)
REMARK    1  A    between atoms: C_8  and  C_3 
REMARK    2  A    between atoms: C_10  and  C_7 
ROOT
ATOM      1  N   UNL d   1       1.565  -0.086  -0.043  0.00  0.00    -0.331 N 
ATOM      2  HN  UNL d   1       2.507  -0.472  -0.108  1.00  0.00     0.168 HD
ATOM      3  C   UNL d   1       1.203   1.155   0.014  0.00  0.00     0.162 A 
ATOM      4  C   UNL d   1       0.367  -0.753   0.008  0.00  0.00     0.111 A 
ATOM      5  O   UNL d   1      -0.119   1.422   0.096  0.00  0.00    -0.256 OA
ATOM      6  C   UNL d   1      -0.758   0.221   0.086  0.00  0.00     0.316 A 
ATOM      7  C   UNL d   1       0.258  -2.084  -0.008  0.00  0.00     0.047 C 
ATOM      8  O   UNL d   1      -1.957   0.044   0.137  0.00  0.00    -0.257 OA
ENDROOT
BRANCH   7   9
ATOM      9  C   UNL d   1      -0.997  -2.834   0.018  0.00  0.00    -0.032 A 
ATOM     10  C   UNL d   1      -1.573  -3.208   1.237  0.00  0.00     0.037 A 
ATOM     11  C   UNL d   1      -2.761  -3.947   1.257  0.00  0.00     0.056 A 
ATOM     12 CL   UNL d   1      -3.402  -4.393   2.799  0.00  0.00    -0.083 Cl
ATOM     13  C   UNL d   1      -3.380  -4.309   0.055  0.00  0.00     0.055 A 
ATOM     14  C   UNL d   1      -2.812  -3.923  -1.162  0.00  0.00     0.026 A 
ATOM     15 CL   UNL d   1      -4.837  -5.237   0.004  0.00  0.00    -0.083 Cl
ATOM     16  C   UNL d   1      -1.624  -3.188  -1.181  0.00  0.00     0.013 A 
ENDBRANCH   7   9
BRANCH   3  17
ATOM     17  C   UNL d   1       2.071   2.340  -0.007  0.00  0.00     0.015 A 
ATOM     18  C   UNL d   1       3.453   2.175  -0.164  0.00  0.00     0.017 A 
ATOM     19  C   UNL d   1       4.290   3.294  -0.181  0.00  0.00     0.025 A 
ATOM     20  C   UNL d   1       3.745   4.570  -0.036  0.00  0.00     0.034 A 
ATOM     21  C   UNL d   1       2.370   4.740   0.118  0.00  0.00     0.025 A 
ATOM     22 CL   UNL d   1       4.776   5.946  -0.047  0.00  0.00    -0.084 Cl
ATOM     23  C   UNL d   1       1.531   3.625   0.130  0.00  0.00     0.017 A 
ENDBRANCH   3  17
TORSDOF 2
