REMARK  5 active torsions:
REMARK  status: ('A' for Active; 'I' for Inactive)
REMARK    1  A    between atoms: C_9  and  C_1 
REMARK    2  A    between atoms: N_8  and  C_2 
REMARK    3  A    between atoms: C_10  and  C_4 
REMARK    4  A    between atoms: C_6  and  C_7 
REMARK       I    between atoms: C_7  and  N_8 
REMARK    5  A    between atoms: O_18  and  C_9 
ROOT
ATOM      1  C   UNL d   1       0.045   1.241   0.049  0.00  0.00     0.107 A 
ATOM      2  C   UNL d   1       1.320   0.730  -0.127  0.00  0.00     0.059 A 
ATOM      3  S   UNL d   1      -1.125  -0.027   0.135  0.00  0.00    -0.081 SA
ATOM      4  C   UNL d   1       0.038  -1.262  -0.044  0.00  0.00     0.018 A 
ATOM      5  C   UNL d   1       1.287  -0.703  -0.219  0.00  0.00     0.051 A 
ENDROOT
BRANCH   2   6
ATOM      6  N   UNL d   1       2.566   1.347  -0.195  0.00  0.00    -0.318 N 
ATOM      7  C   UNL d   1       2.931   2.625   0.216  0.00  0.00     0.330 C 
ATOM      8  O   UNL d   1       2.171   3.462   0.699  0.00  0.00    -0.263 OA
ATOM      9  H   UNL d   1       3.345   0.726  -0.402  0.00  0.00     0.169 HD
BRANCH   7  10
ATOM     10  C   UNL d   1       4.444   2.863   0.021  0.00  0.00     0.472 C 
ATOM     11  F   UNL d   1       5.108   1.674  -0.128  0.00  0.00    -0.162 F 
ATOM     12  F   UNL d   1       4.723   3.586  -1.096  0.00  0.00    -0.162 F 
ATOM     13  F   UNL d   1       5.033   3.496   1.069  0.00  0.00    -0.162 F 
ENDBRANCH   7  10
ENDBRANCH   2   6
BRANCH   1  14
ATOM     14  C   UNL d   1      -0.497   2.581   0.155  0.00  0.00     0.302 C 
ATOM     15  O   UNL d   1      -1.334   2.935   0.977  0.00  0.00    -0.259 OA
BRANCH  14  16
ATOM     16  O   UNL d   1      -0.040   3.359  -0.870  0.00  0.00    -0.322 OA
ATOM     17  C   UNL d   1      -0.510   4.711  -0.871  0.00  0.00     0.213 C 
ENDBRANCH  14  16
ENDBRANCH   1  14
BRANCH   4  18
ATOM     18  C   UNL d   1      -0.315  -2.694   0.011  0.00  0.00    -0.019 A 
ATOM     19  C   UNL d   1       0.504  -3.643  -0.630  0.00  0.00     0.014 A 
ATOM     20  C   UNL d   1       0.245  -5.014  -0.526  0.00  0.00     0.024 A 
ATOM     21  C   UNL d   1      -0.847  -5.455   0.213  0.00  0.00     0.034 A 
ATOM     22  C   UNL d   1      -1.684  -4.538   0.840  0.00  0.00     0.024 A 
ATOM     23 CL   UNL d   1      -1.155  -7.140   0.359  0.00  0.00    -0.084 Cl
ATOM     24  C   UNL d   1      -1.418  -3.167   0.741  0.00  0.00     0.014 A 
ENDBRANCH   4  18
TORSDOF 5
