REMARK  7 active torsions:
REMARK  status: ('A' for Active; 'I' for Inactive)
REMARK    1  A    between atoms: C_11  and  C_1 
REMARK    2  A    between atoms: C_15  and  N_4 
REMARK    3  A    between atoms: S_8  and  N_14 
REMARK    4  A    between atoms: C_9  and  C_12 
REMARK    5  A    between atoms: C_10  and  C_13 
REMARK    6  A    between atoms: N_14  and  N_17 
REMARK    7  A    between atoms: C_16  and  C_15 
REMARK       I    between atoms: N_17  and  C_16 
ROOT
ATOM      1  C   UNL d   1      -0.678  -1.073   0.335  0.00  0.00     0.144 A 
ATOM      2  N   UNL d   1       0.630  -0.815   0.183  0.00  0.00    -0.268 N 
ATOM      3  HN  UNL d   1       1.407  -1.461   0.048  1.00  0.00     0.190 HD
ATOM      4  N   UNL d   1       0.638   0.528   0.258  0.00  0.00    -0.207 N 
ATOM      5  N   UNL d   1      -1.418   0.079   0.483  0.00  0.00    -0.266 N 
ATOM      6  HN  UNL d   1      -2.428   0.139   0.615  1.00  0.00     0.186 HD
ATOM      7  N   UNL d   1      -0.566   1.098   0.419  0.00  0.00    -0.002 NA
ENDROOT
BRANCH   1   8
ATOM      8  C   UNL d   1      -1.238  -2.420   0.273  0.00  0.00     0.012 A 
ATOM      9  C   UNL d   1      -0.389  -3.514   0.029  0.00  0.00     0.031 A 
ATOM     10  C   UNL d   1      -0.892  -4.812  -0.144  0.00  0.00     0.049 A 
ATOM     11  C   UNL d   1      -2.274  -5.016  -0.028  0.00  0.00     0.032 A 
ATOM     12  C   UNL d   1      -3.146  -3.946   0.236  0.00  0.00     0.049 A 
ATOM     13  C   UNL d   1      -2.616  -2.650   0.388  0.00  0.00     0.031 A 
BRANCH  10  14
ATOM     14  C   UNL d   1       0.022  -5.958  -0.510  0.00  0.00     0.417 C 
ATOM     15  F   UNL d   1       1.328  -5.595  -0.639  0.00  0.00    -0.166 F 
ATOM     16  F   UNL d   1      -0.002  -6.961   0.409  0.00  0.00    -0.166 F 
ATOM     17  F   UNL d   1      -0.325  -6.527  -1.698  0.00  0.00    -0.166 F 
ENDBRANCH  10  14
BRANCH  12  18
ATOM     18  C   UNL d   1      -4.635  -4.203   0.302  0.00  0.00     0.417 C 
ATOM     19  F   UNL d   1      -5.373  -3.086   0.537  0.00  0.00    -0.166 F 
ATOM     20  F   UNL d   1      -5.112  -4.733  -0.858  0.00  0.00    -0.166 F 
ATOM     21  F   UNL d   1      -4.966  -5.089   1.281  0.00  0.00    -0.166 F 
ENDBRANCH  12  18
ENDBRANCH   1   8
BRANCH   4  22
ATOM     22  C   UNL d   1       1.889   1.235   0.101  0.00  0.00     0.271 C 
BRANCH  22  23
ATOM     23  C   UNL d   1       1.931   2.733   0.186  0.00  0.00     0.257 C 
ATOM     24  N   UNL d   1       0.775   3.468   0.271  0.00  0.00    -0.259 N 
ATOM     25  H   UNL d   1      -0.169   3.070   0.334  0.00  0.00     0.190 HD
ATOM     26  O   UNL d   1       3.025   3.309   0.109  0.00  0.00    -0.270 OA
BRANCH  24  27
ATOM     27  N   UNL d   1       0.925   4.912   0.280  0.00  0.00    -0.225 N 
ATOM     28  H   UNL d   1       1.878   5.292   0.199  0.00  0.00     0.200 HD
BRANCH  27  29
ATOM     29  S   UNL d   1      -0.327   5.921  -0.206  0.00  0.00     0.240 S 
ATOM     30  O   UNL d   1      -1.527   5.513   0.492  0.00  0.00    -0.205 OA
ATOM     31  O   UNL d   1       0.179   7.277  -0.150  0.00  0.00    -0.205 OA
ATOM     32  C   UNL d   1      -0.480   5.450  -1.912  0.00  0.00     0.187 C 
ENDBRANCH  27  29
ENDBRANCH  24  27
ENDBRANCH  22  23
ENDBRANCH   4  22
TORSDOF 7
