REMARK  1 active torsions:
REMARK  status: ('A' for Active; 'I' for Inactive)
REMARK    1  A    between atoms: C_8  and  N_1 
ROOT
ATOM      1  N   UNL d   1       0.870  -0.809   0.079  0.00  0.00    -0.213 N 
ATOM      2  C   UNL d   1      -0.416  -1.035  -0.393  0.00  0.00     0.215 A 
ATOM      3  N   UNL d   1       0.884   0.413   0.719  0.00  0.00    -0.219 N 
ATOM      4  HN  UNL d   1       1.694   0.823   1.185  1.00  0.00     0.210 HD
ATOM      5  N   UNL d   1      -0.262   0.950   0.639  0.00  0.00    -0.225 N 
ATOM      6  HN  UNL d   1      -0.522   1.857   1.027  1.00  0.00     0.210 HD
ATOM      7  N   UNL d   1      -1.086   0.120  -0.045  0.00  0.00    -0.259 N 
ATOM      8  S   UNL d   1      -1.162  -2.326  -1.113  0.00  0.00    -0.037 SA
ATOM      9  H   UNL d   1      -2.068   0.320  -0.164  0.00  0.00     0.191 HD
ENDROOT
BRANCH   1  10
ATOM     10  C   UNL d   1       2.071  -1.548   0.003  0.00  0.00     0.061 A 
ATOM     11  C   UNL d   1       2.290  -2.520  -0.983  0.00  0.00     0.039 A 
ATOM     12  C   UNL d   1       3.497  -3.245  -1.058  0.00  0.00    -0.042 A 
ATOM     13  C   UNL d   1       3.682  -4.242  -2.169  0.00  0.00     0.049 C 
ATOM     14  C   UNL d   1       4.483  -3.012  -0.090  0.00  0.00     0.017 A 
ATOM     15  C   UNL d   1       4.285  -2.042   0.894  0.00  0.00     0.022 A 
ATOM     16 BR   UNL d   1       6.116  -3.977  -0.058  0.00  0.00    -0.051 Br
ATOM     17  C   UNL d   1       3.097  -1.306   0.927  0.00  0.00     0.033 A 
ENDBRANCH   1  10
TORSDOF 1
