REMARK  0 active torsions:
REMARK  status: ('A' for Active; 'I' for Inactive)
ROOT
ATOM      1  C   UNL d   1       1.445  -0.722   0.011  0.00  0.00     0.015 A 
ATOM      2  C   UNL d   1       1.483   0.671   0.089  0.00  0.00    -0.018 A 
ATOM      3  S   UNL d   1       3.032  -1.389  -0.080  0.00  0.00    -0.101 SA
ATOM      4  C   UNL d   1       0.226  -1.427   0.000  0.00  0.00     0.032 A 
ATOM      5  C   UNL d   1       0.255   1.370   0.162  0.00  0.00     0.025 A 
ATOM      6  C   UNL d   1       3.762   0.152  -0.067  0.00  0.00     0.051 A 
ATOM      7  C   UNL d   1      -0.973   0.690   0.101  0.00  0.00    -0.025 A 
ATOM      8  C   UNL d   1      -0.986  -0.717   0.014  0.00  0.00    -0.025 A 
ATOM      9  C   UNL d   1       2.833   1.158   0.054  0.00  0.00     0.020 A 
ATOM     10  C   UNL d   1      -2.189   1.389   0.094  0.00  0.00     0.012 A 
ATOM     11  C   UNL d   1      -2.217  -1.386  -0.075  0.00  0.00     0.012 A 
ATOM     12  C   UNL d   1      -3.404   0.713  -0.017  0.00  0.00     0.001 A 
ATOM     13  C   UNL d   1      -3.418  -0.675  -0.103  0.00  0.00     0.001 A 
ENDROOT
TORSDOF 0
