REMARK  6 active torsions:
REMARK  status: ('A' for Active; 'I' for Inactive)
REMARK    1  A    between atoms: C_3  and  N_1 
REMARK    2  A    between atoms: N_2  and  C_4 
REMARK    3  A    between atoms: C_7  and  C_5 
REMARK    4  A    between atoms: O_13  and  C_7 
REMARK    5  A    between atoms: C_12  and  C_16 
REMARK    6  A    between atoms: C_16  and  O_13 
ROOT
ATOM      1  C   UNL d   1       0.403  -3.316  -0.751  0.00  0.00     0.106 A 
ATOM      2  C   UNL d   1       0.438  -0.906  -0.796  0.00  0.00     0.106 A 
ATOM      3  C   UNL d   1      -1.480  -2.094  -1.693  0.00  0.00     0.044 A 
ATOM      4  C   UNL d   1       1.065  -2.116  -0.467  0.00  0.00     0.072 A 
ATOM      5  C   UNL d   1      -0.863  -3.311  -1.355  0.00  0.00     0.053 A 
ATOM      6  C   UNL d   1      -0.827  -0.887  -1.409  0.00  0.00     0.053 A 
ENDROOT
BRANCH   3   7
ATOM      7  C   UNL d   1      -2.805  -2.155  -2.376  0.00  0.00     0.293 C 
ATOM      8  O   UNL d   1      -3.344  -3.215  -2.645  0.00  0.00    -0.259 OA
BRANCH   7   9
ATOM      9  O   UNL d   1      -3.267  -0.917  -2.668  0.00  0.00    -0.313 OA
BRANCH   9  10
ATOM     10  C   UNL d   1      -4.500  -0.858  -3.420  0.00  0.00     0.219 C 
BRANCH  10  11
ATOM     11  C   UNL d   1      -5.569  -0.071  -2.690  0.00  0.00    -0.017 A 
ATOM     12  C   UNL d   1      -6.942  -0.266  -2.933  0.00  0.00     0.019 A 
ATOM     13 BR   UNL d   1      -7.591  -1.525  -4.201  0.00  0.00    -0.050 Br
ATOM     14  C   UNL d   1      -7.907   0.491  -2.254  0.00  0.00     0.020 A 
ATOM     15  C   UNL d   1      -7.518   1.468  -1.341  0.00  0.00     0.001 A 
ATOM     16  C   UNL d   1      -6.166   1.701  -1.116  0.00  0.00     0.001 A 
ATOM     17  C   UNL d   1      -5.202   0.945  -1.788  0.00  0.00     0.011 A 
ENDBRANCH  10  11
ENDBRANCH   9  10
ENDBRANCH   7   9
ENDBRANCH   3   7
BRANCH   1  18
ATOM     18  N   UNL d   1       1.051  -4.596  -0.428  0.00  0.00    -0.116 N 
ATOM     19  O   UNL d   1       2.187  -4.553   0.061  0.00  0.00    -0.532 OA
ATOM     20  O   UNL d   1       0.423  -5.635  -0.667  0.00  0.00    -0.532 OA
ENDBRANCH   1  18
BRANCH   2  21
ATOM     21  N   UNL d   1       1.123   0.362  -0.504  0.00  0.00    -0.116 N 
ATOM     22  O   UNL d   1       2.245   0.302   0.016  0.00  0.00    -0.532 OA
ATOM     23  O   UNL d   1       0.533   1.410  -0.795  0.00  0.00    -0.532 OA
ENDBRANCH   2  21
TORSDOF 6
