REMARK  6 active torsions:
REMARK  status: ('A' for Active; 'I' for Inactive)
REMARK    1  A    between atoms: C_11  and  N_9 
REMARK    2  A    between atoms: C_17  and  C_11 
REMARK    3  A    between atoms: N_14  and  C_19 
REMARK    4  A    between atoms: C_18  and  N_14 
REMARK    5  A    between atoms: C_19  and  C_17 
REMARK    6  A    between atoms: O_25  and  C_17 
ROOT
ATOM      1  C   UNL d   1       0.271   3.258   3.074  0.00  0.00     0.145 A 
ATOM      2  C   UNL d   1       0.265   2.961   1.744  0.00  0.00     0.149 A 
ATOM      3  N   UNL d   1      -0.890   3.348   3.805  0.00  0.00    -0.287 N 
ATOM      4  N   UNL d   1      -2.090   3.028   1.763  0.00  0.00    -0.269 N 
ATOM      5  C   UNL d   1      -2.118   3.245   3.154  0.00  0.00     0.332 A 
ATOM      6  C   UNL d   1      -0.936   2.802   0.999  0.00  0.00     0.282 A 
ATOM      7  N   UNL d   1       1.530   3.442   3.549  0.00  0.00    -0.336 N 
ATOM      8  HN  UNL d   1       1.809   3.683   4.500  1.00  0.00     0.168 HD
ATOM      9  N   UNL d   1       1.592   2.859   1.399  0.00  0.00    -0.333 N 
ATOM     10  C   UNL d   1       2.307   3.238   2.506  0.00  0.00     0.185 A 
ATOM     11  O   UNL d   1      -3.181   3.342   3.777  0.00  0.00    -0.246 OA
ATOM     12  O   UNL d   1      -0.954   2.521  -0.199  0.00  0.00    -0.265 OA
ATOM     13  C   UNL d   1      -0.867   3.572   5.236  0.00  0.00     0.163 C 
ATOM     14  C   UNL d   1      -3.354   3.003   1.052  0.00  0.00     0.164 C 
ENDROOT
BRANCH   9  15
ATOM     15  C   UNL d   1       2.115   2.385   0.122  0.00  0.00     0.163 C 
BRANCH  15  16
ATOM     16  C   UNL d   1       3.651   2.420  -0.038  0.00  0.00     0.154 C 
BRANCH  16  17
ATOM     17  C   UNL d   1       4.121   1.781  -1.362  0.00  0.00     0.153 C 
BRANCH  17  18
ATOM     18  N   UNL d   1       3.717   0.388  -1.475  0.00  0.00    -0.387 N 
ATOM     19  H   UNL d   1       3.293   0.162  -2.374  0.00  0.00     0.159 HD
BRANCH  18  20
ATOM     20  C   UNL d   1       4.496  -0.677  -1.024  0.00  0.00     0.028 A 
ATOM     21  C   UNL d   1       5.732  -0.559  -0.385  0.00  0.00     0.029 A 
ATOM     22  C   UNL d   1       6.433  -1.696   0.050  0.00  0.00     0.009 A 
ATOM     23  C   UNL d   1       5.892  -2.976  -0.107  0.00  0.00    -0.062 A 
ATOM     24  C   UNL d   1       4.636  -3.100  -0.699  0.00  0.00     0.009 A 
ATOM     25  C   UNL d   1       6.646  -4.186   0.359  0.00  0.00     0.048 C 
ATOM     26  C   UNL d   1       3.954  -1.965  -1.148  0.00  0.00     0.029 A 
ENDBRANCH  18  20
ENDBRANCH  17  18
ENDBRANCH  16  17
BRANCH  16  27
ATOM     27  O   UNL d   1       4.117   3.780  -0.000  0.00  0.00    -0.392 OA
ATOM     28  H   UNL d   1       3.735   4.261  -0.756  0.00  0.00     0.210 HD
ENDBRANCH  16  27
ENDBRANCH  15  16
ENDBRANCH   9  15
TORSDOF 6
