REMARK  7 active torsions:
REMARK  status: ('A' for Active; 'I' for Inactive)
REMARK    1  A    between atoms: C_11  and  N_1 
REMARK    2  A    between atoms: C_13  and  C_5 
REMARK    3  A    between atoms: C_8  and  C_11 
REMARK    4  A    between atoms: C_16  and  C_9 
REMARK    5  A    between atoms: C_18  and  C_13 
REMARK    6  A    between atoms: O_27  and  C_18 
REMARK    7  A    between atoms: C_33  and  O_27 
ROOT
ATOM      1  N   UNL d   1       2.459  -0.601   0.044  0.00  0.00    -0.251 N 
ATOM      2  N   UNL d   1       2.027  -0.376   1.327  0.00  0.00    -0.298 N 
ATOM      3  HN  UNL d   1       2.600  -0.658   2.122  1.00  0.00     0.187 HD
ATOM      4  C   UNL d   1       1.720  -0.301  -1.099  0.00  0.00     0.273 A 
ATOM      5  C   UNL d   1       0.879   0.200   1.516  0.00  0.00     0.046 A 
ATOM      6  C   UNL d   1       0.442   0.412  -0.887  0.00  0.00     0.046 A 
ATOM      7  C   UNL d   1       0.029   0.683   0.408  0.00  0.00     0.004 A 
ATOM      8  O   UNL d   1       2.063  -0.591  -2.242  0.00  0.00    -0.266 OA
ATOM      9  C   UNL d   1      -0.326   0.829  -1.981  0.00  0.00     0.018 A 
ATOM     10  C   UNL d   1      -1.173   1.399   0.608  0.00  0.00     0.014 A 
ATOM     11  C   UNL d   1      -1.521   1.525  -1.784  0.00  0.00     0.001 A 
ATOM     12  C   UNL d   1      -1.937   1.810  -0.482  0.00  0.00     0.001 A 
ENDROOT
BRANCH   1  13
ATOM     13  C   UNL d   1       3.764  -1.253  -0.084  0.00  0.00     0.217 C 
BRANCH  13  14
ATOM     14  C   UNL d   1       4.863  -0.237  -0.189  0.00  0.00     0.071 A 
ATOM     15  N   UNL d   1       5.338   0.188  -1.338  0.00  0.00    -0.351 N 
ATOM     16  C   UNL d   1       6.338   1.125  -1.153  0.00  0.00     0.049 A 
ATOM     17  HN  UNL d   1       5.010  -0.133  -2.249  1.00  0.00     0.166 HD
ATOM     18  C   UNL d   1       6.649   1.384   0.163  0.00  0.00     0.081 A 
ATOM     19  S   UNL d   1       5.641   0.432   1.192  0.00  0.00    -0.085 SA
BRANCH  16  20
ATOM     20  C   UNL d   1       6.865   1.780  -2.337  0.00  0.00    -0.006 C 
ATOM     21  C   UNL d   1       6.753   1.085  -3.549  0.00  0.00     0.053 C 
ATOM     22  C   UNL d   1       6.872   1.742  -4.764  0.00  0.00     0.102 C 
ATOM     23  O   UNL d   1       6.991   0.940  -5.861  0.00  0.00    -0.348 OA
ATOM     24  C   UNL d   1       7.037   3.126  -4.772  0.00  0.00     0.102 C 
ATOM     25  C   UNL d   1       5.978   1.093  -6.844  0.00  0.00     0.178 C 
ATOM     26  C   UNL d   1       6.104   2.408  -7.588  0.00  0.00     0.053 C 
ATOM     27  C   UNL d   1       5.732   3.547  -6.656  0.00  0.00     0.178 C 
ATOM     28  O   UNL d   1       6.876   3.923  -5.873  0.00  0.00    -0.348 OA
ATOM     29  C   UNL d   1       7.382   3.779  -3.584  0.00  0.00     0.040 C 
ATOM     30  C   UNL d   1       7.317   3.102  -2.359  0.00  0.00     0.017 C 
ENDBRANCH  16  20
ENDBRANCH  13  14
ENDBRANCH   1  13
BRANCH   5  31
ATOM     31  C   UNL d   1       0.451   0.395   2.960  0.00  0.00     0.170 C 
BRANCH  31  32
ATOM     32  C   UNL d   1      -0.857  -0.268   3.299  0.00  0.00     0.264 C 
ATOM     33  O   UNL d   1      -1.296  -1.276   2.756  0.00  0.00    -0.265 OA
BRANCH  32  34
ATOM     34  O   UNL d   1      -1.516   0.470   4.235  0.00  0.00    -0.322 OA
BRANCH  34  35
ATOM     35  C   UNL d   1      -2.923   0.216   4.362  0.00  0.00     0.174 C 
ATOM     36  C   UNL d   1      -3.237  -0.481   5.669  0.00  0.00     0.034 C 
ENDBRANCH  34  35
ENDBRANCH  32  34
ENDBRANCH  31  32
ENDBRANCH   5  31
TORSDOF 7
