REMARK  2 active torsions:
REMARK  status: ('A' for Active; 'I' for Inactive)
REMARK       I    between atoms: C_8  and  N_1 
REMARK    1  A    between atoms: C_7  and  C_2 
REMARK    2  A    between atoms: C_9  and  C_6 
ROOT
ATOM      1  N   UNL d   1       0.742   0.945  -0.071  0.00  0.00    -0.225 N 
ATOM      2  C   UNL d   1      -0.709   0.958  -0.068  0.00  0.00     0.291 A 
ATOM      3  N   UNL d   1       1.223  -0.325   0.041  0.00  0.00    -0.272 N 
ATOM      4  HN  UNL d   1       2.196  -0.627   0.083  1.00  0.00     0.189 HD
ATOM      5  O   UNL d   1      -1.047  -0.434   0.023  0.00  0.00    -0.302 OA
ATOM      6  C   UNL d   1       0.159  -1.060   0.080  0.00  0.00     0.171 A 
ATOM      7  C   UNL d   1       1.520   2.071   0.041  0.00  0.00     0.236 C 
ATOM      8  O   UNL d   1       1.044   3.207   0.082  0.00  0.00    -0.272 OA
ATOM      9  C   UNL d   1       3.012   1.861   0.137  0.00  0.00     0.119 C 
ENDROOT
BRANCH   2  10
ATOM     10  C   UNL d   1      -1.329   1.538  -1.321  0.00  0.00     0.014 A 
ATOM     11  C   UNL d   1      -2.268   2.584  -1.279  0.00  0.00     0.044 A 
ATOM     12 CL   UNL d   1      -2.815   3.282   0.204  0.00  0.00    -0.084 Cl
ATOM     13  C   UNL d   1      -2.816   3.099  -2.461  0.00  0.00     0.024 A 
ATOM     14  C   UNL d   1      -2.446   2.578  -3.698  0.00  0.00     0.002 A 
ATOM     15  C   UNL d   1      -1.525   1.537  -3.760  0.00  0.00     0.001 A 
ATOM     16  C   UNL d   1      -0.973   1.024  -2.585  0.00  0.00     0.013 A 
ENDBRANCH   2  10
BRANCH   6  17
ATOM     17  C   UNL d   1       0.119  -2.518   0.180  0.00  0.00     0.032 A 
ATOM     18  C   UNL d   1       1.313  -3.218   0.297  0.00  0.00     0.103 A 
ATOM     19  N   UNL d   1       1.391  -4.570   0.385  0.00  0.00    -0.374 N 
ATOM     20  C   UNL d   1       0.223  -5.246   0.353  0.00  0.00     0.087 A 
ATOM     21  HN  UNL d   1       2.286  -5.051   0.470  1.00  0.00     0.164 HD
ATOM     22  C   UNL d   1      -1.018  -4.636   0.239  0.00  0.00     0.018 A 
ATOM     23  C   UNL d   1      -1.070  -3.246   0.151  0.00  0.00     0.018 A 
ENDBRANCH   6  17
TORSDOF 2
