REMARK  3 active torsions:
REMARK  status: ('A' for Active; 'I' for Inactive)
REMARK    1  A    between atoms: N_5  and  C_1 
REMARK    2  A    between atoms: N_2  and  N_5 
REMARK    3  A    between atoms: C_4  and  N_2 
ROOT
ATOM      1  C   UNL d   1       0.204  -1.245  -3.445  0.00  0.00     0.012 A 
ATOM      2  C   UNL d   1      -0.044  -2.032  -5.648  0.00  0.00    -0.046 A 
ATOM      3  C   UNL d   1      -1.333  -1.914  -5.101  0.00  0.00    -0.046 A 
ATOM      4  C   UNL d   1      -1.293  -1.414  -3.684  0.00  0.00     0.093 A 
ATOM      5  C   UNL d   1       1.016  -1.629  -4.673  0.00  0.00     0.093 A 
ATOM      6  C   UNL d   1       0.151  -2.476  -6.946  0.00  0.00     0.008 A 
ATOM      7  C   UNL d   1      -2.449  -2.244  -5.855  0.00  0.00     0.008 A 
ATOM      8  C   UNL d   1      -2.258  -2.694  -7.166  0.00  0.00     0.001 A 
ATOM      9  C   UNL d   1      -0.969  -2.808  -7.707  0.00  0.00     0.001 A 
ENDROOT
BRANCH   1  10
ATOM     10  N   UNL d   1       0.818  -0.838  -2.377  0.00  0.00    -0.306 N 
ATOM     11  HN  UNL d   1       1.836  -0.777  -2.355  1.00  0.00     0.186 HD
BRANCH  10  12
ATOM     12  N   UNL d   1       0.079  -0.495  -1.287  0.00  0.00    -0.277 N 
ATOM     13  H   UNL d   1      -0.934  -0.540  -1.294  0.00  0.00     0.189 HD
BRANCH  12  14
ATOM     14  C   UNL d   1       0.699  -0.069  -0.141  0.00  0.00     0.184 C 
ATOM     15  S   UNL d   1      -0.142   0.370   1.220  0.00  0.00    -0.040 SA
ATOM     16  N   UNL d   1       2.052  -0.031  -0.193  0.00  0.00    -0.375 N 
ATOM     17  H   UNL d   1       2.488  -0.313  -1.065  0.00  0.00     0.158 HD
ATOM     18  H   UNL d   1       2.611   0.268   0.593  0.00  0.00     0.158 HD
ENDBRANCH  12  14
ENDBRANCH  10  12
ENDBRANCH   1  10
TORSDOF 3
