REMARK  5 active torsions:
REMARK  status: ('A' for Active; 'I' for Inactive)
REMARK    1  A    between atoms: N_7  and  S_1 
REMARK    2  A    between atoms: C_8  and  S_1 
REMARK    3  A    between atoms: C_2  and  N_7 
REMARK    4  A    between atoms: C_10  and  C_3 
REMARK    5  A    between atoms: C_14  and  C_6 
ROOT
ATOM      1  C   UNL d   1       0.791  -0.327   2.533  0.00  0.00     0.045 A 
ATOM      2  C   UNL d   1       2.072  -0.709   2.899  0.00  0.00     0.073 A 
ATOM      3  S   UNL d   1       2.045  -1.775   4.226  0.00  0.00    -0.084 SA
ATOM      4  C   UNL d   1      -0.194  -0.873   3.417  0.00  0.00     0.045 A 
ATOM      5  C   UNL d   1       0.345  -1.689   4.397  0.00  0.00     0.017 A 
ENDROOT
BRANCH   1   6
ATOM      6  N   UNL d   1       0.447   0.469   1.410  0.00  0.00    -0.180 NA
ATOM      7  H   UNL d   1       1.161   0.414   0.668  0.00  0.00     0.146 HD
BRANCH   6   8
ATOM      8  S   UNL d   1       0.243   2.152   1.636  0.00  0.00     0.246 S 
ATOM      9  O   UNL d   1       1.062   2.795   0.635  0.00  0.00    -0.206 OA
ATOM     10  O   UNL d   1       0.376   2.478   3.040  0.00  0.00    -0.206 OA
BRANCH   8  11
ATOM     11  C   UNL d   1      -1.455   2.414   1.173  0.00  0.00     0.076 A 
ATOM     12  C   UNL d   1      -2.442   2.411   2.161  0.00  0.00     0.049 A 
ATOM     13  C   UNL d   1      -3.760   2.732   1.821  0.00  0.00     0.041 A 
ATOM     14 CL   UNL d   1      -4.941   2.720   3.082  0.00  0.00    -0.084 Cl
ATOM     15  C   UNL d   1      -4.103   3.069   0.500  0.00  0.00    -0.040 A 
ATOM     16  C   UNL d   1      -3.094   3.079  -0.476  0.00  0.00     0.010 A 
ATOM     17  C   UNL d   1      -5.511   3.429   0.112  0.00  0.00     0.050 C 
ATOM     18  C   UNL d   1      -1.774   2.759  -0.143  0.00  0.00     0.025 A 
ENDBRANCH   8  11
ENDBRANCH   6   8
ENDBRANCH   1   6
BRANCH   2  19
ATOM     19  C   UNL d   1       3.325  -0.331   2.262  0.00  0.00     0.164 C 
ATOM     20  O   UNL d   1       3.341   0.134   1.118  0.00  0.00    -0.292 OA
ATOM     21  C   UNL d   1       4.638  -0.485   3.007  0.00  0.00     0.097 C 
ENDBRANCH   2  19
BRANCH   5  22
ATOM     22  C   UNL d   1      -0.320  -2.487   5.442  0.00  0.00    -0.019 A 
ATOM     23  C   UNL d   1      -1.589  -3.037   5.211  0.00  0.00     0.013 A 
ATOM     24  C   UNL d   1      -2.202  -3.854   6.166  0.00  0.00     0.001 A 
ATOM     25  C   UNL d   1      -1.556  -4.133   7.367  0.00  0.00     0.000 A 
ATOM     26  C   UNL d   1      -0.305  -3.582   7.625  0.00  0.00     0.001 A 
ATOM     27  C   UNL d   1       0.303  -2.759   6.674  0.00  0.00     0.013 A 
ENDBRANCH   5  22
TORSDOF 5
