REMARK  6 active torsions:
REMARK  status: ('A' for Active; 'I' for Inactive)
REMARK    1  A    between atoms: C_13  and  C_3 
REMARK    2  A    between atoms: N_4  and  C_12 
REMARK    3  A    between atoms: C_15  and  C_5 
REMARK    4  A    between atoms: C_6  and  C_8 
REMARK    5  A    between atoms: C_16  and  O_20 
REMARK    6  A    between atoms: O_20  and  C_30 
ROOT
ATOM      1  C   UNL d   1      -0.030  -2.578  -0.082  0.00  0.00    -0.002 A 
ATOM      2  C   UNL d   1       0.521  -3.342   0.956  0.00  0.00     0.017 A 
ATOM      3  C   UNL d   1      -0.774  -3.240  -1.073  0.00  0.00     0.017 A 
ATOM      4  C   UNL d   1      -0.393  -5.376   0.003  0.00  0.00     0.077 A 
ATOM      5  C   UNL d   1      -0.959  -4.628  -1.027  0.00  0.00     0.038 A 
ATOM      6  C   UNL d   1       0.317  -4.723   1.015  0.00  0.00     0.038 A 
ENDROOT
BRANCH   1   7
ATOM      7  C   UNL d   1       0.197  -1.124  -0.091  0.00  0.00     0.084 A 
ATOM      8  N   UNL d   1       1.275  -0.531   0.392  0.00  0.00    -0.349 N 
ATOM      9  C   UNL d   1       1.187   0.844   0.235  0.00  0.00     0.050 A 
ATOM     10  HN  UNL d   1       2.062  -1.017   0.820  1.00  0.00     0.166 HD
ATOM     11  C   UNL d   1      -0.007   1.284  -0.301  0.00  0.00     0.082 A 
ATOM     12  S   UNL d   1      -1.012  -0.046  -0.680  0.00  0.00    -0.081 SA
BRANCH   9  13
ATOM     13  C   UNL d   1       2.281   1.728   0.627  0.00  0.00    -0.009 A 
ATOM     14  C   UNL d   1       2.464   2.980   0.016  0.00  0.00     0.016 A 
ATOM     15  C   UNL d   1       3.526   3.812   0.385  0.00  0.00     0.037 A 
ATOM     16  C   UNL d   1       4.421   3.391   1.374  0.00  0.00     0.102 A 
ATOM     17  C   UNL d   1       4.260   2.146   1.994  0.00  0.00     0.037 A 
ATOM     18  C   UNL d   1       3.192   1.320   1.615  0.00  0.00     0.016 A 
BRANCH  16  19
ATOM     19  N   UNL d   1       5.540   4.263   1.756  0.00  0.00    -0.116 N 
ATOM     20  O   UNL d   1       6.314   3.857   2.635  0.00  0.00    -0.532 OA
ATOM     21  O   UNL d   1       5.644   5.353   1.178  0.00  0.00    -0.532 OA
ENDBRANCH  16  19
ENDBRANCH   9  13
ENDBRANCH   1   7
BRANCH   4  22
ATOM     22  O   UNL d   1      -0.630  -6.734  -0.022  0.00  0.00    -0.294 OA
BRANCH  22  23
ATOM     23  C   UNL d   1       0.349  -7.567   0.500  0.00  0.00     0.147 A 
ATOM     24  N   UNL d   1       1.649  -7.212   0.393  0.00  0.00    -0.346 N 
ATOM     25  C   UNL d   1       2.554  -7.986   1.026  0.00  0.00     0.106 A 
ATOM     26  HN  UNL d   1       1.933  -6.393  -0.144  1.00  0.00     0.167 HD
ATOM     27  C   UNL d   1       2.227  -9.126   1.742  0.00  0.00     0.063 A 
ATOM     28  C   UNL d   1       0.881  -9.515   1.762  0.00  0.00     0.022 A 
ATOM     29  C   UNL d   1      -0.076  -8.726   1.129  0.00  0.00     0.057 A 
BRANCH  27  30
ATOM     30  C   UNL d   1       3.283  -9.882   2.487  0.00  0.00     0.418 C 
ATOM     31  F   UNL d   1       4.520  -9.319   2.398  0.00  0.00    -0.166 F 
ATOM     32  F   UNL d   1       3.011  -9.968   3.819  0.00  0.00    -0.166 F 
ATOM     33  F   UNL d   1       3.420 -11.161   2.049  0.00  0.00    -0.166 F 
ENDBRANCH  27  30
ENDBRANCH  22  23
ENDBRANCH   4  22
TORSDOF 6
