REMARK  4 active torsions:
REMARK  status: ('A' for Active; 'I' for Inactive)
REMARK    1  A    between atoms: C_7  and  C_1 
REMARK    2  A    between atoms: C_2  and  C_10 
REMARK    3  A    between atoms: C_3  and  C_8 
REMARK    4  A    between atoms: C_17  and  C_4 
ROOT
ATOM      1  C   UNL d   1       0.698  -4.784   1.220  0.00  0.00     0.055 C 
ATOM      2  C   UNL d   1       0.584  -5.766   2.140  0.00  0.00     0.034 C 
ATOM      3  C   UNL d   1       0.450  -3.416   1.584  0.00  0.00     0.100 C 
ATOM      4  N   UNL d   1       0.271  -2.305   1.867  0.00  0.00    -0.191 NA
ENDROOT
BRANCH   1   5
ATOM      5  C   UNL d   1       1.090  -5.104  -0.185  0.00  0.00    -0.015 A 
ATOM      6  C   UNL d   1       1.833  -4.183  -0.948  0.00  0.00     0.029 A 
ATOM      7  C   UNL d   1       2.150  -4.426  -2.298  0.00  0.00     0.048 A 
ATOM      8  C   UNL d   1       1.732  -5.626  -2.890  0.00  0.00     0.016 A 
ATOM      9  C   UNL d   1       1.006  -6.555  -2.152  0.00  0.00     0.002 A 
ATOM     10  C   UNL d   1       0.683  -6.293  -0.816  0.00  0.00     0.013 A 
BRANCH   7  11
ATOM     11  C   UNL d   1       2.913  -3.413  -3.117  0.00  0.00     0.417 C 
ATOM     12  F   UNL d   1       3.232  -2.284  -2.426  0.00  0.00    -0.166 F 
ATOM     13  F   UNL d   1       2.215  -2.998  -4.210  0.00  0.00    -0.166 F 
ATOM     14  F   UNL d   1       4.091  -3.907  -3.590  0.00  0.00    -0.166 F 
ENDBRANCH   7  11
ENDBRANCH   1   5
BRANCH   2  15
ATOM     15  C   UNL d   1       0.150  -5.566   3.528  0.00  0.00    -0.035 A 
ATOM     16  C   UNL d   1      -1.213  -5.602   3.842  0.00  0.00     0.012 A 
ATOM     17  C   UNL d   1      -1.637  -5.419   5.160  0.00  0.00     0.017 A 
ATOM     18  C   UNL d   1      -0.705  -5.200   6.186  0.00  0.00     0.048 A 
ATOM     19  C   UNL d   1       0.660  -5.153   5.861  0.00  0.00     0.017 A 
ATOM     20  C   UNL d   1       1.084  -5.336   4.541  0.00  0.00     0.012 A 
BRANCH  18  21
ATOM     21  C   UNL d   1      -1.178  -5.031   7.610  0.00  0.00     0.417 C 
ATOM     22  F   UNL d   1      -0.167  -4.847   8.504  0.00  0.00    -0.166 F 
ATOM     23  F   UNL d   1      -2.013  -3.966   7.763  0.00  0.00    -0.166 F 
ATOM     24  F   UNL d   1      -1.873  -6.116   8.054  0.00  0.00    -0.166 F 
ENDBRANCH  18  21
ENDBRANCH   2  15
TORSDOF 4
