REMARK  5 active torsions:
REMARK  status: ('A' for Active; 'I' for Inactive)
REMARK    1  A    between atoms: C_3  and  C_6 
REMARK    2  A    between atoms: O_14  and  C_3 
REMARK    3  A    between atoms: N_9  and  C_10 
REMARK    4  A    between atoms: C_15  and  N_9 
REMARK    5  A    between atoms: C_16  and  C_15 
ROOT
ATOM      1  C   UNL d   1      -6.447  -3.983   3.373  0.00  0.00     0.037 A 
ATOM      2  C   UNL d   1      -5.175  -4.085   3.947  0.00  0.00     0.019 A 
ATOM      3  C   UNL d   1      -6.587  -3.468   2.080  0.00  0.00     0.019 A 
ATOM      4  C   UNL d   1      -4.177  -3.184   1.915  0.00  0.00    -0.030 A 
ATOM      5  C   UNL d   1      -5.460  -3.081   1.353  0.00  0.00     0.010 A 
ATOM      6  C   UNL d   1      -4.048  -3.690   3.218  0.00  0.00     0.010 A 
ENDROOT
BRANCH   4   7
ATOM      7  C   UNL d   1      -2.959  -2.738   1.135  0.00  0.00     0.308 C 
BRANCH   7   8
ATOM      8  N   UNL d   1      -2.944  -1.282   0.970  0.00  0.00     0.093 N 
ATOM      9  H   UNL d   1      -3.824  -0.994   0.540  0.00  0.00     0.316 HD
BRANCH   8  10
ATOM     10  C   UNL d   1      -1.821  -0.807   0.161  0.00  0.00     0.235 C 
ATOM     11  C   UNL d   1      -0.457  -1.006   0.824  0.00  0.00     0.175 C 
ATOM     12  S   UNL d   1       0.629   0.080  -0.080  0.00  0.00     0.146 S 
ATOM     13  O   UNL d   1       1.190  -0.663  -1.192  0.00  0.00    -0.228 OA
ATOM     14  O   UNL d   1       1.454   0.805   0.859  0.00  0.00    -0.228 OA
ATOM     15  C   UNL d   1      -0.639   1.167  -0.712  0.00  0.00     0.142 C 
ATOM     16  C   UNL d   1      -1.938   0.712  -0.055  0.00  0.00     0.051 C 
ENDBRANCH   8  10
ENDBRANCH   7   8
ENDBRANCH   4   7
BRANCH   1  17
ATOM     17  C   UNL d   1      -7.678  -4.358   4.112  0.00  0.00     0.176 C 
ATOM     18  O   UNL d   1      -8.740  -3.779   3.967  0.00  0.00    -0.646 OA
BRANCH  17  19
ATOM     19  O   UNL d   1      -7.522  -5.429   4.919  0.00  0.00    -0.773 OA
ATOM     20  H   UNL d   1      -6.681  -5.909   4.806  0.00  0.00     0.167 HD
ENDBRANCH  17  19
ENDBRANCH   1  17
TORSDOF 5
