REMARK  5 active torsions:
REMARK  status: ('A' for Active; 'I' for Inactive)
REMARK    1  A    between atoms: N_4  and  S_1 
REMARK    2  A    between atoms: C_2  and  C_5 
REMARK    3  A    between atoms: C_3  and  N_4 
REMARK    4  A    between atoms: O_12  and  C_7 
REMARK    5  A    between atoms: C_11  and  O_12 
ROOT
ATOM      1  C   UNL d   1       1.010  -2.407   1.716  0.00  0.00     0.076 C 
ATOM      2  C   UNL d   1       0.033  -4.293   2.907  0.00  0.00     0.050 C 
ATOM      3  C   UNL d   1       2.219  -3.106   1.602  0.00  0.00     0.103 C 
ATOM      4  C   UNL d   1      -0.090  -3.024   2.320  0.00  0.00     0.049 C 
ATOM      5  C   UNL d   1       1.283  -4.926   2.902  0.00  0.00     0.019 C 
ATOM      6  C   UNL d   1       2.373  -4.330   2.266  0.00  0.00     0.040 C 
ENDROOT
BRANCH   3   7
ATOM      7  O   UNL d   1       3.232  -2.557   0.839  0.00  0.00    -0.308 OA
BRANCH   7   8
ATOM      8  C   UNL d   1       3.973  -3.410   0.042  0.00  0.00     0.077 A 
ATOM      9  C   UNL d   1       3.448  -4.543  -0.588  0.00  0.00     0.045 A 
ATOM     10  C   UNL d   1       4.283  -5.432  -1.283  0.00  0.00    -0.037 A 
ATOM     11  C   UNL d   1       3.695  -6.713  -1.813  0.00  0.00     0.050 C 
ATOM     12  C   UNL d   1       5.652  -5.124  -1.414  0.00  0.00     0.046 A 
ATOM     13  C   UNL d   1       6.178  -3.946  -0.846  0.00  0.00    -0.037 A 
ATOM     14 CL   UNL d   1       6.685  -6.221  -2.273  0.00  0.00    -0.083 Cl
ATOM     15  C   UNL d   1       5.320  -3.094  -0.126  0.00  0.00     0.045 A 
ATOM     16  C   UNL d   1       7.615  -3.521  -0.994  0.00  0.00     0.050 C 
ENDBRANCH   7   8
ENDBRANCH   3   7
BRANCH   1  17
ATOM     17  N   UNL d   1       0.883  -1.098   1.163  0.00  0.00    -0.282 N 
ATOM     18  H   UNL d   1       0.322  -1.010   0.316  0.00  0.00     0.178 HD
BRANCH  17  19
ATOM     19  S   UNL d   1       0.613   0.191   2.218  0.00  0.00     0.227 S 
ATOM     20  O   UNL d   1      -0.114  -0.264   3.386  0.00  0.00    -0.206 OA
ATOM     21  O   UNL d   1       0.097   1.265   1.398  0.00  0.00    -0.206 OA
ATOM     22  C   UNL d   1       2.267   0.625   2.704  0.00  0.00     0.186 C 
ENDBRANCH  17  19
ENDBRANCH   1  17
BRANCH   2  23
ATOM     23  C   UNL d   1      -1.155  -4.985   3.529  0.00  0.00     0.417 C 
ATOM     24  F   UNL d   1      -2.288  -4.231   3.540  0.00  0.00    -0.166 F 
ATOM     25  F   UNL d   1      -1.477  -6.131   2.868  0.00  0.00    -0.166 F 
ATOM     26  F   UNL d   1      -0.930  -5.350   4.821  0.00  0.00    -0.166 F 
ENDBRANCH   2  23
TORSDOF 5
