REMARK  6 active torsions:
REMARK  status: ('A' for Active; 'I' for Inactive)
REMARK    1  A    between atoms: C_12  and  N_1 
REMARK    2  A    between atoms: C_7  and  C_6 
REMARK    3  A    between atoms: O_23  and  C_9 
REMARK    4  A    between atoms: O_25  and  C_10 
REMARK    5  A    between atoms: O_24  and  C_11 
REMARK    6  A    between atoms: C_26  and  C_17 
ROOT
ATOM      1  N   UNL d   1      -3.072   1.041  -0.063  0.00  0.00    -0.282 N 
ATOM      2  N   UNL d   1      -1.780   1.472  -0.247  0.00  0.00    -0.300 N 
ATOM      3  HN  UNL d   1      -1.480   2.385  -0.589  1.00  0.00     0.187 HD
ATOM      4  C   UNL d   1      -1.018   0.482   0.104  0.00  0.00     0.043 C 
ATOM      5  C   UNL d   1      -1.727  -0.697   0.717  0.00  0.00     0.067 C 
ATOM      6  C   UNL d   1      -3.159  -0.400   0.244  0.00  0.00     0.151 C 
ATOM      7  C   UNL d   1       0.442   0.435   0.009  0.00  0.00    -0.005 A 
ATOM      8  C   UNL d   1      -1.082  -2.056   0.456  0.00  0.00     0.018 C 
ATOM      9  C   UNL d   1       1.024  -0.825  -0.190  0.00  0.00    -0.046 A 
ATOM     10  C   UNL d   1       0.139  -2.014  -0.467  0.00  0.00     0.040 C 
ATOM     11  C   UNL d   1       1.218   1.584   0.148  0.00  0.00     0.014 A 
ATOM     12  C   UNL d   1       2.418  -0.925  -0.222  0.00  0.00     0.008 A 
ATOM     13  C   UNL d   1       2.608   1.467   0.131  0.00  0.00     0.001 A 
ATOM     14  C   UNL d   1       3.205   0.215  -0.043  0.00  0.00     0.001 A 
ENDROOT
BRANCH   6  15
ATOM     15  C   UNL d   1      -3.641  -1.177  -0.971  0.00  0.00    -0.027 A 
ATOM     16  C   UNL d   1      -4.753  -2.027  -0.889  0.00  0.00     0.049 A 
ATOM     17  C   UNL d   1      -5.244  -2.709  -2.015  0.00  0.00     0.104 A 
ATOM     18  C   UNL d   1      -4.586  -2.550  -3.256  0.00  0.00     0.135 A 
ATOM     19  C   UNL d   1      -3.467  -1.696  -3.345  0.00  0.00     0.104 A 
ATOM     20  C   UNL d   1      -3.009  -1.028  -2.210  0.00  0.00     0.049 A 
BRANCH  17  21
ATOM     21  O   UNL d   1      -6.360  -3.502  -1.976  0.00  0.00    -0.353 OA
ATOM     22  C   UNL d   1      -7.094  -3.592  -0.763  0.00  0.00     0.210 C 
ENDBRANCH  17  21
BRANCH  18  23
ATOM     23  O   UNL d   1      -4.985  -3.092  -4.456  0.00  0.00    -0.351 OA
ATOM     24  C   UNL d   1      -5.630  -4.355  -4.438  0.00  0.00     0.210 C 
ENDBRANCH  18  23
BRANCH  19  25
ATOM     25  O   UNL d   1      -2.846  -1.590  -4.570  0.00  0.00    -0.353 OA
ATOM     26  C   UNL d   1      -2.051  -0.425  -4.773  0.00  0.00     0.210 C 
ENDBRANCH  19  25
ENDBRANCH   6  15
BRANCH   1  27
ATOM     27  C   UNL d   1      -4.158   1.903  -0.201  0.00  0.00     0.051 A 
ATOM     28  C   UNL d   1      -3.994   3.213  -0.676  0.00  0.00     0.031 A 
ATOM     29  C   UNL d   1      -5.062   4.121  -0.734  0.00  0.00     0.010 A 
ATOM     30  C   UNL d   1      -6.340   3.751  -0.299  0.00  0.00    -0.055 A 
ATOM     31  C   UNL d   1      -6.534   2.431   0.113  0.00  0.00     0.010 A 
ATOM     32  C   UNL d   1      -5.464   1.529   0.157  0.00  0.00     0.031 A 
BRANCH  30  33
ATOM     33  C   UNL d   1      -7.484   4.744  -0.209  0.00  0.00     0.010 C 
ATOM     34  C   UNL d   1      -7.120   5.924   0.698  0.00  0.00     0.015 C 
ATOM     35  C   UNL d   1      -7.944   5.228  -1.584  0.00  0.00     0.015 C 
ENDBRANCH  30  33
ENDBRANCH   1  27
TORSDOF 6
