REMARK  4 active torsions:
REMARK  status: ('A' for Active; 'I' for Inactive)
REMARK    1  A    between atoms: C_3  and  C_1 
REMARK       I    between atoms: N_5  and  C_3 
REMARK    2  A    between atoms: C_13  and  N_8 
REMARK    3  A    between atoms: C_17  and  C_13 
REMARK    4  A    between atoms: O_27  and  C_15 
ROOT
ATOM      1  C   UNL d   1      -3.835  -0.022   0.096  0.00  0.00     0.270 C 
ATOM      2  N   UNL d   1      -4.637  -1.167  -0.100  0.00  0.00    -0.345 N 
ATOM      3  N   UNL d   1      -6.616  -3.387  -1.229  0.00  0.00     0.094 N 
ATOM      4  O   UNL d   1      -3.448   0.654  -0.862  0.00  0.00    -0.266 OA
ATOM      5  C   UNL d   1      -4.867  -1.515  -1.510  0.00  0.00     0.156 C 
ATOM      6  C   UNL d   1      -6.236  -2.112  -1.848  0.00  0.00     0.292 C 
ATOM      7  C   UNL d   1      -5.982  -2.866   1.231  0.00  0.00     0.050 C 
ATOM      8  C   UNL d   1      -4.623  -2.292   0.833  0.00  0.00     0.128 C 
ATOM      9  C   UNL d   1      -7.028  -3.187   0.158  0.00  0.00     0.274 C 
ENDROOT
BRANCH   1  10
ATOM     10  C   UNL d   1      -3.394   0.350   1.423  0.00  0.00     0.102 C 
ATOM     11  N   UNL d   1      -2.221   1.058   1.584  0.00  0.00    -0.351 N 
ATOM     12  C   UNL d   1      -1.924   1.230   2.911  0.00  0.00     0.043 A 
ATOM     13  H   UNL d   1      -1.644   1.360   0.809  0.00  0.00     0.166 HD
ATOM     14  C   UNL d   1      -0.809   1.815   3.519  0.00  0.00     0.033 A 
ATOM     15  C   UNL d   1      -2.987   0.699   3.634  0.00  0.00    -0.004 A 
ATOM     16  C   UNL d   1      -0.780   1.843   4.920  0.00  0.00     0.039 A 
ATOM     17  C   UNL d   1      -1.827   1.314   5.678  0.00  0.00     0.069 A 
ATOM     18  C   UNL d   1      -2.936   0.743   5.039  0.00  0.00     0.050 A 
ATOM     19  C   UNL d   1      -3.931   0.207   2.690  0.00  0.00     0.049 C 
BRANCH  17  20
ATOM     20  O   UNL d   1      -1.891   1.287   7.045  0.00  0.00    -0.356 OA
ATOM     21  C   UNL d   1      -0.805   1.874   7.751  0.00  0.00     0.210 C 
ENDBRANCH  17  20
ENDBRANCH   1  10
BRANCH   3  22
ATOM     22  C   UNL d   1      -5.699  -4.515  -1.418  0.00  0.00     0.311 C 
BRANCH  22  23
ATOM     23  C   UNL d   1      -5.320  -4.813  -2.855  0.00  0.00    -0.030 A 
ATOM     24  C   UNL d   1      -3.970  -4.779  -3.250  0.00  0.00     0.012 A 
ATOM     25  C   UNL d   1      -3.606  -5.075  -4.564  0.00  0.00     0.043 A 
ATOM     26  C   UNL d   1      -4.589  -5.411  -5.485  0.00  0.00     0.116 A 
ATOM     27  C   UNL d   1      -5.928  -5.458  -5.115  0.00  0.00     0.043 A 
ATOM     28  F   UNL d   1      -4.240  -5.697  -6.747  0.00  0.00    -0.206 F 
ATOM     29  C   UNL d   1      -6.295  -5.160  -3.801  0.00  0.00     0.012 A 
ENDBRANCH  22  23
ENDBRANCH   3  22
TORSDOF 4
