REMARK  6 active torsions:
REMARK  status: ('A' for Active; 'I' for Inactive)
REMARK    1  A    between atoms: N_2  and  C_1 
REMARK    2  A    between atoms: N_3  and  C_1 
REMARK    3  A    between atoms: C_13  and  N_2 
REMARK    4  A    between atoms: C_14  and  N_3 
REMARK    5  A    between atoms: C_5  and  C_8 
REMARK    6  A    between atoms: C_6  and  C_7 
ROOT
ATOM      1  C   UNL d   1       1.041   0.068   0.134  0.00  0.00     0.176 C 
ATOM      2  S   UNL d   1       2.680   0.156   0.446  0.00  0.00    -0.041 SA
ENDROOT
BRANCH   1   3
ATOM      3  N   UNL d   1       0.445  -0.308  -1.049  0.00  0.00    -0.333 N 
ATOM      4  H   UNL d   1      -0.353   0.268  -1.295  0.00  0.00     0.168 HD
BRANCH   3   5
ATOM      5  C   UNL d   1       0.900  -1.201  -2.028  0.00  0.00     0.034 A 
ATOM      6  C   UNL d   1       1.641  -2.336  -1.713  0.00  0.00     0.030 A 
ATOM      7  C   UNL d   1       1.963  -3.263  -2.708  0.00  0.00     0.010 A 
ATOM      8  C   UNL d   1       1.571  -3.075  -4.048  0.00  0.00    -0.051 A 
ATOM      9  C   UNL d   1       0.837  -1.917  -4.345  0.00  0.00     0.010 A 
ATOM     10  C   UNL d   1       0.484  -1.004  -3.345  0.00  0.00     0.030 A 
BRANCH   8  11
ATOM     11  C   UNL d   1       1.932  -4.128  -5.109  0.00  0.00    -0.024 C 
ATOM     12  C   UNL d   1       1.448  -3.765  -6.532  0.00  0.00     0.019 C 
ATOM     13  C   UNL d   1       3.464  -4.298  -5.175  0.00  0.00     0.019 C 
ATOM     14  C   UNL d   1       1.284  -5.478  -4.736  0.00  0.00     0.019 C 
ENDBRANCH   8  11
ENDBRANCH   3   5
ENDBRANCH   1   3
BRANCH   1  15
ATOM     15  N   UNL d   1       0.169   0.567   1.071  0.00  0.00    -0.333 N 
ATOM     16  H   UNL d   1       0.590   1.176   1.766  0.00  0.00     0.168 HD
BRANCH  15  17
ATOM     17  C   UNL d   1      -1.142   0.126   1.341  0.00  0.00     0.034 A 
ATOM     18  C   UNL d   1      -1.612  -1.130   0.957  0.00  0.00     0.030 A 
ATOM     19  C   UNL d   1      -2.893  -1.550   1.325  0.00  0.00     0.010 A 
ATOM     20  C   UNL d   1      -3.753  -0.723   2.072  0.00  0.00    -0.051 A 
ATOM     21  C   UNL d   1      -3.262   0.541   2.440  0.00  0.00     0.010 A 
ATOM     22  C   UNL d   1      -1.968   0.951   2.099  0.00  0.00     0.030 A 
BRANCH  20  23
ATOM     23  C   UNL d   1      -5.151  -1.222   2.473  0.00  0.00    -0.024 C 
ATOM     24  C   UNL d   1      -5.973  -0.182   3.267  0.00  0.00     0.019 C 
ATOM     25  C   UNL d   1      -5.964  -1.581   1.211  0.00  0.00     0.019 C 
ATOM     26  C   UNL d   1      -5.020  -2.477   3.364  0.00  0.00     0.019 C 
ENDBRANCH  20  23
ENDBRANCH  15  17
ENDBRANCH   1  15
TORSDOF 6
