REMARK  3 active torsions:
REMARK  status: ('A' for Active; 'I' for Inactive)
REMARK    1  A    between atoms: C_15  and  N_3 
REMARK    2  A    between atoms: C_8  and  C_4 
REMARK       I    between atoms: N_11  and  C_8 
REMARK    3  A    between atoms: C_16  and  N_11 
ROOT
ATOM      1  C   UNL d   1      -2.402   0.519  -0.791  0.00  0.00     0.276 C 
ATOM      2  N   UNL d   1      -3.120  -0.642  -0.579  0.00  0.00    -0.322 N 
ATOM      3  O   UNL d   1      -2.850   1.562  -1.259  0.00  0.00    -0.266 OA
ATOM      4  H   UNL d   1      -2.643  -1.344  -0.021  0.00  0.00     0.169 HD
ENDROOT
BRANCH   1   5
ATOM      5  C   UNL d   1      -1.011   0.426  -0.337  0.00  0.00     0.141 C 
ATOM      6  N   UNL d   1      -0.332  -0.738  -0.256  0.00  0.00    -0.272 N 
ATOM      7  N   UNL d   1       0.930  -0.313   0.044  0.00  0.00    -0.196 N 
ATOM      8  HN  UNL d   1      -0.675  -1.690  -0.385  1.00  0.00     0.189 HD
ATOM      9  N   UNL d   1       1.047   1.002   0.364  0.00  0.00    -0.281 N 
ATOM     10  C   UNL d   1      -0.161   1.484   0.062  0.00  0.00     0.057 C 
ATOM     11  HN  UNL d   1       1.855   1.497   0.741  1.00  0.00     0.189 HD
ATOM     12  C   UNL d   1      -0.448   2.932   0.174  0.00  0.00     0.072 C 
BRANCH   7  13
ATOM     13  C   UNL d   1       2.072  -1.154  -0.041  0.00  0.00     0.074 A 
ATOM     14  C   UNL d   1       1.958  -2.467  -0.514  0.00  0.00     0.033 A 
ATOM     15  C   UNL d   1       3.107  -3.252  -0.665  0.00  0.00     0.002 A 
ATOM     16  C   UNL d   1       4.361  -2.735  -0.335  0.00  0.00     0.000 A 
ATOM     17  C   UNL d   1       4.475  -1.436   0.153  0.00  0.00     0.002 A 
ATOM     18  C   UNL d   1       3.336  -0.643   0.300  0.00  0.00     0.033 A 
ENDBRANCH   7  13
ENDBRANCH   1   5
BRANCH   2  19
ATOM     19  C   UNL d   1      -4.430  -0.923  -1.011  0.00  0.00     0.036 A 
ATOM     20  C   UNL d   1      -5.046  -0.228  -2.062  0.00  0.00     0.044 A 
ATOM     21  C   UNL d   1      -6.312  -0.651  -2.514  0.00  0.00     0.011 A 
ATOM     22  C   UNL d   1      -7.200  -0.281  -3.549  0.00  0.00     0.120 A 
ATOM     23  C   UNL d   1      -6.946  -1.709  -1.875  0.00  0.00     0.059 A 
ATOM     24  N   UNL d   1      -8.306  -1.030  -3.574  0.00  0.00    -0.311 N 
ATOM     25  N   UNL d   1      -8.129  -1.879  -2.545  0.00  0.00    -0.300 N 
ATOM     26  HN  UNL d   1      -9.095  -0.972  -4.217  1.00  0.00     0.186 HD
ATOM     27  H   UNL d   1      -8.850  -2.568  -2.364  0.00  0.00     0.187 HD
ATOM     28  C   UNL d   1      -6.384  -2.386  -0.791  0.00  0.00     0.034 A 
ATOM     29  C   UNL d   1      -5.101  -1.986  -0.391  0.00  0.00     0.032 A 
ENDBRANCH   2  19
TORSDOF 3
