REMARK  3 active torsions:
REMARK  status: ('A' for Active; 'I' for Inactive)
REMARK    1  A    between atoms: N_12  and  C_9 
REMARK    2  A    between atoms: N_15  and  C_10 
REMARK    3  A    between atoms: C_18  and  N_12 
ROOT
ATOM      1  N   UNL d   1      -1.666   0.592  -0.011  0.00  0.00    -0.270 N 
ATOM      2  N   UNL d   1      -0.375  -1.375  -0.030  0.00  0.00    -0.288 N 
ATOM      3  C   UNL d   1      -1.627  -0.793  -0.013  0.00  0.00     0.332 A 
ATOM      4  C   UNL d   1       0.821  -0.622  -0.011  0.00  0.00     0.130 A 
ATOM      5  C   UNL d   1      -0.546   1.413   0.056  0.00  0.00     0.267 A 
ATOM      6  C   UNL d   1       0.767   0.755   0.058  0.00  0.00     0.103 A 
ATOM      7  N   UNL d   1       1.998  -1.305  -0.042  0.00  0.00    -0.328 N 
ATOM      8  HN  UNL d   1       1.989  -2.322  -0.117  1.00  0.00     0.169 HD
ATOM      9  C   UNL d   1       1.968   1.465   0.137  0.00  0.00     0.056 A 
ATOM     10  C   UNL d   1       3.179  -0.653   0.025  0.00  0.00     0.106 A 
ATOM     11  C   UNL d   1       3.163   0.729   0.138  0.00  0.00     0.079 A 
ATOM     12  O   UNL d   1      -2.659  -1.472  -0.002  0.00  0.00    -0.246 OA
ATOM     13  O   UNL d   1      -0.617   2.639   0.127  0.00  0.00    -0.267 OA
ATOM     14  C   UNL d   1      -2.958   1.258  -0.009  0.00  0.00     0.164 C 
ATOM     15  C   UNL d   1      -0.248  -2.825  -0.002  0.00  0.00     0.163 C 
ENDROOT
BRANCH   9  16
ATOM     16  N   UNL d   1       2.025   2.876   0.218  0.00  0.00    -0.355 N 
ATOM     17  H   UNL d   1       1.121   3.327   0.390  0.00  0.00     0.166 HD
BRANCH  16  18
ATOM     18  C   UNL d   1       3.023   3.751  -0.250  0.00  0.00     0.032 A 
ATOM     19  C   UNL d   1       3.796   3.466  -1.385  0.00  0.00     0.029 A 
ATOM     20  C   UNL d   1       4.841   4.306  -1.774  0.00  0.00     0.002 A 
ATOM     21  C   UNL d   1       5.128   5.445  -1.029  0.00  0.00     0.000 A 
ATOM     22  C   UNL d   1       4.359   5.752   0.092  0.00  0.00     0.002 A 
ATOM     23  C   UNL d   1       3.307   4.914   0.473  0.00  0.00     0.029 A 
ENDBRANCH  16  18
ENDBRANCH   9  16
BRANCH  10  24
ATOM     24  N   UNL d   1       4.351  -1.381  -0.011  0.00  0.00    -0.376 N 
ATOM     25  C   UNL d   1       5.691  -0.811   0.051  0.00  0.00     0.150 C 
ATOM     26  C   UNL d   1       4.299  -2.824  -0.210  0.00  0.00     0.150 C 
ENDBRANCH  10  24
TORSDOF 3
