REMARK  6 active torsions:
REMARK  status: ('A' for Active; 'I' for Inactive)
REMARK    1  A    between atoms: C_7  and  C_1 
REMARK    2  A    between atoms: O_15  and  C_7 
REMARK    3  A    between atoms: N_8  and  N_10 
REMARK    4  A    between atoms: C_11  and  C_14 
REMARK    5  A    between atoms: O_16  and  C_13 
REMARK    6  A    between atoms: C_20  and  O_15 
ROOT
ATOM      1  C   UNL d   1      -0.845  -0.444   0.620  0.00  0.00     0.109 C 
ATOM      2  C   UNL d   1      -1.316   0.813   0.293  0.00  0.00     0.153 C 
ATOM      3  N   UNL d   1       0.813   0.701  -0.484  0.00  0.00    -0.302 N 
ATOM      4  HN  UNL d   1       1.702   0.968  -0.906  1.00  0.00     0.186 HD
ATOM      5  N   UNL d   1      -0.338   1.389  -0.463  0.00  0.00    -0.283 N 
ATOM      6  C   UNL d   1       0.514  -0.424   0.184  0.00  0.00     0.042 C 
ATOM      7  N   UNL d   1      -2.478   1.454   0.556  0.00  0.00    -0.284 N 
ATOM      8  C   UNL d   1       1.557  -1.462   0.391  0.00  0.00     0.071 C 
ATOM      9  H   UNL d   1      -0.403   2.267  -0.960  0.00  0.00     0.188 HD
ATOM     10  H   UNL d   1      -3.277   0.889   0.857  0.00  0.00     0.188 HD
ENDROOT
BRANCH   1  11
ATOM     11  C   UNL d   1      -1.552  -1.522   1.286  0.00  0.00     0.299 C 
ATOM     12  O   UNL d   1      -0.994  -2.520   1.721  0.00  0.00    -0.259 OA
BRANCH  11  13
ATOM     13  O   UNL d   1      -2.908  -1.333   1.290  0.00  0.00    -0.318 OA
BRANCH  13  14
ATOM     14  C   UNL d   1      -3.699  -2.475   1.648  0.00  0.00     0.174 C 
ATOM     15  C   UNL d   1      -4.133  -2.386   3.097  0.00  0.00     0.034 C 
ENDBRANCH  13  14
ENDBRANCH  11  13
ENDBRANCH   1  11
BRANCH   7  16
ATOM     16  N   UNL d   1      -2.715   2.797   0.525  0.00  0.00    -0.309 N 
ATOM     17  C   UNL d   1      -1.847   3.560   1.119  0.00  0.00     0.121 C 
ATOM     18  HN  UNL d   1      -3.535   3.184   0.058  1.00  0.00     0.186 HD
BRANCH  17  19
ATOM     19  C   UNL d   1      -2.039   5.017   1.212  0.00  0.00     0.014 A 
ATOM     20  C   UNL d   1      -0.953   5.900   1.255  0.00  0.00     0.079 A 
ATOM     21  C   UNL d   1      -1.182   7.260   1.486  0.00  0.00     0.037 A 
ATOM     22  C   UNL d   1      -2.482   7.740   1.653  0.00  0.00     0.003 A 
ATOM     23  C   UNL d   1      -3.563   6.863   1.590  0.00  0.00     0.001 A 
ATOM     24  C   UNL d   1      -3.345   5.504   1.364  0.00  0.00     0.015 A 
BRANCH  20  25
ATOM     25  O   UNL d   1       0.361   5.528   1.164  0.00  0.00    -0.355 OA
ATOM     26  C   UNL d   1       0.701   4.915  -0.079  0.00  0.00     0.210 C 
ENDBRANCH  20  25
ENDBRANCH  17  19
ENDBRANCH   7  16
TORSDOF 6
