REMARK  4 active torsions:
REMARK  status: ('A' for Active; 'I' for Inactive)
REMARK    1  A    between atoms: C_2  and  C_1 
REMARK    2  A    between atoms: O_10  and  C_1 
REMARK    3  A    between atoms: C_3  and  C_2 
REMARK    4  A    between atoms: C_4  and  C_2 
ROOT
ATOM      1  C   UNL d   1       0.373  -1.312   0.541  0.00  0.00     0.149 C 
ENDROOT
BRANCH   1   2
ATOM      2  C   UNL d   1       1.073  -0.004   0.146  0.00  0.00     0.153 C 
ATOM      3  O   UNL d   1       0.968   1.038   0.777  0.00  0.00    -0.649 OA
BRANCH   2   4
ATOM      4  O   UNL d   1       1.865  -0.092  -0.952  0.00  0.00    -0.776 OA
ATOM      5  H   UNL d   1       1.863  -0.979  -1.364  0.00  0.00     0.167 HD
ENDBRANCH   2   4
ENDBRANCH   1   2
BRANCH   1   6
ATOM      6  C   UNL d   1      -0.446  -1.859  -0.646  0.00  0.00    -0.039 A 
ATOM      7  C   UNL d   1      -0.173  -3.082  -1.285  0.00  0.00     0.010 A 
ATOM      8  C   UNL d   1      -1.009  -3.567  -2.297  0.00  0.00     0.024 A 
ATOM      9  C   UNL d   1      -2.100  -2.813  -2.717  0.00  0.00     0.034 A 
ATOM     10  C   UNL d   1      -2.355  -1.572  -2.143  0.00  0.00     0.024 A 
ATOM     11 CL   UNL d   1      -3.139  -3.424  -3.943  0.00  0.00    -0.084 Cl
ATOM     12  C   UNL d   1      -1.538  -1.101  -1.111  0.00  0.00     0.010 A 
ENDBRANCH   1   6
BRANCH   1  13
ATOM     13  C   UNL d   1       1.301  -2.320   1.238  0.00  0.00    -0.039 A 
ATOM     14  C   UNL d   1       2.666  -2.069   1.466  0.00  0.00     0.010 A 
ATOM     15  C   UNL d   1       3.490  -3.045   2.037  0.00  0.00     0.024 A 
ATOM     16  C   UNL d   1       2.960  -4.280   2.396  0.00  0.00     0.034 A 
ATOM     17  C   UNL d   1       1.601  -4.530   2.242  0.00  0.00     0.024 A 
ATOM     18 CL   UNL d   1       3.990  -5.504   3.026  0.00  0.00    -0.084 Cl
ATOM     19  C   UNL d   1       0.774  -3.546   1.695  0.00  0.00     0.010 A 
ENDBRANCH   1  13
TORSDOF 4
