REMARK  1 active torsions:
REMARK  status: ('A' for Active; 'I' for Inactive)
REMARK    1  A    between atoms: C_10  and  C_4 
ROOT
ATOM      1  C   UNL d   1       2.783  -4.445  -1.117  0.00  0.00    -0.042 A 
ATOM      2  C   UNL d   1       3.824  -4.590  -0.172  0.00  0.00    -0.043 A 
ATOM      3  C   UNL d   1       1.918  -3.330  -1.000  0.00  0.00     0.022 A 
ATOM      4  C   UNL d   1       2.030  -2.394   0.035  0.00  0.00    -0.008 A 
ATOM      5  C   UNL d   1       2.594  -5.414  -2.288  0.00  0.00    -0.020 C 
ATOM      6  C   UNL d   1       4.870  -5.706  -0.259  0.00  0.00    -0.020 C 
ATOM      7  C   UNL d   1       3.886  -3.674   0.901  0.00  0.00     0.009 A 
ATOM      8  C   UNL d   1       3.009  -2.597   1.004  0.00  0.00     0.014 A 
ATOM      9  C   UNL d   1       3.411  -6.712  -2.102  0.00  0.00     0.015 C 
ATOM     10  C   UNL d   1       4.825  -6.454  -1.612  0.00  0.00     0.015 C 
ATOM     11  C   UNL d   1       3.017  -4.695  -3.589  0.00  0.00     0.020 C 
ATOM     12  C   UNL d   1       1.117  -5.854  -2.429  0.00  0.00     0.020 C 
ATOM     13  C   UNL d   1       4.644  -6.699   0.902  0.00  0.00     0.020 C 
ATOM     14  C   UNL d   1       6.301  -5.126  -0.137  0.00  0.00     0.020 C 
ENDROOT
BRANCH   4  15
ATOM     15  C   UNL d   1       1.140  -1.241   0.067  0.00  0.00     0.049 A 
ATOM     16  N   UNL d   1      -0.139  -1.300  -0.468  0.00  0.00    -0.353 N 
ATOM     17  C   UNL d   1      -0.737  -0.136  -0.339  0.00  0.00     0.047 A 
ATOM     18  HN  UNL d   1      -0.555  -2.125  -0.899  1.00  0.00     0.166 HD
ATOM     19  S   UNL d   1       0.201   1.102   0.398  0.00  0.00    -0.087 SA
ATOM     20  C   UNL d   1      -2.125   0.153  -0.786  0.00  0.00     0.076 C 
ATOM     21  C   UNL d   1       1.500  -0.004   0.567  0.00  0.00     0.081 A 
ENDBRANCH   4  15
TORSDOF 1
