REMARK  2 active torsions:
REMARK  status: ('A' for Active; 'I' for Inactive)
REMARK    1  A    between atoms: C_2  and  C_1 
REMARK    2  A    between atoms: C_11  and  C_6 
ROOT
ATOM      1  C   UNL d   1      -3.726  -0.030   0.002  0.00  0.00     0.089 C 
ATOM      2  C   UNL d   1      -4.435   1.119  -0.059  0.00  0.00     0.039 C 
ATOM      3  C   UNL d   1      -2.247  -0.015   0.001  0.00  0.00     0.103 C 
ATOM      4  N   UNL d   1      -1.090  -0.002  -0.011  0.00  0.00    -0.191 NA
ENDROOT
BRANCH   1   5
ATOM      5  C   UNL d   1      -4.510  -1.244   0.030  0.00  0.00     0.127 A 
ATOM      6  N   UNL d   1      -5.828  -1.424  -0.016  0.00  0.00    -0.339 N 
ATOM      7  C   UNL d   1      -6.043  -2.783  -0.007  0.00  0.00     0.060 A 
ATOM      8  HN  UNL d   1      -6.540  -0.696  -0.052  1.00  0.00     0.167 HD
ATOM      9  C   UNL d   1      -7.243  -3.510  -0.054  0.00  0.00     0.032 A 
ATOM     10  C   UNL d   1      -4.835  -3.466   0.051  0.00  0.00     0.060 A 
ATOM     11  C   UNL d   1      -7.180  -4.908  -0.044  0.00  0.00     0.002 A 
ATOM     12  C   UNL d   1      -5.950  -5.568   0.013  0.00  0.00     0.002 A 
ATOM     13  C   UNL d   1      -4.743  -4.859   0.064  0.00  0.00     0.032 A 
ATOM     14  N   UNL d   1      -3.886  -2.473   0.087  0.00  0.00    -0.339 N 
ATOM     15  H   UNL d   1      -2.889  -2.628   0.132  0.00  0.00     0.167 HD
ENDBRANCH   1   5
BRANCH   2  16
ATOM     16  C   UNL d   1      -3.837   2.463  -0.150  0.00  0.00    -0.013 A 
ATOM     17  C   UNL d   1      -3.519   3.238   0.977  0.00  0.00     0.044 A 
ATOM     18 CL   UNL d   1      -3.769   2.650   2.583  0.00  0.00    -0.083 Cl
ATOM     19  C   UNL d   1      -2.984   4.521   0.824  0.00  0.00     0.024 A 
ATOM     20  C   UNL d   1      -2.745   5.035  -0.451  0.00  0.00     0.002 A 
ATOM     21  C   UNL d   1      -3.029   4.262  -1.574  0.00  0.00     0.001 A 
ATOM     22  C   UNL d   1      -3.572   2.983  -1.426  0.00  0.00     0.013 A 
ENDBRANCH   2  16
TORSDOF 2
