REMARK  6 active torsions:
REMARK  status: ('A' for Active; 'I' for Inactive)
REMARK       I    between atoms: C_2  and  N_1 
REMARK    1  A    between atoms: O_9  and  C_2 
REMARK       I    between atoms: C_3  and  N_4 
REMARK    2  A    between atoms: O_8  and  C_3 
REMARK    3  A    between atoms: C_20  and  O_8 
REMARK    4  A    between atoms: C_19  and  O_9 
REMARK    5  A    between atoms: O_18  and  C_21 
REMARK    6  A    between atoms: C_22  and  O_18 
ROOT
ATOM      1  C   UNL d   1       3.279   2.536  -3.820  0.00  0.00     0.368 C 
ATOM      2  N   UNL d   1       2.484   2.780  -2.705  0.00  0.00    -0.328 N 
ATOM      3  O   UNL d   1       3.982   1.533  -3.912  0.00  0.00    -0.238 OA
ATOM      4  C   UNL d   1       1.608   3.937  -2.545  0.00  0.00     0.130 C 
ATOM      5  C   UNL d   1       2.318   1.704  -1.735  0.00  0.00     0.130 C 
ATOM      6  C   UNL d   1       1.659   4.469  -1.110  0.00  0.00     0.053 C 
ATOM      7  C   UNL d   1       2.470   2.238  -0.315  0.00  0.00     0.053 C 
ATOM      8  C   UNL d   1       1.458   3.360  -0.071  0.00  0.00     0.137 C 
ENDROOT
BRANCH   1   9
ATOM      9  O   UNL d   1       3.184   3.523  -4.805  0.00  0.00    -0.261 OA
BRANCH   9  10
ATOM     10  C   UNL d   1       3.848   3.183  -5.994  0.00  0.00     0.081 A 
ATOM     11  C   UNL d   1       3.475   2.042  -6.710  0.00  0.00     0.040 A 
ATOM     12  C   UNL d   1       4.203   1.668  -7.837  0.00  0.00     0.040 A 
ATOM     13  C   UNL d   1       5.307   2.426  -8.235  0.00  0.00     0.076 A 
ATOM     14  C   UNL d   1       5.601   3.629  -7.585  0.00  0.00     0.040 A 
ATOM     15  C   UNL d   1       4.869   4.013  -6.456  0.00  0.00     0.040 A 
BRANCH  13  16
ATOM     16  O   UNL d   1       6.124   2.057  -9.282  0.00  0.00    -0.311 OA
BRANCH  16  17
ATOM     17  C   UNL d   1       6.540   0.742  -9.361  0.00  0.00     0.076 A 
ATOM     18  C   UNL d   1       6.820   0.260 -10.642  0.00  0.00     0.037 A 
ATOM     19  C   UNL d   1       7.229  -1.065 -10.822  0.00  0.00     0.003 A 
ATOM     20  C   UNL d   1       7.362  -1.910  -9.720  0.00  0.00     0.000 A 
ATOM     21  C   UNL d   1       7.119  -1.423  -8.437  0.00  0.00     0.003 A 
ATOM     22  C   UNL d   1       6.731  -0.094  -8.255  0.00  0.00     0.037 A 
ENDBRANCH  16  17
ENDBRANCH  13  16
ENDBRANCH   9  10
ENDBRANCH   1   9
BRANCH   8  23
ATOM     23  O   UNL d   1       0.174   2.716  -0.197  0.00  0.00    -0.298 OA
BRANCH  23  24
ATOM     24  C   UNL d   1      -0.942   3.345   0.219  0.00  0.00     0.372 C 
ATOM     25  N   UNL d   1      -2.035   2.485   0.052  0.00  0.00    -0.264 N 
ATOM     26  C   UNL d   1      -1.992   1.175  -0.384  0.00  0.00     0.192 A 
ATOM     27  C   UNL d   1      -3.365   2.751   0.289  0.00  0.00     0.120 A 
ATOM     28  N   UNL d   1      -3.184   0.624  -0.445  0.00  0.00    -0.360 N 
ATOM     29  C   UNL d   1      -4.045   1.600  -0.028  0.00  0.00     0.106 A 
ATOM     30  HN  UNL d   1      -3.416  -0.325  -0.738  1.00  0.00     0.166 HD
ATOM     31  O   UNL d   1      -1.062   4.474   0.670  0.00  0.00    -0.238 OA
ENDBRANCH  23  24
ENDBRANCH   8  23
TORSDOF 6
