REMARK  1 active torsions:
REMARK  status: ('A' for Active; 'I' for Inactive)
REMARK    1  A    between atoms: C_2  and  N_1 
ROOT
ATOM      1  N   UNL d   1       1.329  -1.692  -1.064  0.00  0.00    -0.222 N 
ATOM      2  C   UNL d   1       0.081  -1.056  -1.087  0.00  0.00     0.145 C 
ATOM      3  N   UNL d   1       2.178  -1.153  -1.989  0.00  0.00    -0.300 N 
ATOM      4  HN  UNL d   1       3.102  -1.490  -2.261  1.00  0.00     0.186 HD
ATOM      5  C   UNL d   1       0.227   0.017  -1.940  0.00  0.00     0.106 C 
ATOM      6  C   UNL d   1       1.526  -0.089  -2.457  0.00  0.00     0.134 C 
ATOM      7  C   UNL d   1      -0.729   1.021  -2.229  0.00  0.00     0.104 C 
ATOM      8  N   UNL d   1      -1.499   1.859  -2.459  0.00  0.00    -0.191 NA
ATOM      9  N   UNL d   1      -0.988  -1.476  -0.362  0.00  0.00    -0.383 N 
ATOM     10  H   UNL d   1      -0.857  -2.184   0.367  0.00  0.00     0.157 HD
ATOM     11  H   UNL d   1      -1.829  -0.915  -0.244  0.00  0.00     0.157 HD
ENDROOT
BRANCH   1  12
ATOM     12  C   UNL d   1       1.780  -2.675  -0.135  0.00  0.00     0.145 A 
ATOM     13  C   UNL d   1       3.048  -3.254  -0.246  0.00  0.00     0.072 A 
ATOM     14  C   UNL d   1       3.486  -3.993   0.840  0.00  0.00     0.138 A 
ATOM     15  C   UNL d   1       4.120  -3.321  -1.164  0.00  0.00     0.126 A 
ATOM     16  N   UNL d   1       4.778  -4.344   0.557  0.00  0.00    -0.281 N 
ATOM     17  N   UNL d   1       2.800  -4.258   1.966  0.00  0.00    -0.337 N 
ATOM     18  C   UNL d   1       5.720  -4.931   1.477  0.00  0.00     0.179 C 
ATOM     19  N   UNL d   1       5.171  -4.000  -0.689  0.00  0.00    -0.307 N 
ATOM     20  HN  UNL d   1       6.055  -4.207  -1.154  1.00  0.00     0.186 HD
ATOM     21  C   UNL d   1       1.567  -3.732   1.933  0.00  0.00     0.183 A 
ATOM     22  HN  UNL d   1       3.173  -4.795   2.750  1.00  0.00     0.168 HD
ATOM     23  N   UNL d   1       1.018  -2.970   0.966  0.00  0.00    -0.336 N 
ATOM     24  HN  UNL d   1       0.063  -2.623   1.051  1.00  0.00     0.168 HD
ENDBRANCH   1  12
TORSDOF 1
