REMARK  6 active torsions:
REMARK  status: ('A' for Active; 'I' for Inactive)
REMARK    1  A    between atoms: C_2  and  S_1 
REMARK    2  A    between atoms: N_11  and  S_1 
REMARK    3  A    between atoms: N_10  and  C_18 
REMARK    4  A    between atoms: C_22  and  N_11 
REMARK    5  A    between atoms: C_18  and  C_19 
REMARK    6  A    between atoms: C_19  and  C_22 
ROOT
ATOM      1  S   UNL d   1       0.885  -0.096  -0.020  0.00  0.00     0.242 S 
ATOM      2  O   UNL d   1       0.486  -1.093  -0.993  0.00  0.00    -0.206 OA
ATOM      3  O   UNL d   1       0.558  -0.269   1.372  0.00  0.00    -0.206 OA
ENDROOT
BRANCH   1   4
ATOM      4  C   UNL d   1       0.347   1.522  -0.659  0.00  0.00     0.087 A 
ATOM      5  C   UNL d   1       0.708   1.883  -1.999  0.00  0.00    -0.032 A 
ATOM      6  C   UNL d   1       0.323   3.158  -2.507  0.00  0.00    -0.048 A 
ATOM      7  C   UNL d   1       1.482   0.982  -2.941  0.00  0.00     0.050 C 
ATOM      8  C   UNL d   1       0.675   3.595  -3.920  0.00  0.00     0.049 C 
ATOM      9  C   UNL d   1      -0.421   4.056  -1.701  0.00  0.00    -0.049 A 
ATOM     10  C   UNL d   1      -0.758   3.704  -0.372  0.00  0.00    -0.048 A 
ATOM     11  C   UNL d   1      -0.873   5.374  -2.304  0.00  0.00     0.049 C 
ATOM     12  C   UNL d   1      -0.431   2.411   0.140  0.00  0.00    -0.032 A 
ATOM     13  C   UNL d   1      -1.490   4.726   0.480  0.00  0.00     0.049 C 
ATOM     14  C   UNL d   1      -0.943   2.079   1.524  0.00  0.00     0.050 C 
ENDBRANCH   1   4
BRANCH   1  15
ATOM     15  N   UNL d   1       2.585   0.037  -0.066  0.00  0.00    -0.215 NA
ATOM     16  H   UNL d   1       2.913   0.457  -0.933  0.00  0.00     0.139 HD
BRANCH  15  17
ATOM     17  C   UNL d   1       3.183   0.663   1.129  0.00  0.00     0.106 C 
BRANCH  17  18
ATOM     18  C   UNL d   1       4.701   0.649   0.999  0.00  0.00     0.045 C 
BRANCH  18  19
ATOM     19  C   UNL d   1       5.323   1.205   2.283  0.00  0.00     0.273 C 
BRANCH  19  20
ATOM     20  N   UNL d   1       6.793   1.238   2.272  0.00  0.00     0.092 N 
ATOM     21  C   UNL d   1       7.415  -0.102   2.141  0.00  0.00     0.298 C 
ATOM     22  C   UNL d   1       7.214  -0.997   3.373  0.00  0.00     0.198 C 
ATOM     23  O   UNL d   1       7.726  -0.370   4.557  0.00  0.00    -0.388 OA
ATOM     24  C   UNL d   1       7.128   0.914   4.766  0.00  0.00     0.198 C 
ATOM     25  C   UNL d   1       7.303   1.830   3.536  0.00  0.00     0.298 C 
ENDBRANCH  19  20
ENDBRANCH  18  19
ENDBRANCH  17  18
ENDBRANCH  15  17
ENDBRANCH   1  15
TORSDOF 6
