REMARK  4 active torsions:
REMARK  status: ('A' for Active; 'I' for Inactive)
REMARK    1  A    between atoms: C_2  and  N_1 
REMARK    2  A    between atoms: C_10  and  C_3 
REMARK    3  A    between atoms: C_6  and  S_9 
REMARK    4  A    between atoms: S_9  and  C_10 
ROOT
ATOM      1  C   UNL d   1       0.495  -0.018   2.411  0.00  0.00     0.110 A 
ATOM      2  C   UNL d   1       0.620   1.290   1.907  0.00  0.00    -0.015 A 
ATOM      3  C   UNL d   1      -0.757  -0.606   2.653  0.00  0.00     0.037 A 
ATOM      4  C   UNL d   1      -0.571   1.982   1.617  0.00  0.00     0.010 A 
ATOM      5  C   UNL d   1      -1.917   0.117   2.382  0.00  0.00     0.002 A 
ATOM      6  C   UNL d   1      -1.822   1.405   1.857  0.00  0.00     0.001 A 
ENDROOT
BRANCH   2   7
ATOM      7  C   UNL d   1       1.940   1.979   1.653  0.00  0.00     0.122 C 
BRANCH   7   8
ATOM      8  S   UNL d   1       2.545   1.708  -0.042  0.00  0.00    -0.108 SA
BRANCH   8   9
ATOM      9  C   UNL d   1       4.123   2.540   0.069  0.00  0.00     0.069 A 
ATOM     10  N   UNL d   1       4.394   3.248   1.188  0.00  0.00    -0.361 N 
ATOM     11  C   UNL d   1       5.611   3.829   1.280  0.00  0.00     0.089 A 
ATOM     12  HN  UNL d   1       3.705   3.341   1.935  1.00  0.00     0.165 HD
ATOM     13  C   UNL d   1       6.580   3.744   0.297  0.00  0.00     0.017 A 
ATOM     14  C   UNL d   1       6.278   3.035  -0.857  0.00  0.00     0.004 A 
ATOM     15  C   UNL d   1       5.030   2.425  -0.979  0.00  0.00     0.037 A 
ENDBRANCH   8   9
ENDBRANCH   7   8
ENDBRANCH   2   7
BRANCH   1  16
ATOM     16  N   UNL d   1       1.663  -0.825   2.724  0.00  0.00    -0.115 N 
ATOM     17  O   UNL d   1       2.423  -0.407   3.609  0.00  0.00    -0.532 OA
ATOM     18  O   UNL d   1       1.782  -1.901   2.124  0.00  0.00    -0.532 OA
ENDBRANCH   1  16
TORSDOF 4
