REMARK  6 active torsions:
REMARK  status: ('A' for Active; 'I' for Inactive)
REMARK    1  A    between atoms: C_3  and  C_1 
REMARK       I    between atoms: N_4  and  C_3 
REMARK    2  A    between atoms: C_8  and  N_4 
REMARK    3  A    between atoms: C_9  and  N_4 
REMARK    4  A    between atoms: C_18  and  C_8 
REMARK    5  A    between atoms: C_17  and  C_9 
REMARK    6  A    between atoms: O_21  and  C_19 
ROOT
ATOM      1  C   UNL d   1      -3.668  -0.253   0.073  0.00  0.00     0.271 C 
ATOM      2  N   UNL d   1      -4.505  -1.318  -0.314  0.00  0.00    -0.336 N 
ATOM      3  O   UNL d   1      -4.149   0.829   0.408  0.00  0.00    -0.266 OA
ENDROOT
BRANCH   2   4
ATOM      4  C   UNL d   1      -5.941  -1.011  -0.354  0.00  0.00     0.183 C 
BRANCH   4   5
ATOM      5  C   UNL d   1      -6.792  -1.954  -1.177  0.00  0.00     0.027 A 
ATOM      6  N   UNL d   1      -7.656  -2.761  -0.502  0.00  0.00    -0.368 N 
ATOM      7  C   UNL d   1      -8.429  -3.594  -1.232  0.00  0.00     0.088 A 
ATOM      8  HN  UNL d   1      -7.717  -2.737   0.516  1.00  0.00     0.165 HD
ATOM      9  C   UNL d   1      -8.372  -3.687  -2.611  0.00  0.00     0.017 A 
ATOM     10  C   UNL d   1      -7.469  -2.873  -3.285  0.00  0.00     0.003 A 
ATOM     11  C   UNL d   1      -6.671  -1.990  -2.562  0.00  0.00     0.027 A 
ENDBRANCH   4   5
ENDBRANCH   2   4
BRANCH   2  12
ATOM     12  C   UNL d   1      -4.131  -2.736  -0.161  0.00  0.00     0.183 C 
BRANCH  12  13
ATOM     13  C   UNL d   1      -3.716  -3.437  -1.453  0.00  0.00     0.027 A 
ATOM     14  N   UNL d   1      -3.164  -2.688  -2.451  0.00  0.00    -0.368 N 
ATOM     15  C   UNL d   1      -2.649  -3.333  -3.524  0.00  0.00     0.088 A 
ATOM     16  HN  UNL d   1      -3.140  -1.670  -2.390  1.00  0.00     0.165 HD
ATOM     17  C   UNL d   1      -2.634  -4.707  -3.654  0.00  0.00     0.017 A 
ATOM     18  C   UNL d   1      -3.206  -5.464  -2.638  0.00  0.00     0.003 A 
ATOM     19  C   UNL d   1      -3.753  -4.827  -1.525  0.00  0.00     0.027 A 
ENDBRANCH  12  13
ENDBRANCH   2  12
BRANCH   1  20
ATOM     20  C   UNL d   1      -2.228  -0.448   0.067  0.00  0.00     0.102 C 
ATOM     21  N   UNL d   1      -1.552  -1.264  -0.802  0.00  0.00    -0.351 N 
ATOM     22  C   UNL d   1      -0.224  -1.350  -0.491  0.00  0.00     0.043 A 
ATOM     23  H   UNL d   1      -1.996  -1.772  -1.557  0.00  0.00     0.166 HD
ATOM     24  C   UNL d   1       0.762  -2.188  -1.011  0.00  0.00     0.033 A 
ATOM     25  C   UNL d   1       0.022  -0.378   0.471  0.00  0.00    -0.004 A 
ATOM     26  C   UNL d   1       2.068  -2.003  -0.551  0.00  0.00     0.039 A 
ATOM     27  C   UNL d   1       2.373  -1.002   0.372  0.00  0.00     0.069 A 
ATOM     28  C   UNL d   1       1.352  -0.187   0.894  0.00  0.00     0.050 A 
ATOM     29  C   UNL d   1      -1.242   0.200   0.800  0.00  0.00     0.049 C 
BRANCH  27  30
ATOM     30  O   UNL d   1       3.628  -0.723   0.848  0.00  0.00    -0.356 OA
ATOM     31  C   UNL d   1       4.698  -1.492   0.309  0.00  0.00     0.210 C 
ENDBRANCH  27  30
ENDBRANCH   1  20
TORSDOF 6
