REMARK  5 active torsions:
REMARK  status: ('A' for Active; 'I' for Inactive)
REMARK    1  A    between atoms: C_13  and  C_3 
REMARK    2  A    between atoms: C_12  and  C_4 
REMARK    3  A    between atoms: C_10  and  C_5 
REMARK    4  A    between atoms: C_9  and  C_6 
REMARK    5  A    between atoms: O_11  and  N_7 
ROOT
ATOM      1  N   UNL d   1       1.848   0.517  -0.480  0.00  0.00     0.102 NA
ATOM      2  C   UNL d   1      -0.695  -0.457   0.468  0.00  0.00     0.023 C 
ATOM      3  C   UNL d   1       0.425  -1.482   0.281  0.00  0.00     0.071 C 
ATOM      4  C   UNL d   1      -0.250   0.968   0.809  0.00  0.00     0.071 C 
ATOM      5  C   UNL d   1       0.694   1.434  -0.327  0.00  0.00     0.264 C 
ATOM      6  C   UNL d   1       1.528  -0.918  -0.658  0.00  0.00     0.264 C 
ATOM      7  N   UNL d   1      -1.932  -0.847   0.399  0.00  0.00    -0.277 N 
ATOM      8  HN  UNL d   1      -2.210  -1.795   0.146  1.00  0.00     0.193 HD
ATOM      9  H   UNL d   1       2.446   0.615   0.338  0.00  0.00     0.317 HD
ENDROOT
BRANCH   5  10
ATOM     10  C   UNL d   1       0.031   1.812  -1.658  0.00  0.00    -0.025 A 
ATOM     11  C   UNL d   1      -1.362   1.861  -1.841  0.00  0.00     0.009 A 
ATOM     12  C   UNL d   1      -1.929   2.141  -3.090  0.00  0.00     0.001 A 
ATOM     13  C   UNL d   1      -1.113   2.422  -4.179  0.00  0.00     0.000 A 
ATOM     14  C   UNL d   1       0.267   2.445  -4.010  0.00  0.00     0.001 A 
ATOM     15  C   UNL d   1       0.831   2.153  -2.764  0.00  0.00     0.009 A 
ENDBRANCH   5  10
BRANCH   4  16
ATOM     16  C   UNL d   1       0.417   1.036   2.200  0.00  0.00     0.008 C 
ATOM     17  C   UNL d   1      -0.543   0.675   3.326  0.00  0.00     0.006 C 
ENDBRANCH   4  16
BRANCH   6  18
ATOM     18  C   UNL d   1       1.487  -1.297  -2.134  0.00  0.00    -0.025 A 
ATOM     19  C   UNL d   1       0.342  -1.148  -2.925  0.00  0.00     0.009 A 
ATOM     20  C   UNL d   1       0.379  -1.398  -4.300  0.00  0.00     0.001 A 
ATOM     21  C   UNL d   1       1.550  -1.851  -4.899  0.00  0.00     0.000 A 
ATOM     22  C   UNL d   1       2.686  -2.060  -4.123  0.00  0.00     0.001 A 
ATOM     23  C   UNL d   1       2.657  -1.775  -2.756  0.00  0.00     0.009 A 
ENDBRANCH   6  18
BRANCH   3  24
ATOM     24  C   UNL d   1      -0.028  -2.909  -0.093  0.00  0.00     0.008 C 
ATOM     25  C   UNL d   1      -0.792  -3.631   1.014  0.00  0.00     0.006 C 
ENDBRANCH   3  24
BRANCH   7  26
ATOM     26  O   UNL d   1      -2.840   0.167   0.706  0.00  0.00    -0.290 OA
ATOM     27  H   UNL d   1      -3.699  -0.271   0.555  0.00  0.00     0.244 HD
ENDBRANCH   7  26
TORSDOF 5
