REMARK  3 active torsions:
REMARK  status: ('A' for Active; 'I' for Inactive)
REMARK    1  A    between atoms: C_5  and  N_2 
REMARK    2  A    between atoms: C_10  and  C_3 
REMARK    3  A    between atoms: C_12  and  N_7 
ROOT
ATOM      1  C   UNL d   1       1.019  -0.722   0.171  0.00  0.00     0.156 C 
ATOM      2  N   UNL d   1       0.995   0.703   0.141  0.00  0.00    -0.294 N 
ATOM      3  C   UNL d   1      -0.341   1.249   0.245  0.00  0.00     0.033 C 
ATOM      4  S   UNL d   1      -0.599  -1.281   0.707  0.00  0.00    -0.063 SA
ATOM      5  C   UNL d   1      -1.260   0.292   0.503  0.00  0.00     0.079 C 
ATOM      6  N   UNL d   1       2.000  -1.529  -0.137  0.00  0.00    -0.336 N 
ATOM      7  HN  UNL d   1       2.894  -1.113  -0.400  1.00  0.00     0.168 HD
ENDROOT
BRANCH   2   8
ATOM      8  C   UNL d   1       2.230   1.432   0.126  0.00  0.00     0.042 C 
ATOM      9  C   UNL d   1       3.338   1.026  -0.641  0.00  0.00     0.037 C 
ATOM     10  C   UNL d   1       4.541   1.765  -0.697  0.00  0.00    -0.054 C 
ATOM     11  C   UNL d   1       5.727   1.198  -1.429  0.00  0.00     0.049 C 
ATOM     12  C   UNL d   1       4.611   3.011  -0.055  0.00  0.00    -0.056 C 
ATOM     13  C   UNL d   1       3.559   3.387   0.779  0.00  0.00     0.009 C 
ATOM     14  C   UNL d   1       5.792   3.927  -0.212  0.00  0.00     0.049 C 
ATOM     15  C   UNL d   1       2.427   2.575   0.907  0.00  0.00     0.030 C 
ENDBRANCH   2   8
BRANCH   6  16
ATOM     16  C   UNL d   1       1.906  -2.933  -0.129  0.00  0.00     0.034 C 
ATOM     17  C   UNL d   1       0.862  -3.641  -0.732  0.00  0.00     0.036 C 
ATOM     18  C   UNL d   1       0.741  -5.037  -0.613  0.00  0.00    -0.054 C 
ATOM     19  C   UNL d   1      -0.540  -5.685  -1.067  0.00  0.00     0.049 C 
ATOM     20  C   UNL d   1       1.784  -5.767  -0.034  0.00  0.00    -0.056 C 
ATOM     21  C   UNL d   1       2.894  -5.075   0.473  0.00  0.00     0.009 C 
ATOM     22  C   UNL d   1       1.731  -7.268   0.056  0.00  0.00     0.049 C 
ATOM     23  C   UNL d   1       2.941  -3.676   0.444  0.00  0.00     0.030 C 
ENDBRANCH   6  16
BRANCH   3  24
ATOM     24  C   UNL d   1      -0.820   2.712   0.021  0.00  0.00    -0.008 C 
ATOM     25  C   UNL d   1      -0.003   3.546  -0.991  0.00  0.00     0.021 C 
ATOM     26  C   UNL d   1      -2.269   2.774  -0.576  0.00  0.00     0.021 C 
ATOM     27  C   UNL d   1      -0.963   3.421   1.390  0.00  0.00     0.021 C 
ENDBRANCH   3  24
TORSDOF 3
