REMARK  2 active torsions:
REMARK  status: ('A' for Active; 'I' for Inactive)
REMARK    1  A    between atoms: C_7  and  N_1 
REMARK    2  A    between atoms: C_4  and  C_9 
ROOT
ATOM      1  C   UNL d   1       0.199  -1.101  -0.458  0.00  0.00     0.103 A 
ATOM      2  C   UNL d   1      -0.033  -3.515  -0.445  0.00  0.00    -0.006 A 
ATOM      3  C   UNL d   1       0.645  -2.361  -0.032  0.00  0.00     0.049 A 
ATOM      4  C   UNL d   1      -0.916  -0.980  -1.297  0.00  0.00     0.036 A 
ATOM      5  C   UNL d   1      -1.140  -3.388  -1.298  0.00  0.00     0.014 A 
ATOM      6  C   UNL d   1      -1.583  -2.130  -1.718  0.00  0.00     0.003 A 
ENDROOT
BRANCH   2   7
ATOM      7  C   UNL d   1       0.397  -4.833   0.021  0.00  0.00     0.059 A 
ATOM      8  N   UNL d   1       0.237  -5.937  -0.727  0.00  0.00    -0.299 N 
ATOM      9  N   UNL d   1       0.757  -6.927   0.018  0.00  0.00    -0.307 N 
ATOM     10  HN  UNL d   1      -0.185  -6.008  -1.653  1.00  0.00     0.187 HD
ATOM     11  C   UNL d   1       0.806  -8.274  -0.496  0.00  0.00     0.177 C 
ATOM     12  C   UNL d   1       1.211  -6.515   1.234  0.00  0.00     0.112 A 
ATOM     13  C   UNL d   1       1.003  -5.157   1.266  0.00  0.00     0.050 A 
ENDBRANCH   2   7
BRANCH   1  14
ATOM     14  N   UNL d   1       0.910   0.104  -0.014  0.00  0.00    -0.116 N 
ATOM     15  O   UNL d   1       1.884  -0.044   0.738  0.00  0.00    -0.532 OA
ATOM     16  O   UNL d   1       0.493   1.201  -0.413  0.00  0.00    -0.532 OA
ENDBRANCH   1  14
TORSDOF 2
