REMARK  7 active torsions:
REMARK  status: ('A' for Active; 'I' for Inactive)
REMARK    1  A    between atoms: C_4  and  S_1 
REMARK    2  A    between atoms: N_12  and  S_1 
REMARK    3  A    between atoms: C_2  and  C_5 
REMARK    4  A    between atoms: C_3  and  C_6 
REMARK    5  A    between atoms: C_21  and  N_12 
REMARK    6  A    between atoms: C_25  and  C_21 
REMARK    7  A    between atoms: C_22  and  C_25 
ROOT
ATOM      1  C   UNL d   1       0.362  -0.489  -1.561  0.00  0.00     0.081 A 
ATOM      2  C   UNL d   1      -1.041  -0.158  -3.509  0.00  0.00     0.050 A 
ATOM      3  C   UNL d   1       0.327  -2.186  -3.293  0.00  0.00     0.050 A 
ATOM      4  C   UNL d   1       0.787  -1.728  -2.052  0.00  0.00     0.041 A 
ATOM      5  C   UNL d   1      -0.543   0.298  -2.279  0.00  0.00     0.041 A 
ATOM      6  C   UNL d   1      -0.585  -1.391  -4.013  0.00  0.00     0.032 A 
ENDROOT
BRANCH   1   7
ATOM      7  S   UNL d   1       0.995   0.075   0.003  0.00  0.00     0.258 S 
ATOM      8  O   UNL d   1       0.761  -0.983   0.960  0.00  0.00    -0.201 OA
ATOM      9  O   UNL d   1       0.527   1.423   0.222  0.00  0.00    -0.201 OA
BRANCH   7  10
ATOM     10  N   UNL d   1       2.653   0.119  -0.256  0.00  0.00    -0.315 N 
ATOM     11  H   UNL d   1       3.128  -0.710   0.102  0.00  0.00     0.172 HD
BRANCH  10  12
ATOM     12  C   UNL d   1       3.254   0.800  -1.411  0.00  0.00     0.137 C 
BRANCH  12  13
ATOM     13  C   UNL d   1       2.932   2.290  -1.480  0.00  0.00     0.059 C 
BRANCH  13  14
ATOM     14  C   UNL d   1       3.526   2.922  -2.712  0.00  0.00    -0.054 A 
ATOM     15  C   UNL d   1       2.808   2.947  -3.911  0.00  0.00     0.024 A 
ATOM     16  C   UNL d   1       3.395   3.525  -5.024  0.00  0.00     0.088 A 
ATOM     17  N   UNL d   1       4.633   4.063  -5.025  0.00  0.00    -0.375 N 
ATOM     18  C   UNL d   1       5.310   4.027  -3.857  0.00  0.00     0.088 A 
ATOM     19  HN  UNL d   1       5.037   4.475  -5.865  1.00  0.00     0.164 HD
ATOM     20  C   UNL d   1       4.809   3.473  -2.691  0.00  0.00     0.024 A 
ENDBRANCH  13  14
ENDBRANCH  12  13
ENDBRANCH  10  12
ENDBRANCH   7  10
ENDBRANCH   1   7
BRANCH   3  21
ATOM     21  C   UNL d   1       0.792  -3.511  -3.854  0.00  0.00     0.417 C 
ATOM     22  F   UNL d   1       1.651  -4.172  -3.031  0.00  0.00    -0.166 F 
ATOM     23  F   UNL d   1      -0.237  -4.365  -4.093  0.00  0.00    -0.166 F 
ATOM     24  F   UNL d   1       1.447  -3.365  -5.038  0.00  0.00    -0.166 F 
ENDBRANCH   3  21
BRANCH   2  25
ATOM     25  C   UNL d   1      -2.074   0.635  -4.279  0.00  0.00     0.417 C 
ATOM     26  F   UNL d   1      -2.439   1.792  -3.665  0.00  0.00    -0.166 F 
ATOM     27  F   UNL d   1      -1.633   0.989  -5.517  0.00  0.00    -0.166 F 
ATOM     28  F   UNL d   1      -3.221  -0.069  -4.474  0.00  0.00    -0.166 F 
ENDBRANCH   2  25
TORSDOF 7
