REMARK  4 active torsions:
REMARK  status: ('A' for Active; 'I' for Inactive)
REMARK    1  A    between atoms: C_3  and  C_1 
REMARK    2  A    between atoms: C_15  and  N_2 
REMARK    3  A    between atoms: C_17  and  N_6 
REMARK    4  A    between atoms: S_20  and  C_11 
ROOT
ATOM      1  C   UNL d   1      -0.142  -1.518  -0.233  0.00  0.00     0.160 C 
ATOM      2  N   UNL d   1       1.063  -0.860  -0.013  0.00  0.00    -0.274 N 
ATOM      3  N   UNL d   1      -1.079  -0.645  -0.544  0.00  0.00    -0.281 N 
ATOM      4  HN  UNL d   1      -2.024  -0.864  -0.859  1.00  0.00     0.188 HD
ATOM      5  C   UNL d   1       0.710   0.481  -0.043  0.00  0.00     0.165 C 
ATOM      6  N   UNL d   1      -0.558   0.609  -0.369  0.00  0.00    -0.278 N 
ATOM      7  HN  UNL d   1      -1.064   1.488  -0.473  1.00  0.00     0.189 HD
ENDROOT
BRANCH   1   8
ATOM      8  C   UNL d   1      -0.413  -2.975  -0.079  0.00  0.00     0.119 A 
ATOM      9  N   UNL d   1       0.295  -3.767   0.733  0.00  0.00    -0.274 N 
ATOM     10  N   UNL d   1      -0.291  -4.977   0.553  0.00  0.00    -0.196 N 
ATOM     11  HN  UNL d   1       1.080  -3.522   1.336  1.00  0.00     0.189 HD
ATOM     12  N   UNL d   1      -1.296  -5.019  -0.363  0.00  0.00    -0.281 N 
ATOM     13  C   UNL d   1      -1.409  -3.734  -0.728  0.00  0.00     0.056 A 
ATOM     14  HN  UNL d   1      -1.829  -5.825  -0.690  1.00  0.00     0.189 HD
ATOM     15  C   UNL d   1      -2.399  -3.307  -1.741  0.00  0.00     0.072 C 
BRANCH  10  16
ATOM     16  C   UNL d   1       0.132  -6.123   1.273  0.00  0.00     0.074 A 
ATOM     17  C   UNL d   1       1.060  -5.993   2.318  0.00  0.00     0.033 A 
ATOM     18  C   UNL d   1       1.457  -7.118   3.042  0.00  0.00     0.002 A 
ATOM     19  C   UNL d   1       0.949  -8.375   2.715  0.00  0.00     0.000 A 
ATOM     20  C   UNL d   1       0.037  -8.511   1.667  0.00  0.00     0.002 A 
ATOM     21  C   UNL d   1      -0.381  -7.387   0.950  0.00  0.00     0.033 A 
ENDBRANCH  10  16
ENDBRANCH   1   8
BRANCH   2  22
ATOM     22  C   UNL d   1       2.361  -1.446   0.037  0.00  0.00     0.043 A 
ATOM     23  C   UNL d   1       2.656  -2.518  -0.822  0.00  0.00     0.037 A 
ATOM     24  C   UNL d   1       3.917  -3.130  -0.815  0.00  0.00    -0.054 A 
ATOM     25  C   UNL d   1       4.163  -4.304  -1.724  0.00  0.00     0.049 C 
ATOM     26  C   UNL d   1       4.915  -2.636   0.043  0.00  0.00    -0.056 A 
ATOM     27  C   UNL d   1       4.614  -1.561   0.899  0.00  0.00     0.009 A 
ATOM     28  C   UNL d   1       6.289  -3.245   0.072  0.00  0.00     0.049 C 
ATOM     29  C   UNL d   1       3.345  -0.973   0.903  0.00  0.00     0.031 A 
ENDBRANCH   2  22
BRANCH   5  30
ATOM     30  S   UNL d   1       1.780   1.841   0.074  0.00  0.00    -0.105 SA
ATOM     31  H   UNL d   1       2.887   1.283  -0.435  0.00  0.00     0.110 HD
ENDBRANCH   5  30
TORSDOF 4
