REMARK  0 active torsions:
REMARK  status: ('A' for Active; 'I' for Inactive)
ROOT
ATOM      1  C   UNL d   1      -1.086   1.067  -0.009  0.00  0.00     0.189 A 
ATOM      2  C   UNL d   1      -2.068  -0.050   0.016  0.00  0.00    -0.007 A 
ATOM      3  C   UNL d   1      -0.216  -1.689   0.029  0.00  0.00     0.183 A 
ATOM      4  C   UNL d   1       0.352   0.731   0.001  0.00  0.00     0.029 A 
ATOM      5  C   UNL d   1      -1.645  -1.321   0.039  0.00  0.00     0.066 A 
ATOM      6  C   UNL d   1       0.773  -0.598   0.012  0.00  0.00     0.028 A 
ATOM      7  O   UNL d   1      -1.448   2.238  -0.035  0.00  0.00    -0.287 OA
ATOM      8  O   UNL d   1       0.117  -2.867   0.036  0.00  0.00    -0.288 OA
ATOM      9  C   UNL d   1      -3.527   0.292   0.008  0.00  0.00     0.052 C 
ATOM     10  C   UNL d   1       1.302   1.761  -0.000  0.00  0.00     0.016 A 
ATOM     11  C   UNL d   1       2.140  -0.902   0.012  0.00  0.00     0.016 A 
ATOM     12  C   UNL d   1       2.665   1.458   0.007  0.00  0.00     0.001 A 
ATOM     13  C   UNL d   1       3.083   0.128   0.011  0.00  0.00     0.001 A 
ENDROOT
TORSDOF 0
