REMARK  6 active torsions:
REMARK  status: ('A' for Active; 'I' for Inactive)
REMARK       I    between atoms: N_3  and  C_1 
REMARK    1  A    between atoms: C_6  and  C_1 
REMARK    2  A    between atoms: C_2  and  C_7 
REMARK    3  A    between atoms: N_13  and  C_2 
REMARK    4  A    between atoms: C_14  and  N_3 
REMARK    5  A    between atoms: O_17  and  N_4 
REMARK    6  A    between atoms: C_16  and  C_14 
ROOT
ATOM      1  C   UNL d   1      -2.890   1.115  -7.843  0.00  0.00     0.004 A 
ATOM      2  C   UNL d   1      -2.522   2.342  -7.279  0.00  0.00     0.015 A 
ATOM      3  C   UNL d   1      -3.771   1.089  -8.929  0.00  0.00     0.015 A 
ATOM      4  C   UNL d   1      -3.919   3.520  -8.879  0.00  0.00    -0.040 A 
ATOM      5  C   UNL d   1      -3.035   3.536  -7.792  0.00  0.00     0.010 A 
ATOM      6  C   UNL d   1      -4.274   2.287  -9.448  0.00  0.00     0.010 A 
ENDROOT
BRANCH   4   7
ATOM      7  C   UNL d   1      -4.465   4.804  -9.450  0.00  0.00     0.161 C 
BRANCH   7   8
ATOM      8  N   UNL d   1      -3.623   5.303 -10.517  0.00  0.00    -0.353 N 
ATOM      9  C   UNL d   1      -4.115   5.494 -11.789  0.00  0.00     0.251 C 
ATOM     10  O   UNL d   1      -5.272   5.253 -12.107  0.00  0.00    -0.268 OA
ATOM     11  H   UNL d   1      -2.699   5.623 -10.271  0.00  0.00     0.163 HD
BRANCH   9  12
ATOM     12  C   UNL d   1      -3.178   6.055 -12.802  0.00  0.00     0.032 A 
ATOM     13  C   UNL d   1      -1.794   5.846 -12.746  0.00  0.00     0.018 A 
ATOM     14  C   UNL d   1      -0.967   6.376 -13.745  0.00  0.00     0.025 A 
ATOM     15  C   UNL d   1      -1.521   7.108 -14.795  0.00  0.00     0.034 A 
ATOM     16  C   UNL d   1      -2.897   7.314 -14.863  0.00  0.00     0.025 A 
ATOM     17 CL   UNL d   1      -0.501   7.748 -16.023  0.00  0.00    -0.084 Cl
ATOM     18  C   UNL d   1      -3.724   6.784 -13.870  0.00  0.00     0.018 A 
ENDBRANCH   9  12
ENDBRANCH   7   8
ENDBRANCH   4   7
BRANCH   1  19
ATOM     19  C   UNL d   1      -2.327  -0.153  -7.288  0.00  0.00     0.108 C 
ATOM     20  N   UNL d   1      -1.166  -0.111  -6.697  0.00  0.00    -0.258 N 
ATOM     21  HN  UNL d   1      -0.601   0.732  -6.591  1.00  0.00     0.195 HD
BRANCH  20  22
ATOM     22  O   UNL d   1      -0.796  -1.381  -6.223  0.00  0.00    -0.289 OA
ATOM     23  H   UNL d   1       0.118  -1.224  -5.921  0.00  0.00     0.244 HD
ENDBRANCH  20  22
BRANCH  19  24
ATOM     24  N   UNL d   1      -3.047  -1.319  -7.405  0.00  0.00    -0.287 NA
ATOM     25  H   UNL d   1      -4.043  -1.223  -7.245  0.00  0.00     0.125 HD
ATOM     26  H   UNL d   1      -2.632  -2.029  -6.805  0.00  0.00     0.125 HD
ENDBRANCH  19  24
ENDBRANCH   1  19
TORSDOF 6
