REMARK  8 active torsions:
REMARK  status: ('A' for Active; 'I' for Inactive)
REMARK    1  A    between atoms: C_8  and  S_1 
REMARK    2  A    between atoms: C_15  and  S_1 
REMARK    3  A    between atoms: C_5  and  C_2 
REMARK    4  A    between atoms: C_6  and  C_8 
REMARK    5  A    between atoms: N_7  and  C_14 
REMARK    6  A    between atoms: O_19  and  C_13 
REMARK    7  A    between atoms: C_25  and  O_19 
REMARK    8  A    between atoms: O_35  and  C_27 
ROOT
ATOM      1  C   UNL d   1       0.830   3.668  -2.216  0.00  0.00     0.184 A 
ATOM      2  N   UNL d   1       0.787   2.858  -1.178  0.00  0.00    -0.322 N 
ATOM      3  HN  UNL d   1       0.559   3.077  -0.208  1.00  0.00     0.169 HD
ATOM      4  C   UNL d   1       1.125   1.648  -1.725  0.00  0.00     0.118 A 
ATOM      5  N   UNL d   1       1.365   1.682  -3.042  0.00  0.00    -0.246 N 
ATOM      6  HN  UNL d   1       1.617   0.910  -3.659  1.00  0.00     0.196 HD
ATOM      7  O   UNL d   1       1.188   3.034  -3.371  0.00  0.00    -0.217 OA
ENDROOT
BRANCH   1   8
ATOM      8  C   UNL d   1       0.676   5.117  -2.234  0.00  0.00     0.053 A 
ATOM      9  C   UNL d   1       0.969   5.799  -1.033  0.00  0.00     0.054 A 
ATOM     10  C   UNL d   1       0.837   7.190  -0.946  0.00  0.00     0.104 A 
ATOM     11  C   UNL d   1       0.472   7.935  -2.066  0.00  0.00     0.039 A 
ATOM     12  C   UNL d   1       0.205   7.274  -3.264  0.00  0.00     0.041 A 
ATOM     13  C   UNL d   1       0.228   5.865  -3.338  0.00  0.00     0.090 A 
BRANCH  10  14
ATOM     14  N   UNL d   1       1.071   7.867   0.335  0.00  0.00    -0.116 N 
ATOM     15  O   UNL d   1       1.455   7.176   1.288  0.00  0.00    -0.532 OA
ATOM     16  O   UNL d   1       0.861   9.087   0.386  0.00  0.00    -0.532 OA
ENDBRANCH  10  14
BRANCH  13  17
ATOM     17  O   UNL d   1      -0.221   5.209  -4.477  0.00  0.00    -0.310 OA
BRANCH  17  18
ATOM     18  C   UNL d   1      -1.284   5.780  -5.157  0.00  0.00     0.076 A 
ATOM     19  C   UNL d   1      -1.221   5.828  -6.551  0.00  0.00     0.040 A 
ATOM     20  C   UNL d   1      -2.204   6.520  -7.275  0.00  0.00     0.039 A 
ATOM     21  C   UNL d   1      -3.247   7.162  -6.604  0.00  0.00     0.068 A 
ATOM     22  C   UNL d   1      -3.353   7.034  -5.220  0.00  0.00     0.039 A 
ATOM     23  C   UNL d   1      -2.392   6.325  -4.498  0.00  0.00     0.040 A 
BRANCH  21  24
ATOM     24  O   UNL d   1      -4.240   7.895  -7.192  0.00  0.00    -0.356 OA
ATOM     25  C   UNL d   1      -3.883   8.581  -8.386  0.00  0.00     0.210 C 
ENDBRANCH  21  24
ENDBRANCH  17  18
ENDBRANCH  13  17
ENDBRANCH   1   8
BRANCH   4  26
ATOM     26  C   UNL d   1       1.092   0.405  -0.936  0.00  0.00     0.224 C 
BRANCH  26  27
ATOM     27  S   UNL d   1       2.625   0.045  -0.130  0.00  0.00     0.182 S 
ATOM     28  O   UNL d   1       3.685  -0.035  -1.113  0.00  0.00    -0.222 OA
ATOM     29  O   UNL d   1       2.390  -1.083   0.764  0.00  0.00    -0.222 OA
BRANCH  27  30
ATOM     30  C   UNL d   1       2.983   1.441   0.922  0.00  0.00     0.059 A 
ATOM     31  C   UNL d   1       2.515   1.453   2.242  0.00  0.00     0.026 A 
ATOM     32  C   UNL d   1       2.891   2.494   3.094  0.00  0.00     0.044 A 
ATOM     33  C   UNL d   1       3.733   3.498   2.625  0.00  0.00     0.116 A 
ATOM     34  C   UNL d   1       4.204   3.488   1.316  0.00  0.00     0.044 A 
ATOM     35  F   UNL d   1       4.116   4.477   3.454  0.00  0.00    -0.206 F 
ATOM     36  C   UNL d   1       3.837   2.451   0.456  0.00  0.00     0.026 A 
ENDBRANCH  27  30
ENDBRANCH  26  27
ENDBRANCH   4  26
TORSDOF 8
