REMARK  6 active torsions:
REMARK  status: ('A' for Active; 'I' for Inactive)
REMARK    1  A    between atoms: C_2  and  C_1 
REMARK       I    between atoms: N_12  and  C_2 
REMARK    2  A    between atoms: C_5  and  C_18 
REMARK    3  A    between atoms: C_19  and  N_12 
REMARK    4  A    between atoms: S_17  and  C_20 
REMARK    5  A    between atoms: C_18  and  S_17 
REMARK    6  A    between atoms: C_20  and  C_19 
ROOT
ATOM      1  C   UNL d   1       1.808   5.870   0.060  0.00  0.00     0.093 C 
ENDROOT
BRANCH   1   2
ATOM      2  S   UNL d   1       1.365   7.635  -0.091  0.00  0.00    -0.163 SA
BRANCH   2   3
ATOM      3  C   UNL d   1       0.379   7.825   1.428  0.00  0.00     0.114 C 
BRANCH   3   4
ATOM      4  C   UNL d   1      -0.129   9.238   1.589  0.00  0.00    -0.027 A 
ATOM      5  C   UNL d   1      -1.367   9.665   1.076  0.00  0.00     0.042 A 
ATOM      6  C   UNL d   1      -1.802  10.980   1.265  0.00  0.00     0.048 A 
ATOM      7 CL   UNL d   1      -2.411   8.602   0.200  0.00  0.00    -0.084 Cl
ATOM      8  C   UNL d   1      -0.999  11.880   1.958  0.00  0.00     0.035 A 
ATOM      9  C   UNL d   1       0.238  11.484   2.458  0.00  0.00     0.024 A 
ATOM     10 CL   UNL d   1      -1.539  13.496   2.201  0.00  0.00    -0.084 Cl
ATOM     11  C   UNL d   1       0.673  10.171   2.271  0.00  0.00     0.011 A 
ENDBRANCH   3   4
ENDBRANCH   2   3
ENDBRANCH   1   2
BRANCH   1  12
ATOM     12  C   UNL d   1       0.590   4.955  -0.067  0.00  0.00     0.133 C 
BRANCH  12  13
ATOM     13  N   UNL d   1       0.941   3.551  -0.028  0.00  0.00    -0.356 N 
ATOM     14  C   UNL d   1       1.102   2.862   1.156  0.00  0.00     0.258 C 
ATOM     15  O   UNL d   1       1.072   3.440   2.240  0.00  0.00    -0.267 OA
ATOM     16  H   UNL d   1       0.963   3.023  -0.893  0.00  0.00     0.162 HD
BRANCH  14  17
ATOM     17  C   UNL d   1       1.283   1.419   1.026  0.00  0.00     0.072 A 
ATOM     18  S   UNL d   1       1.386   0.644  -0.501  0.00  0.00    -0.097 SA
ATOM     19  C   UNL d   1       1.545  -0.900   0.212  0.00  0.00     0.050 A 
ATOM     20  C   UNL d   1       1.526  -0.838   1.587  0.00  0.00     0.009 A 
ATOM     21  C   UNL d   1       1.379   0.500   2.056  0.00  0.00     0.025 A 
ENDBRANCH  14  17
ENDBRANCH  12  13
ENDBRANCH   1  12
TORSDOF 6
