REMARK  1 active torsions:
REMARK  status: ('A' for Active; 'I' for Inactive)
REMARK    1  A    between atoms: C_4  and  N_1 
ROOT
ATOM      1  N   UNL d   1      -2.386   0.006  -0.271  0.00  0.00    -0.235 N 
ATOM      2  C   UNL d   1      -1.628  -1.123  -0.638  0.00  0.00     0.238 C 
ATOM      3  C   UNL d   1      -1.617   0.966   0.396  0.00  0.00     0.238 C 
ATOM      4  C   UNL d   1      -0.216   0.535   0.122  0.00  0.00     0.100 C 
ATOM      5  C   UNL d   1      -0.428  -0.978   0.238  0.00  0.00     0.100 C 
ATOM      6  C   UNL d   1       0.996  -1.498   0.352  0.00  0.00     0.022 C 
ATOM      7  C   UNL d   1       1.117   0.717   0.856  0.00  0.00     0.022 C 
ATOM      8  C   UNL d   1       2.130   0.438  -0.247  0.00  0.00    -0.025 C 
ATOM      9  C   UNL d   1       1.994  -0.857  -0.594  0.00  0.00    -0.025 C 
ATOM     10  C   UNL d   1       1.353  -0.619   1.593  0.00  0.00     0.018 C 
ATOM     11  O   UNL d   1      -1.864  -2.060  -1.373  0.00  0.00    -0.272 OA
ATOM     12  O   UNL d   1      -1.943   1.969   1.004  0.00  0.00    -0.272 OA
ENDROOT
BRANCH   1  13
ATOM     13  C   UNL d   1      -3.763   0.090  -0.409  0.00  0.00     0.140 A 
ATOM     14  N   UNL d   1      -4.543  -0.941  -0.763  0.00  0.00    -0.244 N 
ATOM     15  O   UNL d   1      -5.848  -0.500  -0.678  0.00  0.00    -0.241 OA
ATOM     16  HN  UNL d   1      -4.233  -1.872  -1.042  1.00  0.00     0.196 HD
ATOM     17  C   UNL d   1      -5.861   0.804  -0.308  0.00  0.00     0.076 A 
ATOM     18  C   UNL d   1      -4.568   1.233  -0.149  0.00  0.00     0.085 A 
ATOM     19  C   UNL d   1      -7.181   1.436  -0.143  0.00  0.00     0.079 C 
ENDBRANCH   1  13
TORSDOF 1
