REMARK  3 active torsions:
REMARK  status: ('A' for Active; 'I' for Inactive)
REMARK    1  A    between atoms: C_2  and  N_1 
REMARK    2  A    between atoms: C_6  and  C_4 
REMARK    3  A    between atoms: S_8  and  C_7 
ROOT
ATOM      1  C   UNL d   1       0.061  -2.734  -2.440  0.00  0.00    -0.035 A 
ATOM      2  C   UNL d   1      -1.442  -4.333  -4.229  0.00  0.00    -0.000 A 
ATOM      3  C   UNL d   1      -0.979  -2.180  -3.197  0.00  0.00     0.013 A 
ATOM      4  C   UNL d   1       0.372  -4.086  -2.626  0.00  0.00     0.013 A 
ATOM      5  C   UNL d   1      -0.376  -4.876  -3.506  0.00  0.00     0.019 A 
ATOM      6  C   UNL d   1      -1.724  -2.973  -4.082  0.00  0.00     0.019 A 
ENDROOT
BRANCH   1   7
ATOM      7  C   UNL d   1       0.811  -1.874  -1.512  0.00  0.00     0.035 C 
ATOM      8  C   UNL d   1       1.349  -2.341  -0.378  0.00  0.00     0.168 C 
BRANCH   8   9
ATOM      9  N   UNL d   1       2.056  -1.454   0.514  0.00  0.00    -0.127 N 
ATOM     10  O   UNL d   1       2.540  -1.982   1.522  0.00  0.00    -0.532 OA
ATOM     11  O   UNL d   1       2.133  -0.252   0.229  0.00  0.00    -0.532 OA
ENDBRANCH   8   9
ENDBRANCH   1   7
BRANCH   2  12
ATOM     12  S   UNL d   1      -2.324  -5.418  -5.340  0.00  0.00    -0.134 SA
ATOM     13  C   UNL d   1      -4.006  -4.745  -5.277  0.00  0.00     0.095 C 
ENDBRANCH   2  12
TORSDOF 3
