REMARK  3 active torsions:
REMARK  status: ('A' for Active; 'I' for Inactive)
REMARK    1  A    between atoms: C_2  and  C_1 
REMARK       I    between atoms: N_5  and  C_1 
REMARK    2  A    between atoms: C_16  and  N_5 
REMARK    3  A    between atoms: C_15  and  C_16 
ROOT
ATOM      1  C   UNL d   1       0.896   1.035   0.399  0.00  0.00     0.251 C 
ATOM      2  N   UNL d   1       0.245   0.033   1.083  0.00  0.00    -0.353 N 
ATOM      3  O   UNL d   1       0.328   1.944  -0.195  0.00  0.00    -0.268 OA
ATOM      4  H   UNL d   1       0.756  -0.761   1.438  0.00  0.00     0.163 HD
ENDROOT
BRANCH   2   5
ATOM      5  C   UNL d   1      -1.200  -0.014   1.204  0.00  0.00     0.161 C 
BRANCH   5   6
ATOM      6  C   UNL d   1      -1.624  -0.011   2.654  0.00  0.00    -0.040 A 
ATOM      7  C   UNL d   1      -1.359   1.113   3.457  0.00  0.00     0.018 A 
ATOM      8  C   UNL d   1      -1.739   1.084   4.789  0.00  0.00    -0.022 A 
ATOM      9  C   UNL d   1      -1.599   2.121   5.835  0.00  0.00     0.068 C 
ATOM     10  C   UNL d   1      -2.399  -0.012   5.318  0.00  0.00     0.075 A 
ATOM     11  C   UNL d   1      -1.946   1.274   7.061  0.00  0.00     0.180 C 
ATOM     12  O   UNL d   1      -2.720   0.124   6.643  0.00  0.00    -0.350 OA
ATOM     13  C   UNL d   1      -2.705  -1.117   4.552  0.00  0.00     0.038 A 
ATOM     14  C   UNL d   1      -2.304  -1.118   3.212  0.00  0.00     0.011 A 
ENDBRANCH   5   6
ENDBRANCH   2   5
BRANCH   1  15
ATOM     15  C   UNL d   1       2.386   0.965   0.381  0.00  0.00     0.033 A 
ATOM     16  C   UNL d   1       3.105   0.430   1.457  0.00  0.00     0.042 A 
ATOM     17  C   UNL d   1       4.504   0.385   1.412  0.00  0.00     0.056 A 
ATOM     18 CL   UNL d   1       5.323  -0.285   2.779  0.00  0.00    -0.083 Cl
ATOM     19  C   UNL d   1       5.189   0.874   0.294  0.00  0.00     0.055 A 
ATOM     20  C   UNL d   1       4.473   1.429  -0.770  0.00  0.00     0.026 A 
ATOM     21 CL   UNL d   1       6.912   0.831   0.171  0.00  0.00    -0.083 Cl
ATOM     22  C   UNL d   1       3.075   1.484  -0.722  0.00  0.00     0.019 A 
ENDBRANCH   1  15
TORSDOF 3
