REMARK  7 active torsions:
REMARK  status: ('A' for Active; 'I' for Inactive)
REMARK    1  A    between atoms: N_2  and  S_1 
REMARK    2  A    between atoms: C_10  and  S_1 
REMARK       I    between atoms: C_6  and  N_2 
REMARK    3  A    between atoms: S_11  and  C_5 
REMARK       I    between atoms: N_7  and  C_6 
REMARK    4  A    between atoms: C_9  and  N_7 
REMARK    5  A    between atoms: S_14  and  C_8 
REMARK    6  A    between atoms: C_20  and  S_11 
REMARK    7  A    between atoms: C_21  and  S_14 
ROOT
ATOM      1  N   UNL d   1       2.834   2.765  -2.397  0.00  0.00    -0.343 N 
ATOM      2  HN  UNL d   1       2.741   3.684  -2.829  1.00  0.00     0.167 HD
ATOM      3  C   UNL d   1       2.284   1.664  -2.969  0.00  0.00     0.102 C 
ATOM      4  C   UNL d   1       3.510   2.605  -1.237  0.00  0.00     0.075 C 
ATOM      5  C   UNL d   1       2.330   0.396  -2.370  0.00  0.00     0.070 C 
ATOM      6  C   UNL d   1       3.128   0.241  -1.238  0.00  0.00     0.035 C 
ATOM      7  C   UNL d   1       3.722   1.358  -0.660  0.00  0.00     0.039 C 
ENDROOT
BRANCH   5   8
ATOM      8  N   UNL d   1       1.610  -0.696  -2.895  0.00  0.00    -0.306 N 
ATOM      9  C   UNL d   1       0.805  -1.577  -2.207  0.00  0.00     0.334 C 
ATOM     10  N   UNL d   1       0.619  -1.378  -0.847  0.00  0.00    -0.232 N 
ATOM     11  O   UNL d   1       0.235  -2.466  -2.831  0.00  0.00    -0.246 OA
ATOM     12  H   UNL d   1       1.045  -0.609  -0.352  0.00  0.00     0.183 HD
ATOM     13  H   UNL d   1       1.351  -0.658  -3.877  0.00  0.00     0.171 HD
BRANCH  10  14
ATOM     14  S   UNL d   1      -0.465  -2.197   0.110  0.00  0.00     0.266 S 
ATOM     15  O   UNL d   1      -1.793  -2.025  -0.434  0.00  0.00    -0.200 OA
ATOM     16  O   UNL d   1      -0.163  -1.787   1.469  0.00  0.00    -0.200 OA
BRANCH  14  17
ATOM     17  C   UNL d   1       0.039  -3.882  -0.051  0.00  0.00     0.080 A 
ATOM     18  C   UNL d   1       1.258  -4.289   0.497  0.00  0.00     0.026 A 
ATOM     19  C   UNL d   1       1.718  -5.581   0.247  0.00  0.00     0.008 A 
ATOM     20  C   UNL d   1       0.961  -6.465  -0.535  0.00  0.00    -0.062 A 
ATOM     21  C   UNL d   1      -0.294  -6.064  -1.014  0.00  0.00     0.008 A 
ATOM     22  C   UNL d   1       1.517  -7.813  -0.889  0.00  0.00     0.048 C 
ATOM     23  C   UNL d   1      -0.760  -4.773  -0.769  0.00  0.00     0.026 A 
ENDBRANCH  14  17
ENDBRANCH  10  14
ENDBRANCH   5   8
BRANCH   3  24
ATOM     24  S   UNL d   1       1.479   1.933  -4.543  0.00  0.00    -0.070 SA
BRANCH  24  25
ATOM     25  C   UNL d   1      -0.200   2.289  -4.058  0.00  0.00     0.007 A 
ATOM     26  C   UNL d   1      -0.508   3.302  -3.144  0.00  0.00     0.019 A 
ATOM     27  C   UNL d   1      -1.837   3.565  -2.802  0.00  0.00     0.001 A 
ATOM     28  C   UNL d   1      -2.868   2.825  -3.380  0.00  0.00     0.000 A 
ATOM     29  C   UNL d   1      -2.571   1.831  -4.310  0.00  0.00     0.001 A 
ATOM     30  C   UNL d   1      -1.243   1.568  -4.652  0.00  0.00     0.019 A 
ENDBRANCH  24  25
ENDBRANCH   3  24
BRANCH   4  31
ATOM     31  S   UNL d   1       3.929   4.049  -0.284  0.00  0.00    -0.073 SA
BRANCH  31  32
ATOM     32  C   UNL d   1       5.068   4.949  -1.309  0.00  0.00     0.007 A 
ATOM     33  C   UNL d   1       4.715   5.431  -2.572  0.00  0.00     0.019 A 
ATOM     34  C   UNL d   1       5.604   6.230  -3.297  0.00  0.00     0.001 A 
ATOM     35  C   UNL d   1       6.847   6.560  -2.760  0.00  0.00     0.000 A 
ATOM     36  C   UNL d   1       7.206   6.090  -1.499  0.00  0.00     0.001 A 
ATOM     37  C   UNL d   1       6.318   5.290  -0.776  0.00  0.00     0.019 A 
ENDBRANCH  31  32
ENDBRANCH   4  31
TORSDOF 7
