REMARK  10 active torsions:
REMARK  status: ('A' for Active; 'I' for Inactive)
REMARK    1  A    between atoms: C_6  and  C_1 
REMARK    2  A    between atoms: C_11  and  C_1 
REMARK    3  A    between atoms: C_7  and  C_2 
REMARK    4  A    between atoms: N_10  and  C_3 
REMARK    5  A    between atoms: C_5  and  N_10 
REMARK    6  A    between atoms: O_15  and  C_6 
REMARK    7  A    between atoms: O_16  and  C_7 
REMARK    8  A    between atoms: C_17  and  C_11 
REMARK    9  A    between atoms: C_18  and  O_15 
REMARK   10  A    between atoms: C_20  and  C_17 
ROOT
ATOM      1  C   UNL d   1       1.062  -0.028  -0.009  0.00  0.00     0.100 C 
ATOM      2  C   UNL d   1       0.377   0.531  -1.026  0.00  0.00     0.111 C 
ENDROOT
BRANCH   2   3
ATOM      3  N   UNL d   1       0.858   1.036  -2.220  0.00  0.00    -0.345 N 
ATOM      4  H   UNL d   1       1.877   0.964  -2.313  0.00  0.00     0.167 HD
BRANCH   3   5
ATOM      5  C   UNL d   1       0.158   1.631  -3.203  0.00  0.00     0.148 A 
ATOM      6  O   UNL d   1      -1.036   2.202  -2.894  0.00  0.00    -0.288 OA
ATOM      7  C   UNL d   1      -1.519   2.797  -4.030  0.00  0.00     0.152 A 
ATOM      8  C   UNL d   1      -0.655   2.540  -5.079  0.00  0.00     0.048 A 
ATOM      9  C   UNL d   1       0.438   1.819  -4.537  0.00  0.00     0.059 A 
BRANCH   7  10
ATOM     10  C   UNL d   1      -2.747   3.554  -3.983  0.00  0.00     0.317 C 
ATOM     11  O   UNL d   1      -3.287   4.085  -4.947  0.00  0.00    -0.257 OA
BRANCH  10  12
ATOM     12  O   UNL d   1      -3.215   3.620  -2.703  0.00  0.00    -0.321 OA
ATOM     13  C   UNL d   1      -4.405   4.390  -2.549  0.00  0.00     0.213 C 
ENDBRANCH  10  12
ENDBRANCH   7  10
ENDBRANCH   3   5
ENDBRANCH   2   3
BRANCH   1  14
ATOM     14  C   UNL d   1       0.339  -0.568   1.169  0.00  0.00     0.298 C 
ATOM     15  O   UNL d   1       0.846  -0.672   2.275  0.00  0.00    -0.259 OA
BRANCH  14  16
ATOM     16  O   UNL d   1      -0.908  -0.997   0.840  0.00  0.00    -0.318 OA
BRANCH  16  17
ATOM     17  C   UNL d   1      -1.654  -1.611   1.907  0.00  0.00     0.174 C 
ATOM     18  C   UNL d   1      -1.323  -3.089   1.993  0.00  0.00     0.034 C 
ENDBRANCH  16  17
ENDBRANCH  14  16
ENDBRANCH   1  14
BRANCH   1  19
ATOM     19  C   UNL d   1       2.559  -0.083  -0.092  0.00  0.00     0.167 C 
ATOM     20  O   UNL d   1       3.171   0.655  -0.872  0.00  0.00    -0.292 OA
BRANCH  19  21
ATOM     21  C   UNL d   1       3.330  -1.107   0.726  0.00  0.00     0.084 C 
BRANCH  21  22
ATOM     22  C   UNL d   1       3.000  -2.550   0.352  0.00  0.00     0.003 C 
ATOM     23  C   UNL d   1       3.341  -2.867  -1.097  0.00  0.00     0.005 C 
ENDBRANCH  21  22
ENDBRANCH  19  21
ENDBRANCH   1  19
TORSDOF 10
