REMARK  3 active torsions:
REMARK  status: ('A' for Active; 'I' for Inactive)
REMARK    1  A    between atoms: N_2  and  C_1 
REMARK    2  A    between atoms: C_5  and  N_2 
REMARK    3  A    between atoms: C_8  and  C_5 
ROOT
ATOM      1  N   UNL d   1       4.257  -1.553   2.385  0.00  0.00    -0.195 NA
ATOM      2  C   UNL d   1       3.940  -1.936   1.331  0.00  0.00     0.084 C 
ATOM      3  C   UNL d   1       3.548  -2.421  -0.013  0.00  0.00     0.201 C 
ENDROOT
BRANCH   3   4
ATOM      4  N   UNL d   1       2.107  -2.273  -0.311  0.00  0.00    -0.272 NA
ATOM      5  H   UNL d   1       1.592  -3.023   0.146  0.00  0.00     0.129 HD
BRANCH   4   6
ATOM      6  C   UNL d   1       1.426  -1.051  -0.172  0.00  0.00     0.017 A 
ATOM      7  C   UNL d   1       0.104  -1.124   0.324  0.00  0.00     0.047 A 
ATOM      8  C   UNL d   1      -0.692   0.013   0.484  0.00  0.00     0.035 A 
ATOM      9 CL   UNL d   1      -2.293  -0.139   1.099  0.00  0.00    -0.084 Cl
ATOM     10  C   UNL d   1      -0.203   1.261   0.143  0.00  0.00     0.024 A 
ATOM     11  C   UNL d   1       1.079   1.358  -0.387  0.00  0.00     0.010 A 
ATOM     12  C   UNL d   1       1.890   0.215  -0.588  0.00  0.00    -0.041 A 
ATOM     13  C   UNL d   1       3.211   0.476  -1.257  0.00  0.00     0.050 C 
ENDBRANCH   4   6
ENDBRANCH   3   4
BRANCH   3  14
ATOM     14  C   UNL d   1       3.937  -3.893  -0.198  0.00  0.00    -0.027 A 
ATOM     15  C   UNL d   1       3.504  -4.896   0.691  0.00  0.00     0.010 A 
ATOM     16  C   UNL d   1       3.914  -6.222   0.526  0.00  0.00     0.001 A 
ATOM     17  C   UNL d   1       4.760  -6.568  -0.524  0.00  0.00     0.000 A 
ATOM     18  C   UNL d   1       5.184  -5.593  -1.424  0.00  0.00     0.001 A 
ATOM     19  C   UNL d   1       4.772  -4.267  -1.268  0.00  0.00     0.010 A 
ENDBRANCH   3  14
TORSDOF 3
