REMARK  5 active torsions:
REMARK  status: ('A' for Active; 'I' for Inactive)
REMARK    1  A    between atoms: C_13  and  O_18 
REMARK    2  A    between atoms: C_20  and  N_14 
REMARK    3  A    between atoms: O_18  and  C_22 
REMARK    4  A    between atoms: C_19  and  C_20 
REMARK    5  A    between atoms: C_22  and  C_19 
ROOT
ATOM      1  C   UNL d   1      -1.012   0.679   0.009  0.00  0.00     0.160 A 
ATOM      2  C   UNL d   1      -0.968  -0.678   0.059  0.00  0.00     0.162 A 
ATOM      3  N   UNL d   1       0.139   1.428  -0.011  0.00  0.00    -0.287 N 
ATOM      4  N   UNL d   1       1.373  -0.626   0.043  0.00  0.00    -0.269 N 
ATOM      5  C   UNL d   1       1.381   0.783   0.014  0.00  0.00     0.332 A 
ATOM      6  C   UNL d   1       0.230  -1.430   0.072  0.00  0.00     0.282 A 
ATOM      7  N   UNL d   1      -2.294   1.138  -0.019  0.00  0.00    -0.174 N 
ATOM      8  HN  UNL d   1      -2.605   2.108  -0.074  1.00  0.00     0.186 HD
ATOM      9  N   UNL d   1      -2.268  -1.078   0.100  0.00  0.00    -0.182 N 
ATOM     10  C   UNL d   1      -3.042   0.056   0.040  0.00  0.00     0.680 A 
ATOM     11  O   UNL d   1       2.433   1.428   0.013  0.00  0.00    -0.246 OA
ATOM     12  O   UNL d   1       0.241  -2.657   0.105  0.00  0.00    -0.265 OA
ATOM     13  N   UNL d   1      -4.384  -0.050   0.021  0.00  0.00    -0.226 N 
ATOM     14  C   UNL d   1       0.108   2.876  -0.020  0.00  0.00     0.163 C 
ATOM     15  C   UNL d   1       2.644  -1.324   0.058  0.00  0.00     0.164 C 
ATOM     16  H   UNL d   1      -2.604  -2.029   0.133  0.00  0.00     0.184 HD
ATOM     17  H   UNL d   1      -4.844  -0.953   0.012  0.00  0.00     0.177 HD
ENDROOT
BRANCH  13  18
ATOM     18  C   UNL d   1      -5.181   1.046  -0.511  0.00  0.00     0.140 C 
BRANCH  18  19
ATOM     19  C   UNL d   1      -4.996   1.177  -2.026  0.00  0.00     0.047 C 
BRANCH  19  20
ATOM     20  C   UNL d   1      -5.932   2.220  -2.627  0.00  0.00     0.180 C 
BRANCH  20  21
ATOM     21  O   UNL d   1      -7.308   1.846  -2.449  0.00  0.00    -0.322 OA
BRANCH  21  22
ATOM     22  C   UNL d   1      -7.808   0.976  -3.369  0.00  0.00     0.254 C 
ATOM     23  O   UNL d   1      -7.182   0.496  -4.306  0.00  0.00    -0.266 OA
ATOM     24  C   UNL d   1      -9.239   0.652  -3.069  0.00  0.00     0.126 C 
ENDBRANCH  21  22
ENDBRANCH  20  21
ENDBRANCH  19  20
ENDBRANCH  18  19
ENDBRANCH  13  18
TORSDOF 5
