REMARK  2 active torsions:
REMARK  status: ('A' for Active; 'I' for Inactive)
REMARK    1  A    between atoms: N_2  and  C_1 
REMARK       I    between atoms: C_7  and  N_2 
REMARK    2  A    between atoms: C_9  and  C_7 
ROOT
ATOM      1  C   UNL d   1       2.765  -0.685   0.971  0.00  0.00     0.143 C 
ATOM      2  C   UNL d   1       4.097  -0.625   0.615  0.00  0.00     0.073 C 
ATOM      3  N   UNL d   1       2.607   0.413   1.806  0.00  0.00    -0.280 N 
ATOM      4  N   UNL d   1       3.768   0.973   2.199  0.00  0.00    -0.307 N 
ATOM      5  HN  UNL d   1       3.916   1.695   2.904  1.00  0.00     0.186 HD
ATOM      6  C   UNL d   1       4.679   0.354   1.445  0.00  0.00     0.130 C 
ATOM      7 BR   UNL d   1       5.117  -1.449  -0.722  0.00  0.00    -0.045 Br
ATOM      8  C   UNL d   1       1.387   1.059   2.226  0.00  0.00     0.179 C 
ENDROOT
BRANCH   1   9
ATOM      9  N   UNL d   1       1.720  -1.537   0.585  0.00  0.00    -0.310 N 
ATOM     10  C   UNL d   1       1.893  -2.886   0.086  0.00  0.00     0.231 C 
ATOM     11  O   UNL d   1       3.013  -3.357  -0.016  0.00  0.00    -0.272 OA
ATOM     12  H   UNL d   1       0.786  -1.240   0.811  0.00  0.00     0.170 HD
BRANCH  10  13
ATOM     13  C   UNL d   1       0.630  -3.696  -0.232  0.00  0.00     0.030 C 
ATOM     14  C   UNL d   1      -0.671  -3.060   0.272  0.00  0.00     0.025 C 
ATOM     15  C   UNL d   1       0.542  -3.883  -1.752  0.00  0.00     0.025 C 
ATOM     16  C   UNL d   1       0.800  -5.066   0.448  0.00  0.00     0.025 C 
ENDBRANCH  10  13
ENDBRANCH   1   9
TORSDOF 2
