REMARK  4 active torsions:
REMARK  status: ('A' for Active; 'I' for Inactive)
REMARK    1  A    between atoms: C_8  and  C_3 
REMARK    2  A    between atoms: C_11  and  C_4 
REMARK    3  A    between atoms: C_12  and  C_9 
REMARK    4  A    between atoms: N_10  and  C_12 
ROOT
ATOM      1  N   UNL d   1       1.071   0.297   0.291  0.00  0.00    -0.319 N 
ATOM      2  HN  UNL d   1       1.788   0.460   0.997  1.00  0.00     0.169 HD
ATOM      3  C   UNL d   1       0.654  -0.849  -0.198  0.00  0.00     0.182 A 
ATOM      4  C   UNL d   1       0.307   1.226  -0.377  0.00  0.00     0.138 A 
ATOM      5  N   UNL d   1      -0.561   0.689  -1.245  0.00  0.00    -0.242 N 
ATOM      6  HN  UNL d   1      -1.225   1.170  -1.852  1.00  0.00     0.196 HD
ATOM      7  O   UNL d   1      -0.343  -0.681  -1.123  0.00  0.00    -0.217 OA
ENDROOT
BRANCH   3   8
ATOM      8  C   UNL d   1       1.089  -2.228   0.059  0.00  0.00     0.025 A 
ATOM      9  C   UNL d   1       1.942  -2.588   1.131  0.00  0.00    -0.016 A 
ATOM     10  C   UNL d   1       2.331  -3.941   1.276  0.00  0.00     0.010 A 
ATOM     11  C   UNL d   1       1.906  -4.921   0.384  0.00  0.00     0.001 A 
ATOM     12  C   UNL d   1       1.073  -4.575  -0.669  0.00  0.00     0.001 A 
ATOM     13  C   UNL d   1       0.667  -3.248  -0.825  0.00  0.00     0.016 A 
BRANCH   9  14
ATOM     14  C   UNL d   1       2.509  -1.604   2.143  0.00  0.00     0.311 C 
BRANCH  14  15
ATOM     15  N   UNL d   1       3.985  -1.534   2.132  0.00  0.00     0.092 N 
ATOM     16  C   UNL d   1       4.468  -0.519   3.079  0.00  0.00     0.273 C 
ATOM     17  C   UNL d   1       4.471   0.792   2.310  0.00  0.00     0.032 C 
ATOM     18  C   UNL d   1       4.712   0.389   0.866  0.00  0.00     0.032 C 
ATOM     19  C   UNL d   1       4.547  -1.123   0.836  0.00  0.00     0.273 C 
ENDBRANCH  14  15
ENDBRANCH   9  14
ENDBRANCH   3   8
BRANCH   4  20
ATOM     20  C   UNL d   1       0.463   2.658  -0.160  0.00  0.00     0.010 A 
ATOM     21  C   UNL d   1       0.005   3.587  -1.107  0.00  0.00     0.017 A 
ATOM     22  C   UNL d   1       0.185   4.958  -0.902  0.00  0.00     0.025 A 
ATOM     23  C   UNL d   1       0.816   5.410   0.256  0.00  0.00     0.034 A 
ATOM     24  C   UNL d   1       1.267   4.502   1.211  0.00  0.00     0.025 A 
ATOM     25 CL   UNL d   1       1.040   7.097   0.504  0.00  0.00    -0.084 Cl
ATOM     26  C   UNL d   1       1.090   3.129   1.003  0.00  0.00     0.017 A 
ENDBRANCH   4  20
TORSDOF 4
