REMARK  6 active torsions:
REMARK  status: ('A' for Active; 'I' for Inactive)
REMARK    1  A    between atoms: N_2  and  C_1 
REMARK    2  A    between atoms: C_3  and  C_1 
REMARK    3  A    between atoms: C_6  and  C_1 
REMARK    4  A    between atoms: O_9  and  C_1 
REMARK       I    between atoms: C_4  and  N_2 
REMARK       I    between atoms: N_5  and  C_4 
REMARK       I    between atoms: C_7  and  N_5 
REMARK    5  A    between atoms: O_15  and  C_6 
REMARK    6  A    between atoms: C_17  and  O_15 
ROOT
ATOM      1  C   UNL d   1       0.839   0.003  -0.337  0.00  0.00     0.326 C 
ENDROOT
BRANCH   1   2
ATOM      2  N   UNL d   1       0.635   1.019   0.706  0.00  0.00    -0.295 N 
ATOM      3  C   UNL d   1       0.741   2.366   0.689  0.00  0.00     0.325 C 
ATOM      4  N   UNL d   1       1.322   2.945  -0.399  0.00  0.00    -0.280 N 
ATOM      5  O   UNL d   1       0.343   2.961   1.685  0.00  0.00    -0.247 OA
ATOM      6  C   UNL d   1       1.509   4.293  -0.635  0.00  0.00     0.221 C 
ATOM      7  H   UNL d   1       1.671   2.374  -1.151  0.00  0.00     0.173 HD
ATOM      8  O   UNL d   1       2.012   4.650  -1.696  0.00  0.00    -0.274 OA
ATOM      9  C   UNL d   1       1.124   5.285   0.434  0.00  0.00     0.117 C 
ATOM     10  H   UNL d   1       0.113   0.706   1.524  0.00  0.00     0.168 HD
ENDBRANCH   1   2
BRANCH   1  11
ATOM     11  C   UNL d   1      -0.085   0.085  -1.593  0.00  0.00     0.448 C 
ATOM     12  F   UNL d   1      -0.905   1.163  -1.534  0.00  0.00    -0.166 F 
ATOM     13  F   UNL d   1       0.645   0.224  -2.728  0.00  0.00    -0.166 F 
ATOM     14  F   UNL d   1      -0.873  -1.000  -1.767  0.00  0.00    -0.166 F 
ENDBRANCH   1  11
BRANCH   1  15
ATOM     15  C   UNL d   1       0.426  -1.329   0.337  0.00  0.00     0.325 C 
ATOM     16  O   UNL d   1      -0.429  -1.395   1.218  0.00  0.00    -0.259 OA
BRANCH  15  17
ATOM     17  O   UNL d   1       1.108  -2.397  -0.160  0.00  0.00    -0.318 OA
BRANCH  17  18
ATOM     18  C   UNL d   1       0.692  -3.689   0.317  0.00  0.00     0.174 C 
ATOM     19  C   UNL d   1       1.286  -3.992   1.680  0.00  0.00     0.034 C 
ENDBRANCH  17  18
ENDBRANCH  15  17
ENDBRANCH   1  15
BRANCH   1  20
ATOM     20  O   UNL d   1       2.219   0.129  -0.651  0.00  0.00    -0.356 OA
ATOM     21  H   UNL d   1       2.633   0.484   0.154  0.00  0.00     0.213 HD
ENDBRANCH   1  20
TORSDOF 6
