REMARK  5 active torsions:
REMARK  status: ('A' for Active; 'I' for Inactive)
REMARK    1  A    between atoms: C_9  and  C_3 
REMARK    2  A    between atoms: O_16  and  C_4 
REMARK    3  A    between atoms: S_15  and  C_5 
REMARK    4  A    between atoms: C_8  and  C_9 
REMARK    5  A    between atoms: C_19  and  S_15 
ROOT
ATOM      1  C   UNL d   1       1.527   5.217   0.985  0.00  0.00    -0.107 C 
ATOM      2  C   UNL d   1       2.120   6.263   1.022  0.00  0.00     0.013 C 
ATOM      3  C   UNL d   1       0.827   3.921   0.918  0.00  0.00     0.175 C 
ENDROOT
BRANCH   3   4
ATOM      4  S   UNL d   1       1.798   2.725  -0.040  0.00  0.00    -0.082 SA
BRANCH   4   5
ATOM      5  C   UNL d   1       0.798   1.275   0.152  0.00  0.00     0.147 A 
ATOM      6  N   UNL d   1      -0.529   1.383   0.201  0.00  0.00    -0.317 N 
ATOM      7  C   UNL d   1      -1.212   0.226   0.199  0.00  0.00     0.150 A 
ATOM      8  HN  UNL d   1      -0.997   2.288   0.237  1.00  0.00     0.170 HD
ATOM      9  C   UNL d   1      -0.651  -1.044   0.142  0.00  0.00     0.019 A 
ATOM     10  C   UNL d   1       0.738  -1.035   0.128  0.00  0.00     0.018 A 
ATOM     11  N   UNL d   1       1.458   0.109   0.137  0.00  0.00    -0.340 N 
ATOM     12  C   UNL d   1       1.567  -2.281   0.041  0.00  0.00     0.069 C 
ATOM     13  HN  UNL d   1       2.478   0.085   0.134  1.00  0.00     0.167 HD
BRANCH   7  14
ATOM     14  O   UNL d   1      -2.564   0.413   0.190  0.00  0.00    -0.346 OA
ATOM     15  H   UNL d   1      -2.947  -0.232   0.809  0.00  0.00     0.219 HD
ENDBRANCH   7  14
BRANCH   9  16
ATOM     16  C   UNL d   1      -1.472  -2.301  -0.036  0.00  0.00     0.088 C 
BRANCH  16  17
ATOM     17  C   UNL d   1      -1.808  -3.114   1.199  0.00  0.00     0.007 A 
ATOM     18  C   UNL d   1      -1.355  -4.426   1.422  0.00  0.00     0.043 A 
ATOM     19 CL   UNL d   1      -0.287  -5.242   0.336  0.00  0.00    -0.084 Cl
ATOM     20  C   UNL d   1      -1.795  -5.167   2.532  0.00  0.00     0.024 A 
ATOM     21  C   UNL d   1      -2.706  -4.622   3.433  0.00  0.00     0.005 A 
ATOM     22  C   UNL d   1      -3.169  -3.328   3.231  0.00  0.00     0.043 A 
ATOM     23  C   UNL d   1      -2.720  -2.597   2.131  0.00  0.00     0.124 A 
ATOM     24  F   UNL d   1      -3.233  -1.372   1.947  0.00  0.00    -0.205 F 
ENDBRANCH  16  17
ENDBRANCH   9  16
ENDBRANCH   4   5
ENDBRANCH   3   4
TORSDOF 5
