REMARK  10 active torsions:
REMARK  status: ('A' for Active; 'I' for Inactive)
REMARK    1  A    between atoms: N_3  and  C_1 
REMARK    2  A    between atoms: N_4  and  C_1 
REMARK    3  A    between atoms: C_2  and  N_3 
REMARK    4  A    between atoms: C_11  and  C_2 
REMARK    5  A    between atoms: C_12  and  C_2 
REMARK    6  A    between atoms: C_13  and  C_2 
REMARK    7  A    between atoms: C_6  and  N_4 
REMARK    8  A    between atoms: O_18  and  C_11 
REMARK    9  A    between atoms: O_16  and  C_12 
REMARK   10  A    between atoms: O_17  and  C_13 
ROOT
ATOM      1  N   UNL d   1       0.614  -0.032   1.072  0.00  0.00    -0.351 N 
ATOM      2  H   UNL d   1      -0.381   0.147   1.155  0.00  0.00     0.163 HD
ENDROOT
BRANCH   1   3
ATOM      3  C   UNL d   1       1.196  -0.619   2.325  0.00  0.00     0.095 C 
BRANCH   3   4
ATOM      4  C   UNL d   1       2.597  -0.024   2.622  0.00  0.00     0.199 C 
BRANCH   4   5
ATOM      5  O   UNL d   1       2.566   1.405   2.521  0.00  0.00    -0.398 OA
ATOM      6  H   UNL d   1       2.503   1.591   1.566  0.00  0.00     0.209 HD
ENDBRANCH   4   5
ENDBRANCH   3   4
BRANCH   3   7
ATOM      7  C   UNL d   1       0.244  -0.202   3.490  0.00  0.00     0.199 C 
BRANCH   7   8
ATOM      8  O   UNL d   1      -0.039   1.201   3.469  0.00  0.00    -0.398 OA
ATOM      9  H   UNL d   1       0.812   1.653   3.283  0.00  0.00     0.209 HD
ENDBRANCH   7   8
ENDBRANCH   3   7
BRANCH   3  10
ATOM     10  C   UNL d   1       1.279  -2.165   2.288  0.00  0.00     0.199 C 
BRANCH  10  11
ATOM     11  O   UNL d   1      -0.003  -2.757   2.068  0.00  0.00    -0.398 OA
ATOM     12  H   UNL d   1      -0.348  -3.065   2.924  0.00  0.00     0.209 HD
ENDBRANCH  10  11
ENDBRANCH   3  10
ENDBRANCH   1   3
BRANCH   1  13
ATOM     13  C   UNL d   1       1.057  -0.009  -0.235  0.00  0.00     0.173 C 
ATOM     14  S   UNL d   1       2.458  -0.726  -0.793  0.00  0.00    -0.041 SA
BRANCH  13  15
ATOM     15  N   UNL d   1       0.224   0.830  -0.969  0.00  0.00    -0.333 N 
ATOM     16  H   UNL d   1      -0.122   1.616  -0.433  0.00  0.00     0.168 HD
BRANCH  15  17
ATOM     17  C   UNL d   1       0.109   0.948  -2.368  0.00  0.00     0.034 A 
ATOM     18  C   UNL d   1       0.200  -0.154  -3.221  0.00  0.00     0.031 A 
ATOM     19  C   UNL d   1       0.047   0.007  -4.601  0.00  0.00     0.020 A 
ATOM     20  C   UNL d   1      -0.200   1.273  -5.128  0.00  0.00     0.006 A 
ATOM     21  C   UNL d   1      -0.316   2.375  -4.283  0.00  0.00     0.020 A 
ATOM     22  I   UNL d   1      -0.408   1.514  -7.181  0.00  0.00    -0.045 I 
ATOM     23  C   UNL d   1      -0.181   2.207  -2.901  0.00  0.00     0.031 A 
ENDBRANCH  15  17
ENDBRANCH  13  15
ENDBRANCH   1  13
TORSDOF 10
