REMARK  6 active torsions:
REMARK  status: ('A' for Active; 'I' for Inactive)
REMARK    1  A    between atoms: C_4  and  N_1 
REMARK    2  A    between atoms: C_2  and  O_6 
REMARK       I    between atoms: N_10  and  C_2 
REMARK    3  A    between atoms: C_3  and  O_11 
REMARK    4  A    between atoms: O_6  and  C_5 
REMARK    5  A    between atoms: C_18  and  N_10 
REMARK    6  A    between atoms: O_11  and  C_19 
ROOT
ATOM      1  C   UNL d   1       1.083  -0.446  -4.171  0.00  0.00     0.370 C 
ATOM      2  N   UNL d   1       0.096  -1.026  -4.939  0.00  0.00    -0.302 N 
ATOM      3  O   UNL d   1       2.245  -0.844  -4.235  0.00  0.00    -0.238 OA
ATOM      4  H   UNL d   1       0.423  -1.854  -5.422  0.00  0.00     0.171 HD
ENDROOT
BRANCH   1   5
ATOM      5  O   UNL d   1       0.637   0.539  -3.304  0.00  0.00    -0.259 OA
BRANCH   5   6
ATOM      6  C   UNL d   1       1.529   1.532  -2.825  0.00  0.00     0.107 A 
ATOM      7  C   UNL d   1       1.616   1.810  -1.442  0.00  0.00     0.064 A 
ATOM      8  C   UNL d   1       2.249   3.025  -1.106  0.00  0.00     0.032 A 
ATOM      9  C   UNL d   1       2.752   3.906  -2.072  0.00  0.00     0.002 A 
ATOM     10  C   UNL d   1       2.673   3.582  -3.420  0.00  0.00     0.003 A 
ATOM     11  C   UNL d   1       2.059   2.394  -3.801  0.00  0.00     0.040 A 
BRANCH   7  12
ATOM     12  N   UNL d   1       1.175   0.979  -0.396  0.00  0.00    -0.374 N 
ATOM     13  C   UNL d   1       0.204   1.596   0.538  0.00  0.00     0.154 C 
ATOM     14  C   UNL d   1       0.054   0.711   1.795  0.00  0.00     0.136 C 
ATOM     15  C   UNL d   1      -0.977   1.288   2.756  0.00  0.00     0.041 C 
ATOM     16  O   UNL d   1      -0.385  -0.609   1.434  0.00  0.00    -0.378 OA
ATOM     17  C   UNL d   1       0.588  -1.249   0.588  0.00  0.00     0.136 C 
ATOM     18  C   UNL d   1       0.868  -0.433  -0.694  0.00  0.00     0.154 C 
ATOM     19  C   UNL d   1       0.012  -2.611   0.214  0.00  0.00     0.041 C 
ENDBRANCH   7  12
ENDBRANCH   5   6
ENDBRANCH   1   5
BRANCH   2  20
ATOM     20  C   UNL d   1      -1.198  -0.562  -5.262  0.00  0.00     0.037 A 
ATOM     21  C   UNL d   1      -1.686   0.695  -4.912  0.00  0.00     0.032 A 
ATOM     22  C   UNL d   1      -2.938   1.118  -5.347  0.00  0.00     0.039 A 
ATOM     23  C   UNL d   1      -3.747   0.317  -6.152  0.00  0.00     0.078 A 
ATOM     24  C   UNL d   1      -3.289  -0.959  -6.476  0.00  0.00     0.039 A 
ATOM     25  C   UNL d   1      -2.021  -1.386  -6.044  0.00  0.00     0.032 A 
BRANCH  23  26
ATOM     26  O   UNL d   1      -4.905   0.916  -6.527  0.00  0.00    -0.255 OA
BRANCH  26  27
ATOM     27  C   UNL d   1      -5.689   0.379  -7.577  0.00  0.00     0.530 C 
ATOM     28  F   UNL d   1      -4.952  -0.232  -8.528  0.00  0.00    -0.144 F 
ATOM     29  F   UNL d   1      -6.594  -0.489  -7.082  0.00  0.00    -0.144 F 
ATOM     30  F   UNL d   1      -6.358   1.397  -8.166  0.00  0.00    -0.144 F 
ENDBRANCH  26  27
ENDBRANCH  23  26
ENDBRANCH   2  20
TORSDOF 6
