REMARK  2 active torsions:
REMARK  status: ('A' for Active; 'I' for Inactive)
REMARK    1  A    between atoms: C_14  and  C_8 
REMARK    2  A    between atoms: C_15  and  C_8 
ROOT
ATOM      1  C   UNL d   1      -0.850  -0.234  -0.003  0.00  0.00     0.280 A 
ATOM      2  C   UNL d   1      -0.629  -1.820  -0.001  0.00  0.00     0.290 A 
ATOM      3  C   UNL d   1       0.597   0.226  -0.005  0.00  0.00     0.040 A 
ATOM      4  N   UNL d   1       0.740  -2.060   0.017  0.00  0.00    -0.321 N 
ATOM      5  O   UNL d   1      -1.460   0.284  -1.178  0.00  0.00    -0.343 OA
ATOM      6  O   UNL d   1      -1.455   0.278   1.181  0.00  0.00    -0.343 OA
ATOM      7  C   UNL d   1       1.456  -0.875   0.010  0.00  0.00     0.047 A 
ATOM      8  C   UNL d   1      -3.582   0.556   0.018  0.00  0.00     0.002 C 
ATOM      9  O   UNL d   1      -1.484  -2.696  -0.013  0.00  0.00    -0.267 OA
ATOM     10  C   UNL d   1      -2.858  -0.004  -1.224  0.00  0.00     0.184 C 
ATOM     11  C   UNL d   1      -2.847  -0.033   1.235  0.00  0.00     0.184 C 
ATOM     12  C   UNL d   1       1.122   1.511  -0.025  0.00  0.00     0.015 A 
ATOM     13  C   UNL d   1       2.831  -0.751   0.011  0.00  0.00     0.030 A 
ATOM     14  C   UNL d   1       2.514   1.662  -0.029  0.00  0.00     0.001 A 
ATOM     15  C   UNL d   1       3.361   0.540  -0.009  0.00  0.00     0.002 A 
ATOM     16  H   UNL d   1       1.133  -2.988   0.021  0.00  0.00     0.169 HD
ENDROOT
BRANCH   8  17
ATOM     17  C   UNL d   1      -5.090   0.184   0.012  0.00  0.00     0.009 C 
ATOM     18  C   UNL d   1      -5.435  -1.300  -0.042  0.00  0.00     0.006 C 
ENDBRANCH   8  17
BRANCH   8  19
ATOM     19  C   UNL d   1      -3.440   2.115  -0.011  0.00  0.00     0.009 C 
ATOM     20  C   UNL d   1      -4.013   2.862   1.190  0.00  0.00     0.006 C 
ENDBRANCH   8  19
TORSDOF 2
