REMARK  4 active torsions:
REMARK  status: ('A' for Active; 'I' for Inactive)
REMARK    1  A    between atoms: C_4  and  C_1 
REMARK       I    between atoms: N_7  and  C_1 
REMARK    2  A    between atoms: C_5  and  C_6 
REMARK    3  A    between atoms: O_16  and  C_5 
REMARK    4  A    between atoms: C_8  and  N_7 
ROOT
ATOM      1  C   UNL d   1       0.915   0.128   0.008  0.00  0.00     0.245 C 
ATOM      2  N   UNL d   1       0.143  -0.267  -1.064  0.00  0.00    -0.324 N 
ATOM      3  O   UNL d   1       0.516   0.567   1.081  0.00  0.00    -0.268 OA
ATOM      4  H   UNL d   1       0.609  -0.736  -1.830  0.00  0.00     0.169 HD
ENDROOT
BRANCH   2   5
ATOM      5  C   UNL d   1      -1.253  -0.095  -1.198  0.00  0.00     0.036 A 
ATOM      6  C   UNL d   1      -2.023   0.678  -0.321  0.00  0.00     0.056 A 
ATOM      7  C   UNL d   1      -3.395   0.835  -0.537  0.00  0.00     0.074 A 
ATOM      8 CL   UNL d   1      -4.315   1.815   0.541  0.00  0.00    -0.081 Cl
ATOM      9  C   UNL d   1      -4.004   0.215  -1.622  0.00  0.00     0.138 A 
ATOM     10  C   UNL d   1      -3.253  -0.558  -2.501  0.00  0.00     0.046 A 
ATOM     11  F   UNL d   1      -5.318   0.354  -1.846  0.00  0.00    -0.204 F 
ATOM     12  C   UNL d   1      -1.879  -0.707  -2.293  0.00  0.00     0.032 A 
ENDBRANCH   2   5
BRANCH   1  13
ATOM     13  C   UNL d   1       2.369  -0.031  -0.242  0.00  0.00     0.081 C 
ATOM     14  C   UNL d   1       3.223   0.334   0.727  0.00  0.00     0.086 C 
BRANCH  14  15
ATOM     15  C   UNL d   1       4.669   0.237   0.480  0.00  0.00     0.165 C 
ATOM     16  O   UNL d   1       5.157  -0.174  -0.559  0.00  0.00    -0.647 OA
BRANCH  15  17
ATOM     17  O   UNL d   1       5.396   0.662   1.529  0.00  0.00    -0.773 OA
ATOM     18  H   UNL d   1       4.886   0.973   2.300  0.00  0.00     0.167 HD
ENDBRANCH  15  17
ENDBRANCH  14  15
ENDBRANCH   1  13
TORSDOF 4
