REMARK  3 active torsions:
REMARK  status: ('A' for Active; 'I' for Inactive)
REMARK    1  A    between atoms: C_2  and  N_1 
REMARK    2  A    between atoms: S_4  and  C_3 
REMARK    3  A    between atoms: C_5  and  S_4 
ROOT
ATOM      1  C   UNL d   1      -0.003   0.771   2.364  0.00  0.00     0.136 A 
ATOM      2  C   UNL d   1      -0.692   0.211   1.298  0.00  0.00     0.108 A 
ATOM      3  N   UNL d   1      -1.125   0.990   0.270  0.00  0.00    -0.358 N 
ATOM      4  HN  UNL d   1      -1.624   0.581  -0.521  1.00  0.00     0.166 HD
ATOM      5  C   UNL d   1       0.232   2.150   2.418  0.00  0.00     0.040 A 
ATOM      6  C   UNL d   1      -0.877   2.321   0.321  0.00  0.00     0.089 A 
ATOM      7  C   UNL d   1      -0.220   2.942   1.371  0.00  0.00     0.020 A 
ENDROOT
BRANCH   2   8
ATOM      8  S   UNL d   1      -1.206  -1.494   1.183  0.00  0.00    -0.068 SA
BRANCH   8   9
ATOM      9  C   UNL d   1       0.153  -2.227   0.272  0.00  0.00     0.030 A 
ATOM     10  C   UNL d   1       0.505  -1.693  -0.979  0.00  0.00     0.044 A 
ATOM     11  C   UNL d   1       1.583  -2.217  -1.694  0.00  0.00     0.035 A 
ATOM     12 CL   UNL d   1       2.013  -1.534  -3.213  0.00  0.00    -0.084 Cl
ATOM     13  C   UNL d   1       2.316  -3.286  -1.187  0.00  0.00     0.025 A 
ATOM     14  C   UNL d   1       1.950  -3.855   0.033  0.00  0.00     0.027 A 
ATOM     15  C   UNL d   1       0.868  -3.338   0.755  0.00  0.00     0.051 A 
ATOM     16 CL   UNL d   1       0.458  -4.138   2.235  0.00  0.00    -0.083 Cl
ENDBRANCH   8   9
ENDBRANCH   2   8
BRANCH   1  17
ATOM     17  N   UNL d   1       0.517  -0.045   3.430  0.00  0.00    -0.113 N 
ATOM     18  O   UNL d   1       1.406  -0.853   3.141  0.00  0.00    -0.532 OA
ATOM     19  O   UNL d   1       0.095   0.189   4.572  0.00  0.00    -0.532 OA
ENDBRANCH   1  17
TORSDOF 3
