REMARK  2 active torsions:
REMARK  status: ('A' for Active; 'I' for Inactive)
REMARK    1  A    between atoms: O_11  and  C_5 
REMARK    2  A    between atoms: O_12  and  C_7 
ROOT
ATOM      1  C   UNL d   1       0.067   0.442   0.018  0.00  0.00     0.041 A 
ATOM      2  C   UNL d   1      -1.388   0.762   0.064  0.00  0.00     0.252 C 
ATOM      3  C   UNL d   1       0.993   1.482  -0.123  0.00  0.00     0.057 A 
ATOM      4  C   UNL d   1       0.500  -0.887   0.116  0.00  0.00    -0.038 A 
ATOM      5  C   UNL d   1       2.370   1.220  -0.169  0.00  0.00     0.102 A 
ATOM      6  C   UNL d   1       1.873  -1.148   0.095  0.00  0.00     0.047 A 
ATOM      7  C   UNL d   1       2.813  -0.113  -0.054  0.00  0.00     0.102 A 
ATOM      8  N   UNL d   1      -2.257  -0.303   0.018  0.00  0.00    -0.357 N 
ATOM      9  O   UNL d   1      -1.796   1.913   0.137  0.00  0.00    -0.268 OA
ATOM     10  C   UNL d   1      -1.817  -1.623  -0.377  0.00  0.00     0.127 C 
ATOM     11  C   UNL d   1      -0.504  -1.993   0.305  0.00  0.00     0.059 C 
ATOM     12  H   UNL d   1      -3.233  -0.045  -0.065  0.00  0.00     0.162 HD
ENDROOT
BRANCH   5  13
ATOM     13  O   UNL d   1       3.307   2.206  -0.322  0.00  0.00    -0.353 OA
ATOM     14  C   UNL d   1       2.865   3.552  -0.442  0.00  0.00     0.210 C 
ENDBRANCH   5  13
BRANCH   7  15
ATOM     15  O   UNL d   1       4.099  -0.591  -0.064  0.00  0.00    -0.353 OA
ATOM     16  C   UNL d   1       5.173   0.325  -0.208  0.00  0.00     0.210 C 
ENDBRANCH   7  15
TORSDOF 2
