REMARK  9 active torsions:
REMARK  status: ('A' for Active; 'I' for Inactive)
REMARK    1  A    between atoms: C_7  and  C_1 
REMARK    2  A    between atoms: C_8  and  C_7 
REMARK    3  A    between atoms: C_11  and  C_25 
REMARK    4  A    between atoms: O_17  and  C_11 
REMARK    5  A    between atoms: C_12  and  C_18 
REMARK    6  A    between atoms: C_16  and  C_12 
REMARK    7  A    between atoms: C_18  and  O_17 
REMARK    8  A    between atoms: O_24  and  C_21 
REMARK    9  A    between atoms: C_25  and  O_24 
ROOT
ATOM      1  C   UNL d   1      -1.801  -0.938   0.001  0.00  0.00     0.029 C 
ATOM      2  C   UNL d   1      -2.013   0.536   0.094  0.00  0.00     0.295 C 
ATOM      3  C   UNL d   1      -0.560  -1.471  -0.077  0.00  0.00    -0.036 C 
ATOM      4  O   UNL d   1      -0.899   1.347  -0.021  0.00  0.00    -0.274 OA
ATOM      5  C   UNL d   1       0.398   0.810  -0.037  0.00  0.00     0.092 A 
ATOM      6  C   UNL d   1       0.606  -0.567  -0.052  0.00  0.00     0.005 A 
ATOM      7  C   UNL d   1       1.448   1.736  -0.007  0.00  0.00     0.075 A 
ATOM      8  C   UNL d   1       1.934  -1.010  -0.034  0.00  0.00     0.017 A 
ATOM      9  O   UNL d   1      -3.128   1.022   0.252  0.00  0.00    -0.259 OA
ATOM     10  C   UNL d   1       2.759   1.276   0.039  0.00  0.00     0.072 A 
ATOM     11  C   UNL d   1       2.997  -0.098   0.007  0.00  0.00     0.038 A 
ATOM     12  C   UNL d   1      -0.289  -2.955  -0.124  0.00  0.00     0.050 C 
ENDROOT
BRANCH  10  13
ATOM     13  O   UNL d   1       3.879   2.056   0.101  0.00  0.00    -0.341 OA
BRANCH  13  14
ATOM     14  C   UNL d   1       3.707   3.357   0.655  0.00  0.00     0.286 C 
BRANCH  14  15
ATOM     15  C   UNL d   1       5.030   3.949   1.125  0.00  0.00     0.283 C 
ATOM     16  O   UNL d   1       5.287   5.147   1.071  0.00  0.00    -0.263 OA
BRANCH  15  17
ATOM     17  O   UNL d   1       5.854   3.002   1.646  0.00  0.00    -0.312 OA
BRANCH  17  18
ATOM     18  C   UNL d   1       7.137   3.441   2.109  0.00  0.00     0.262 C 
BRANCH  18  19
ATOM     19  C   UNL d   1       7.359   3.086   3.577  0.00  0.00     0.183 C 
ATOM     20  O   UNL d   1       6.497   2.557   4.277  0.00  0.00    -0.290 OA
BRANCH  19  21
ATOM     21  C   UNL d   1       8.674   3.438   4.196  0.00  0.00     0.012 A 
ATOM     22  C   UNL d   1       8.720   3.659   5.580  0.00  0.00     0.017 A 
ATOM     23  C   UNL d   1       9.928   3.986   6.206  0.00  0.00     0.025 A 
ATOM     24  C   UNL d   1      11.095   4.078   5.452  0.00  0.00     0.034 A 
ATOM     25  C   UNL d   1      11.062   3.852   4.077  0.00  0.00     0.025 A 
ATOM     26 CL   UNL d   1      12.584   4.463   6.221  0.00  0.00    -0.084 Cl
ATOM     27  C   UNL d   1       9.853   3.535   3.446  0.00  0.00     0.017 A 
ENDBRANCH  19  21
ENDBRANCH  18  19
ENDBRANCH  17  18
ENDBRANCH  15  17
ENDBRANCH  14  15
ENDBRANCH  13  14
ENDBRANCH  10  13
BRANCH   1  28
ATOM     28  C   UNL d   1      -3.083  -1.734  -0.014  0.00  0.00     0.087 C 
BRANCH  28  29
ATOM     29  C   UNL d   1      -3.575  -2.429   1.252  0.00  0.00    -0.010 A 
ATOM     30  C   UNL d   1      -3.077  -2.246   2.562  0.00  0.00     0.042 A 
ATOM     31 CL   UNL d   1      -1.837  -1.124   3.006  0.00  0.00    -0.084 Cl
ATOM     32  C   UNL d   1      -3.589  -2.980   3.642  0.00  0.00     0.024 A 
ATOM     33  C   UNL d   1      -4.625  -3.888   3.469  0.00  0.00     0.003 A 
ATOM     34  C   UNL d   1      -5.169  -4.055   2.204  0.00  0.00     0.024 A 
ATOM     35  C   UNL d   1      -4.655  -3.337   1.116  0.00  0.00     0.042 A 
ATOM     36 CL   UNL d   1      -5.438  -3.622  -0.409  0.00  0.00    -0.084 Cl
ENDBRANCH  28  29
ENDBRANCH   1  28
TORSDOF 9
