REMARK  5 active torsions:
REMARK  status: ('A' for Active; 'I' for Inactive)
REMARK    1  A    between atoms: C_10  and  C_1 
REMARK       I    between atoms: C_6  and  N_11 
REMARK    2  A    between atoms: C_7  and  C_6 
REMARK    3  A    between atoms: C_8  and  C_9 
REMARK    4  A    between atoms: O_17  and  C_8 
REMARK    5  A    between atoms: N_11  and  C_10 
ROOT
ATOM      1  C   UNL d   1       2.189  -2.410   0.010  0.00  0.00     0.162 C 
ENDROOT
BRANCH   1   2
ATOM      2  C   UNL d   1       1.814  -0.960   0.055  0.00  0.00    -0.022 A 
ATOM      3  C   UNL d   1       1.588  -0.205   1.274  0.00  0.00    -0.009 A 
ATOM      4  C   UNL d   1       1.191   1.110   1.006  0.00  0.00     0.015 A 
ATOM      5  C   UNL d   1       1.692  -0.597   2.634  0.00  0.00     0.037 A 
ATOM      6  C   UNL d   1       0.899   2.025   2.039  0.00  0.00     0.021 A 
ATOM      7  S   UNL d   1       1.117   1.411  -0.685  0.00  0.00    -0.101 SA
ATOM      8  C   UNL d   1       1.008   1.606   3.366  0.00  0.00     0.025 A 
ATOM      9  C   UNL d   1       1.401   0.308   3.657  0.00  0.00     0.035 A 
ATOM     10 CL   UNL d   1       1.527  -0.196   5.298  0.00  0.00    -0.084 Cl
ATOM     11  C   UNL d   1       1.586  -0.181  -1.064  0.00  0.00     0.060 A 
ENDBRANCH   1   2
BRANCH   1  12
ATOM     12  N   UNL d   1       3.629  -2.539   0.028  0.00  0.00    -0.353 N 
ATOM     13  C   UNL d   1       4.272  -3.276   0.988  0.00  0.00     0.241 C 
ATOM     14  O   UNL d   1       3.719  -3.797   1.948  0.00  0.00    -0.269 OA
ATOM     15  H   UNL d   1       4.146  -2.149  -0.747  0.00  0.00     0.163 HD
BRANCH  13  16
ATOM     16  C   UNL d   1       5.727  -3.417   0.753  0.00  0.00     0.080 C 
ATOM     17  C   UNL d   1       6.464  -4.113   1.633  0.00  0.00     0.086 C 
BRANCH  17  18
ATOM     18  C   UNL d   1       7.905  -4.276   1.384  0.00  0.00     0.165 C 
ATOM     19  O   UNL d   1       8.486  -3.832   0.407  0.00  0.00    -0.647 OA
BRANCH  18  20
ATOM     20  O   UNL d   1       8.519  -4.978   2.355  0.00  0.00    -0.773 OA
ATOM     21  H   UNL d   1       7.948  -5.276   3.088  0.00  0.00     0.167 HD
ENDBRANCH  18  20
ENDBRANCH  17  18
ENDBRANCH  13  16
ENDBRANCH   1  12
TORSDOF 5
