REMARK  4 active torsions:
REMARK  status: ('A' for Active; 'I' for Inactive)
REMARK    1  A    between atoms: O_7  and  N_1 
REMARK    2  A    between atoms: C_12  and  C_2 
REMARK    3  A    between atoms: C_8  and  O_7 
REMARK    4  A    between atoms: C_10  and  C_8 
ROOT
ATOM      1  N   UNL d   1       2.616  -0.621  -0.274  0.00  0.00    -0.157 N 
ATOM      2  C   UNL d   1       2.600   0.744  -0.480  0.00  0.00     0.148 C 
ATOM      3  C   UNL d   1       1.498  -1.361   0.081  0.00  0.00     0.286 C 
ATOM      4  N   UNL d   1       1.480   1.410  -0.485  0.00  0.00    -0.339 N 
ATOM      5  HN  UNL d   1       1.482   2.420  -0.624  1.00  0.00     0.167 HD
ATOM      6  C   UNL d   1       0.219  -0.647  -0.038  0.00  0.00     0.061 A 
ATOM      7  C   UNL d   1       0.272   0.723  -0.297  0.00  0.00     0.049 A 
ATOM      8  O   UNL d   1       1.519  -2.520   0.502  0.00  0.00    -0.265 OA
ATOM      9  C   UNL d   1      -1.001  -1.314   0.111  0.00  0.00     0.019 A 
ATOM     10  C   UNL d   1      -0.929   1.432  -0.374  0.00  0.00     0.030 A 
ATOM     11  C   UNL d   1      -2.192  -0.596   0.015  0.00  0.00     0.001 A 
ATOM     12  C   UNL d   1      -2.155   0.779  -0.217  0.00  0.00     0.002 A 
ENDROOT
BRANCH   1  13
ATOM     13  O   UNL d   1       3.810  -1.363  -0.170  0.00  0.00    -0.183 OA
BRANCH  13  14
ATOM     14  C   UNL d   1       3.943  -2.264  -1.191  0.00  0.00     0.317 C 
ATOM     15  O   UNL d   1       3.340  -2.249  -2.251  0.00  0.00    -0.257 OA
BRANCH  14  16
ATOM     16  C   UNL d   1       4.924  -3.301  -0.794  0.00  0.00     0.063 A 
ATOM     17  C   UNL d   1       4.653  -4.665  -0.963  0.00  0.00     0.050 A 
ATOM     18 CL   UNL d   1       3.133  -5.264  -1.524  0.00  0.00    -0.083 Cl
ATOM     19  C   UNL d   1       5.629  -5.615  -0.635  0.00  0.00     0.025 A 
ATOM     20  C   UNL d   1       6.868  -5.211  -0.136  0.00  0.00     0.002 A 
ATOM     21  C   UNL d   1       7.134  -3.857   0.051  0.00  0.00     0.001 A 
ATOM     22  C   UNL d   1       6.168  -2.902  -0.277  0.00  0.00     0.019 A 
ENDBRANCH  14  16
ENDBRANCH  13  14
ENDBRANCH   1  13
BRANCH   2  23
ATOM     23  C   UNL d   1       3.858   1.523  -0.720  0.00  0.00     0.010 A 
ATOM     24  C   UNL d   1       3.758   2.689  -1.502  0.00  0.00     0.015 A 
ATOM     25  C   UNL d   1       4.868   3.507  -1.724  0.00  0.00     0.001 A 
ATOM     26  C   UNL d   1       6.098   3.168  -1.170  0.00  0.00     0.000 A 
ATOM     27  C   UNL d   1       6.210   2.025  -0.380  0.00  0.00     0.001 A 
ATOM     28  C   UNL d   1       5.093   1.214  -0.140  0.00  0.00     0.015 A 
ENDBRANCH   2  23
TORSDOF 4
