REMARK  7 active torsions:
REMARK  status: ('A' for Active; 'I' for Inactive)
REMARK    1  A    between atoms: O_5  and  C_1 
REMARK    2  A    between atoms: C_11  and  C_2 
REMARK    3  A    between atoms: C_7  and  O_5 
REMARK    4  A    between atoms: C_14  and  C_6 
REMARK       I    between atoms: N_13  and  C_7 
REMARK    5  A    between atoms: C_10  and  C_11 
REMARK    6  A    between atoms: C_22  and  C_12 
REMARK    7  A    between atoms: C_30  and  C_22 
ROOT
ATOM      1  C   UNL d   1       0.849  -0.916  -0.333  0.00  0.00     0.163 C 
ATOM      2  C   UNL d   1      -0.048  -1.558   0.518  0.00  0.00     0.020 C 
ATOM      3  N   UNL d   1       0.932   0.419  -0.500  0.00  0.00    -0.320 N 
ATOM      4  HN  UNL d   1       1.652   0.846  -1.083  1.00  0.00     0.169 HD
ATOM      5  C   UNL d   1       0.015   1.148   0.142  0.00  0.00     0.134 C 
ATOM      6  N   UNL d   1      -1.049   0.594   0.752  0.00  0.00    -0.343 N 
ATOM      7  HN  UNL d   1      -1.785   1.183   1.140  1.00  0.00     0.167 HD
ATOM      8  C   UNL d   1      -1.131  -0.759   0.843  0.00  0.00     0.021 C 
ENDROOT
BRANCH   2   9
ATOM      9  C   UNL d   1       0.221  -2.963   1.006  0.00  0.00     0.088 C 
BRANCH   9  10
ATOM     10  C   UNL d   1       0.521  -3.169   2.487  0.00  0.00     0.007 A 
ATOM     11  C   UNL d   1       0.134  -4.338   3.172  0.00  0.00     0.043 A 
ATOM     12 CL   UNL d   1      -0.785  -5.594   2.411  0.00  0.00    -0.084 Cl
ATOM     13  C   UNL d   1       0.505  -4.563   4.507  0.00  0.00     0.024 A 
ATOM     14  C   UNL d   1       1.304  -3.646   5.183  0.00  0.00     0.005 A 
ATOM     15  C   UNL d   1       1.731  -2.503   4.514  0.00  0.00     0.043 A 
ATOM     16  C   UNL d   1       1.348  -2.280   3.191  0.00  0.00     0.124 A 
ATOM     17  F   UNL d   1       1.841  -1.192   2.583  0.00  0.00    -0.205 F 
ENDBRANCH   9  10
ENDBRANCH   2   9
BRANCH   1  18
ATOM     18  O   UNL d   1       1.731  -1.614  -1.171  0.00  0.00    -0.243 OA
BRANCH  18  19
ATOM     19  C   UNL d   1       1.187  -2.606  -1.995  0.00  0.00     0.368 C 
ATOM     20  N   UNL d   1       2.042  -2.962  -3.022  0.00  0.00    -0.336 N 
ATOM     21  C   UNL d   1       1.861  -4.225  -3.710  0.00  0.00     0.154 C 
ATOM     22  C   UNL d   1       2.972  -2.006  -3.588  0.00  0.00     0.154 C 
ATOM     23  O   UNL d   1       0.107  -3.160  -1.809  0.00  0.00    -0.238 OA
ENDBRANCH  18  19
ENDBRANCH   1  18
BRANCH   8  24
ATOM     24  C   UNL d   1      -2.587  -1.176   0.816  0.00  0.00     0.057 C 
BRANCH  24  25
ATOM     25  C   UNL d   1      -3.105  -2.581   1.077  0.00  0.00     0.002 C 
ATOM     26  C   UNL d   1      -3.216  -2.888   2.556  0.00  0.00     0.005 C 
ENDBRANCH  24  25
ENDBRANCH   8  24
BRANCH   5  27
ATOM     27  C   UNL d   1       0.079   2.633   0.105  0.00  0.00     0.076 A 
ATOM     28  N   UNL d   1       1.221   3.220  -0.358  0.00  0.00    -0.363 N 
ATOM     29  C   UNL d   1       1.280   4.572  -0.372  0.00  0.00     0.088 A 
ATOM     30  HN  UNL d   1       2.006   2.656  -0.683  1.00  0.00     0.165 HD
ATOM     31  C   UNL d   1       0.253   5.399   0.046  0.00  0.00     0.017 A 
ATOM     32  C   UNL d   1      -0.910   4.807   0.513  0.00  0.00     0.004 A 
ATOM     33  C   UNL d   1      -0.997   3.416   0.547  0.00  0.00     0.033 A 
ENDBRANCH   5  27
TORSDOF 7
