REMARK  5 active torsions:
REMARK  status: ('A' for Active; 'I' for Inactive)
REMARK    1  A    between atoms: C_6  and  C_1 
REMARK    2  A    between atoms: C_3  and  C_2 
REMARK    3  A    between atoms: O_9  and  C_3 
REMARK    4  A    between atoms: C_7  and  O_9 
REMARK    5  A    between atoms: C_14  and  C_8 
ROOT
ATOM      1  C   UNL d   1      -1.566  -0.499  -0.131  0.00  0.00     0.087 A 
ATOM      2  C   UNL d   1      -0.236  -1.015  -0.044  0.00  0.00     0.100 A 
ATOM      3  N   UNL d   1      -1.545   0.763  -0.592  0.00  0.00    -0.259 N 
ATOM      4  HN  UNL d   1      -2.355   1.348  -0.798  1.00  0.00     0.195 HD
ATOM      5  O   UNL d   1      -0.230   1.113  -0.734  0.00  0.00    -0.241 OA
ATOM      6  C   UNL d   1       0.558   0.061  -0.403  0.00  0.00     0.091 A 
ATOM      7  C   UNL d   1       2.009   0.341  -0.459  0.00  0.00     0.080 C 
ENDROOT
BRANCH   2   8
ATOM      8  C   UNL d   1       0.241  -2.322   0.358  0.00  0.00     0.303 C 
ATOM      9  O   UNL d   1      -0.328  -3.078   1.128  0.00  0.00    -0.259 OA
BRANCH   8  10
ATOM     10  O   UNL d   1       1.428  -2.649  -0.312  0.00  0.00    -0.272 OA
BRANCH  10  11
ATOM     11  C   UNL d   1       2.644  -3.120   0.267  0.00  0.00     0.115 A 
ATOM     12  C   UNL d   1       3.503  -3.813  -0.603  0.00  0.00     0.047 A 
ATOM     13  C   UNL d   1       4.864  -3.938  -0.290  0.00  0.00     0.042 A 
ATOM     14  C   UNL d   1       5.351  -3.409   0.900  0.00  0.00     0.036 A 
ATOM     15  C   UNL d   1       4.490  -2.787   1.801  0.00  0.00     0.050 A 
ATOM     16 CL   UNL d   1       7.033  -3.486   1.244  0.00  0.00    -0.084 Cl
ATOM     17  C   UNL d   1       3.135  -2.635   1.490  0.00  0.00     0.070 A 
ATOM     18 CL   UNL d   1       2.189  -1.748   2.626  0.00  0.00    -0.081 Cl
BRANCH  12  19
ATOM     19  C   UNL d   1       3.067  -4.371  -1.909  0.00  0.00     0.158 C 
ATOM     20  O   UNL d   1       3.820  -4.274  -2.875  0.00  0.00    -0.293 OA
ATOM     21  C   UNL d   1       1.764  -5.123  -1.996  0.00  0.00     0.097 C 
ENDBRANCH  12  19
ENDBRANCH  10  11
ENDBRANCH   8  10
ENDBRANCH   2   8
BRANCH   1  22
ATOM     22  C   UNL d   1      -2.867  -1.113   0.125  0.00  0.00     0.037 A 
ATOM     23  C   UNL d   1      -3.763  -0.526   1.044  0.00  0.00     0.048 A 
ATOM     24 CL   UNL d   1      -3.306   0.775   2.098  0.00  0.00    -0.083 Cl
ATOM     25  C   UNL d   1      -5.083  -0.980   1.155  0.00  0.00     0.025 A 
ATOM     26  C   UNL d   1      -5.527  -2.042   0.374  0.00  0.00     0.003 A 
ATOM     27  C   UNL d   1      -4.644  -2.662  -0.507  0.00  0.00     0.025 A 
ATOM     28  C   UNL d   1      -3.327  -2.201  -0.639  0.00  0.00     0.048 A 
ATOM     29 CL   UNL d   1      -2.341  -2.998  -1.821  0.00  0.00    -0.083 Cl
ENDBRANCH   1  22
TORSDOF 5
