REMARK  2 active torsions:
REMARK  status: ('A' for Active; 'I' for Inactive)
REMARK    1  A    between atoms: C_9  and  C_3 
REMARK    2  A    between atoms: O_10  and  C_6 
ROOT
ATOM      1  N   UNL d   1      -0.670   1.236  -0.057  0.00  0.00    -0.323 N 
ATOM      2  HN  UNL d   1      -1.168   2.126  -0.078  1.00  0.00     0.169 HD
ATOM      3  C   UNL d   1      -1.310   0.051  -0.026  0.00  0.00     0.117 A 
ATOM      4  N   UNL d   1      -0.686  -1.148  -0.002  0.00  0.00    -0.345 N 
ATOM      5  HN  UNL d   1      -1.217  -2.019   0.018  1.00  0.00     0.167 HD
ATOM      6  C   UNL d   1       0.662   1.161  -0.058  0.00  0.00     0.143 A 
ATOM      7  C   UNL d   1       1.400   0.011  -0.033  0.00  0.00     0.080 A 
ATOM      8  C   UNL d   1       0.665  -1.151  -0.006  0.00  0.00     0.011 A 
ATOM      9  C   UNL d   1       1.338  -2.490   0.021  0.00  0.00     0.068 C 
ENDROOT
BRANCH   3  10
ATOM     10  C   UNL d   1      -2.787   0.068   0.005  0.00  0.00     0.008 A 
ATOM     11  C   UNL d   1      -3.509   1.277  -0.049  0.00  0.00     0.015 A 
ATOM     12  C   UNL d   1      -4.906   1.302   0.002  0.00  0.00     0.001 A 
ATOM     13  C   UNL d   1      -5.619   0.112   0.107  0.00  0.00     0.000 A 
ATOM     14  C   UNL d   1      -4.936  -1.100   0.155  0.00  0.00     0.001 A 
ATOM     15  C   UNL d   1      -3.538  -1.119   0.102  0.00  0.00     0.015 A 
ENDBRANCH   3  10
BRANCH   6  16
ATOM     16  O   UNL d   1       1.283   2.368  -0.081  0.00  0.00    -0.346 OA
ATOM     17  H   UNL d   1       0.512   2.963  -0.089  0.00  0.00     0.219 HD
ENDBRANCH   6  16
TORSDOF 2
