REMARK  4 active torsions:
REMARK  status: ('A' for Active; 'I' for Inactive)
REMARK    1  A    between atoms: C_9  and  N_1 
REMARK    2  A    between atoms: N_6  and  C_7 
REMARK    3  A    between atoms: C_8  and  O_14 
REMARK    4  A    between atoms: O_14  and  C_20 
ROOT
ATOM      1  N   UNL d   1       1.919  -0.004  -0.100  0.00  0.00    -0.244 N 
ATOM      2  C   UNL d   1       1.161   1.135   0.062  0.00  0.00     0.269 A 
ATOM      3  C   UNL d   1      -0.238   0.732  -0.003  0.00  0.00     0.081 A 
ATOM      4  C   UNL d   1       1.109  -1.115  -0.185  0.00  0.00     0.266 A 
ATOM      5  C   UNL d   1      -0.266  -0.644  -0.093  0.00  0.00     0.051 A 
ATOM      6  C   UNL d   1      -1.418   1.438   0.036  0.00  0.00     0.119 A 
ATOM      7  O   UNL d   1       1.479   2.295   0.262  0.00  0.00    -0.267 OA
ATOM      8  O   UNL d   1       1.364  -2.304  -0.276  0.00  0.00    -0.267 OA
ATOM      9  C   UNL d   1      -1.448  -1.369  -0.084  0.00  0.00     0.018 A 
ATOM     10  C   UNL d   1      -2.642   0.750   0.043  0.00  0.00     0.037 A 
ATOM     11  C   UNL d   1      -2.648  -0.656  -0.003  0.00  0.00     0.003 A 
ENDROOT
BRANCH   1  12
ATOM     12  C   UNL d   1       3.341  -0.048  -0.123  0.00  0.00     0.046 A 
ATOM     13  C   UNL d   1       4.119   0.967   0.452  0.00  0.00     0.033 A 
ATOM     14  C   UNL d   1       5.521   0.900   0.457  0.00  0.00     0.039 A 
ATOM     15  C   UNL d   1       6.173  -0.190  -0.109  0.00  0.00     0.078 A 
ATOM     16  C   UNL d   1       5.413  -1.174  -0.738  0.00  0.00     0.039 A 
ATOM     17  C   UNL d   1       4.016  -1.114  -0.731  0.00  0.00     0.033 A 
BRANCH  15  18
ATOM     18  O   UNL d   1       7.516  -0.393  -0.162  0.00  0.00    -0.255 OA
BRANCH  18  19
ATOM     19  C   UNL d   1       8.346   0.126   0.868  0.00  0.00     0.530 C 
ATOM     20  F   UNL d   1       7.674   0.555   1.956  0.00  0.00    -0.144 F 
ATOM     21  F   UNL d   1       9.189  -0.854   1.267  0.00  0.00    -0.144 F 
ATOM     22  F   UNL d   1       9.086   1.143   0.378  0.00  0.00    -0.144 F 
ENDBRANCH  18  19
ENDBRANCH  15  18
ENDBRANCH   1  12
BRANCH   6  23
ATOM     23  N   UNL d   1      -1.420   2.878  -0.012  0.00  0.00    -0.115 N 
ATOM     24  O   UNL d   1      -0.989   3.400  -1.048  0.00  0.00    -0.532 OA
ATOM     25  O   UNL d   1      -1.940   3.468   0.943  0.00  0.00    -0.532 OA
ENDBRANCH   6  23
TORSDOF 4
