REMARK  3 active torsions:
REMARK  status: ('A' for Active; 'I' for Inactive)
REMARK    1  A    between atoms: N_2  and  C_1 
REMARK       I    between atoms: C_3  and  N_2 
REMARK    2  A    between atoms: C_4  and  N_2 
REMARK       I    between atoms: N_8  and  C_3 
REMARK    3  A    between atoms: C_13  and  N_8 
ROOT
ATOM      1  N   UNL d   1       2.128   1.446  -0.229  0.00  0.00    -0.228 N 
ATOM      2  C   UNL d   1       3.393   0.902  -0.547  0.00  0.00     0.335 C 
ATOM      3  N   UNL d   1       4.389   1.783  -0.928  0.00  0.00    -0.308 N 
ATOM      4  O   UNL d   1       3.638  -0.303  -0.470  0.00  0.00    -0.246 OA
ATOM      5  H   UNL d   1       4.126   2.766  -0.936  0.00  0.00     0.170 HD
ENDROOT
BRANCH   1   6
ATOM      6  C   UNL d   1       1.027   0.594  -0.024  0.00  0.00     0.152 C 
ATOM      7  N   UNL d   1      -0.195   0.934  -0.287  0.00  0.00    -0.369 N 
ATOM      8  C   UNL d   1      -1.131  -0.175  -0.027  0.00  0.00     0.137 C 
ATOM      9  HN  UNL d   1      -0.474   1.853  -0.631  1.00  0.00     0.161 HD
ATOM     10  C   UNL d   1      -0.551  -1.128   1.007  0.00  0.00     0.069 C 
ATOM     11  S   UNL d   1       1.211  -1.004   0.680  0.00  0.00    -0.087 SA
ATOM     12  C   UNL d   1      -0.835  -0.707   2.442  0.00  0.00     0.023 C 
ENDBRANCH   1   6
BRANCH   1  13
ATOM     13  C   UNL d   1       1.875   2.876  -0.242  0.00  0.00     0.118 A 
ATOM     14  N   UNL d   1       2.733   3.707  -0.897  0.00  0.00    -0.352 N 
ATOM     15  C   UNL d   1       2.452   5.033  -0.939  0.00  0.00     0.090 A 
ATOM     16  HN  UNL d   1       3.571   3.338  -1.348  1.00  0.00     0.166 HD
ATOM     17  C   UNL d   1       1.364   5.617  -0.320  0.00  0.00     0.024 A 
ATOM     18  C   UNL d   1       0.509   4.800   0.403  0.00  0.00    -0.057 A 
ATOM     19  C   UNL d   1       0.790   3.424   0.455  0.00  0.00     0.056 A 
ATOM     20  C   UNL d   1      -0.686   5.366   1.109  0.00  0.00     0.048 C 
ENDBRANCH   1  13
BRANCH   3  21
ATOM     21  C   UNL d   1       5.727   1.471  -1.271  0.00  0.00     0.037 A 
ATOM     22  C   UNL d   1       6.197   0.170  -1.484  0.00  0.00     0.053 A 
ATOM     23  C   UNL d   1       7.547  -0.062  -1.750  0.00  0.00     0.036 A 
ATOM     24 CL   UNL d   1       8.107  -1.674  -1.992  0.00  0.00    -0.084 Cl
ATOM     25  C   UNL d   1       8.446   0.996  -1.818  0.00  0.00     0.024 A 
ATOM     26  C   UNL d   1       7.984   2.300  -1.646  0.00  0.00     0.004 A 
ATOM     27  C   UNL d   1       6.629   2.535  -1.387  0.00  0.00     0.029 A 
ENDBRANCH   3  21
TORSDOF 3
