REMARK  1 active torsions:
REMARK  status: ('A' for Active; 'I' for Inactive)
REMARK    1  A    between atoms: C_4  and  C_1 
ROOT
ATOM      1  C   UNL d   1       2.850   0.546  -0.497  0.00  0.00     0.166 C 
ATOM      2  S   UNL d   1       2.110  -1.060  -0.983  0.00  0.00    -0.142 SA
ATOM      3  S   UNL d   1       1.673   1.946  -0.375  0.00  0.00    -0.142 SA
ATOM      4  C   UNL d   1      -0.454   0.556   0.627  0.00  0.00    -0.041 A 
ATOM      5  C   UNL d   1      -0.265  -0.812   0.370  0.00  0.00    -0.041 A 
ATOM      6  C   UNL d   1      -1.712   1.133   0.378  0.00  0.00     0.015 A 
ATOM      7  C   UNL d   1      -1.350  -1.577  -0.093  0.00  0.00     0.015 A 
ATOM      8  C   UNL d   1      -2.610  -1.002  -0.327  0.00  0.00    -0.056 A 
ATOM      9  C   UNL d   1      -2.788   0.373  -0.104  0.00  0.00    -0.056 A 
ATOM     10  C   UNL d   1       1.100  -1.445   0.476  0.00  0.00     0.114 C 
ATOM     11  C   UNL d   1       0.687   1.442   1.053  0.00  0.00     0.114 C 
ATOM     12  C   UNL d   1      -3.731  -1.863  -0.841  0.00  0.00     0.049 C 
ATOM     13  C   UNL d   1      -4.095   1.057  -0.399  0.00  0.00     0.049 C 
ENDROOT
BRANCH   1  14
ATOM     14  C   UNL d   1       3.851   0.923  -1.552  0.00  0.00     0.076 A 
ATOM     15  O   UNL d   1       5.149   1.094  -1.157  0.00  0.00    -0.325 OA
ATOM     16  C   UNL d   1       5.851   1.470  -2.259  0.00  0.00     0.142 A 
ATOM     17  C   UNL d   1       5.030   1.542  -3.360  0.00  0.00     0.027 A 
ATOM     18  C   UNL d   1       3.742   1.185  -2.910  0.00  0.00     0.036 A 
ENDBRANCH   1  14
TORSDOF 1
