REMARK  4 active torsions:
REMARK  status: ('A' for Active; 'I' for Inactive)
REMARK    1  A    between atoms: C_8  and  N_2 
REMARK    2  A    between atoms: C_12  and  N_3 
REMARK    3  A    between atoms: C_13  and  C_5 
REMARK    4  A    between atoms: C_9  and  C_10 
ROOT
ATOM      1  C   UNL d   1       0.963  -0.982  -0.185  0.00  0.00     0.157 A 
ATOM      2  N   UNL d   1      -0.423  -1.268  -0.056  0.00  0.00    -0.294 N 
ATOM      3  N   UNL d   1       2.096  -1.562  -0.392  0.00  0.00    -0.322 N 
ATOM      4  HN  UNL d   1       2.938  -0.988  -0.360  1.00  0.00     0.169 HD
ATOM      5  C   UNL d   1      -1.253  -0.092   0.054  0.00  0.00     0.033 A 
ATOM      6  S   UNL d   1       1.182   0.799  -0.009  0.00  0.00    -0.063 SA
ATOM      7  C   UNL d   1      -0.518   1.045   0.071  0.00  0.00     0.079 A 
ENDROOT
BRANCH   2   8
ATOM      8  C   UNL d   1      -0.880  -2.618   0.071  0.00  0.00     0.042 C 
ATOM      9  C   UNL d   1      -0.315  -3.501   1.013  0.00  0.00     0.046 C 
ATOM     10  C   UNL d   1      -0.687  -4.860   1.060  0.00  0.00     0.050 C 
ATOM     11  C   UNL d   1      -1.763  -5.302   0.279  0.00  0.00     0.016 C 
ATOM     12  C   UNL d   1      -2.346  -4.445  -0.643  0.00  0.00     0.003 C 
ATOM     13  C   UNL d   1      -1.853  -3.147  -0.789  0.00  0.00     0.030 C 
BRANCH  10  14
ATOM     14  C   UNL d   1       0.112  -5.871   1.843  0.00  0.00     0.417 C 
ATOM     15  F   UNL d   1       1.290  -5.391   2.329  0.00  0.00    -0.166 F 
ATOM     16  F   UNL d   1      -0.566  -6.364   2.914  0.00  0.00    -0.166 F 
ATOM     17  F   UNL d   1       0.445  -6.959   1.086  0.00  0.00    -0.166 F 
ENDBRANCH  10  14
ENDBRANCH   2   8
BRANCH   5  18
ATOM     18  C   UNL d   1      -2.807  -0.006   0.126  0.00  0.00    -0.008 C 
ATOM     19  C   UNL d   1      -3.501  -1.036   1.046  0.00  0.00     0.021 C 
ATOM     20  C   UNL d   1      -3.297   1.360   0.717  0.00  0.00     0.021 C 
ATOM     21  C   UNL d   1      -3.396  -0.022  -1.305  0.00  0.00     0.021 C 
ENDBRANCH   5  18
BRANCH   3  22
ATOM     22  C   UNL d   1       2.246  -2.913  -0.654  0.00  0.00     0.106 A 
ATOM     23  N   UNL d   1       1.416  -3.483  -1.541  0.00  0.00    -0.352 N 
ATOM     24  C   UNL d   1       1.530  -4.818  -1.720  0.00  0.00     0.089 A 
ATOM     25  HN  UNL d   1       0.729  -2.934  -2.058  1.00  0.00     0.166 HD
ATOM     26  C   UNL d   1       2.478  -5.603  -1.089  0.00  0.00     0.017 A 
ATOM     27  C   UNL d   1       3.384  -4.981  -0.239  0.00  0.00     0.005 A 
ATOM     28  C   UNL d   1       3.269  -3.611  -0.020  0.00  0.00     0.048 A 
ENDBRANCH   3  22
TORSDOF 4
