REMARK  5 active torsions:
REMARK  status: ('A' for Active; 'I' for Inactive)
REMARK    1  A    between atoms: N_2  and  C_1 
REMARK    2  A    between atoms: N_3  and  C_1 
REMARK    3  A    between atoms: N_5  and  N_2 
REMARK    4  A    between atoms: C_7  and  N_3 
REMARK    5  A    between atoms: C_6  and  N_5 
ROOT
ATOM      1  C   UNL d   1       1.099   0.018  -0.166  0.00  0.00     0.186 C 
ATOM      2  S   UNL d   1       2.777   0.071  -0.226  0.00  0.00    -0.040 SA
ENDROOT
BRANCH   1   3
ATOM      3  N   UNL d   1       0.281   0.924  -0.865  0.00  0.00    -0.297 N 
ATOM      4  H   UNL d   1      -0.657   1.076  -0.500  0.00  0.00     0.183 HD
BRANCH   3   5
ATOM      5  N   UNL d   1       0.836   1.992  -1.617  0.00  0.00    -0.230 NA
ATOM      6  H   UNL d   1       1.853   1.979  -1.460  0.00  0.00     0.147 HD
BRANCH   5   7
ATOM      7  C   UNL d   1       0.581   1.874  -3.071  0.00  0.00     0.019 C 
ATOM      8  C   UNL d   1      -0.917   2.057  -3.361  0.00  0.00     0.033 C 
ATOM      9  C   UNL d   1       1.361   3.012  -3.752  0.00  0.00     0.033 C 
ATOM     10  C   UNL d   1       1.073   0.536  -3.649  0.00  0.00     0.033 C 
ENDBRANCH   5   7
ENDBRANCH   3   5
ENDBRANCH   1   3
BRANCH   1  11
ATOM     11  N   UNL d   1       0.300  -0.940   0.462  0.00  0.00    -0.332 N 
ATOM     12  H   UNL d   1      -0.603  -1.056   0.018  0.00  0.00     0.168 HD
BRANCH  11  13
ATOM     13  C   UNL d   1       0.647  -1.953   1.382  0.00  0.00     0.034 A 
ATOM     14  C   UNL d   1       1.739  -1.878   2.252  0.00  0.00     0.032 A 
ATOM     15  C   UNL d   1       2.037  -2.936   3.115  0.00  0.00     0.044 A 
ATOM     16  C   UNL d   1       1.224  -4.059   3.128  0.00  0.00     0.116 A 
ATOM     17  C   UNL d   1       0.106  -4.137   2.309  0.00  0.00     0.044 A 
ATOM     18  F   UNL d   1       1.516  -5.078   3.948  0.00  0.00    -0.206 F 
ATOM     19  C   UNL d   1      -0.190  -3.078   1.446  0.00  0.00     0.032 A 
ENDBRANCH  11  13
ENDBRANCH   1  11
TORSDOF 5
