REMARK  6 active torsions:
REMARK  status: ('A' for Active; 'I' for Inactive)
REMARK    1  A    between atoms: C_7  and  C_1 
REMARK    2  A    between atoms: C_16  and  C_3 
REMARK    3  A    between atoms: C_11  and  N_4 
REMARK       I    between atoms: N_10  and  C_7 
REMARK    4  A    between atoms: N_8  and  C_12 
REMARK    5  A    between atoms: N_9  and  C_13 
REMARK    6  A    between atoms: C_26  and  N_10 
ROOT
ATOM      1  C   UNL d   1      -0.043  -1.355   0.119  0.00  0.00     0.143 C 
ATOM      2  N   UNL d   1      -0.202   0.781   0.556  0.00  0.00    -0.014 NA
ATOM      3  C   UNL d   1       1.256  -0.849   0.000  0.00  0.00     0.098 C 
ATOM      4  N   UNL d   1       1.054   0.532   0.107  0.00  0.00    -0.237 N 
ATOM      5  N   UNL d   1      -0.893  -0.345   0.498  0.00  0.00    -0.276 N 
ATOM      6  HN  UNL d   1      -1.888  -0.446   0.700  1.00  0.00     0.184 HD
ENDROOT
BRANCH   1   7
ATOM      7  C   UNL d   1      -0.493  -2.733  -0.027  0.00  0.00     0.276 C 
ATOM      8  N   UNL d   1      -1.593  -3.083   0.743  0.00  0.00    -0.322 N 
ATOM      9  H   UNL d   1      -2.157  -2.325   1.110  0.00  0.00     0.169 HD
ATOM     10  O   UNL d   1       0.044  -3.504  -0.818  0.00  0.00    -0.266 OA
BRANCH   8  11
ATOM     11  C   UNL d   1      -1.996  -4.419   0.974  0.00  0.00     0.035 A 
ATOM     12  C   UNL d   1      -1.116  -5.499   0.804  0.00  0.00     0.032 A 
ATOM     13  C   UNL d   1      -1.522  -6.809   1.054  0.00  0.00     0.038 A 
ATOM     14  C   UNL d   1      -2.830  -7.052   1.477  0.00  0.00     0.103 A 
ATOM     15  C   UNL d   1      -3.722  -5.986   1.659  0.00  0.00     0.038 A 
ATOM     16  C   UNL d   1      -3.297  -4.670   1.419  0.00  0.00     0.032 A 
BRANCH  14  17
ATOM     17  N   UNL d   1      -3.257  -8.431   1.738  0.00  0.00    -0.116 N 
ATOM     18  O   UNL d   1      -4.436  -8.614   2.084  0.00  0.00    -0.532 OA
ATOM     19  O   UNL d   1      -2.419  -9.333   1.601  0.00  0.00    -0.532 OA
ENDBRANCH  14  17
ENDBRANCH   8  11
ENDBRANCH   1   7
BRANCH   3  20
ATOM     20  C   UNL d   1       2.580  -1.511  -0.038  0.00  0.00    -0.005 A 
ATOM     21  C   UNL d   1       2.842  -2.626  -0.839  0.00  0.00     0.014 A 
ATOM     22  C   UNL d   1       4.106  -3.229  -0.859  0.00  0.00     0.001 A 
ATOM     23  C   UNL d   1       5.153  -2.687  -0.123  0.00  0.00     0.000 A 
ATOM     24  C   UNL d   1       4.924  -1.574   0.675  0.00  0.00     0.001 A 
ATOM     25  C   UNL d   1       3.641  -1.023   0.750  0.00  0.00     0.014 A 
ENDBRANCH   3  20
BRANCH   4  26
ATOM     26  C   UNL d   1       1.983   1.591  -0.099  0.00  0.00     0.055 A 
ATOM     27  C   UNL d   1       3.033   1.443  -1.020  0.00  0.00     0.034 A 
ATOM     28  C   UNL d   1       4.078   2.368  -1.052  0.00  0.00     0.038 A 
ATOM     29  C   UNL d   1       4.057   3.459  -0.176  0.00  0.00     0.103 A 
ATOM     30  C   UNL d   1       2.960   3.670   0.673  0.00  0.00     0.038 A 
ATOM     31  C   UNL d   1       1.909   2.743   0.697  0.00  0.00     0.034 A 
BRANCH  29  32
ATOM     32  N   UNL d   1       5.218   4.356  -0.112  0.00  0.00    -0.116 N 
ATOM     33  O   UNL d   1       6.199   4.079  -0.817  0.00  0.00    -0.532 OA
ATOM     34  O   UNL d   1       5.158   5.321   0.662  0.00  0.00    -0.532 OA
ENDBRANCH  29  32
ENDBRANCH   4  26
TORSDOF 6
