REMARK  3 active torsions:
REMARK  status: ('A' for Active; 'I' for Inactive)
REMARK    1  A    between atoms: C_3  and  C_1 
REMARK       I    between atoms: N_7  and  C_3 
REMARK    2  A    between atoms: C_10  and  C_5 
REMARK    3  A    between atoms: C_8  and  N_7 
ROOT
ATOM      1  C   UNL d   1      -0.173  -1.264   0.254  0.00  0.00     0.064 A 
ATOM      2  C   UNL d   1      -1.469  -0.678   0.401  0.00  0.00     0.057 A 
ATOM      3  C   UNL d   1       0.680  -0.190   0.049  0.00  0.00     0.065 A 
ATOM      4  C   UNL d   1      -1.331   0.690   0.256  0.00  0.00     0.087 A 
ATOM      5  O   UNL d   1      -0.017   0.983   0.046  0.00  0.00    -0.314 OA
ATOM      6  C   UNL d   1       2.140  -0.046  -0.151  0.00  0.00     0.077 C 
ENDROOT
BRANCH   1   7
ATOM      7  C   UNL d   1       0.222  -2.666   0.354  0.00  0.00     0.258 C 
ATOM      8  N   UNL d   1      -0.833  -3.554   0.240  0.00  0.00    -0.321 N 
ATOM      9  H   UNL d   1      -1.655  -3.237  -0.258  0.00  0.00     0.169 HD
ATOM     10  O   UNL d   1       1.392  -3.003   0.488  0.00  0.00    -0.267 OA
BRANCH   8  11
ATOM     11  C   UNL d   1      -0.756  -4.944   0.488  0.00  0.00     0.056 A 
ATOM     12  C   UNL d   1      -1.615  -5.819  -0.198  0.00  0.00     0.060 A 
ATOM     13 CL   UNL d   1      -2.682  -5.235  -1.428  0.00  0.00    -0.082 Cl
ATOM     14  C   UNL d   1      -1.592  -7.191   0.066  0.00  0.00     0.026 A 
ATOM     15  C   UNL d   1      -0.738  -7.697   1.045  0.00  0.00     0.002 A 
ATOM     16  C   UNL d   1       0.109  -6.835   1.740  0.00  0.00     0.002 A 
ATOM     17  C   UNL d   1       0.111  -5.467   1.454  0.00  0.00     0.031 A 
ENDBRANCH   8  11
ENDBRANCH   1   7
BRANCH   4  18
ATOM     18  C   UNL d   1      -2.264   1.808   0.299  0.00  0.00    -0.002 A 
ATOM     19  C   UNL d   1      -1.821   3.127   0.484  0.00  0.00     0.014 A 
ATOM     20  C   UNL d   1      -2.731   4.193   0.528  0.00  0.00     0.001 A 
ATOM     21  C   UNL d   1      -4.098   3.948   0.391  0.00  0.00     0.000 A 
ATOM     22  C   UNL d   1      -4.552   2.644   0.200  0.00  0.00     0.001 A 
ATOM     23  C   UNL d   1      -3.644   1.587   0.155  0.00  0.00     0.014 A 
ENDBRANCH   4  18
TORSDOF 3
