REMARK  6 active torsions:
REMARK  status: ('A' for Active; 'I' for Inactive)
REMARK    1  A    between atoms: S_12  and  C_3 
REMARK    2  A    between atoms: C_14  and  C_6 
REMARK    3  A    between atoms: O_18  and  C_8 
REMARK    4  A    between atoms: C_10  and  C_13 
REMARK    5  A    between atoms: C_13  and  S_12 
REMARK    6  A    between atoms: C_23  and  O_18 
ROOT
ATOM      1  N   UNL d   1      -1.145   0.772   0.058  0.00  0.00    -0.317 N 
ATOM      2  HN  UNL d   1      -1.968   1.374   0.088  1.00  0.00     0.170 HD
ATOM      3  C   UNL d   1       0.096   1.267   0.002  0.00  0.00     0.146 A 
ATOM      4  N   UNL d   1       1.212   0.527  -0.008  0.00  0.00    -0.336 N 
ATOM      5  HN  UNL d   1       2.133   0.966  -0.027  1.00  0.00     0.168 HD
ATOM      6  C   UNL d   1       1.083  -0.819   0.009  0.00  0.00     0.048 A 
ATOM      7  C   UNL d   1      -0.158  -1.415   0.030  0.00  0.00     0.086 A 
ATOM      8  C   UNL d   1      -1.237  -0.566   0.071  0.00  0.00     0.146 A 
ENDROOT
BRANCH   3   9
ATOM      9  S   UNL d   1       0.251   3.036  -0.095  0.00  0.00    -0.089 SA
BRANCH   9  10
ATOM     10  C   UNL d   1       2.063   3.186  -0.054  0.00  0.00     0.122 C 
BRANCH  10  11
ATOM     11  C   UNL d   1       2.518   4.618  -0.220  0.00  0.00    -0.027 A 
ATOM     12  C   UNL d   1       2.821   5.180  -1.474  0.00  0.00     0.042 A 
ATOM     13  C   UNL d   1       3.255   6.505  -1.578  0.00  0.00     0.048 A 
ATOM     14 CL   UNL d   1       2.688   4.273  -2.939  0.00  0.00    -0.084 Cl
ATOM     15  C   UNL d   1       3.380   7.284  -0.431  0.00  0.00     0.035 A 
ATOM     16  C   UNL d   1       3.070   6.754   0.818  0.00  0.00     0.024 A 
ATOM     17 CL   UNL d   1       3.922   8.911  -0.558  0.00  0.00    -0.084 Cl
ATOM     18  C   UNL d   1       2.638   5.431   0.923  0.00  0.00     0.011 A 
ENDBRANCH  10  11
ENDBRANCH   9  10
ENDBRANCH   3   9
BRANCH   8  19
ATOM     19  O   UNL d   1      -2.483  -1.165   0.074  0.00  0.00    -0.336 OA
BRANCH  19  20
ATOM     20  C   UNL d   1      -3.516  -0.305   0.559  0.00  0.00     0.173 C 
ATOM     21  C   UNL d   1      -4.837  -1.047   0.454  0.00  0.00     0.034 C 
ENDBRANCH  19  20
ENDBRANCH   8  19
BRANCH   6  22
ATOM     22  C   UNL d   1       2.356  -1.573  -0.014  0.00  0.00    -0.009 A 
ATOM     23  C   UNL d   1       3.510  -1.011  -0.596  0.00  0.00     0.013 A 
ATOM     24  C   UNL d   1       4.726  -1.698  -0.626  0.00  0.00     0.001 A 
ATOM     25  C   UNL d   1       4.819  -2.969  -0.071  0.00  0.00     0.000 A 
ATOM     26  C   UNL d   1       3.699  -3.548   0.518  0.00  0.00     0.001 A 
ATOM     27  C   UNL d   1       2.482  -2.857   0.549  0.00  0.00     0.013 A 
ENDBRANCH   6  22
TORSDOF 6
