REMARK  8 active torsions:
REMARK  status: ('A' for Active; 'I' for Inactive)
REMARK    1  A    between atoms: N_2  and  C_1 
REMARK    2  A    between atoms: C_3  and  C_1 
REMARK    3  A    between atoms: N_4  and  C_1 
REMARK    4  A    between atoms: C_6  and  C_1 
REMARK       I    between atoms: C_5  and  N_2 
REMARK    5  A    between atoms: C_7  and  N_4 
REMARK    6  A    between atoms: C_9  and  C_5 
REMARK    7  A    between atoms: O_15  and  C_6 
REMARK    8  A    between atoms: C_21  and  O_15 
ROOT
ATOM      1  C   UNL d   1       1.085  -0.089  -0.040  0.00  0.00     0.297 C 
ENDROOT
BRANCH   1   2
ATOM      2  N   UNL d   1       0.646  -0.120  -1.445  0.00  0.00    -0.315 N 
ATOM      3  C   UNL d   1       0.957   0.881  -2.330  0.00  0.00     0.254 C 
ATOM      4  O   UNL d   1       1.718   1.805  -2.077  0.00  0.00    -0.268 OA
ATOM      5  H   UNL d   1       0.086  -0.909  -1.740  0.00  0.00     0.166 HD
BRANCH   3   6
ATOM      6  C   UNL d   1       0.366   0.738  -3.683  0.00  0.00     0.032 A 
ATOM      7  C   UNL d   1      -0.973   0.365  -3.846  0.00  0.00     0.017 A 
ATOM      8  C   UNL d   1      -1.503   0.234  -5.130  0.00  0.00     0.001 A 
ATOM      9  C   UNL d   1      -0.699   0.475  -6.246  0.00  0.00     0.000 A 
ATOM     10  C   UNL d   1       0.634   0.856  -6.082  0.00  0.00     0.001 A 
ATOM     11  C   UNL d   1       1.167   0.995  -4.801  0.00  0.00     0.017 A 
ENDBRANCH   3   6
ENDBRANCH   1   2
BRANCH   1  12
ATOM     12  C   UNL d   1       0.856  -1.459   0.710  0.00  0.00     0.442 C 
ATOM     13  F   UNL d   1       0.052  -2.264  -0.051  0.00  0.00    -0.166 F 
ATOM     14  F   UNL d   1       1.980  -2.179   0.937  0.00  0.00    -0.166 F 
ATOM     15  F   UNL d   1       0.231  -1.327   1.904  0.00  0.00    -0.166 F 
ENDBRANCH   1  12
BRANCH   1  16
ATOM     16  N   UNL d   1       0.398   1.057   0.594  0.00  0.00    -0.347 N 
ATOM     17  H   UNL d   1       0.950   1.917   0.595  0.00  0.00     0.163 HD
BRANCH  16  18
ATOM     18  C   UNL d   1      -0.966   1.240   0.780  0.00  0.00     0.052 A 
ATOM     19  C   UNL d   1      -1.441   2.357   1.505  0.00  0.00     0.060 A 
ATOM     20 CL   UNL d   1      -0.342   3.562   2.092  0.00  0.00    -0.082 Cl
ATOM     21  C   UNL d   1      -2.802   2.529   1.791  0.00  0.00     0.026 A 
ATOM     22  C   UNL d   1      -3.729   1.587   1.359  0.00  0.00     0.002 A 
ATOM     23  C   UNL d   1      -3.291   0.473   0.653  0.00  0.00     0.002 A 
ATOM     24  C   UNL d   1      -1.928   0.300   0.382  0.00  0.00     0.031 A 
ENDBRANCH  16  18
ENDBRANCH   1  16
BRANCH   1  25
ATOM     25  C   UNL d   1       2.631   0.039   0.050  0.00  0.00     0.318 C 
ATOM     26  O   UNL d   1       3.241   0.554   0.985  0.00  0.00    -0.260 OA
BRANCH  25  27
ATOM     27  O   UNL d   1       3.228  -0.626  -0.991  0.00  0.00    -0.318 OA
BRANCH  27  28
ATOM     28  C   UNL d   1       4.660  -0.651  -1.006  0.00  0.00     0.174 C 
ATOM     29  C   UNL d   1       5.167  -1.808  -0.166  0.00  0.00     0.034 C 
ENDBRANCH  27  28
ENDBRANCH  25  27
ENDBRANCH   1  25
TORSDOF 8
