REMARK  5 active torsions:
REMARK  status: ('A' for Active; 'I' for Inactive)
REMARK    1  A    between atoms: C_5  and  C_1 
REMARK    2  A    between atoms: C_7  and  C_2 
REMARK       I    between atoms: N_11  and  C_7 
REMARK    3  A    between atoms: C_9  and  O_13 
REMARK    4  A    between atoms: C_10  and  C_9 
REMARK    5  A    between atoms: O_13  and  N_11 
ROOT
ATOM      1  C   UNL d   1      -1.317  -0.785   0.255  0.00  0.00     0.086 A 
ATOM      2  C   UNL d   1      -0.023  -1.347  -0.011  0.00  0.00     0.094 A 
ATOM      3  N   UNL d   1      -1.196   0.505   0.605  0.00  0.00    -0.259 N 
ATOM      4  HN  UNL d   1      -1.947   1.128   0.902  1.00  0.00     0.195 HD
ATOM      5  O   UNL d   1       0.132   0.825   0.484  0.00  0.00    -0.241 OA
ATOM      6  C   UNL d   1       0.838  -0.271   0.108  0.00  0.00     0.090 A 
ATOM      7  C   UNL d   1       2.279  -0.025  -0.104  0.00  0.00     0.080 C 
ENDROOT
BRANCH   2   8
ATOM      8  C   UNL d   1       0.300  -2.717  -0.360  0.00  0.00     0.280 C 
ATOM      9  N   UNL d   1       1.472  -3.174   0.181  0.00  0.00    -0.221 N 
ATOM     10  H   UNL d   1       2.095  -2.648   0.785  0.00  0.00     0.198 HD
ATOM     11  O   UNL d   1      -0.460  -3.409  -1.033  0.00  0.00    -0.265 OA
BRANCH   9  12
ATOM     12  O   UNL d   1       1.776  -4.544  -0.000  0.00  0.00    -0.191 OA
BRANCH  12  13
ATOM     13  C   UNL d   1       3.097  -4.817   0.266  0.00  0.00     0.322 C 
ATOM     14  O   UNL d   1       3.913  -3.935   0.527  0.00  0.00    -0.257 OA
BRANCH  13  15
ATOM     15  C   UNL d   1       3.385  -6.239   0.222  0.00  0.00     0.082 A 
ATOM     16  S   UNL d   1       2.146  -7.425   0.156  0.00  0.00    -0.096 SA
ATOM     17  C   UNL d   1       3.271  -8.711   0.200  0.00  0.00     0.050 A 
ATOM     18  C   UNL d   1       4.569  -8.258   0.250  0.00  0.00     0.009 A 
ATOM     19  C   UNL d   1       4.635  -6.834   0.268  0.00  0.00     0.026 A 
ENDBRANCH  13  15
ENDBRANCH  12  13
ENDBRANCH   9  12
ENDBRANCH   2   8
BRANCH   1  20
ATOM     20  C   UNL d   1      -2.644  -1.412   0.237  0.00  0.00     0.037 A 
ATOM     21  C   UNL d   1      -2.942  -2.537   1.030  0.00  0.00     0.048 A 
ATOM     22 CL   UNL d   1      -1.804  -3.241   2.135  0.00  0.00    -0.083 Cl
ATOM     23  C   UNL d   1      -4.220  -3.116   1.010  0.00  0.00     0.025 A 
ATOM     24  C   UNL d   1      -5.235  -2.563   0.235  0.00  0.00     0.003 A 
ATOM     25  C   UNL d   1      -4.970  -1.436  -0.534  0.00  0.00     0.025 A 
ATOM     26  C   UNL d   1      -3.686  -0.872  -0.548  0.00  0.00     0.048 A 
ATOM     27 CL   UNL d   1      -3.472   0.495  -1.596  0.00  0.00    -0.083 Cl
ENDBRANCH   1  20
TORSDOF 5
