REMARK  2 active torsions:
REMARK  status: ('A' for Active; 'I' for Inactive)
REMARK    1  A    between atoms: C_2  and  C_1 
REMARK    2  A    between atoms: C_5  and  C_1 
ROOT
ATOM      1  C   UNL d   1       0.023   1.032  -0.193  0.00  0.00     0.041 A 
ATOM      2  C   UNL d   1       0.829  -0.271  -0.068  0.00  0.00     0.023 A 
ATOM      3  C   UNL d   1      -0.658  -0.339  -0.053  0.00  0.00     0.023 A 
ENDROOT
BRANCH   1   4
ATOM      4  C   UNL d   1      -0.007   1.955   1.039  0.00  0.00    -0.021 A 
ATOM      5  C   UNL d   1      -1.195   2.410   1.651  0.00  0.00     0.043 A 
ATOM      6  C   UNL d   1      -1.171   3.185   2.816  0.00  0.00     0.048 A 
ATOM      7 CL   UNL d   1      -2.750   2.029   0.991  0.00  0.00    -0.084 Cl
ATOM      8  C   UNL d   1       0.047   3.545   3.380  0.00  0.00     0.035 A 
ATOM      9  C   UNL d   1       1.239   3.159   2.779  0.00  0.00     0.024 A 
ATOM     10 CL   UNL d   1       0.081   4.470   4.830  0.00  0.00    -0.084 Cl
ATOM     11  C   UNL d   1       1.207   2.377   1.622  0.00  0.00     0.012 A 
ENDBRANCH   1   4
BRANCH   1  12
ATOM     12  C   UNL d   1      -0.044   1.699  -1.537  0.00  0.00     0.084 C 
ATOM     13  S   UNL d   1       1.344   2.251  -2.258  0.00  0.00    -0.065 SA
ATOM     14  N   UNL d   1      -1.271   1.834  -2.116  0.00  0.00    -0.393 N 
ATOM     15  H   UNL d   1      -2.120   1.560  -1.637  0.00  0.00     0.156 HD
ATOM     16  H   UNL d   1      -1.353   2.302  -3.009  0.00  0.00     0.156 HD
ENDBRANCH   1  12
TORSDOF 2
