REMARK  3 active torsions:
REMARK  status: ('A' for Active; 'I' for Inactive)
REMARK    1  A    between atoms: N_2  and  C_1 
REMARK    2  A    between atoms: C_6  and  N_2 
REMARK       I    between atoms: C_8  and  N_2 
REMARK    3  A    between atoms: C_19  and  C_12 
ROOT
ATOM      1  N   UNL d   1      -2.716  -0.704   0.198  0.00  0.00    -0.261 N 
ATOM      2  C   UNL d   1      -1.462  -0.433   0.754  0.00  0.00     0.226 C 
ATOM      3  O   UNL d   1      -0.471  -1.144   0.560  0.00  0.00    -0.273 OA
ATOM      4  C   UNL d   1      -1.268   0.844   1.547  0.00  0.00     0.118 C 
ENDROOT
BRANCH   1   5
ATOM      5  C   UNL d   1      -3.106  -1.974  -0.266  0.00  0.00     0.157 C 
ATOM      6  S   UNL d   1      -2.473  -3.360   0.590  0.00  0.00    -0.016 SA
ATOM      7  C   UNL d   1      -2.236  -4.324  -0.841  0.00  0.00     0.195 C 
ATOM      8  O   UNL d   1      -1.196  -4.949  -1.018  0.00  0.00    -0.285 OA
ATOM      9  C   UNL d   1      -3.407  -4.459  -1.768  0.00  0.00     0.111 C 
ATOM     10  C   UNL d   1      -4.474  -3.397  -1.604  0.00  0.00     0.130 C 
ATOM     11  N   UNL d   1      -3.966  -2.087  -1.217  0.00  0.00    -0.369 N 
ATOM     12  HN  UNL d   1      -4.295  -1.253  -1.704  1.00  0.00     0.161 HD
ENDBRANCH   1   5
BRANCH   1  13
ATOM     13  C   UNL d   1      -3.698   0.331   0.114  0.00  0.00     0.056 A 
ATOM     14  C   UNL d   1      -4.638   0.481   1.169  0.00  0.00    -0.034 A 
ATOM     15  C   UNL d   1      -5.581   1.518   1.096  0.00  0.00     0.009 A 
ATOM     16  C   UNL d   1      -4.678  -0.406   2.380  0.00  0.00     0.050 C 
ATOM     17  C   UNL d   1      -5.606   2.382   0.005  0.00  0.00     0.001 A 
ATOM     18  C   UNL d   1      -4.695   2.218  -1.036  0.00  0.00     0.009 A 
ATOM     19  C   UNL d   1      -3.723   1.202  -1.001  0.00  0.00    -0.031 A 
BRANCH  19  20
ATOM     20  C   UNL d   1      -2.807   1.032  -2.196  0.00  0.00     0.036 C 
ATOM     21  C   UNL d   1      -1.997   2.280  -2.526  0.00  0.00     0.010 C 
ENDBRANCH  19  20
ENDBRANCH   1  13
TORSDOF 3
