REMARK  3 active torsions:
REMARK  status: ('A' for Active; 'I' for Inactive)
REMARK    1  A    between atoms: N_7  and  C_3 
REMARK    2  A    between atoms: C_9  and  C_4 
REMARK    3  A    between atoms: C_8  and  N_7 
ROOT
ATOM      1  N   UNL d   1       1.313  -0.546  -0.544  0.00  0.00    -0.339 N 
ATOM      2  HN  UNL d   1       2.141  -0.998  -0.931  1.00  0.00     0.168 HD
ATOM      3  C   UNL d   1       0.242  -1.194  -0.145  0.00  0.00     0.149 A 
ATOM      4  C   UNL d   1       1.186   0.821  -0.379  0.00  0.00     0.025 A 
ATOM      5  S   UNL d   1      -1.014  -0.172   0.443  0.00  0.00    -0.064 SA
ATOM      6  C   UNL d   1      -0.018   1.201   0.187  0.00  0.00     0.079 A 
ENDROOT
BRANCH   3   7
ATOM      7  N   UNL d   1       0.081  -2.536  -0.196  0.00  0.00    -0.336 N 
ATOM      8  H   UNL d   1      -0.835  -2.908   0.021  0.00  0.00     0.168 HD
BRANCH   7   9
ATOM      9  C   UNL d   1       1.120  -3.476  -0.004  0.00  0.00     0.040 A 
ATOM     10  C   UNL d   1       1.034  -4.764  -0.564  0.00  0.00    -0.035 A 
ATOM     11  C   UNL d   1       2.081  -5.683  -0.351  0.00  0.00     0.015 A 
ATOM     12  C   UNL d   1      -0.120  -5.214  -1.418  0.00  0.00     0.050 C 
ATOM     13  C   UNL d   1       3.217  -5.340   0.395  0.00  0.00    -0.061 A 
ATOM     14  C   UNL d   1       3.308  -4.058   0.925  0.00  0.00     0.009 A 
ATOM     15  C   UNL d   1       4.320  -6.336   0.593  0.00  0.00     0.048 C 
ATOM     16  C   UNL d   1       2.276  -3.140   0.723  0.00  0.00     0.030 A 
ENDBRANCH   7   9
ENDBRANCH   3   7
BRANCH   4  17
ATOM     17  C   UNL d   1       2.316   1.708  -0.878  0.00  0.00    -0.008 C 
ATOM     18  C   UNL d   1       2.014   2.136  -2.327  0.00  0.00     0.021 C 
ATOM     19  C   UNL d   1       2.482   2.964  -0.003  0.00  0.00     0.021 C 
ATOM     20  C   UNL d   1       3.660   0.946  -0.867  0.00  0.00     0.021 C 
ENDBRANCH   4  17
TORSDOF 3
