REMARK  3 active torsions:
REMARK  status: ('A' for Active; 'I' for Inactive)
REMARK    1  A    between atoms: C_12  and  C_5 
REMARK    2  A    between atoms: C_17  and  C_11 
REMARK    3  A    between atoms: O_20  and  C_15 
ROOT
ATOM      1  C   UNL d   1      -2.057   0.318   0.062  0.00  0.00    -0.006 C 
ATOM      2  C   UNL d   1      -1.076  -0.812   0.035  0.00  0.00     0.189 C 
ATOM      3  C   UNL d   1       0.366  -0.433   0.027  0.00  0.00     0.021 A 
ATOM      4  C   UNL d   1       0.756   0.917  -0.020  0.00  0.00    -0.041 A 
ATOM      5  C   UNL d   1      -3.263   0.102  -0.489  0.00  0.00     0.022 C 
ATOM      6  C   UNL d   1       1.338  -1.439   0.030  0.00  0.00     0.019 A 
ATOM      7  C   UNL d   1      -1.549   1.594   0.664  0.00  0.00     0.047 C 
ATOM      8  O   UNL d   1      -1.426  -1.987  -0.000  0.00  0.00    -0.287 OA
ATOM      9  C   UNL d   1       2.121   1.230  -0.097  0.00  0.00     0.044 A 
ATOM     10  C   UNL d   1      -0.268   2.022  -0.043  0.00  0.00     0.044 C 
ATOM     11  C   UNL d   1       3.093   0.225  -0.096  0.00  0.00     0.068 A 
ATOM     12  C   UNL d   1       2.697  -1.111  -0.026  0.00  0.00     0.038 A 
ENDROOT
BRANCH   5  13
ATOM     13  C   UNL d   1      -4.296   1.125  -0.651  0.00  0.00    -0.036 A 
ATOM     14  C   UNL d   1      -4.329   1.893  -1.819  0.00  0.00     0.012 A 
ATOM     15  C   UNL d   1      -5.338   2.840  -2.013  0.00  0.00     0.008 A 
ATOM     16  C   UNL d   1      -6.332   3.039  -1.044  0.00  0.00    -0.055 A 
ATOM     17  C   UNL d   1      -6.272   2.284   0.138  0.00  0.00     0.008 A 
ATOM     18  C   UNL d   1      -5.262   1.336   0.334  0.00  0.00     0.012 A 
BRANCH  16  19
ATOM     19  C   UNL d   1      -7.465   4.029  -1.262  0.00  0.00     0.010 C 
ATOM     20  C   UNL d   1      -6.946   5.457  -1.443  0.00  0.00     0.015 C 
ATOM     21  C   UNL d   1      -8.344   3.623  -2.450  0.00  0.00     0.015 C 
ENDBRANCH  16  19
ENDBRANCH   5  13
BRANCH  11  22
ATOM     22  O   UNL d   1       4.379   0.682  -0.170  0.00  0.00    -0.356 OA
ATOM     23  C   UNL d   1       5.411  -0.296  -0.172  0.00  0.00     0.210 C 
ENDBRANCH  11  22
TORSDOF 3
