REMARK  1 active torsions:
REMARK  status: ('A' for Active; 'I' for Inactive)
REMARK    1  A    between atoms: C_2  and  C_1 
ROOT
ATOM      1  C   UNL d   1       0.074  -2.910   0.100  0.00  0.00     0.047 C 
ATOM      2  C   UNL d   1       0.004  -3.792  -0.913  0.00  0.00     0.125 C 
ATOM      3  N   UNL d   1      -0.163  -3.079  -3.388  0.00  0.00    -0.191 NA
ATOM      4  N   UNL d   1       0.010  -6.312  -0.341  0.00  0.00    -0.191 NA
ATOM      5  C   UNL d   1      -0.089  -3.389  -2.274  0.00  0.00     0.111 C 
ATOM      6  C   UNL d   1       0.009  -5.185  -0.616  0.00  0.00     0.111 C 
ENDROOT
BRANCH   1   7
ATOM      7  C   UNL d   1       0.052  -1.434  -0.021  0.00  0.00    -0.012 A 
ATOM      8  C   UNL d   1      -1.204  -0.752  -0.003  0.00  0.00    -0.015 A 
ATOM      9  C   UNL d   1      -1.204   0.661  -0.010  0.00  0.00    -0.024 A 
ATOM     10  C   UNL d   1      -2.466  -1.399   0.031  0.00  0.00     0.013 A 
ATOM     11  C   UNL d   1      -2.417   1.370  -0.002  0.00  0.00     0.012 A 
ATOM     12  C   UNL d   1       0.011   1.357  -0.012  0.00  0.00     0.024 A 
ATOM     13  C   UNL d   1      -3.640   0.704   0.016  0.00  0.00     0.001 A 
ATOM     14  C   UNL d   1      -3.665  -0.682   0.035  0.00  0.00     0.001 A 
ATOM     15  C   UNL d   1       1.246   0.695  -0.039  0.00  0.00    -0.024 A 
ATOM     16  C   UNL d   1       1.286  -0.717  -0.075  0.00  0.00    -0.015 A 
ATOM     17  C   UNL d   1       2.439   1.438  -0.021  0.00  0.00     0.012 A 
ATOM     18  C   UNL d   1       2.564  -1.327  -0.150  0.00  0.00     0.013 A 
ATOM     19  C   UNL d   1       3.742  -0.576  -0.149  0.00  0.00     0.001 A 
ATOM     20  C   UNL d   1       3.680   0.807  -0.067  0.00  0.00     0.001 A 
ENDBRANCH   1   7
TORSDOF 1
