REMARK  4 active torsions:
REMARK  status: ('A' for Active; 'I' for Inactive)
REMARK    1  A    between atoms: C_7  and  C_1 
REMARK    2  A    between atoms: S_8  and  C_2 
REMARK    3  A    between atoms: C_6  and  C_4 
REMARK    4  A    between atoms: O_12  and  C_6 
ROOT
ATOM      1  C   UNL d   1       1.342   0.021  -0.013  0.00  0.00     0.040 A 
ATOM      2  C   UNL d   1       0.372  -0.953   0.172  0.00  0.00     0.056 A 
ATOM      3  C   UNL d   1       0.746   1.357  -0.054  0.00  0.00    -0.023 A 
ATOM      4  C   UNL d   1      -0.643   1.317   0.001  0.00  0.00     0.088 A 
ATOM      5  S   UNL d   1      -1.204  -0.285   0.173  0.00  0.00    -0.076 SA
ATOM      6  C   UNL d   1       1.534   2.637  -0.126  0.00  0.00     0.051 C 
ENDROOT
BRANCH   4   7
ATOM      7  C   UNL d   1      -1.570   2.450  -0.053  0.00  0.00     0.300 C 
ATOM      8  O   UNL d   1      -1.239   3.625  -0.143  0.00  0.00    -0.259 OA
BRANCH   7   9
ATOM      9  O   UNL d   1      -2.873   2.041   0.010  0.00  0.00    -0.322 OA
ATOM     10  C   UNL d   1      -3.824   3.105  -0.020  0.00  0.00     0.213 C 
ENDBRANCH   7   9
ENDBRANCH   4   7
BRANCH   1  11
ATOM     11  C   UNL d   1       2.783  -0.222  -0.169  0.00  0.00     0.158 C 
ATOM     12  O   UNL d   1       3.405   0.315  -1.088  0.00  0.00    -0.293 OA
ATOM     13  C   UNL d   1       3.534  -1.067   0.826  0.00  0.00     0.097 C 
ENDBRANCH   1  11
BRANCH   2  14
ATOM     14  S   UNL d   1       0.511  -2.694   0.424  0.00  0.00    -0.126 SA
ATOM     15  C   UNL d   1       1.450  -3.258  -1.005  0.00  0.00     0.096 C 
ENDBRANCH   2  14
TORSDOF 4
