REMARK  0 active torsions:
REMARK  status: ('A' for Active; 'I' for Inactive)
ROOT
ATOM      1  O   UNL d   1       1.410   1.003   0.010  0.00  0.00    -0.275 OA
ATOM      2  C   UNL d   1       2.429   0.061   0.006  0.00  0.00     0.288 A 
ATOM      3  C   UNL d   1       0.057   0.610   0.010  0.00  0.00     0.089 A 
ATOM      4  C   UNL d   1      -0.301  -0.736   0.004  0.00  0.00    -0.002 A 
ATOM      5  C   UNL d   1       0.749  -1.742   0.008  0.00  0.00     0.020 A 
ATOM      6  C   UNL d   1       2.028  -1.357   0.011  0.00  0.00     0.083 A 
ATOM      7  C   UNL d   1      -1.657  -1.074  -0.003  0.00  0.00     0.021 A 
ATOM      8  O   UNL d   1       3.613   0.375  -0.000  0.00  0.00    -0.260 OA
ATOM      9  C   UNL d   1      -0.899   1.620   0.015  0.00  0.00     0.039 A 
ATOM     10  C   UNL d   1      -2.641  -0.070   0.001  0.00  0.00    -0.061 A 
ATOM     11  C   UNL d   1      -2.251   1.277   0.013  0.00  0.00     0.009 A 
ATOM     12  C   UNL d   1      -4.095  -0.444  -0.005  0.00  0.00     0.048 C 
ENDROOT
TORSDOF 0
