REMARK  3 active torsions:
REMARK  status: ('A' for Active; 'I' for Inactive)
REMARK    1  A    between atoms: C_7  and  N_2 
REMARK    2  A    between atoms: N_10  and  C_7 
REMARK    3  A    between atoms: C_12  and  N_10 
ROOT
ATOM      1  N   UNL d   1       1.159   0.533  -1.298  0.00  0.00    -0.018 NA
ATOM      2  N   UNL d   1       1.435   1.133  -0.122  0.00  0.00    -0.256 N 
ATOM      3  N   UNL d   1       0.747  -0.699  -1.036  0.00  0.00    -0.282 N 
ATOM      4  HN  UNL d   1       0.464  -1.395  -1.726  1.00  0.00     0.184 HD
ATOM      5  C   UNL d   1       0.768  -0.875   0.319  0.00  0.00     0.075 A 
ATOM      6  C   UNL d   1       1.206   0.292   0.940  0.00  0.00     0.078 A 
ATOM      7  C   UNL d   1       0.433  -1.996   1.090  0.00  0.00     0.056 A 
ATOM      8  C   UNL d   1       1.333   0.412   2.328  0.00  0.00     0.035 A 
ATOM      9  C   UNL d   1       0.560  -1.898   2.477  0.00  0.00     0.036 A 
ATOM     10  C   UNL d   1       1.000  -0.719   3.087  0.00  0.00     0.026 A 
ATOM     11 CL   UNL d   1       0.170  -3.261   3.455  0.00  0.00    -0.084 Cl
ENDROOT
BRANCH   2  12
ATOM     12  C   UNL d   1       1.935   2.506  -0.103  0.00  0.00     0.268 C 
BRANCH  12  13
ATOM     13  N   UNL d   1       0.889   3.525  -0.000  0.00  0.00    -0.372 N 
ATOM     14  H   UNL d   1       0.168   3.284   0.675  0.00  0.00     0.161 HD
BRANCH  13  15
ATOM     15  C   UNL d   1       1.213   4.881  -0.005  0.00  0.00     0.029 A 
ATOM     16  C   UNL d   1       2.359   5.403  -0.622  0.00  0.00     0.032 A 
ATOM     17  C   UNL d   1       2.593   6.783  -0.661  0.00  0.00     0.044 A 
ATOM     18  C   UNL d   1       1.668   7.654  -0.104  0.00  0.00     0.116 A 
ATOM     19  C   UNL d   1       0.505   7.172   0.474  0.00  0.00     0.044 A 
ATOM     20  F   UNL d   1       1.893   8.973  -0.142  0.00  0.00    -0.206 F 
ATOM     21  C   UNL d   1       0.274   5.793   0.506  0.00  0.00     0.032 A 
ENDBRANCH  13  15
ENDBRANCH  12  13
ENDBRANCH   2  12
TORSDOF 3
