REMARK  3 active torsions:
REMARK  status: ('A' for Active; 'I' for Inactive)
REMARK    1  A    between atoms: C_2  and  N_1 
REMARK       I    between atoms: C_3  and  N_4 
REMARK    2  A    between atoms: C_7  and  C_3 
REMARK    3  A    between atoms: N_4  and  C_5 
ROOT
ATOM      1  C   UNL d   1       2.712   1.747  -0.325  0.00  0.00     0.256 C 
ATOM      2  N   UNL d   1       1.901   2.410   0.575  0.00  0.00    -0.321 N 
ATOM      3  O   UNL d   1       2.497   0.608  -0.744  0.00  0.00    -0.267 OA
ATOM      4  H   UNL d   1       2.264   3.221   1.067  0.00  0.00     0.169 HD
ENDROOT
BRANCH   2   5
ATOM      5  C   UNL d   1       0.621   1.960   0.982  0.00  0.00     0.068 A 
ATOM      6  C   UNL d   1       0.134   2.212   2.277  0.00  0.00     0.129 A 
ATOM      7  C   UNL d   1      -1.140   1.793   2.685  0.00  0.00     0.038 A 
ATOM      8  C   UNL d   1      -1.965   1.147   1.768  0.00  0.00     0.003 A 
ATOM      9  C   UNL d   1      -1.511   0.907   0.472  0.00  0.00     0.002 A 
ATOM     10  C   UNL d   1      -0.223   1.297   0.085  0.00  0.00     0.032 A 
BRANCH   6  11
ATOM     11  N   UNL d   1       0.992   2.834   3.262  0.00  0.00    -0.113 N 
ATOM     12  O   UNL d   1       1.510   3.922   2.949  0.00  0.00    -0.532 OA
ATOM     13  O   UNL d   1       1.170   2.236   4.327  0.00  0.00    -0.532 OA
ENDBRANCH   6  11
ENDBRANCH   2   5
BRANCH   1  14
ATOM     14  C   UNL d   1       3.918   2.479  -0.819  0.00  0.00     0.032 A 
ATOM     15  C   UNL d   1       4.444   3.619  -0.197  0.00  0.00     0.018 A 
ATOM     16  C   UNL d   1       5.469   4.345  -0.815  0.00  0.00     0.025 A 
ATOM     17  C   UNL d   1       5.983   3.923  -2.042  0.00  0.00     0.034 A 
ATOM     18  C   UNL d   1       5.516   2.754  -2.633  0.00  0.00     0.025 A 
ATOM     19 CL   UNL d   1       7.183   4.865  -2.833  0.00  0.00    -0.084 Cl
ATOM     20  C   UNL d   1       4.493   2.030  -2.020  0.00  0.00     0.018 A 
ENDBRANCH   1  14
TORSDOF 3
