REMARK  5 active torsions:
REMARK  status: ('A' for Active; 'I' for Inactive)
REMARK    1  A    between atoms: O_12  and  C_3 
REMARK    2  A    between atoms: S_11  and  C_4 
REMARK    3  A    between atoms: C_15  and  C_8 
REMARK    4  A    between atoms: C_14  and  S_11 
REMARK    5  A    between atoms: O_16  and  C_15 
ROOT
ATOM      1  C   UNL d   1       4.011   3.426  -0.876  0.00  0.00    -0.107 C 
ATOM      2  C   UNL d   1       4.755   4.367  -0.930  0.00  0.00     0.013 C 
ATOM      3  C   UNL d   1       3.104   2.265  -0.804  0.00  0.00     0.175 C 
ENDROOT
BRANCH   3   4
ATOM      4  S   UNL d   1       1.550   2.712   0.021  0.00  0.00    -0.082 SA
BRANCH   4   5
ATOM      5  C   UNL d   1       0.693   1.162  -0.060  0.00  0.00     0.147 A 
ATOM      6  N   UNL d   1      -0.644   1.233  -0.043  0.00  0.00    -0.317 N 
ATOM      7  C   UNL d   1      -1.281   0.060  -0.030  0.00  0.00     0.149 A 
ATOM      8  HN  UNL d   1      -1.142   2.123  -0.039  1.00  0.00     0.170 HD
ATOM      9  C   UNL d   1      -0.691  -1.183  -0.025  0.00  0.00     0.014 A 
ATOM     10  C   UNL d   1      -1.486  -2.449   0.003  0.00  0.00     0.055 C 
ATOM     11  C   UNL d   1       0.697  -1.149  -0.046  0.00  0.00     0.045 A 
ATOM     12  N   UNL d   1       1.397   0.018  -0.059  0.00  0.00    -0.338 N 
ATOM     13  HN  UNL d   1       2.417   0.024  -0.067  1.00  0.00     0.168 HD
BRANCH   7  14
ATOM     14  O   UNL d   1      -2.632   0.196  -0.005  0.00  0.00    -0.346 OA
ATOM     15  H   UNL d   1      -2.712   1.167  -0.012  0.00  0.00     0.219 HD
ENDBRANCH   7  14
BRANCH  11  16
ATOM     16  C   UNL d   1       1.520  -2.420  -0.026  0.00  0.00     0.224 C 
BRANCH  16  17
ATOM     17  O   UNL d   1       1.261  -3.192  -1.200  0.00  0.00    -0.390 OA
ATOM     18  C   UNL d   1       2.032  -4.384  -1.225  0.00  0.00     0.201 C 
ENDBRANCH  16  17
ENDBRANCH  11  16
ENDBRANCH   4   5
ENDBRANCH   3   4
TORSDOF 5
