REMARK  7 active torsions:
REMARK  status: ('A' for Active; 'I' for Inactive)
REMARK    1  A    between atoms: C_12  and  C_3 
REMARK    2  A    between atoms: O_11  and  C_5 
REMARK    3  A    between atoms: O_17  and  C_10 
REMARK    4  A    between atoms: C_13  and  O_11 
REMARK    5  A    between atoms: C_15  and  O_17 
REMARK    6  A    between atoms: C_16  and  O_18 
REMARK    7  A    between atoms: O_18  and  C_24 
ROOT
ATOM      1  C   UNL d   1      -1.451   0.680   0.440  0.00  0.00     0.200 C 
ATOM      2  C   UNL d   1       0.002   0.494   0.221  0.00  0.00     0.083 A 
ATOM      3  C   UNL d   1      -2.340  -0.483   0.119  0.00  0.00     0.048 C 
ATOM      4  C   UNL d   1       0.471  -0.811   0.060  0.00  0.00     0.094 A 
ATOM      5  C   UNL d   1       0.920   1.556   0.188  0.00  0.00     0.099 A 
ATOM      6  C   UNL d   1      -1.715  -1.658  -0.079  0.00  0.00     0.159 C 
ATOM      7  O   UNL d   1      -0.364  -1.897  -0.005  0.00  0.00    -0.321 OA
ATOM      8  C   UNL d   1       1.840  -1.072  -0.049  0.00  0.00     0.075 A 
ATOM      9  C   UNL d   1       2.291   1.300   0.085  0.00  0.00     0.076 A 
ATOM     10  C   UNL d   1       2.744  -0.013  -0.004  0.00  0.00     0.084 A 
ATOM     11  O   UNL d   1      -1.893   1.732   0.883  0.00  0.00    -0.286 OA
ENDROOT
BRANCH   3  12
ATOM     12  C   UNL d   1      -3.814  -0.357  -0.015  0.00  0.00    -0.020 A 
ATOM     13  C   UNL d   1      -4.688  -1.414   0.300  0.00  0.00     0.015 A 
ATOM     14  C   UNL d   1      -6.076  -1.290   0.139  0.00  0.00     0.038 A 
ATOM     15  C   UNL d   1      -6.610  -0.088  -0.312  0.00  0.00     0.079 A 
ATOM     16  C   UNL d   1      -5.770   0.975  -0.631  0.00  0.00     0.038 A 
ATOM     17  C   UNL d   1      -4.385   0.838  -0.483  0.00  0.00     0.015 A 
BRANCH  15  18
ATOM     18  O   UNL d   1      -7.983   0.128  -0.549  0.00  0.00    -0.279 OA
BRANCH  18  19
ATOM     19  C   UNL d   1      -8.984  -0.512   0.183  0.00  0.00     0.260 C 
ATOM     20  O   UNL d   1      -8.834  -1.294   1.106  0.00  0.00    -0.265 OA
ATOM     21  C   UNL d   1     -10.329  -0.072  -0.325  0.00  0.00     0.126 C 
ENDBRANCH  18  19
ENDBRANCH  15  18
ENDBRANCH   3  12
BRANCH   5  22
ATOM     22  O   UNL d   1       0.466   2.886   0.337  0.00  0.00    -0.278 OA
BRANCH  22  23
ATOM     23  C   UNL d   1       1.065   3.925  -0.376  0.00  0.00     0.260 C 
ATOM     24  O   UNL d   1       1.905   3.815  -1.261  0.00  0.00    -0.265 OA
ATOM     25  C   UNL d   1       0.495   5.236   0.075  0.00  0.00     0.126 C 
ENDBRANCH  22  23
ENDBRANCH   5  22
BRANCH  10  26
ATOM     26  O   UNL d   1       4.110  -0.347  -0.114  0.00  0.00    -0.279 OA
BRANCH  26  27
ATOM     27  C   UNL d   1       5.096   0.416   0.517  0.00  0.00     0.260 C 
ATOM     28  O   UNL d   1       4.927   1.412   1.208  0.00  0.00    -0.265 OA
ATOM     29  C   UNL d   1       6.445  -0.177   0.242  0.00  0.00     0.126 C 
ENDBRANCH  26  27
ENDBRANCH  10  26
TORSDOF 7
