REMARK  4 active torsions:
REMARK  status: ('A' for Active; 'I' for Inactive)
REMARK    1  A    between atoms: C_10  and  N_1 
REMARK    2  A    between atoms: N_9  and  C_14 
REMARK    3  A    between atoms: C_12  and  C_10 
REMARK    4  A    between atoms: C_14  and  C_12 
ROOT
ATOM      1  N   UNL d   1       3.678  -2.160   1.025  0.00  0.00    -0.290 N 
ATOM      2  C   UNL d   1       4.080  -1.907   2.336  0.00  0.00     0.181 C 
ATOM      3  C   UNL d   1       2.851  -3.268   0.709  0.00  0.00     0.262 C 
ATOM      4  C   UNL d   1       2.491  -4.202   1.790  0.00  0.00     0.059 A 
ATOM      5  N   UNL d   1       3.812  -2.870   3.272  0.00  0.00    -0.332 N 
ATOM      6  C   UNL d   1       3.008  -3.980   3.052  0.00  0.00     0.050 A 
ATOM      7  S   UNL d   1       4.849  -0.559   2.966  0.00  0.00    -0.040 SA
ATOM      8  O   UNL d   1       2.373  -3.479  -0.408  0.00  0.00    -0.267 OA
ATOM      9  C   UNL d   1       1.611  -5.273   1.573  0.00  0.00     0.019 A 
ATOM     10  C   UNL d   1       2.683  -4.828   4.112  0.00  0.00     0.030 A 
ATOM     11  C   UNL d   1       1.264  -6.112   2.632  0.00  0.00     0.001 A 
ATOM     12  C   UNL d   1       1.806  -5.894   3.900  0.00  0.00     0.002 A 
ATOM     13  H   UNL d   1       4.138  -2.674   4.212  0.00  0.00     0.168 HD
ENDROOT
BRANCH   1  14
ATOM     14  C   UNL d   1       3.772  -1.191  -0.091  0.00  0.00     0.136 C 
BRANCH  14  15
ATOM     15  C   UNL d   1       5.012  -0.322  -0.326  0.00  0.00     0.050 C 
BRANCH  15  16
ATOM     16  C   UNL d   1       6.339  -1.073  -0.504  0.00  0.00     0.274 C 
BRANCH  16  17
ATOM     17  N   UNL d   1       7.463  -0.128  -0.425  0.00  0.00     0.092 N 
ATOM     18  C   UNL d   1       7.571   0.819  -1.554  0.00  0.00     0.298 C 
ATOM     19  C   UNL d   1       8.289   0.261  -2.791  0.00  0.00     0.198 C 
ATOM     20  O   UNL d   1       9.587  -0.238  -2.453  0.00  0.00    -0.388 OA
ATOM     21  C   UNL d   1       9.474  -1.276  -1.473  0.00  0.00     0.198 C 
ATOM     22  C   UNL d   1       8.768  -0.780  -0.201  0.00  0.00     0.298 C 
ENDBRANCH  16  17
ENDBRANCH  15  16
ENDBRANCH  14  15
ENDBRANCH   1  14
TORSDOF 4
