REMARK  4 active torsions:
REMARK  status: ('A' for Active; 'I' for Inactive)
REMARK    1  A    between atoms: N_2  and  C_1 
REMARK    2  A    between atoms: N_3  and  C_1 
REMARK    3  A    between atoms: C_10  and  N_3 
REMARK    4  A    between atoms: O_11  and  C_9 
ROOT
ATOM      1  C   UNL d   1       0.644   0.311   0.725  0.00  0.00     0.170 C 
ATOM      2  S   UNL d   1      -0.157   1.547   1.534  0.00  0.00    -0.041 SA
ENDROOT
BRANCH   1   3
ATOM      3  N   UNL d   1       1.971   0.397   0.278  0.00  0.00    -0.358 N 
ATOM      4  C   UNL d   1       2.450  -0.275  -0.937  0.00  0.00     0.127 C 
ATOM      5  C   UNL d   1       3.785  -0.967  -0.689  0.00  0.00     0.051 C 
ATOM      6  C   UNL d   1       4.817  -0.043  -0.038  0.00  0.00     0.121 C 
ATOM      7  C   UNL d   1       4.245   0.785   1.113  0.00  0.00     0.051 C 
ATOM      8  C   UNL d   1       2.903   1.422   0.765  0.00  0.00     0.127 C 
BRANCH   6   9
ATOM      9  O   UNL d   1       5.403   0.808  -1.022  0.00  0.00    -0.395 OA
ATOM     10  H   UNL d   1       4.726   1.420  -1.359  0.00  0.00     0.210 HD
ENDBRANCH   6   9
ENDBRANCH   1   3
BRANCH   1  11
ATOM     11  N   UNL d   1       0.056  -0.912   0.455  0.00  0.00    -0.363 N 
ATOM     12  H   UNL d   1       0.678  -1.661   0.191  0.00  0.00     0.162 HD
BRANCH  11  13
ATOM     13  C   UNL d   1      -1.385  -1.234   0.451  0.00  0.00     0.083 C 
ATOM     14  C   UNL d   1      -1.616  -2.661   0.978  0.00  0.00     0.025 C 
ATOM     15  C   UNL d   1      -1.342  -3.797  -0.011  0.00  0.00     0.002 C 
ATOM     16  C   UNL d   1      -2.588  -4.405  -0.665  0.00  0.00     0.000 C 
ATOM     17  C   UNL d   1      -3.377  -3.522  -1.635  0.00  0.00     0.000 C 
ATOM     18  C   UNL d   1      -4.115  -2.357  -0.977  0.00  0.00     0.000 C 
ATOM     19  C   UNL d   1      -3.439  -0.993  -1.107  0.00  0.00     0.002 C 
ATOM     20  C   UNL d   1      -1.923  -0.938  -0.954  0.00  0.00     0.025 C 
ENDBRANCH  11  13
ENDBRANCH   1  11
TORSDOF 4
