REMARK  4 active torsions:
REMARK  status: ('A' for Active; 'I' for Inactive)
REMARK    1  A    between atoms: C_7  and  C_1 
REMARK    2  A    between atoms: C_8  and  C_1 
REMARK    3  A    between atoms: N_4  and  N_2 
REMARK    4  A    between atoms: C_5  and  N_4 
ROOT
ATOM      1  N   UNL d   1       1.016   1.536  -1.760  0.00  0.00    -0.297 N 
ATOM      2  H   UNL d   1       2.027   1.730  -1.708  0.00  0.00     0.187 HD
ENDROOT
BRANCH   1   3
ATOM      3  N   UNL d   1       0.381   0.833  -0.791  0.00  0.00    -0.294 N 
ATOM      4  C   UNL d   1       1.096   0.099   0.015  0.00  0.00     0.139 C 
ATOM      5  HN  UNL d   1      -0.633   0.878  -0.694  1.00  0.00     0.187 HD
BRANCH   4   6
ATOM      6  C   UNL d   1       0.310  -0.750   0.991  0.00  0.00     0.177 C 
ATOM      7  O   UNL d   1       0.818  -1.019   2.073  0.00  0.00    -0.291 OA
ATOM      8  C   UNL d   1      -1.028  -1.280   0.546  0.00  0.00     0.098 C 
ENDBRANCH   4   6
BRANCH   4   9
ATOM      9  C   UNL d   1       2.617   0.088  -0.007  0.00  0.00     0.177 C 
ATOM     10  O   UNL d   1       3.225   1.110  -0.310  0.00  0.00    -0.291 OA
ATOM     11  C   UNL d   1       3.324  -1.196   0.323  0.00  0.00     0.098 C 
ENDBRANCH   4   9
ENDBRANCH   1   3
BRANCH   1  12
ATOM     12  C   UNL d   1       0.295   2.508  -2.479  0.00  0.00     0.086 A 
ATOM     13  C   UNL d   1       0.734   2.889  -3.756  0.00  0.00     0.147 A 
ATOM     14  C   UNL d   1       0.018   3.790  -4.537  0.00  0.00     0.086 A 
ATOM     15  F   UNL d   1       1.855   2.349  -4.261  0.00  0.00    -0.204 F 
ATOM     16  C   UNL d   1      -1.147   4.340  -4.024  0.00  0.00     0.119 A 
ATOM     17  C   UNL d   1      -1.609   3.994  -2.759  0.00  0.00     0.045 A 
ATOM     18  F   UNL d   1      -1.843   5.215  -4.762  0.00  0.00    -0.206 F 
ATOM     19  C   UNL d   1      -0.898   3.063  -1.996  0.00  0.00     0.037 A 
ENDBRANCH   1  12
TORSDOF 4
