REMARK  6 active torsions:
REMARK  status: ('A' for Active; 'I' for Inactive)
REMARK    1  A    between atoms: C_2  and  C_1 
REMARK       I    between atoms: N_6  and  C_1 
REMARK    2  A    between atoms: C_3  and  C_14 
REMARK    3  A    between atoms: C_17  and  N_6 
REMARK    4  A    between atoms: S_13  and  C_18 
REMARK    5  A    between atoms: C_14  and  S_13 
REMARK    6  A    between atoms: C_18  and  C_17 
ROOT
ATOM      1  C   UNL d   1       2.492   0.038   0.047  0.00  0.00     0.251 C 
ATOM      2  O   UNL d   1       3.106  -1.020  -0.023  0.00  0.00    -0.268 OA
ATOM      3  N   UNL d   1       3.107   1.269   0.001  0.00  0.00    -0.356 N 
ATOM      4  H   UNL d   1       2.559   2.119   0.055  0.00  0.00     0.162 HD
ENDROOT
BRANCH   3   5
ATOM      5  C   UNL d   1       4.553   1.397  -0.004  0.00  0.00     0.133 C 
BRANCH   5   6
ATOM      6  C   UNL d   1       5.021   2.853   0.071  0.00  0.00     0.093 C 
BRANCH   6   7
ATOM      7  S   UNL d   1       4.393   3.654   1.591  0.00  0.00    -0.163 SA
BRANCH   7   8
ATOM      8  C   UNL d   1       5.129   5.307   1.386  0.00  0.00     0.114 C 
BRANCH   8   9
ATOM      9  C   UNL d   1       4.875   6.167   2.601  0.00  0.00    -0.027 A 
ATOM     10  C   UNL d   1       3.723   6.954   2.755  0.00  0.00     0.041 A 
ATOM     11 CL   UNL d   1       2.500   7.037   1.536  0.00  0.00    -0.084 Cl
ATOM     12  C   UNL d   1       3.525   7.709   3.919  0.00  0.00     0.024 A 
ATOM     13  C   UNL d   1       4.468   7.684   4.944  0.00  0.00     0.002 A 
ATOM     14  C   UNL d   1       5.613   6.903   4.810  0.00  0.00     0.001 A 
ATOM     15  C   UNL d   1       5.812   6.148   3.653  0.00  0.00     0.009 A 
ENDBRANCH   8   9
ENDBRANCH   7   8
ENDBRANCH   6   7
ENDBRANCH   5   6
ENDBRANCH   3   5
BRANCH   1  16
ATOM     16  C   UNL d   1       1.005   0.046   0.154  0.00  0.00     0.032 A 
ATOM     17  C   UNL d   1       0.303   1.083   0.779  0.00  0.00     0.017 A 
ATOM     18  C   UNL d   1      -1.094   1.047   0.839  0.00  0.00     0.007 A 
ATOM     19  C   UNL d   1      -1.803  -0.027   0.285  0.00  0.00    -0.062 A 
ATOM     20  C   UNL d   1      -1.095  -1.072  -0.318  0.00  0.00     0.007 A 
ATOM     21  C   UNL d   1      -3.302  -0.052   0.357  0.00  0.00     0.048 C 
ATOM     22  C   UNL d   1       0.300  -1.039  -0.380  0.00  0.00     0.017 A 
ENDBRANCH   1  16
TORSDOF 6
