REMARK  4 active torsions:
REMARK  status: ('A' for Active; 'I' for Inactive)
REMARK       I    between atoms: N_3  and  C_1 
REMARK    1  A    between atoms: C_8  and  C_1 
REMARK    2  A    between atoms: C_2  and  O_6 
REMARK    3  A    between atoms: C_5  and  N_3 
REMARK    4  A    between atoms: O_6  and  C_4 
ROOT
ATOM      1  C   UNL d   1       0.529  -3.326  -1.027  0.00  0.00     0.106 A 
ATOM      2  C   UNL d   1       0.978  -2.320  -0.146  0.00  0.00     0.069 A 
ATOM      3  C   UNL d   1       1.169  -4.584  -1.030  0.00  0.00     0.063 A 
ATOM      4  C   UNL d   1       2.000  -2.651   0.762  0.00  0.00     0.034 A 
ATOM      5  C   UNL d   1       2.193  -4.871  -0.134  0.00  0.00     0.036 A 
ATOM      6  C   UNL d   1       2.603  -3.910   0.772  0.00  0.00     0.026 A 
ATOM      7 CL   UNL d   1       2.949  -6.413  -0.157  0.00  0.00    -0.084 Cl
ENDROOT
BRANCH   2   8
ATOM      8  N   UNL d   1       0.442  -1.009  -0.143  0.00  0.00    -0.321 N 
ATOM      9  C   UNL d   1       1.073   0.118   0.346  0.00  0.00     0.256 C 
ATOM     10  O   UNL d   1       2.242   0.215   0.705  0.00  0.00    -0.267 OA
ATOM     11  H   UNL d   1      -0.400  -0.821  -0.670  0.00  0.00     0.169 HD
BRANCH   9  12
ATOM     12  C   UNL d   1       0.237   1.339   0.364  0.00  0.00     0.032 A 
ATOM     13  C   UNL d   1      -1.023   1.331   0.977  0.00  0.00     0.018 A 
ATOM     14  C   UNL d   1      -1.770   2.510   1.033  0.00  0.00     0.025 A 
ATOM     15  C   UNL d   1      -1.261   3.682   0.470  0.00  0.00     0.034 A 
ATOM     16  C   UNL d   1      -0.008   3.691  -0.143  0.00  0.00     0.025 A 
ATOM     17 CL   UNL d   1      -2.183   5.133   0.546  0.00  0.00    -0.084 Cl
ATOM     18  C   UNL d   1       0.748   2.518  -0.188  0.00  0.00     0.018 A 
ENDBRANCH   9  12
ENDBRANCH   2   8
BRANCH   1  19
ATOM     19  O   UNL d   1      -0.410  -3.259  -2.018  0.00  0.00    -0.253 OA
BRANCH  19  20
ATOM     20  C   UNL d   1      -1.554  -2.444  -1.838  0.00  0.00     0.530 C 
ATOM     21  F   UNL d   1      -1.971  -2.425  -0.556  0.00  0.00    -0.144 F 
ATOM     22  F   UNL d   1      -1.280  -1.175  -2.212  0.00  0.00    -0.144 F 
ATOM     23  F   UNL d   1      -2.558  -2.910  -2.608  0.00  0.00    -0.144 F 
ENDBRANCH  19  20
ENDBRANCH   1  19
TORSDOF 4
