REMARK  6 active torsions:
REMARK  status: ('A' for Active; 'I' for Inactive)
REMARK       I    between atoms: N_2  and  C_1 
REMARK    1  A    between atoms: C_6  and  C_1 
REMARK    2  A    between atoms: C_8  and  N_2 
REMARK    3  A    between atoms: C_3  and  C_7 
REMARK    4  A    between atoms: O_11  and  C_3 
REMARK    5  A    between atoms: C_10  and  C_6 
REMARK    6  A    between atoms: C_7  and  C_10 
ROOT
ATOM      1  C   UNL d   1       0.825  -0.047   0.739  0.00  0.00     0.222 C 
ATOM      2  N   UNL d   1       0.100   1.081   0.394  0.00  0.00    -0.327 N 
ATOM      3  O   UNL d   1       0.440  -0.949   1.478  0.00  0.00    -0.273 OA
ATOM      4  H   UNL d   1       0.489   1.674  -0.330  0.00  0.00     0.169 HD
ENDROOT
BRANCH   1   5
ATOM      5  C   UNL d   1       2.217  -0.071   0.121  0.00  0.00     0.108 C 
BRANCH   5   6
ATOM      6  C   UNL d   1       3.016  -1.338   0.503  0.00  0.00    -0.000 C 
ATOM      7  C   UNL d   1       4.502  -1.184   0.168  0.00  0.00     0.011 C 
BRANCH   6   8
ATOM      8  C   UNL d   1       2.451  -2.656  -0.068  0.00  0.00     0.114 C 
BRANCH   8   9
ATOM      9  C   UNL d   1       2.368  -2.747  -1.577  0.00  0.00     0.139 C 
ATOM     10  O   UNL d   1       2.639  -1.856  -2.364  0.00  0.00    -0.650 OA
BRANCH   9  11
ATOM     11  O   UNL d   1       1.936  -3.963  -1.989  0.00  0.00    -0.776 OA
ATOM     12  H   UNL d   1       1.732  -4.574  -1.255  0.00  0.00     0.167 HD
ENDBRANCH   9  11
ENDBRANCH   8   9
ENDBRANCH   6   8
ENDBRANCH   5   6
ENDBRANCH   1   5
BRANCH   2  13
ATOM     13  C   UNL d   1      -1.140   1.484   0.943  0.00  0.00     0.034 A 
ATOM     14  C   UNL d   1      -1.756   0.832   2.016  0.00  0.00     0.031 A 
ATOM     15  C   UNL d   1      -2.955   1.310   2.555  0.00  0.00     0.021 A 
ATOM     16  C   UNL d   1      -3.549   2.447   2.020  0.00  0.00     0.011 A 
ATOM     17  C   UNL d   1      -2.959   3.102   0.942  0.00  0.00     0.021 A 
ATOM     18 BR   UNL d   1      -5.152   3.107   2.771  0.00  0.00    -0.051 Br
ATOM     19  C   UNL d   1      -1.756   2.622   0.407  0.00  0.00     0.031 A 
ENDBRANCH   2  13
TORSDOF 6
