REMARK  5 active torsions:
REMARK  status: ('A' for Active; 'I' for Inactive)
REMARK    1  A    between atoms: C_6  and  C_1 
REMARK    2  A    between atoms: C_7  and  N_2 
REMARK    3  A    between atoms: C_9  and  C_3 
REMARK    4  A    between atoms: O_19  and  C_9 
REMARK    5  A    between atoms: C_22  and  O_19 
ROOT
ATOM      1  C   UNL d   1       1.040  -0.853   0.038  0.00  0.00     0.158 C 
ATOM      2  N   UNL d   1       1.028   0.524   0.104  0.00  0.00    -0.251 N 
ATOM      3  C   UNL d   1      -0.289  -1.255  -0.023  0.00  0.00     0.089 C 
ATOM      4  N   UNL d   1      -0.231   0.986   0.324  0.00  0.00    -0.303 N 
ATOM      5  HN  UNL d   1      -0.511   1.939   0.556  1.00  0.00     0.186 HD
ATOM      6  C   UNL d   1      -1.020  -0.075   0.170  0.00  0.00     0.127 C 
ENDROOT
BRANCH   2   7
ATOM      7  C   UNL d   1       2.089   1.466  -0.003  0.00  0.00     0.060 A 
ATOM      8  C   UNL d   1       3.221   1.212  -0.785  0.00  0.00     0.055 A 
ATOM      9  C   UNL d   1       4.288   2.111  -0.763  0.00  0.00     0.037 A 
ATOM     10 CL   UNL d   1       5.704   1.768  -1.681  0.00  0.00    -0.084 Cl
ATOM     11  C   UNL d   1       4.231   3.270   0.006  0.00  0.00     0.048 A 
ATOM     12  C   UNL d   1       3.073   3.551   0.726  0.00  0.00     0.037 A 
ATOM     13  C   UNL d   1       1.992   2.670   0.710  0.00  0.00     0.055 A 
ATOM     14 CL   UNL d   1       2.990   4.982   1.679  0.00  0.00    -0.084 Cl
ENDBRANCH   2   7
BRANCH   1  15
ATOM     15  C   UNL d   1       2.248  -1.693   0.108  0.00  0.00     0.435 C 
ATOM     16  F   UNL d   1       3.344  -1.039   0.566  0.00  0.00    -0.165 F 
ATOM     17  F   UNL d   1       2.081  -2.736   0.958  0.00  0.00    -0.165 F 
ATOM     18  F   UNL d   1       2.571  -2.197  -1.106  0.00  0.00    -0.165 F 
ENDBRANCH   1  15
BRANCH   3  19
ATOM     19  C   UNL d   1      -0.761  -2.605  -0.232  0.00  0.00     0.297 C 
ATOM     20  O   UNL d   1      -0.019  -3.547  -0.468  0.00  0.00    -0.259 OA
BRANCH  19  21
ATOM     21  O   UNL d   1      -2.127  -2.674  -0.235  0.00  0.00    -0.318 OA
BRANCH  21  22
ATOM     22  C   UNL d   1      -2.664  -3.895  -0.768  0.00  0.00     0.174 C 
ATOM     23  C   UNL d   1      -2.751  -3.759  -2.279  0.00  0.00     0.034 C 
ENDBRANCH  21  22
ENDBRANCH  19  21
ENDBRANCH   3  19
TORSDOF 5
