REMARK  4 active torsions:
REMARK  status: ('A' for Active; 'I' for Inactive)
REMARK    1  A    between atoms: N_2  and  C_1 
REMARK    2  A    between atoms: N_3  and  C_1 
REMARK    3  A    between atoms: C_7  and  N_2 
REMARK    4  A    between atoms: N_6  and  N_3 
REMARK       I    between atoms: C_4  and  N_6 
ROOT
ATOM      1  C   UNL d   1       1.030  -0.169  -0.049  0.00  0.00     0.191 C 
ATOM      2  S   UNL d   1       2.564  -0.276   0.602  0.00  0.00    -0.039 SA
ENDROOT
BRANCH   1   3
ATOM      3  N   UNL d   1       0.412   0.937  -0.599  0.00  0.00    -0.332 N 
ATOM      4  H   UNL d   1      -0.566   0.990  -0.342  0.00  0.00     0.168 HD
BRANCH   3   5
ATOM      5  C   UNL d   1       1.013   2.121  -1.070  0.00  0.00     0.037 A 
ATOM      6  C   UNL d   1       2.212   2.109  -1.783  0.00  0.00     0.071 A 
ATOM      7  C   UNL d   1       2.738   3.300  -2.273  0.00  0.00     0.118 A 
ATOM      8  F   UNL d   1       3.877   3.276  -2.978  0.00  0.00    -0.206 F 
ATOM      9  C   UNL d   1       2.093   4.512  -2.061  0.00  0.00     0.042 A 
ATOM     10  C   UNL d   1       0.888   4.531  -1.363  0.00  0.00     0.005 A 
ATOM     11  C   UNL d   1       0.337   3.335  -0.887  0.00  0.00     0.029 A 
ENDBRANCH   3   5
ENDBRANCH   1   3
BRANCH   1  12
ATOM     12  N   UNL d   1       0.224  -1.284   0.001  0.00  0.00    -0.274 N 
ATOM     13  H   UNL d   1       0.580  -2.132   0.443  0.00  0.00     0.189 HD
BRANCH  12  14
ATOM     14  N   UNL d   1      -0.877  -1.436  -0.860  0.00  0.00    -0.268 N 
ATOM     15  C   UNL d   1      -1.798  -2.410  -0.522  0.00  0.00     0.232 C 
ATOM     16  O   UNL d   1      -1.815  -2.982   0.566  0.00  0.00    -0.272 OA
ATOM     17  C   UNL d   1      -2.795  -2.726  -1.603  0.00  0.00     0.119 C 
ATOM     18  H   UNL d   1      -0.688  -1.247  -1.842  0.00  0.00     0.190 HD
ENDBRANCH  12  14
ENDBRANCH   1  12
TORSDOF 4
