REMARK  3 active torsions:
REMARK  status: ('A' for Active; 'I' for Inactive)
REMARK    1  A    between atoms: C_8  and  C_1 
REMARK       I    between atoms: C_5  and  N_7 
REMARK    2  A    between atoms: C_9  and  C_5 
REMARK    3  A    between atoms: N_7  and  C_8 
ROOT
ATOM      1  C   UNL d   1       4.168  -3.298  -1.151  0.00  0.00     0.251 C 
ATOM      2  N   UNL d   1       3.559  -2.610  -0.125  0.00  0.00    -0.353 N 
ATOM      3  O   UNL d   1       3.554  -3.887  -2.032  0.00  0.00    -0.268 OA
ATOM      4  H   UNL d   1       4.107  -2.245   0.641  0.00  0.00     0.163 HD
ENDROOT
BRANCH   2   5
ATOM      5  C   UNL d   1       2.122  -2.485  -0.038  0.00  0.00     0.162 C 
BRANCH   5   6
ATOM      6  C   UNL d   1       1.771  -1.028  -0.012  0.00  0.00    -0.022 A 
ATOM      7  C   UNL d   1       1.963  -0.108  -1.119  0.00  0.00    -0.009 A 
ATOM      8  C   UNL d   1       1.523   1.181  -0.804  0.00  0.00     0.015 A 
ATOM      9  C   UNL d   1       2.509  -0.319  -2.413  0.00  0.00     0.037 A 
ATOM     10  C   UNL d   1       1.611   2.244  -1.729  0.00  0.00     0.021 A 
ATOM     11  S   UNL d   1       0.889   1.258   0.791  0.00  0.00    -0.101 SA
ATOM     12  C   UNL d   1       2.165   2.004  -2.988  0.00  0.00     0.025 A 
ATOM     13  C   UNL d   1       2.612   0.735  -3.322  0.00  0.00     0.035 A 
ATOM     14 CL   UNL d   1       3.306   0.456  -4.872  0.00  0.00    -0.084 Cl
ATOM     15  C   UNL d   1       1.194  -0.392   1.072  0.00  0.00     0.060 A 
ENDBRANCH   5   6
ENDBRANCH   2   5
BRANCH   1  16
ATOM     16  C   UNL d   1       5.655  -3.315  -1.142  0.00  0.00     0.032 A 
ATOM     17  C   UNL d   1       6.311  -4.419  -1.705  0.00  0.00     0.020 A 
ATOM     18  C   UNL d   1       7.706  -4.484  -1.696  0.00  0.00     0.043 A 
ATOM     19  C   UNL d   1       8.436  -3.441  -1.138  0.00  0.00     0.116 A 
ATOM     20  C   UNL d   1       7.799  -2.324  -0.605  0.00  0.00     0.043 A 
ATOM     21  F   UNL d   1       9.773  -3.507  -1.118  0.00  0.00    -0.206 F 
ATOM     22  C   UNL d   1       6.404  -2.255  -0.611  0.00  0.00     0.020 A 
ENDBRANCH   1  16
TORSDOF 3
