REMARK  3 active torsions:
REMARK  status: ('A' for Active; 'I' for Inactive)
REMARK    1  A    between atoms: C_6  and  C_3 
REMARK    2  A    between atoms: C_7  and  C_6 
REMARK    3  A    between atoms: C_9  and  C_7 
ROOT
ATOM      1  C   UNL d   1       1.597   0.443  -0.147  0.00  0.00     0.294 A 
ATOM      2  O   UNL d   1       1.925  -0.883  -0.146  0.00  0.00    -0.307 OA
ATOM      3  C   UNL d   1       0.760  -1.743  -0.067  0.00  0.00     0.173 A 
ATOM      4  C   UNL d   1       0.150   0.513  -0.008  0.00  0.00     0.048 A 
ATOM      5  C   UNL d   1      -0.357  -0.769   0.058  0.00  0.00    -0.012 A 
ATOM      6  O   UNL d   1       2.363   1.381  -0.244  0.00  0.00    -0.259 OA
ATOM      7  C   UNL d   1      -0.650   1.641   0.064  0.00  0.00     0.018 A 
ATOM      8  C   UNL d   1      -1.720  -0.972   0.201  0.00  0.00     0.011 A 
ATOM      9  C   UNL d   1      -2.024   1.449   0.211  0.00  0.00     0.001 A 
ATOM     10  C   UNL d   1      -2.555   0.150   0.280  0.00  0.00     0.001 A 
ENDROOT
BRANCH   3  11
ATOM     11  C   UNL d   1       0.874  -2.675   1.132  0.00  0.00     0.123 C 
BRANCH  11  12
ATOM     12  C   UNL d   1       2.121  -3.536   1.125  0.00  0.00     0.178 C 
ATOM     13  O   UNL d   1       2.927  -3.490   2.056  0.00  0.00    -0.291 OA
BRANCH  12  14
ATOM     14  C   UNL d   1       2.332  -4.511   0.016  0.00  0.00     0.078 A 
ATOM     15  N   UNL d   1       1.363  -4.588  -0.931  0.00  0.00    -0.363 N 
ATOM     16  C   UNL d   1       1.578  -5.459  -1.944  0.00  0.00     0.088 A 
ATOM     17  HN  UNL d   1       0.518  -4.020  -0.881  1.00  0.00     0.165 HD
ATOM     18  C   UNL d   1       2.698  -6.269  -2.045  0.00  0.00     0.017 A 
ATOM     19  C   UNL d   1       3.663  -6.188  -1.048  0.00  0.00     0.004 A 
ATOM     20  C   UNL d   1       3.482  -5.294   0.003  0.00  0.00     0.033 A 
ENDBRANCH  12  14
ENDBRANCH  11  12
ENDBRANCH   3  11
TORSDOF 3
