REMARK  2 active torsions:
REMARK  status: ('A' for Active; 'I' for Inactive)
REMARK    1  A    between atoms: C_11  and  C_7 
REMARK    2  A    between atoms: C_12  and  C_10 
ROOT
ATOM      1  N   UNL d   1      -0.303  -0.600  -0.016  0.00  0.00    -0.204 N 
ATOM      2  C   UNL d   1      -0.266   0.780  -0.012  0.00  0.00     0.133 A 
ATOM      3  N   UNL d   1      -1.575  -1.073  -0.019  0.00  0.00    -0.293 N 
ATOM      4  HN  UNL d   1      -1.878  -2.047  -0.025  1.00  0.00     0.187 HD
ATOM      5  C   UNL d   1       0.838  -1.421  -0.011  0.00  0.00     0.270 A 
ATOM      6  C   UNL d   1      -1.562   1.214  -0.016  0.00  0.00     0.077 A 
ATOM      7  C   UNL d   1       2.132   0.680   0.006  0.00  0.00     0.123 A 
ATOM      8  C   UNL d   1       2.126  -0.670   0.001  0.00  0.00     0.110 A 
ATOM      9  N   UNL d   1       0.933   1.402  -0.004  0.00  0.00    -0.337 N 
ATOM     10  C   UNL d   1      -2.347   0.027  -0.014  0.00  0.00     0.037 A 
ATOM     11  O   UNL d   1       0.775  -2.643  -0.013  0.00  0.00    -0.266 OA
ATOM     12  H   UNL d   1       1.021   2.422   0.004  0.00  0.00     0.167 HD
ENDROOT
BRANCH   7  13
ATOM     13  C   UNL d   1       3.447   1.441   0.023  0.00  0.00     0.432 C 
ATOM     14  F   UNL d   1       3.236   2.784   0.014  0.00  0.00    -0.165 F 
ATOM     15  F   UNL d   1       4.180   1.162   1.128  0.00  0.00    -0.165 F 
ATOM     16  F   UNL d   1       4.214   1.153  -1.057  0.00  0.00    -0.165 F 
ENDBRANCH   7  13
BRANCH  10  17
ATOM     17  C   UNL d   1      -3.866  -0.071   0.012  0.00  0.00    -0.007 C 
ATOM     18  C   UNL d   1      -4.352  -1.536   0.012  0.00  0.00     0.021 C 
ATOM     19  C   UNL d   1      -4.411   0.616   1.282  0.00  0.00     0.021 C 
ATOM     20  C   UNL d   1      -4.469   0.629  -1.222  0.00  0.00     0.021 C 
ENDBRANCH  10  17
TORSDOF 2
