REMARK  3 active torsions:
REMARK  status: ('A' for Active; 'I' for Inactive)
REMARK    1  A    between atoms: C_2  and  N_1 
REMARK    2  A    between atoms: C_3  and  O_6 
REMARK    3  A    between atoms: O_6  and  C_7 
ROOT
ATOM      1  C   UNL d   1       0.945   1.734   0.394  0.00  0.00     0.118 A 
ATOM      2  N   UNL d   1       0.377   4.051   0.030  0.00  0.00    -0.344 N 
ATOM      3  HN  UNL d   1       0.657   5.020  -0.124  1.00  0.00     0.167 HD
ATOM      4  C   UNL d   1      -0.929   3.693   0.111  0.00  0.00     0.148 A 
ATOM      5  C   UNL d   1       1.291   3.058   0.165  0.00  0.00     0.126 A 
ATOM      6  C   UNL d   1      -0.406   1.398   0.525  0.00  0.00     0.041 A 
ATOM      7  C   UNL d   1      -1.361   2.402   0.386  0.00  0.00     0.059 A 
ENDROOT
BRANCH   4   8
ATOM      8  O   UNL d   1      -1.924   4.629  -0.144  0.00  0.00    -0.290 OA
BRANCH   8   9
ATOM      9  C   UNL d   1      -1.555   5.734  -0.880  0.00  0.00     0.121 A 
ATOM     10  C   UNL d   1      -1.110   5.645  -2.209  0.00  0.00     0.069 A 
ATOM     11 CL   UNL d   1      -1.021   4.142  -3.063  0.00  0.00    -0.081 Cl
ATOM     12  C   UNL d   1      -0.771   6.803  -2.917  0.00  0.00     0.027 A 
ATOM     13  C   UNL d   1      -0.914   8.057  -2.323  0.00  0.00     0.003 A 
ATOM     14  C   UNL d   1      -1.404   8.156  -1.021  0.00  0.00     0.027 A 
ATOM     15  C   UNL d   1      -1.724   6.999  -0.303  0.00  0.00     0.069 A 
ATOM     16 CL   UNL d   1      -2.352   7.182   1.297  0.00  0.00    -0.081 Cl
ENDBRANCH   8   9
ENDBRANCH   4   8
BRANCH   1  17
ATOM     17  N   UNL d   1       1.982   0.716   0.467  0.00  0.00    -0.114 N 
ATOM     18  O   UNL d   1       3.153   1.069   0.278  0.00  0.00    -0.532 OA
ATOM     19  O   UNL d   1       1.627  -0.448   0.705  0.00  0.00    -0.532 OA
ENDBRANCH   1  17
TORSDOF 3
