REMARK  1 active torsions:
REMARK  status: ('A' for Active; 'I' for Inactive)
REMARK    1  A    between atoms: C_11  and  N_3 
ROOT
ATOM      1  C   UNL d   1      -2.470   0.769  -0.289  0.00  0.00     0.258 C 
ATOM      2  C   UNL d   1      -2.490  -0.723   0.023  0.00  0.00     0.271 C 
ATOM      3  N   UNL d   1      -1.272  -1.402  -0.129  0.00  0.00    -0.314 N 
ATOM      4  C   UNL d   1      -1.198   1.475   0.087  0.00  0.00     0.210 C 
ATOM      5  C   UNL d   1       0.041   0.676   0.035  0.00  0.00     0.041 A 
ATOM      6  C   UNL d   1      -0.015  -0.718  -0.104  0.00  0.00     0.051 A 
ATOM      7  O   UNL d   1      -3.529  -1.337   0.282  0.00  0.00    -0.269 OA
ATOM      8 CL   UNL d   1      -2.647   0.913  -2.080  0.00  0.00    -0.082 Cl
ATOM      9 CL   UNL d   1      -3.859   1.576   0.493  0.00  0.00    -0.082 Cl
ATOM     10  O   UNL d   1      -1.113   2.677   0.345  0.00  0.00    -0.288 OA
ATOM     11  C   UNL d   1       1.272   1.353   0.101  0.00  0.00     0.017 A 
ATOM     12  C   UNL d   1       1.204  -1.410  -0.174  0.00  0.00     0.031 A 
ATOM     13  C   UNL d   1       2.465   0.646   0.026  0.00  0.00     0.001 A 
ATOM     14  C   UNL d   1       2.429  -0.735  -0.109  0.00  0.00     0.002 A 
ENDROOT
BRANCH   3  15
ATOM     15  C   UNL d   1      -1.347  -2.851  -0.325  0.00  0.00     0.128 C 
ATOM     16  C   UNL d   1      -1.196  -3.661   0.955  0.00  0.00     0.027 C 
ENDBRANCH   3  15
TORSDOF 1
