REMARK  6 active torsions:
REMARK  status: ('A' for Active; 'I' for Inactive)
REMARK    1  A    between atoms: C_2  and  C_1 
REMARK    2  A    between atoms: O_16  and  C_2 
REMARK    3  A    between atoms: N_11  and  C_3 
REMARK    4  A    between atoms: O_15  and  C_6 
REMARK    5  A    between atoms: C_10  and  N_11 
REMARK    6  A    between atoms: C_18  and  O_16 
ROOT
ATOM      1  C   UNL d   1       0.967  -0.098   0.109  0.00  0.00     0.135 C 
ATOM      2  C   UNL d   1       0.250   0.707  -0.697  0.00  0.00     0.117 C 
ATOM      3  C   UNL d   1       0.347  -1.027   0.977  0.00  0.00     0.107 C 
ATOM      4  N   UNL d   1      -0.208  -1.777   1.672  0.00  0.00    -0.191 NA
ENDROOT
BRANCH   1   5
ATOM      5  C   UNL d   1       2.445  -0.034   0.021  0.00  0.00     0.305 C 
ATOM      6  O   UNL d   1       3.056   0.708  -0.735  0.00  0.00    -0.258 OA
BRANCH   5   7
ATOM      7  O   UNL d   1       3.007  -0.975   0.820  0.00  0.00    -0.317 OA
BRANCH   7   8
ATOM      8  C   UNL d   1       4.329  -1.385   0.442  0.00  0.00     0.174 C 
ATOM      9  C   UNL d   1       4.182  -2.489  -0.590  0.00  0.00     0.034 C 
ENDBRANCH   7   8
ENDBRANCH   5   7
ENDBRANCH   1   5
BRANCH   2  10
ATOM     10  N   UNL d   1      -1.119   0.857  -0.775  0.00  0.00    -0.364 N 
ATOM     11  H   UNL d   1      -1.677   0.413  -0.048  0.00  0.00     0.165 HD
BRANCH  10  12
ATOM     12  C   UNL d   1      -1.828   1.720  -1.630  0.00  0.00     0.034 A 
ATOM     13  C   UNL d   1      -1.353   2.103  -2.884  0.00  0.00     0.056 A 
ATOM     14  C   UNL d   1      -2.067   3.016  -3.666  0.00  0.00     0.069 A 
ATOM     15 CL   UNL d   1      -1.439   3.409  -5.229  0.00  0.00    -0.081 Cl
ATOM     16  C   UNL d   1      -3.254   3.593  -3.190  0.00  0.00     0.093 A 
ATOM     17  C   UNL d   1      -3.744   3.245  -1.926  0.00  0.00    -0.025 A 
ATOM     18  C   UNL d   1      -3.021   2.298  -1.169  0.00  0.00     0.039 A 
ATOM     19  C   UNL d   1      -4.981   3.819  -1.292  0.00  0.00     0.051 C 
BRANCH  16  20
ATOM     20  O   UNL d   1      -3.887   4.494  -4.004  0.00  0.00    -0.358 OA
ATOM     21  H   UNL d   1      -4.678   4.853  -3.581  0.00  0.00     0.217 HD
ENDBRANCH  16  20
ENDBRANCH  10  12
ENDBRANCH   2  10
TORSDOF 6
