REMARK  10 active torsions:
REMARK  status: ('A' for Active; 'I' for Inactive)
REMARK    1  A    between atoms: C_5  and  C_1 
REMARK    2  A    between atoms: N_15  and  C_4 
REMARK    3  A    between atoms: C_6  and  N_14 
REMARK    4  A    between atoms: N_10  and  C_6 
REMARK    5  A    between atoms: C_18  and  N_10 
REMARK    6  A    between atoms: N_14  and  C_21 
REMARK    7  A    between atoms: C_22  and  N_15 
REMARK    8  A    between atoms: C_20  and  C_18 
REMARK    9  A    between atoms: C_19  and  C_20 
REMARK   10  A    between atoms: C_21  and  C_22 
ROOT
ATOM      1  C   UNL d   1      -1.375   3.019   6.319  0.00  0.00     0.137 C 
ENDROOT
BRANCH   1   2
ATOM      2  N   UNL d   1      -1.587   3.065   7.770  0.00  0.00    -0.366 N 
ATOM      3  H   UNL d   1      -1.598   2.160   8.223  0.00  0.00     0.161 HD
BRANCH   2   4
ATOM      4  C   UNL d   1      -2.303   4.022   8.464  0.00  0.00     0.167 C 
ATOM      5  S   UNL d   1      -3.250   5.210   7.773  0.00  0.00    -0.041 SA
BRANCH   4   6
ATOM      6  N   UNL d   1      -2.113   3.849   9.828  0.00  0.00    -0.367 N 
ATOM      7  H   UNL d   1      -1.267   3.361  10.085  0.00  0.00     0.161 HD
BRANCH   6   8
ATOM      8  C   UNL d   1      -2.769   4.687  10.833  0.00  0.00     0.126 C 
BRANCH   8   9
ATOM      9  C   UNL d   1      -2.304   4.422  12.261  0.00  0.00     0.058 C 
BRANCH   9  10
ATOM     10  C   UNL d   1      -3.172   5.168  13.249  0.00  0.00    -0.057 A 
ATOM     11  C   UNL d   1      -4.345   4.575  13.737  0.00  0.00     0.007 A 
ATOM     12  C   UNL d   1      -5.165   5.258  14.636  0.00  0.00     0.001 A 
ATOM     13  C   UNL d   1      -4.825   6.545  15.049  0.00  0.00     0.000 A 
ATOM     14  C   UNL d   1      -3.675   7.155  14.552  0.00  0.00     0.001 A 
ATOM     15  C   UNL d   1      -2.853   6.473  13.651  0.00  0.00     0.007 A 
ENDBRANCH   9  10
ENDBRANCH   8   9
ENDBRANCH   6   8
ENDBRANCH   4   6
ENDBRANCH   2   4
ENDBRANCH   1   2
BRANCH   1  16
ATOM     16  C   UNL d   1      -0.564   4.212   5.779  0.00  0.00     0.114 C 
BRANCH  16  17
ATOM     17  N   UNL d   1      -0.174   3.991   4.392  0.00  0.00    -0.263 NA
ATOM     18  H   UNL d   1      -0.937   3.769   3.760  0.00  0.00     0.130 HD
BRANCH  17  19
ATOM     19  C   UNL d   1       0.451   5.097   3.825  0.00  0.00     0.157 A 
ATOM     20  N   UNL d   1       0.200   5.297   2.529  0.00  0.00    -0.329 N 
ATOM     21  C   UNL d   1       0.806   6.350   1.919  0.00  0.00     0.120 A 
ATOM     22  HN  UNL d   1      -0.427   4.679   2.012  1.00  0.00     0.168 HD
ATOM     23  C   UNL d   1       1.649   7.204   2.606  0.00  0.00     0.051 A 
ATOM     24  C   UNL d   1       1.827   6.927   3.937  0.00  0.00     0.093 A 
ATOM     25  N   UNL d   1       1.244   5.889   4.559  0.00  0.00    -0.343 N 
ATOM     26  HN  UNL d   1       1.400   5.710   5.551  1.00  0.00     0.167 HD
BRANCH  21  27
ATOM     27  C   UNL d   1       0.576   6.585   0.437  0.00  0.00     0.432 C 
ATOM     28  F   UNL d   1      -0.343   5.755  -0.131  0.00  0.00    -0.165 F 
ATOM     29  F   UNL d   1       1.719   6.434  -0.293  0.00  0.00    -0.165 F 
ATOM     30  F   UNL d   1       0.143   7.853   0.173  0.00  0.00    -0.165 F 
ENDBRANCH  21  27
ENDBRANCH  17  19
ENDBRANCH  16  17
ENDBRANCH   1  16
TORSDOF 10
