REMARK  3 active torsions:
REMARK  status: ('A' for Active; 'I' for Inactive)
REMARK    1  A    between atoms: C_9  and  C_4 
REMARK    2  A    between atoms: O_16  and  C_10 
REMARK    3  A    between atoms: C_18  and  O_16 
ROOT
ATOM      1  C   UNL d   1      -2.087   0.312   0.065  0.00  0.00    -0.006 C 
ATOM      2  C   UNL d   1      -1.099  -0.813   0.034  0.00  0.00     0.189 C 
ATOM      3  C   UNL d   1       0.341  -0.422   0.026  0.00  0.00     0.021 A 
ATOM      4  C   UNL d   1      -3.298   0.098  -0.482  0.00  0.00     0.022 C 
ATOM      5  C   UNL d   1       0.724   0.932  -0.029  0.00  0.00    -0.044 A 
ATOM      6  C   UNL d   1      -1.580   1.592   0.662  0.00  0.00     0.047 C 
ATOM      7  O   UNL d   1      -1.444  -1.988  -0.005  0.00  0.00    -0.287 OA
ATOM      8  C   UNL d   1      -0.310   2.027  -0.059  0.00  0.00     0.044 C 
ATOM      9  C   UNL d   1       1.320  -1.424   0.037  0.00  0.00     0.016 A 
ATOM     10  C   UNL d   1       2.084   1.260  -0.105  0.00  0.00     0.008 A 
ATOM     11  C   UNL d   1       2.672  -1.083  -0.018  0.00  0.00     0.001 A 
ATOM     12  C   UNL d   1       3.052   0.257  -0.094  0.00  0.00     0.001 A 
ENDROOT
BRANCH   4  13
ATOM     13  C   UNL d   1      -4.291   1.159  -0.651  0.00  0.00    -0.035 A 
ATOM     14  C   UNL d   1      -4.261   1.942  -1.810  0.00  0.00     0.014 A 
ATOM     15  C   UNL d   1      -5.149   3.010  -1.969  0.00  0.00     0.037 A 
ATOM     16  C   UNL d   1      -6.076   3.307  -0.971  0.00  0.00     0.068 A 
ATOM     17  C   UNL d   1      -6.114   2.514   0.181  0.00  0.00     0.037 A 
ATOM     18  C   UNL d   1      -5.227   1.445   0.344  0.00  0.00     0.014 A 
BRANCH  16  19
ATOM     19  O   UNL d   1      -6.981   4.334  -1.000  0.00  0.00    -0.352 OA
BRANCH  19  20
ATOM     20  C   UNL d   1      -6.944   5.186  -2.145  0.00  0.00     0.171 C 
ATOM     21  C   UNL d   1      -7.994   6.270  -1.977  0.00  0.00     0.034 C 
ENDBRANCH  19  20
ENDBRANCH  16  19
ENDBRANCH   4  13
TORSDOF 3
