REMARK  6 active torsions:
REMARK  status: ('A' for Active; 'I' for Inactive)
REMARK    1  A    between atoms: C_10  and  N_1 
REMARK    2  A    between atoms: S_7  and  C_4 
REMARK    3  A    between atoms: C_9  and  C_6 
REMARK    4  A    between atoms: C_8  and  S_7 
REMARK    5  A    between atoms: O_16  and  C_9 
REMARK    6  A    between atoms: O_21  and  C_17 
ROOT
ATOM      1  N   UNL d   1       0.092   0.839   0.136  0.00  0.00    -0.251 N 
ATOM      2  C   UNL d   1      -1.018   0.051   0.336  0.00  0.00     0.232 C 
ATOM      3  C   UNL d   1       1.244   0.082   0.128  0.00  0.00     0.245 C 
ATOM      4  C   UNL d   1       0.876  -1.384   0.090  0.00  0.00     0.154 C 
ATOM      5  C   UNL d   1      -0.581  -1.376   0.500  0.00  0.00     0.129 C 
ATOM      6  O   UNL d   1      -2.193   0.380   0.416  0.00  0.00    -0.273 OA
ATOM      7  O   UNL d   1       2.410   0.470   0.163  0.00  0.00    -0.271 OA
ENDROOT
BRANCH   4   8
ATOM      8  S   UNL d   1       1.231  -1.964  -1.625  0.00  0.00    -0.114 SA
BRANCH   8   9
ATOM      9  C   UNL d   1       0.886  -3.718  -1.517  0.00  0.00     0.018 A 
ATOM     10  C   UNL d   1      -0.333  -4.293  -1.921  0.00  0.00     0.054 A 
ATOM     11  C   UNL d   1      -0.509  -5.686  -1.855  0.00  0.00     0.020 A 
ATOM     12  C   UNL d   1       0.534  -6.515  -1.449  0.00  0.00     0.001 A 
ATOM     13  C   UNL d   1       1.756  -5.957  -1.089  0.00  0.00     0.001 A 
ATOM     14  C   UNL d   1       1.929  -4.568  -1.115  0.00  0.00     0.019 A 
BRANCH  10  15
ATOM     15  C   UNL d   1      -1.499  -3.523  -2.428  0.00  0.00     0.177 C 
ATOM     16  O   UNL d   1      -2.647  -3.850  -2.181  0.00  0.00    -0.646 OA
BRANCH  15  17
ATOM     17  O   UNL d   1      -1.188  -2.489  -3.233  0.00  0.00    -0.773 OA
ATOM     18  H   UNL d   1      -0.227  -2.322  -3.327  0.00  0.00     0.167 HD
ENDBRANCH  15  17
ENDBRANCH  10  15
ENDBRANCH   8   9
ENDBRANCH   4   8
BRANCH   1  19
ATOM     19  C   UNL d   1       0.070   2.260   0.029  0.00  0.00     0.045 A 
ATOM     20  C   UNL d   1      -0.967   3.025   0.582  0.00  0.00     0.033 A 
ATOM     21  C   UNL d   1      -0.957   4.428   0.518  0.00  0.00     0.039 A 
ATOM     22  C   UNL d   1       0.078   5.096  -0.130  0.00  0.00     0.068 A 
ATOM     23  C   UNL d   1       1.092   4.347  -0.722  0.00  0.00     0.039 A 
ATOM     24  C   UNL d   1       1.095   2.948  -0.636  0.00  0.00     0.033 A 
BRANCH  22  25
ATOM     25  O   UNL d   1       0.210   6.450  -0.258  0.00  0.00    -0.356 OA
ATOM     26  C   UNL d   1      -0.736   7.255   0.435  0.00  0.00     0.210 C 
ENDBRANCH  22  25
ENDBRANCH   1  19
TORSDOF 6
