REMARK  7 active torsions:
REMARK  status: ('A' for Active; 'I' for Inactive)
REMARK    1  A    between atoms: C_11  and  C_1 
REMARK    2  A    between atoms: C_5  and  C_2 
REMARK    3  A    between atoms: C_10  and  C_4 
REMARK    4  A    between atoms: O_22  and  C_8 
REMARK    5  A    between atoms: O_23  and  C_11 
REMARK    6  A    between atoms: O_24  and  C_14 
REMARK    7  A    between atoms: C_25  and  O_23 
ROOT
ATOM      1  C   UNL d   1       0.130   1.407   0.425  0.00  0.00     0.168 C 
ATOM      2  C   UNL d   1      -1.111   1.208  -0.463  0.00  0.00     0.046 C 
ATOM      3  C   UNL d   1       0.852   0.137   0.770  0.00  0.00     0.164 C 
ATOM      4  C   UNL d   1      -1.216  -1.199   0.430  0.00  0.00    -0.037 C 
ATOM      5  C   UNL d   1       0.086  -1.147   0.772  0.00  0.00     0.059 C 
ATOM      6  C   UNL d   1      -1.981   0.086   0.131  0.00  0.00     0.050 C 
ATOM      7  O   UNL d   1       2.036   0.095   1.118  0.00  0.00    -0.292 OA
ENDROOT
BRANCH   2   8
ATOM      8  C   UNL d   1      -0.882   1.021  -1.975  0.00  0.00    -0.028 A 
ATOM      9  C   UNL d   1      -1.516   1.838  -2.954  0.00  0.00     0.076 A 
ATOM     10  C   UNL d   1      -1.232   1.678  -4.334  0.00  0.00     0.123 A 
ATOM     11 CL   UNL d   1      -2.770   2.928  -2.439  0.00  0.00    -0.081 Cl
ATOM     12  C   UNL d   1      -0.400   0.616  -4.750  0.00  0.00     0.103 A 
ATOM     13  C   UNL d   1       0.162  -0.231  -3.799  0.00  0.00     0.040 A 
ATOM     14  C   UNL d   1      -0.059  -0.017  -2.439  0.00  0.00     0.012 A 
BRANCH  10  15
ATOM     15  O   UNL d   1      -1.789   2.397  -5.368  0.00  0.00    -0.351 OA
ATOM     16  C   UNL d   1      -1.913   3.807  -5.224  0.00  0.00     0.210 C 
ENDBRANCH  10  15
BRANCH  12  17
ATOM     17  O   UNL d   1      -0.206   0.475  -6.104  0.00  0.00    -0.353 OA
ATOM     18  C   UNL d   1       0.578  -0.624  -6.549  0.00  0.00     0.210 C 
ENDBRANCH  12  17
ENDBRANCH   2   8
BRANCH   1  19
ATOM     19  C   UNL d   1       0.970   2.560  -0.053  0.00  0.00     0.271 C 
ATOM     20  O   UNL d   1       0.717   3.716   0.268  0.00  0.00    -0.264 OA
BRANCH  19  21
ATOM     21  O   UNL d   1       1.948   2.206  -0.928  0.00  0.00    -0.321 OA
BRANCH  21  22
ATOM     22  C   UNL d   1       2.772   3.295  -1.384  0.00  0.00     0.174 C 
ATOM     23  C   UNL d   1       2.111   4.023  -2.542  0.00  0.00     0.034 C 
ENDBRANCH  21  22
ENDBRANCH  19  21
ENDBRANCH   1  19
BRANCH   4  24
ATOM     24  C   UNL d   1      -1.788  -2.513   0.250  0.00  0.00     0.011 A 
ATOM     25  S   UNL d   1      -3.464  -2.797   0.548  0.00  0.00    -0.102 SA
ATOM     26  C   UNL d   1      -3.377  -4.410  -0.005  0.00  0.00     0.050 A 
ATOM     27  C   UNL d   1      -2.101  -4.758  -0.377  0.00  0.00     0.008 A 
ATOM     28  C   UNL d   1      -1.190  -3.675  -0.220  0.00  0.00     0.020 A 
ENDBRANCH   4  24
TORSDOF 7
