REMARK  4 active torsions:
REMARK  status: ('A' for Active; 'I' for Inactive)
REMARK    1  A    between atoms: S_9  and  C_5 
REMARK    2  A    between atoms: N_10  and  C_6 
REMARK    3  A    between atoms: O_11  and  C_7 
REMARK    4  A    between atoms: C_12  and  S_9 
ROOT
ATOM      1  N   UNL d   1      -0.694   1.192   0.083  0.00  0.00    -0.328 N 
ATOM      2  HN  UNL d   1      -1.212   2.071   0.096  1.00  0.00     0.169 HD
ATOM      3  N   UNL d   1      -0.714  -1.188   0.011  0.00  0.00    -0.317 N 
ATOM      4  HN  UNL d   1      -1.237  -2.063  -0.032  1.00  0.00     0.170 HD
ATOM      5  C   UNL d   1      -1.321   0.005   0.030  0.00  0.00     0.147 A 
ATOM      6  C   UNL d   1       0.641   1.163   0.117  0.00  0.00     0.083 A 
ATOM      7  C   UNL d   1       0.620  -1.157   0.051  0.00  0.00     0.144 A 
ATOM      8  C   UNL d   1       1.363  -0.006   0.109  0.00  0.00     0.097 A 
ENDROOT
BRANCH   5   9
ATOM      9  S   UNL d   1      -3.093   0.034  -0.049  0.00  0.00    -0.094 SA
BRANCH   9  10
ATOM     10  C   UNL d   1      -3.441  -0.986   1.414  0.00  0.00     0.078 C 
ATOM     11  C   UNL d   1      -4.940  -1.179   1.568  0.00  0.00     0.016 C 
ENDBRANCH   9  10
ENDBRANCH   5   9
BRANCH   7  12
ATOM     12  O   UNL d   1       1.217  -2.384   0.036  0.00  0.00    -0.346 OA
ATOM     13  H   UNL d   1       2.178  -2.261   0.064  0.00  0.00     0.219 HD
ENDBRANCH   7  12
BRANCH   6  14
ATOM     14  N   UNL d   1       1.291   2.393   0.215  0.00  0.00    -0.288 NA
ATOM     15  H   UNL d   1       0.578   3.119   0.165  0.00  0.00     0.125 HD
ATOM     16  H   UNL d   1       1.998   2.516  -0.501  0.00  0.00     0.125 HD
ENDBRANCH   6  14
TORSDOF 4
