REMARK  6 active torsions:
REMARK  status: ('A' for Active; 'I' for Inactive)
REMARK    1  A    between atoms: C_7  and  C_1 
REMARK    2  A    between atoms: C_8  and  N_2 
REMARK    3  A    between atoms: C_17  and  C_4 
REMARK       I    between atoms: N_13  and  C_7 
REMARK    4  A    between atoms: C_9  and  C_11 
REMARK    5  A    between atoms: C_10  and  C_12 
REMARK    6  A    between atoms: C_25  and  N_13 
ROOT
ATOM      1  C   UNL d   1      -0.099  -1.329   0.234  0.00  0.00     0.143 A 
ATOM      2  N   UNL d   1       1.011   0.542   0.049  0.00  0.00    -0.237 N 
ATOM      3  N   UNL d   1      -0.299   0.843   0.223  0.00  0.00    -0.014 NA
ATOM      4  C   UNL d   1       1.199  -0.837   0.105  0.00  0.00     0.098 A 
ATOM      5  N   UNL d   1      -0.990  -0.287   0.237  0.00  0.00    -0.276 N 
ATOM      6  HN  UNL d   1      -2.007  -0.368   0.247  1.00  0.00     0.184 HD
ENDROOT
BRANCH   2   7
ATOM      7  C   UNL d   1       1.976   1.567  -0.145  0.00  0.00     0.056 A 
ATOM      8  C   UNL d   1       3.060   1.353  -1.009  0.00  0.00     0.047 A 
ATOM      9  C   UNL d   1       4.113   2.274  -1.081  0.00  0.00     0.050 A 
ATOM     10  C   UNL d   1       4.053   3.429  -0.286  0.00  0.00     0.032 A 
ATOM     11  C   UNL d   1       2.948   3.685   0.549  0.00  0.00     0.050 A 
ATOM     12  C   UNL d   1       1.893   2.756   0.595  0.00  0.00     0.047 A 
BRANCH   9  13
ATOM     13  C   UNL d   1       5.313   2.009  -1.961  0.00  0.00     0.417 C 
ATOM     14  F   UNL d   1       5.202   0.874  -2.704  0.00  0.00    -0.166 F 
ATOM     15  F   UNL d   1       5.537   3.016  -2.848  0.00  0.00    -0.166 F 
ATOM     16  F   UNL d   1       6.460   1.877  -1.241  0.00  0.00    -0.166 F 
ENDBRANCH   9  13
BRANCH  11  17
ATOM     17  C   UNL d   1       2.951   4.926   1.415  0.00  0.00     0.417 C 
ATOM     18  F   UNL d   1       1.827   5.072   2.168  0.00  0.00    -0.166 F 
ATOM     19  F   UNL d   1       3.993   4.934   2.292  0.00  0.00    -0.166 F 
ATOM     20  F   UNL d   1       3.069   6.068   0.684  0.00  0.00    -0.166 F 
ENDBRANCH  11  17
ENDBRANCH   2   7
BRANCH   4  21
ATOM     21  C   UNL d   1       2.489  -1.543   0.110  0.00  0.00    -0.005 A 
ATOM     22  C   UNL d   1       3.568  -1.085   0.885  0.00  0.00     0.014 A 
ATOM     23  C   UNL d   1       4.810  -1.722   0.834  0.00  0.00     0.001 A 
ATOM     24  C   UNL d   1       4.976  -2.860   0.051  0.00  0.00     0.000 A 
ATOM     25  C   UNL d   1       3.904  -3.356  -0.686  0.00  0.00     0.001 A 
ATOM     26  C   UNL d   1       2.674  -2.694  -0.668  0.00  0.00     0.014 A 
ENDBRANCH   4  21
BRANCH   1  27
ATOM     27  C   UNL d   1      -0.496  -2.723   0.421  0.00  0.00     0.276 C 
ATOM     28  N   UNL d   1      -1.661  -3.074  -0.238  0.00  0.00    -0.322 N 
ATOM     29  H   UNL d   1      -2.116  -2.342  -0.773  0.00  0.00     0.169 HD
ATOM     30  O   UNL d   1       0.218  -3.487   1.061  0.00  0.00    -0.266 OA
BRANCH  28  31
ATOM     31  C   UNL d   1      -2.189  -4.383  -0.352  0.00  0.00     0.035 A 
ATOM     32  C   UNL d   1      -1.729  -5.470   0.400  0.00  0.00     0.029 A 
ATOM     33  C   UNL d   1      -2.257  -6.751   0.213  0.00  0.00     0.002 A 
ATOM     34  C   UNL d   1      -3.255  -6.964  -0.731  0.00  0.00     0.000 A 
ATOM     35  C   UNL d   1      -3.735  -5.890  -1.477  0.00  0.00     0.002 A 
ATOM     36  C   UNL d   1      -3.212  -4.605  -1.283  0.00  0.00     0.029 A 
ENDBRANCH  28  31
ENDBRANCH   1  27
TORSDOF 6
