REMARK  4 active torsions:
REMARK  status: ('A' for Active; 'I' for Inactive)
REMARK    1  A    between atoms: C_2  and  S_1 
REMARK    2  A    between atoms: N_8  and  S_1 
REMARK    3  A    between atoms: C_6  and  C_3 
REMARK       I    between atoms: N_9  and  C_6 
REMARK    4  A    between atoms: C_13  and  N_9 
ROOT
ATOM      1  C   UNL d   1       0.414   1.625  -0.039  0.00  0.00     0.186 A 
ATOM      2  C   UNL d   1       0.374   3.909  -0.094  0.00  0.00     0.065 A 
ATOM      3  C   UNL d   1       1.174   2.766   0.198  0.00  0.00     0.070 A 
ATOM      4  O   UNL d   1      -0.846   2.033  -0.413  0.00  0.00    -0.301 OA
ATOM      5  C   UNL d   1      -0.870   3.392  -0.422  0.00  0.00     0.066 A 
ATOM      6  C   UNL d   1      -2.169   4.019  -0.761  0.00  0.00     0.078 C 
ENDROOT
BRANCH   2   7
ATOM      7  C   UNL d   1       0.670   5.341  -0.065  0.00  0.00     0.258 C 
ATOM      8  N   UNL d   1       1.974   5.659   0.282  0.00  0.00    -0.323 N 
ATOM      9  H   UNL d   1       2.630   4.898   0.378  0.00  0.00     0.169 HD
ATOM     10  O   UNL d   1      -0.196   6.157  -0.351  0.00  0.00    -0.267 OA
BRANCH   8  11
ATOM     11  C   UNL d   1       2.489   6.954   0.526  0.00  0.00     0.035 A 
ATOM     12  C   UNL d   1       1.700   8.110   0.550  0.00  0.00     0.032 A 
ATOM     13  C   UNL d   1       2.261   9.351   0.865  0.00  0.00     0.044 A 
ATOM     14  C   UNL d   1       3.614   9.439   1.150  0.00  0.00     0.116 A 
ATOM     15  C   UNL d   1       4.421   8.310   1.114  0.00  0.00     0.044 A 
ATOM     16  F   UNL d   1       4.146  10.625   1.471  0.00  0.00    -0.206 F 
ATOM     17  C   UNL d   1       3.860   7.067   0.801  0.00  0.00     0.032 A 
ENDBRANCH   8  11
ENDBRANCH   2   7
BRANCH   1  18
ATOM     18  S   UNL d   1       0.854  -0.117   0.077  0.00  0.00     0.266 S 
ATOM     19  O   UNL d   1       0.850  -0.381   1.499  0.00  0.00    -0.204 OA
ATOM     20  O   UNL d   1       2.068  -0.218  -0.703  0.00  0.00    -0.204 OA
BRANCH  18  21
ATOM     21  N   UNL d   1      -0.363  -1.057  -0.664  0.00  0.00    -0.205 NA
ATOM     22  C   UNL d   1      -0.458  -0.908  -2.139  0.00  0.00     0.107 C 
ATOM     23  C   UNL d   1      -1.365  -1.992  -2.718  0.00  0.00     0.015 C 
ATOM     24  C   UNL d   1      -2.741  -1.966  -2.063  0.00  0.00     0.002 C 
ATOM     25  C   UNL d   1      -2.603  -2.102  -0.551  0.00  0.00     0.015 C 
ATOM     26  C   UNL d   1      -1.682  -1.027   0.020  0.00  0.00     0.107 C 
ENDBRANCH  18  21
ENDBRANCH   1  18
TORSDOF 4
