REMARK  5 active torsions:
REMARK  status: ('A' for Active; 'I' for Inactive)
REMARK    1  A    between atoms: C_3  and  C_1 
REMARK    2  A    between atoms: N_4  and  C_2 
REMARK       I    between atoms: C_5  and  N_11 
REMARK    3  A    between atoms: C_8  and  C_5 
REMARK    4  A    between atoms: C_7  and  N_6 
REMARK    5  A    between atoms: N_11  and  C_27 
ROOT
ATOM      1  N   UNL d   1      -1.249   2.441   0.404  0.00  0.00    -0.266 NA
ATOM      2  N   UNL d   1      -2.924   4.727   0.730  0.00  0.00    -0.365 N 
ATOM      3  C   UNL d   1      -1.436   3.361  -0.745  0.00  0.00     0.117 C 
ATOM      4  C   UNL d   1      -2.501   2.340   1.185  0.00  0.00     0.117 C 
ATOM      5  C   UNL d   1      -2.813   3.721   1.795  0.00  0.00     0.139 C 
ATOM      6  C   UNL d   1      -1.792   4.778  -0.221  0.00  0.00     0.139 C 
ENDROOT
BRANCH   2   7
ATOM      7  C   UNL d   1      -3.657   5.881   0.909  0.00  0.00     0.103 A 
ATOM      8  N   UNL d   1      -3.946   6.614  -0.187  0.00  0.00    -0.350 N 
ATOM      9  C   UNL d   1      -4.821   7.642  -0.064  0.00  0.00     0.119 A 
ATOM     10  HN  UNL d   1      -3.515   6.401  -1.086  1.00  0.00     0.166 HD
ATOM     11  C   UNL d   1      -5.436   8.026   1.123  0.00  0.00     0.050 A 
ATOM     12  C   UNL d   1      -5.075   7.317   2.255  0.00  0.00     0.035 A 
ATOM     13  C   UNL d   1      -4.189   6.244   2.145  0.00  0.00     0.051 A 
BRANCH  11  14
ATOM     14  N   UNL d   1      -6.388   9.063   1.099  0.00  0.00    -0.321 N 
ATOM     15  C   UNL d   1      -7.118   9.565   2.167  0.00  0.00     0.263 C 
ATOM     16  O   UNL d   1      -6.970   9.210   3.331  0.00  0.00    -0.267 OA
ATOM     17  H   UNL d   1      -6.606   9.464   0.194  0.00  0.00     0.169 HD
BRANCH  15  18
ATOM     18  C   UNL d   1      -8.111  10.576   1.811  0.00  0.00     0.072 A 
ATOM     19  S   UNL d   1      -8.372  11.098   0.198  0.00  0.00    -0.097 SA
ATOM     20  C   UNL d   1      -9.608  12.180   0.671  0.00  0.00     0.050 A 
ATOM     21  C   UNL d   1      -9.829  12.151   2.029  0.00  0.00     0.009 A 
ATOM     22  C   UNL d   1      -8.962  11.227   2.685  0.00  0.00     0.025 A 
ENDBRANCH  15  18
ENDBRANCH  11  14
ENDBRANCH   2   7
BRANCH   1  23
ATOM     23  C   UNL d   1      -0.668   1.210   0.119  0.00  0.00     0.097 A 
ATOM     24  C   UNL d   1       0.004   0.488   1.108  0.00  0.00     0.086 A 
ATOM     25  C   UNL d   1       0.562  -0.758   0.766  0.00  0.00     0.021 A 
ATOM     26  C   UNL d   1       0.467  -1.235  -0.530  0.00  0.00     0.018 A 
ATOM     27  C   UNL d   1      -0.189  -0.447  -1.450  0.00  0.00     0.089 A 
ATOM     28  N   UNL d   1      -0.746   0.747  -1.152  0.00  0.00    -0.356 N 
ATOM     29  HN  UNL d   1      -1.219   1.292  -1.873  1.00  0.00     0.166 HD
BRANCH  24  30
ATOM     30  C   UNL d   1       0.186   0.970   2.519  0.00  0.00     0.420 C 
ATOM     31  F   UNL d   1      -0.185   2.249   2.802  0.00  0.00    -0.166 F 
ATOM     32  F   UNL d   1      -0.515   0.196   3.403  0.00  0.00    -0.166 F 
ATOM     33  F   UNL d   1       1.486   0.882   2.928  0.00  0.00    -0.166 F 
ENDBRANCH  24  30
ENDBRANCH   1  23
TORSDOF 5
