REMARK  4 active torsions:
REMARK  status: ('A' for Active; 'I' for Inactive)
REMARK    1  A    between atoms: C_9  and  C_3 
REMARK    2  A    between atoms: C_7  and  C_4 
REMARK    3  A    between atoms: C_8  and  C_7 
REMARK    4  A    between atoms: O_14  and  C_8 
ROOT
ATOM      1  N   UNL d   1      -1.324  -0.990  -0.078  0.00  0.00    -0.352 N 
ATOM      2  HN  UNL d   1      -2.088  -1.663  -0.142  1.00  0.00     0.166 HD
ATOM      3  C   UNL d   1      -1.485   0.318  -0.020  0.00  0.00     0.085 A 
ATOM      4  C   UNL d   1       0.026  -1.331  -0.040  0.00  0.00     0.032 A 
ATOM      5  S   UNL d   1      -0.013   1.210   0.021  0.00  0.00    -0.075 SA
ATOM      6  C   UNL d   1       0.885  -0.247   0.045  0.00  0.00     0.004 A 
ATOM      7  C   UNL d   1       2.369  -0.194   0.132  0.00  0.00     0.058 C 
ENDROOT
BRANCH   3   8
ATOM      8  C   UNL d   1      -2.794   0.999  -0.013  0.00  0.00    -0.002 A 
ATOM      9  C   UNL d   1      -2.983   2.273   0.554  0.00  0.00     0.017 A 
ATOM     10  C   UNL d   1      -4.241   2.882   0.551  0.00  0.00     0.043 A 
ATOM     11  C   UNL d   1      -5.322   2.219  -0.013  0.00  0.00     0.116 A 
ATOM     12  C   UNL d   1      -5.170   0.957  -0.571  0.00  0.00     0.043 A 
ATOM     13  F   UNL d   1      -6.527   2.803  -0.016  0.00  0.00    -0.206 F 
ATOM     14  C   UNL d   1      -3.912   0.347  -0.566  0.00  0.00     0.017 A 
ENDBRANCH   3   8
BRANCH   4  15
ATOM     15  C   UNL d   1       0.376  -2.786  -0.016  0.00  0.00     0.169 C 
BRANCH  15  16
ATOM     16  C   UNL d   1       1.190  -3.242  -1.205  0.00  0.00     0.264 C 
ATOM     17  O   UNL d   1       1.762  -2.527  -2.016  0.00  0.00    -0.265 OA
BRANCH  16  18
ATOM     18  O   UNL d   1       1.255  -4.609  -1.200  0.00  0.00    -0.326 OA
ATOM     19  C   UNL d   1       2.032  -5.183  -2.254  0.00  0.00     0.213 C 
ENDBRANCH  16  18
ENDBRANCH  15  16
ENDBRANCH   4  15
TORSDOF 4
