REMARK  3 active torsions:
REMARK  status: ('A' for Active; 'I' for Inactive)
REMARK    1  A    between atoms: C_4  and  C_1 
REMARK    2  A    between atoms: C_7  and  C_4 
REMARK    3  A    between atoms: O_19  and  C_16 
ROOT
ATOM      1  C   UNL d   1      -2.324  -0.216  -0.059  0.00  0.00     0.127 A 
ATOM      2  O   UNL d   1      -1.559   0.920  -0.037  0.00  0.00    -0.306 OA
ATOM      3  C   UNL d   1      -1.503  -1.325   0.017  0.00  0.00     0.055 A 
ATOM      4  C   UNL d   1      -0.165  -0.848   0.019  0.00  0.00     0.003 A 
ATOM      5  C   UNL d   1      -0.258   0.535  -0.002  0.00  0.00     0.086 A 
ATOM      6  C   UNL d   1       1.116  -1.426   0.031  0.00  0.00     0.051 A 
ATOM      7  C   UNL d   1       0.833   1.397  -0.001  0.00  0.00     0.041 A 
ATOM      8  C   UNL d   1       2.247  -0.590   0.021  0.00  0.00     0.069 A 
ATOM      9  C   UNL d   1       2.100   0.801   0.009  0.00  0.00     0.039 A 
ENDROOT
BRANCH   1  10
ATOM     10  C   UNL d   1      -3.764  -0.092  -0.141  0.00  0.00     0.215 C 
ATOM     11  O   UNL d   1      -4.543  -0.958   0.253  0.00  0.00    -0.284 OA
BRANCH  10  12
ATOM     12  C   UNL d   1      -4.333   1.145  -0.754  0.00  0.00     0.017 A 
ATOM     13  C   UNL d   1      -3.688   1.780  -1.828  0.00  0.00     0.024 A 
ATOM     14  C   UNL d   1      -4.197   2.966  -2.382  0.00  0.00    -0.039 A 
ATOM     15  C   UNL d   1      -3.446   3.631  -3.500  0.00  0.00     0.050 C 
ATOM     16  C   UNL d   1      -5.386   3.493  -1.857  0.00  0.00     0.040 A 
ATOM     17  C   UNL d   1      -6.054   2.841  -0.813  0.00  0.00     0.025 A 
ATOM     18 CL   UNL d   1      -6.067   4.957  -2.467  0.00  0.00    -0.084 Cl
ATOM     19  C   UNL d   1      -5.534   1.666  -0.264  0.00  0.00     0.017 A 
ENDBRANCH  10  12
ENDBRANCH   1  10
BRANCH   8  20
ATOM     20  O   UNL d   1       3.440  -1.264   0.022  0.00  0.00    -0.356 OA
ATOM     21  C   UNL d   1       4.625  -0.479   0.010  0.00  0.00     0.210 C 
ENDBRANCH   8  20
TORSDOF 3
