REMARK  6 active torsions:
REMARK  status: ('A' for Active; 'I' for Inactive)
REMARK    1  A    between atoms: C_3  and  C_1 
REMARK    2  A    between atoms: N_4  and  C_2 
REMARK       I    between atoms: C_6  and  N_5 
REMARK    3  A    between atoms: C_15  and  C_6 
REMARK    4  A    between atoms: C_13  and  C_14 
REMARK    5  A    between atoms: O_23  and  C_15 
REMARK    6  A    between atoms: C_24  and  O_23 
ROOT
ATOM      1  N   UNL d   1      -1.320   2.455   0.360  0.00  0.00    -0.266 NA
ATOM      2  N   UNL d   1      -2.983   4.758   0.712  0.00  0.00    -0.348 N 
ATOM      3  C   UNL d   1      -3.766   5.900   0.823  0.00  0.00     0.244 C 
ATOM      4  C   UNL d   1      -1.501   3.376  -0.783  0.00  0.00     0.117 C 
ATOM      5  C   UNL d   1      -2.562   2.344   1.153  0.00  0.00     0.117 C 
ATOM      6  C   UNL d   1      -2.887   3.725   1.754  0.00  0.00     0.140 C 
ATOM      7  C   UNL d   1      -1.858   4.778  -0.244  0.00  0.00     0.140 C 
ATOM      8  O   UNL d   1      -3.634   6.853   0.052  0.00  0.00    -0.271 OA
ENDROOT
BRANCH   3   9
ATOM      9  C   UNL d   1      -4.866   5.939   1.890  0.00  0.00     0.278 C 
BRANCH   9  10
ATOM     10  O   UNL d   1      -4.315   6.172   3.179  0.00  0.00    -0.342 OA
BRANCH  10  11
ATOM     11  C   UNL d   1      -5.189   6.419   4.202  0.00  0.00     0.069 A 
ATOM     12  C   UNL d   1      -4.594   6.535   5.460  0.00  0.00     0.038 A 
ATOM     13  C   UNL d   1      -5.369   6.779   6.597  0.00  0.00     0.018 A 
ATOM     14  C   UNL d   1      -6.755   6.933   6.486  0.00  0.00     0.009 A 
ATOM     15  C   UNL d   1      -7.357   6.818   5.230  0.00  0.00     0.018 A 
ATOM     16  C   UNL d   1      -6.575   6.562   4.092  0.00  0.00     0.038 A 
BRANCH  14  17
ATOM     17  C   UNL d   1      -7.533   7.194   7.729  0.00  0.00     0.155 C 
ATOM     18  O   UNL d   1      -7.118   6.752   8.800  0.00  0.00    -0.293 OA
ATOM     19  C   UNL d   1      -8.781   8.036   7.671  0.00  0.00     0.096 C 
ENDBRANCH  14  17
ENDBRANCH  10  11
ENDBRANCH   9  10
ENDBRANCH   3   9
BRANCH   1  20
ATOM     20  C   UNL d   1      -0.730   1.229   0.061  0.00  0.00     0.097 A 
ATOM     21  C   UNL d   1      -0.017   0.520   1.029  0.00  0.00     0.086 A 
ATOM     22  C   UNL d   1       0.548  -0.721   0.675  0.00  0.00     0.021 A 
ATOM     23  C   UNL d   1       0.420  -1.203  -0.616  0.00  0.00     0.018 A 
ATOM     24  C   UNL d   1      -0.274  -0.428  -1.517  0.00  0.00     0.089 A 
ATOM     25  N   UNL d   1      -0.845   0.759  -1.207  0.00  0.00    -0.356 N 
ATOM     26  HN  UNL d   1      -1.352   1.292  -1.914  1.00  0.00     0.166 HD
BRANCH  21  27
ATOM     27  C   UNL d   1       0.203   1.013   2.431  0.00  0.00     0.420 C 
ATOM     28  F   UNL d   1      -0.166   2.293   2.710  0.00  0.00    -0.166 F 
ATOM     29  F   UNL d   1      -0.470   0.243   3.340  0.00  0.00    -0.166 F 
ATOM     30  F   UNL d   1       1.515   0.934   2.802  0.00  0.00    -0.166 F 
ENDBRANCH  21  27
ENDBRANCH   1  20
TORSDOF 6
