REMARK  8 active torsions:
REMARK  status: ('A' for Active; 'I' for Inactive)
REMARK    1  A    between atoms: O_15  and  C_3 
REMARK    2  A    between atoms: C_9  and  C_4 
REMARK    3  A    between atoms: S_11  and  C_5 
REMARK    4  A    between atoms: C_16  and  C_9 
REMARK    5  A    between atoms: C_10  and  C_13 
REMARK    6  A    between atoms: C_12  and  C_10 
REMARK    7  A    between atoms: C_13  and  S_11 
REMARK    8  A    between atoms: C_21  and  C_16 
ROOT
ATOM      1  N   UNL d   1      -0.680   1.339  -0.034  0.00  0.00    -0.317 N 
ATOM      2  HN  UNL d   1      -1.158   2.240  -0.021  1.00  0.00     0.170 HD
ATOM      3  C   UNL d   1      -1.341   0.167  -0.004  0.00  0.00     0.150 A 
ATOM      4  C   UNL d   1      -0.782  -1.101  -0.032  0.00  0.00     0.015 A 
ATOM      5  C   UNL d   1       0.649   1.231  -0.082  0.00  0.00     0.146 A 
ATOM      6  N   UNL d   1       1.318   0.070  -0.057  0.00  0.00    -0.340 N 
ATOM      7  HN  UNL d   1       2.338   0.053  -0.065  1.00  0.00     0.167 HD
ATOM      8  C   UNL d   1       0.605  -1.078  -0.022  0.00  0.00     0.018 A 
ATOM      9  C   UNL d   1       1.435  -2.330   0.025  0.00  0.00     0.069 C 
ENDROOT
BRANCH   5  10
ATOM     10  S   UNL d   1       1.677   2.664  -0.299  0.00  0.00    -0.086 SA
BRANCH  10  11
ATOM     11  C   UNL d   1       0.631   3.997   0.338  0.00  0.00     0.161 C 
BRANCH  11  12
ATOM     12  C   UNL d   1       1.285   5.339   0.021  0.00  0.00     0.144 C 
ATOM     13  O   UNL d   1       1.021   5.896  -1.052  0.00  0.00    -0.296 OA
BRANCH  12  14
ATOM     14  C   UNL d   1       2.329   5.963   0.986  0.00  0.00     0.010 C 
ATOM     15  C   UNL d   1       3.730   5.418   0.673  0.00  0.00     0.022 C 
ATOM     16  C   UNL d   1       2.344   7.490   0.756  0.00  0.00     0.022 C 
ATOM     17  C   UNL d   1       2.002   5.717   2.463  0.00  0.00     0.022 C 
ENDBRANCH  12  14
ENDBRANCH  11  12
ENDBRANCH  10  11
ENDBRANCH   5  10
BRANCH   3  18
ATOM     18  O   UNL d   1      -2.686   0.334   0.066  0.00  0.00    -0.346 OA
ATOM     19  H   UNL d   1      -2.758   1.303   0.004  0.00  0.00     0.219 HD
ENDBRANCH   3  18
BRANCH   4  20
ATOM     20  C   UNL d   1      -1.557  -2.394   0.013  0.00  0.00     0.045 C 
BRANCH  20  21
ATOM     21  C   UNL d   1      -2.894  -2.502  -0.740  0.00  0.00     0.009 C 
BRANCH  21  22
ATOM     22  C   UNL d   1      -2.850  -2.162  -2.242  0.00  0.00    -0.023 C 
ATOM     23  C   UNL d   1      -1.933  -3.099  -3.029  0.00  0.00     0.009 C 
ATOM     24  C   UNL d   1      -4.267  -2.218  -2.820  0.00  0.00     0.009 C 
ENDBRANCH  21  22
ENDBRANCH  20  21
ENDBRANCH   4  20
TORSDOF 8
