REMARK  1 active torsions:
REMARK  status: ('A' for Active; 'I' for Inactive)
REMARK    1  A    between atoms: N_9  and  C_11 
ROOT
ATOM      1  S   UNL d   1       0.383   1.698   1.059  0.00  0.00     0.268 S 
ATOM      2  N   UNL d   1      -0.320   2.304  -0.348  0.00  0.00    -0.241 N 
ATOM      3  C   UNL d   1       1.648   0.587   0.472  0.00  0.00     0.099 A 
ATOM      4  S   UNL d   1       0.100  -0.435  -1.752  0.00  0.00     0.087 S 
ATOM      5  C   UNL d   1       1.455  -0.383  -0.530  0.00  0.00     0.062 A 
ATOM      6  C   UNL d   1      -1.610   1.923  -0.811  0.00  0.00     0.268 C 
ATOM      7  C   UNL d   1      -2.095   0.592  -0.406  0.00  0.00     0.052 A 
ATOM      8  C   UNL d   1      -1.315  -0.551  -0.652  0.00  0.00     0.052 A 
ATOM      9  C   UNL d   1       2.513  -1.292  -0.774  0.00  0.00     0.059 A 
ATOM     10  C   UNL d   1       3.728  -1.206  -0.077  0.00  0.00     0.104 A 
ATOM     11  O   UNL d   1       1.051   2.803   1.720  0.00  0.00    -0.200 OA
ATOM     12  O   UNL d   1      -0.535   0.874   1.816  0.00  0.00    -0.200 OA
ATOM     13  C   UNL d   1       2.884   0.680   1.149  0.00  0.00     0.029 A 
ATOM     14  O   UNL d   1       0.202  -1.780  -2.406  0.00  0.00    -0.247 OA
ATOM     15  O   UNL d   1      -2.252   2.597  -1.603  0.00  0.00    -0.266 OA
ATOM     16  C   UNL d   1       3.925  -0.202   0.868  0.00  0.00     0.038 A 
ATOM     17  C   UNL d   1       0.367   3.468  -0.949  0.00  0.00     0.173 C 
ATOM     18  C   UNL d   1      -3.289   0.515   0.317  0.00  0.00     0.018 A 
ATOM     19  C   UNL d   1      -1.739  -1.779  -0.136  0.00  0.00     0.022 A 
ATOM     20  C   UNL d   1      -3.682  -0.710   0.851  0.00  0.00     0.001 A 
ATOM     21  C   UNL d   1      -2.906  -1.851   0.630  0.00  0.00     0.002 A 
ENDROOT
BRANCH  10  22
ATOM     22  N   UNL d   1       4.809  -2.160  -0.361  0.00  0.00    -0.116 N 
ATOM     23  O   UNL d   1       4.589  -3.050  -1.191  0.00  0.00    -0.532 OA
ATOM     24  O   UNL d   1       5.876  -2.012   0.251  0.00  0.00    -0.532 OA
ENDBRANCH  10  22
TORSDOF 1
