REMARK  1 active torsions:
REMARK  status: ('A' for Active; 'I' for Inactive)
REMARK    1  A    between atoms: C_2  and  N_1 
ROOT
ATOM      1  C   UNL d   1      -0.742  -2.473   0.068  0.00  0.00     0.099 A 
ATOM      2  C   UNL d   1      -1.608  -2.949  -0.931  0.00  0.00     0.145 A 
ATOM      3  C   UNL d   1      -0.331  -3.375   1.066  0.00  0.00     0.064 A 
ATOM      4  F   UNL d   1      -2.013  -2.165  -1.941  0.00  0.00    -0.204 F 
ATOM      5 CL   UNL d   1       0.574  -2.944   2.479  0.00  0.00    -0.082 Cl
ATOM      6  C   UNL d   1      -1.610  -5.164   0.019  0.00  0.00     0.005 A 
ATOM      7  C   UNL d   1      -2.036  -4.276  -0.959  0.00  0.00     0.045 A 
ATOM      8  C   UNL d   1      -0.764  -4.712   1.029  0.00  0.00     0.026 A 
ENDROOT
BRANCH   1   9
ATOM      9  N   UNL d   1      -0.323  -1.112   0.022  0.00  0.00    -0.329 N 
ATOM     10  C   UNL d   1      -1.059  -0.047  -0.470  0.00  0.00     0.097 A 
ATOM     11  C   UNL d   1      -0.338   1.118  -0.323  0.00  0.00     0.019 A 
ATOM     12  C   UNL d   1       0.902   0.768   0.241  0.00  0.00     0.019 A 
ATOM     13  C   UNL d   1       0.898  -0.598   0.418  0.00  0.00     0.097 A 
ENDBRANCH   1   9
TORSDOF 1
