REMARK  6 active torsions:
REMARK  status: ('A' for Active; 'I' for Inactive)
REMARK    1  A    between atoms: C_3  and  S_1 
REMARK    2  A    between atoms: C_5  and  S_1 
REMARK       I    between atoms: C_2  and  N_6 
REMARK       I    between atoms: N_4  and  C_2 
REMARK    3  A    between atoms: C_10  and  C_3 
REMARK    4  A    between atoms: C_13  and  N_4 
REMARK    5  A    between atoms: N_6  and  C_10 
REMARK    6  A    between atoms: C_24  and  N_6 
ROOT
ATOM      1  C   UNL d   1      -0.198  -4.462  -0.423  0.00  0.00     0.322 C 
ATOM      2  N   UNL d   1      -0.308  -3.933   0.844  0.00  0.00    -0.309 N 
ATOM      3  N   UNL d   1       0.314  -3.594  -1.401  0.00  0.00    -0.333 N 
ATOM      4  O   UNL d   1      -0.513  -5.616  -0.709  0.00  0.00    -0.247 OA
ATOM      5  H   UNL d   1      -0.323  -2.931   0.926  0.00  0.00     0.170 HD
ENDROOT
BRANCH   3   6
ATOM      6  C   UNL d   1       0.972  -2.298  -1.145  0.00  0.00     0.143 C 
BRANCH   6   7
ATOM      7  C   UNL d   1       0.330  -1.144  -1.908  0.00  0.00     0.165 C 
BRANCH   7   8
ATOM      8  S   UNL d   1       1.094   0.383  -1.428  0.00  0.00     0.177 S 
ATOM      9  O   UNL d   1       2.497   0.320  -1.789  0.00  0.00    -0.223 OA
ATOM     10  O   UNL d   1       0.695   0.664  -0.061  0.00  0.00    -0.223 OA
BRANCH   8  11
ATOM     11  C   UNL d   1       0.337   1.608  -2.470  0.00  0.00     0.059 A 
ATOM     12  C   UNL d   1      -0.784   2.307  -2.016  0.00  0.00     0.025 A 
ATOM     13  C   UNL d   1      -1.330   3.322  -2.807  0.00  0.00     0.025 A 
ATOM     14  C   UNL d   1      -0.745   3.637  -4.035  0.00  0.00     0.034 A 
ATOM     15  C   UNL d   1       0.378   2.942  -4.485  0.00  0.00     0.025 A 
ATOM     16 CL   UNL d   1      -1.403   4.906  -4.992  0.00  0.00    -0.084 Cl
ATOM     17  C   UNL d   1       0.929   1.925  -3.699  0.00  0.00     0.025 A 
ENDBRANCH   8  11
ENDBRANCH   7   8
ENDBRANCH   6   7
ENDBRANCH   3   6
BRANCH   3  18
ATOM     18  C   UNL d   1       0.488  -4.168  -2.745  0.00  0.00     0.123 C 
ATOM     19  C   UNL d   1       1.889  -4.718  -2.980  0.00  0.00     0.026 C 
ENDBRANCH   3  18
BRANCH   2  20
ATOM     20  C   UNL d   1      -0.511  -4.639   2.053  0.00  0.00     0.036 A 
ATOM     21  C   UNL d   1      -0.561  -6.034   2.147  0.00  0.00     0.031 A 
ATOM     22  C   UNL d   1      -0.642  -6.665   3.394  0.00  0.00     0.026 A 
ATOM     23  C   UNL d   1      -0.675  -5.903   4.557  0.00  0.00     0.034 A 
ATOM     24  C   UNL d   1      -0.670  -4.513   4.481  0.00  0.00     0.026 A 
ATOM     25 CL   UNL d   1      -0.696  -6.679   6.091  0.00  0.00    -0.084 Cl
ATOM     26  C   UNL d   1      -0.595  -3.884   3.233  0.00  0.00     0.031 A 
ENDBRANCH   2  20
TORSDOF 6
