REMARK  4 active torsions:
REMARK  status: ('A' for Active; 'I' for Inactive)
REMARK    1  A    between atoms: C_8  and  N_3 
REMARK    2  A    between atoms: C_9  and  C_8 
REMARK       I    between atoms: N_12  and  C_9 
REMARK       I    between atoms: C_11  and  N_13 
REMARK       I    between atoms: N_14  and  C_11 
REMARK    3  A    between atoms: N_13  and  N_12 
REMARK    4  A    between atoms: C_21  and  N_14 
ROOT
ATOM      1  C   UNL d   1       1.988  -1.249   0.057  0.00  0.00     0.215 C 
ATOM      2  C   UNL d   1       1.797  -2.720  -0.306  0.00  0.00     0.046 C 
ENDROOT
BRANCH   1   3
ATOM      3  N   UNL d   1       0.703  -0.583   0.138  0.00  0.00    -0.189 N 
ATOM      4  N   UNL d   1      -0.133  -0.734   1.185  0.00  0.00    -0.115 N 
ATOM      5  C   UNL d   1      -1.242  -0.167   0.690  0.00  0.00     0.709 A 
ATOM      6  HN  UNL d   1       0.032  -1.160   2.097  1.00  0.00     0.207 HD
ATOM      7  N   UNL d   1      -1.045   0.353  -0.567  0.00  0.00    -0.113 N 
ATOM      8  N   UNL d   1      -2.428  -0.048   1.312  0.00  0.00    -0.211 N 
ATOM      9  N   UNL d   1       0.201   0.080  -0.913  0.00  0.00     0.012 NA
ATOM     10  HN  UNL d   1      -1.733   0.856  -1.128  1.00  0.00     0.203 HD
ATOM     11  C   UNL d   1      -3.600   0.531   0.655  0.00  0.00     0.167 C 
ATOM     12  C   UNL d   1      -2.708  -0.672   2.603  0.00  0.00     0.167 C 
ATOM     13  C   UNL d   1      -4.275   1.512   1.625  0.00  0.00     0.188 C 
ATOM     14  O   UNL d   1      -4.598   0.880   2.876  0.00  0.00    -0.388 OA
ATOM     15  C   UNL d   1      -3.414   0.354   3.502  0.00  0.00     0.188 C 
ENDBRANCH   1   3
BRANCH   1  16
ATOM     16  C   UNL d   1       2.871  -1.063   1.292  0.00  0.00     0.262 C 
ATOM     17  N   UNL d   1       2.442  -0.186   2.281  0.00  0.00    -0.264 N 
ATOM     18  H   UNL d   1       1.441  -0.177   2.495  0.00  0.00     0.190 HD
ATOM     19  O   UNL d   1       3.968  -1.621   1.364  0.00  0.00    -0.269 OA
BRANCH  17  20
ATOM     20  N   UNL d   1       3.307  -0.062   3.390  0.00  0.00    -0.249 N 
ATOM     21  C   UNL d   1       3.055   0.666   4.526  0.00  0.00     0.335 C 
ATOM     22  N   UNL d   1       1.911   1.418   4.496  0.00  0.00    -0.338 N 
ATOM     23  O   UNL d   1       3.821   0.613   5.481  0.00  0.00    -0.246 OA
ATOM     24  H   UNL d   1       1.603   1.660   3.566  0.00  0.00     0.164 HD
ATOM     25  H   UNL d   1       4.168  -0.607   3.363  0.00  0.00     0.192 HD
BRANCH  22  26
ATOM     26  C   UNL d   1       1.506   2.316   5.579  0.00  0.00     0.078 C 
ATOM     27  C   UNL d   1       1.169   1.573   6.870  0.00  0.00     0.032 C 
ATOM     28  C   UNL d   1       2.520   3.429   5.847  0.00  0.00     0.032 C 
ENDBRANCH  22  26
ENDBRANCH  17  20
ENDBRANCH   1  16
TORSDOF 4
