REMARK  7 active torsions:
REMARK  status: ('A' for Active; 'I' for Inactive)
REMARK    1  A    between atoms: O_18  and  C_1 
REMARK    2  A    between atoms: O_17  and  C_2 
REMARK    3  A    between atoms: C_3  and  C_14 
REMARK    4  A    between atoms: C_13  and  C_4 
REMARK    5  A    between atoms: N_7  and  N_9 
REMARK    6  A    between atoms: O_21  and  C_15 
REMARK    7  A    between atoms: O_22  and  C_16 
ROOT
ATOM      1  N   UNL d   1       4.809   2.002   0.131  0.00  0.00    -0.311 N 
ATOM      2  HN  UNL d   1       4.728   2.991   0.367  1.00  0.00     0.186 HD
ATOM      3  C   UNL d   1       5.924   1.403  -0.154  0.00  0.00     0.121 C 
ENDROOT
BRANCH   1   4
ATOM      4  N   UNL d   1       3.744   1.118   0.071  0.00  0.00    -0.311 N 
ATOM      5  C   UNL d   1       2.625   1.709   0.359  0.00  0.00     0.121 C 
ATOM      6  HN  UNL d   1       3.828   0.130  -0.168  1.00  0.00     0.186 HD
BRANCH   5   7
ATOM      7  C   UNL d   1       1.350   0.965   0.385  0.00  0.00     0.014 A 
ATOM      8  C   UNL d   1       1.280  -0.406   0.099  0.00  0.00     0.080 A 
ATOM      9  C   UNL d   1       0.060  -1.078   0.153  0.00  0.00     0.074 A 
ATOM     10  C   UNL d   1      -1.089  -0.372   0.494  0.00  0.00     0.068 A 
ATOM     11  C   UNL d   1      -1.036   0.991   0.776  0.00  0.00     0.037 A 
ATOM     12  C   UNL d   1       0.186   1.665   0.722  0.00  0.00     0.018 A 
BRANCH   8  13
ATOM     13  O   UNL d   1       2.373  -1.158  -0.239  0.00  0.00    -0.360 OA
ATOM     14  H   UNL d   1       3.152  -0.560  -0.228  0.00  0.00     0.217 HD
ENDBRANCH   8  13
BRANCH  10  15
ATOM     15  O   UNL d   1      -2.303  -0.987   0.567  0.00  0.00    -0.361 OA
ATOM     16  H   UNL d   1      -2.186  -1.930   0.361  0.00  0.00     0.217 HD
ENDBRANCH  10  15
ENDBRANCH   5   7
ENDBRANCH   1   4
BRANCH   3  17
ATOM     17  C   UNL d   1       7.213   2.119  -0.147  0.00  0.00     0.014 A 
ATOM     18  C   UNL d   1       7.315   3.473   0.197  0.00  0.00     0.080 A 
ATOM     19  C   UNL d   1       8.555   4.107   0.189  0.00  0.00     0.074 A 
ATOM     20  C   UNL d   1       9.691   3.386  -0.166  0.00  0.00     0.068 A 
ATOM     21  C   UNL d   1       9.608   2.038  -0.508  0.00  0.00     0.037 A 
ATOM     22  C   UNL d   1       8.364   1.401  -0.498  0.00  0.00     0.018 A 
BRANCH  18  23
ATOM     23  O   UNL d   1       6.237   4.238   0.553  0.00  0.00    -0.360 OA
ATOM     24  H   UNL d   1       5.442   3.665   0.506  0.00  0.00     0.217 HD
ENDBRANCH  18  23
BRANCH  20  25
ATOM     25  O   UNL d   1      10.885   4.045  -0.170  0.00  0.00    -0.361 OA
ATOM     26  H   UNL d   1      11.582   3.437  -0.467  0.00  0.00     0.217 HD
ENDBRANCH  20  25
ENDBRANCH   3  17
TORSDOF 7
