REMARK  6 active torsions:
REMARK  status: ('A' for Active; 'I' for Inactive)
REMARK    1  A    between atoms: N_2  and  C_1 
REMARK    2  A    between atoms: C_3  and  C_1 
REMARK    3  A    between atoms: C_5  and  C_1 
REMARK    4  A    between atoms: O_8  and  C_1 
REMARK       I    between atoms: C_4  and  N_2 
REMARK    5  A    between atoms: C_6  and  C_4 
REMARK    6  A    between atoms: O_14  and  C_5 
ROOT
ATOM      1  C   UNL d   1      -0.538  -1.279  -0.146  0.00  0.00     0.325 C 
ENDROOT
BRANCH   1   2
ATOM      2  N   UNL d   1       0.809  -1.140  -0.714  0.00  0.00    -0.309 N 
ATOM      3  C   UNL d   1       1.074  -1.450  -2.023  0.00  0.00     0.254 C 
ATOM      4  O   UNL d   1       0.204  -1.934  -2.739  0.00  0.00    -0.268 OA
ATOM      5  H   UNL d   1       1.525  -0.799  -0.087  0.00  0.00     0.166 HD
BRANCH   3   6
ATOM      6  C   UNL d   1       2.465  -1.220  -2.524  0.00  0.00     0.032 A 
ATOM      7  C   UNL d   1       2.822  -1.787  -3.758  0.00  0.00     0.023 A 
ATOM      8  C   UNL d   1       4.117  -1.633  -4.272  0.00  0.00    -0.061 A 
ATOM      9  C   UNL d   1       4.500  -2.230  -5.595  0.00  0.00     0.048 C 
ATOM     10  C   UNL d   1       5.056  -0.891  -3.547  0.00  0.00     0.007 A 
ATOM     11  C   UNL d   1       4.705  -0.309  -2.330  0.00  0.00     0.002 A 
ATOM     12  C   UNL d   1       3.414  -0.466  -1.821  0.00  0.00     0.017 A 
ENDBRANCH   3   6
ENDBRANCH   1   2
BRANCH   1  13
ATOM     13  C   UNL d   1      -1.669  -0.469  -0.855  0.00  0.00     0.448 C 
ATOM     14  F   UNL d   1      -1.185   0.422  -1.755  0.00  0.00    -0.166 F 
ATOM     15  F   UNL d   1      -2.511  -1.298  -1.528  0.00  0.00    -0.166 F 
ATOM     16  F   UNL d   1      -2.441   0.242   0.004  0.00  0.00    -0.166 F 
ENDBRANCH   1  13
BRANCH   1  17
ATOM     17  C   UNL d   1      -0.460  -0.697   1.275  0.00  0.00     0.324 C 
ATOM     18  O   UNL d   1       0.372   0.133   1.634  0.00  0.00    -0.259 OA
BRANCH  17  19
ATOM     19  O   UNL d   1      -1.416  -1.232   2.097  0.00  0.00    -0.322 OA
ATOM     20  C   UNL d   1      -1.391  -0.749   3.440  0.00  0.00     0.213 C 
ENDBRANCH  17  19
ENDBRANCH   1  17
BRANCH   1  21
ATOM     21  O   UNL d   1      -0.776  -2.688  -0.115  0.00  0.00    -0.356 OA
ATOM     22  H   UNL d   1      -0.895  -2.932  -1.056  0.00  0.00     0.213 HD
ENDBRANCH   1  21
TORSDOF 6
