REMARK  6 active torsions:
REMARK  status: ('A' for Active; 'I' for Inactive)
REMARK    1  A    between atoms: C_3  and  C_1 
REMARK    2  A    between atoms: C_12  and  N_2 
REMARK       I    between atoms: C_4  and  N_11 
REMARK    3  A    between atoms: C_7  and  C_4 
REMARK    4  A    between atoms: C_10  and  C_8 
REMARK    5  A    between atoms: O_22  and  C_10 
REMARK    6  A    between atoms: N_11  and  C_21 
ROOT
ATOM      1  C   UNL d   1       1.942  -1.550   0.126  0.00  0.00     0.057 A 
ATOM      2  C   UNL d   1       2.029  -2.610  -0.780  0.00  0.00     0.034 A 
ATOM      3  C   UNL d   1       3.043  -1.254   0.939  0.00  0.00     0.034 A 
ATOM      4  C   UNL d   1       4.278  -3.132   0.009  0.00  0.00     0.035 A 
ATOM      5  C   UNL d   1       4.192  -2.054   0.894  0.00  0.00     0.032 A 
ATOM      6  C   UNL d   1       3.189  -3.394  -0.831  0.00  0.00     0.032 A 
ENDROOT
BRANCH   4   7
ATOM      7  N   UNL d   1       5.408  -3.973  -0.124  0.00  0.00    -0.323 N 
ATOM      8  C   UNL d   1       6.579  -3.916   0.599  0.00  0.00     0.257 C 
ATOM      9  O   UNL d   1       6.785  -3.140   1.531  0.00  0.00    -0.267 OA
ATOM     10  H   UNL d   1       5.325  -4.683  -0.852  0.00  0.00     0.169 HD
BRANCH   8  11
ATOM     11  C   UNL d   1       7.718  -4.825   0.232  0.00  0.00     0.049 A 
ATOM     12  C   UNL d   1       7.665  -6.127  -0.303  0.00  0.00     0.053 A 
ATOM     13  C   UNL d   1       8.861  -6.863  -0.472  0.00  0.00     0.019 A 
ATOM     14  C   UNL d   1      10.095  -6.331  -0.100  0.00  0.00     0.001 A 
ATOM     15  C   UNL d   1      10.162  -5.042   0.405  0.00  0.00     0.001 A 
ATOM     16  C   UNL d   1       8.990  -4.301   0.562  0.00  0.00     0.018 A 
BRANCH  12  17
ATOM     17  C   UNL d   1       6.421  -6.767  -0.781  0.00  0.00     0.177 C 
ATOM     18  O   UNL d   1       5.588  -6.172  -1.438  0.00  0.00    -0.646 OA
BRANCH  17  19
ATOM     19  O   UNL d   1       6.311  -8.077  -0.471  0.00  0.00    -0.773 OA
ATOM     20  H   UNL d   1       6.989  -8.437   0.129  0.00  0.00     0.167 HD
ENDBRANCH  17  19
ENDBRANCH  12  17
ENDBRANCH   8  11
ENDBRANCH   4   7
BRANCH   1  21
ATOM     21  N   UNL d   1       0.774  -0.742   0.219  0.00  0.00    -0.252 N 
ATOM     22  C   UNL d   1      -0.550  -1.049  -0.019  0.00  0.00     0.141 C 
ATOM     23  C   UNL d   1      -1.235   0.152  -0.036  0.00  0.00     0.055 C 
ATOM     24  C   UNL d   1      -0.286   1.108   0.339  0.00  0.00     0.110 C 
ATOM     25  N   UNL d   1       0.905   0.569   0.569  0.00  0.00    -0.305 N 
ATOM     26  HN  UNL d   1       1.737   1.035   0.931  1.00  0.00     0.186 HD
BRANCH  22  27
ATOM     27  C   UNL d   1      -1.083  -2.413  -0.128  0.00  0.00     0.434 C 
ATOM     28  F   UNL d   1      -0.298  -3.369   0.420  0.00  0.00    -0.165 F 
ATOM     29  F   UNL d   1      -2.284  -2.514   0.501  0.00  0.00    -0.165 F 
ATOM     30  F   UNL d   1      -1.296  -2.760  -1.422  0.00  0.00    -0.165 F 
ENDBRANCH  22  27
ENDBRANCH   1  21
TORSDOF 6
