REMARK  3 active torsions:
REMARK  status: ('A' for Active; 'I' for Inactive)
REMARK    1  A    between atoms: C_2  and  N_1 
REMARK       I    between atoms: C_3  and  N_1 
REMARK    2  A    between atoms: C_5  and  C_3 
REMARK    3  A    between atoms: C_10  and  C_4 
ROOT
ATOM      1  N   UNL d   1       1.198  -0.181  -0.171  0.00  0.00    -0.322 N 
ATOM      2  C   UNL d   1       1.734   0.095  -1.420  0.00  0.00     0.256 C 
ATOM      3  O   UNL d   1       1.636  -0.626  -2.409  0.00  0.00    -0.267 OA
ATOM      4  H   UNL d   1       1.597   0.278   0.626  0.00  0.00     0.169 HD
ENDROOT
BRANCH   1   5
ATOM      5  C   UNL d   1       0.331  -1.271   0.072  0.00  0.00     0.047 C 
ATOM      6  C   UNL d   1       0.548  -2.125   1.178  0.00  0.00    -0.027 C 
ATOM      7  C   UNL d   1      -0.244  -3.294   1.270  0.00  0.00     0.010 C 
ATOM      8  C   UNL d   1      -1.252  -3.576   0.353  0.00  0.00     0.001 C 
ATOM      9  C   UNL d   1      -1.533  -2.667  -0.654  0.00  0.00     0.009 C 
ATOM     10  C   UNL d   1      -0.773  -1.496  -0.789  0.00  0.00    -0.035 C 
ATOM     11  C   UNL d   1      -1.249  -0.504  -1.822  0.00  0.00     0.050 C 
BRANCH   6  12
ATOM     12  C   UNL d   1       1.616  -1.973   2.258  0.00  0.00     0.013 C 
ATOM     13  C   UNL d   1       3.003  -2.377   1.759  0.00  0.00     0.015 C 
ATOM     14  C   UNL d   1       1.646  -0.620   2.975  0.00  0.00     0.015 C 
ENDBRANCH   6  12
ENDBRANCH   1   5
BRANCH   2  15
ATOM     15  C   UNL d   1       2.460   1.389  -1.568  0.00  0.00     0.032 A 
ATOM     16  C   UNL d   1       3.123   2.030  -0.517  0.00  0.00     0.018 A 
ATOM     17  C   UNL d   1       3.728   3.272  -0.727  0.00  0.00     0.025 A 
ATOM     18  C   UNL d   1       3.674   3.874  -1.988  0.00  0.00     0.034 A 
ATOM     19  C   UNL d   1       3.036   3.235  -3.043  0.00  0.00     0.025 A 
ATOM     20 CL   UNL d   1       4.395   5.416  -2.231  0.00  0.00    -0.084 Cl
ATOM     21  C   UNL d   1       2.434   1.991  -2.836  0.00  0.00     0.018 A 
ENDBRANCH   2  15
TORSDOF 3
