REMARK  5 active torsions:
REMARK  status: ('A' for Active; 'I' for Inactive)
REMARK    1  A    between atoms: C_2  and  N_1 
REMARK       I    between atoms: C_3  and  N_1 
REMARK    2  A    between atoms: C_5  and  C_3 
REMARK    3  A    between atoms: C_10  and  C_4 
REMARK    4  A    between atoms: C_18  and  C_7 
REMARK    5  A    between atoms: C_19  and  C_10 
ROOT
ATOM      1  C   UNL d   1       0.259   0.887   0.926  0.00  0.00     0.048 A 
ATOM      2  C   UNL d   1       0.536   2.277   0.988  0.00  0.00    -0.027 A 
ATOM      3  C   UNL d   1      -0.935   0.358   1.482  0.00  0.00    -0.031 A 
ATOM      4  C   UNL d   1      -0.457   3.112   1.535  0.00  0.00     0.010 A 
ATOM      5  C   UNL d   1      -1.656   2.600   2.038  0.00  0.00     0.001 A 
ATOM      6  C   UNL d   1      -1.882   1.231   2.029  0.00  0.00     0.009 A 
ENDROOT
BRANCH   1   7
ATOM      7  N   UNL d   1       1.027   0.018   0.123  0.00  0.00    -0.322 N 
ATOM      8  C   UNL d   1       2.284  -0.450   0.452  0.00  0.00     0.256 C 
ATOM      9  O   UNL d   1       2.909  -0.139   1.461  0.00  0.00    -0.267 OA
ATOM     10  H   UNL d   1       0.470  -0.568  -0.475  0.00  0.00     0.169 HD
BRANCH   8  11
ATOM     11  C   UNL d   1       2.900  -1.405  -0.532  0.00  0.00     0.032 A 
ATOM     12  C   UNL d   1       4.294  -1.572  -0.493  0.00  0.00     0.018 A 
ATOM     13  C   UNL d   1       4.944  -2.386  -1.427  0.00  0.00     0.025 A 
ATOM     14  C   UNL d   1       4.206  -3.049  -2.402  0.00  0.00     0.034 A 
ATOM     15  C   UNL d   1       2.819  -2.920  -2.439  0.00  0.00     0.025 A 
ATOM     16 CL   UNL d   1       5.003  -4.026  -3.571  0.00  0.00    -0.084 Cl
ATOM     17  C   UNL d   1       2.167  -2.106  -1.505  0.00  0.00     0.018 A 
ENDBRANCH   8  11
ENDBRANCH   1   7
BRANCH   2  18
ATOM     18  C   UNL d   1       1.828   2.905   0.455  0.00  0.00     0.016 C 
ATOM     19  C   UNL d   1       2.315   4.082   1.331  0.00  0.00     0.015 C 
BRANCH  18  20
ATOM     20  C   UNL d   1       1.726   3.408  -1.001  0.00  0.00     0.004 C 
ATOM     21  C   UNL d   1       1.547   2.312  -2.039  0.00  0.00     0.006 C 
ENDBRANCH  18  20
ENDBRANCH   2  18
BRANCH   3  22
ATOM     22  C   UNL d   1      -1.181  -1.131   1.606  0.00  0.00     0.036 C 
ATOM     23  C   UNL d   1      -2.004  -1.722   0.474  0.00  0.00     0.010 C 
ENDBRANCH   3  22
TORSDOF 5
