REMARK  5 active torsions:
REMARK  status: ('A' for Active; 'I' for Inactive)
REMARK    1  A    between atoms: C_7  and  N_1 
REMARK    2  A    between atoms: S_6  and  C_4 
REMARK    3  A    between atoms: C_8  and  S_6 
REMARK    4  A    between atoms: C_12  and  C_11 
REMARK    5  A    between atoms: N_19  and  C_13 
ROOT
ATOM      1  N   UNL d   1       0.067   0.885   0.045  0.00  0.00    -0.251 N 
ATOM      2  C   UNL d   1      -1.061   0.141   0.303  0.00  0.00     0.232 C 
ATOM      3  C   UNL d   1       1.171   0.068  -0.127  0.00  0.00     0.245 C 
ATOM      4  C   UNL d   1       0.727  -1.380  -0.164  0.00  0.00     0.154 C 
ATOM      5  C   UNL d   1      -0.741  -1.322   0.203  0.00  0.00     0.129 C 
ATOM      6  O   UNL d   1      -2.188   0.533   0.581  0.00  0.00    -0.273 OA
ATOM      7  O   UNL d   1       2.348   0.406  -0.186  0.00  0.00    -0.271 OA
ENDROOT
BRANCH   4   8
ATOM      8  S   UNL d   1       1.065  -2.019  -1.853  0.00  0.00    -0.113 SA
BRANCH   8   9
ATOM      9  C   UNL d   1       0.628  -3.760  -1.712  0.00  0.00     0.022 A 
ATOM     10  C   UNL d   1      -0.349  -4.299  -2.579  0.00  0.00     0.022 A 
ATOM     11  C   UNL d   1      -0.666  -5.661  -2.493  0.00  0.00     0.024 A 
ATOM     12  C   UNL d   1       0.059  -6.508  -1.657  0.00  0.00     0.002 A 
ATOM     13  C   UNL d   1       1.069  -5.988  -0.851  0.00  0.00     0.001 A 
ATOM     14  C   UNL d   1       1.346  -4.615  -0.867  0.00  0.00     0.020 A 
BRANCH  10  15
ATOM     15  N   UNL d   1      -1.151  -3.465  -3.386  0.00  0.00    -0.302 NA
ATOM     16  H   UNL d   1      -0.628  -2.639  -3.677  0.00  0.00     0.124 HD
ATOM     17  H   UNL d   1      -1.570  -3.947  -4.175  0.00  0.00     0.124 HD
ENDBRANCH  10  15
ENDBRANCH   8   9
ENDBRANCH   4   8
BRANCH   1  18
ATOM     18  C   UNL d   1       0.113   2.313   0.002  0.00  0.00     0.045 A 
ATOM     19  C   UNL d   1      -0.846   3.108   0.651  0.00  0.00     0.031 A 
ATOM     20  C   UNL d   1      -0.811   4.512   0.585  0.00  0.00     0.017 A 
ATOM     21  C   UNL d   1       0.183   5.155  -0.151  0.00  0.00     0.009 A 
ATOM     22  C   UNL d   1       1.133   4.382  -0.823  0.00  0.00     0.017 A 
ATOM     23  C   UNL d   1       1.106   2.982  -0.733  0.00  0.00     0.031 A 
BRANCH  21  24
ATOM     24  C   UNL d   1       0.262   6.638  -0.270  0.00  0.00     0.155 C 
ATOM     25  O   UNL d   1       0.770   7.137  -1.273  0.00  0.00    -0.293 OA
ATOM     26  C   UNL d   1      -0.253   7.506   0.850  0.00  0.00     0.096 C 
ENDBRANCH  21  24
ENDBRANCH   1  18
TORSDOF 5
