REMARK  8 active torsions:
REMARK  status: ('A' for Active; 'I' for Inactive)
REMARK    1  A    between atoms: C_7  and  C_1 
REMARK    2  A    between atoms: N_8  and  C_2 
REMARK    3  A    between atoms: C_9  and  C_3 
REMARK       I    between atoms: C_10  and  N_8 
REMARK    4  A    between atoms: C_26  and  C_10 
REMARK    5  A    between atoms: C_11  and  C_27 
REMARK    6  A    between atoms: O_22  and  C_11 
REMARK    7  A    between atoms: S_19  and  C_26 
REMARK    8  A    between atoms: C_27  and  S_19 
ROOT
ATOM      1  C   UNL d   1       1.351   0.636  -0.151  0.00  0.00     0.147 A 
ATOM      2  C   UNL d   1       0.053  -1.180  -0.043  0.00  0.00     0.138 A 
ATOM      3  C   UNL d   1       1.385  -0.791   0.012  0.00  0.00     0.053 A 
ATOM      4  N   UNL d   1       0.080   1.077  -0.242  0.00  0.00    -0.292 N 
ATOM      5  HN  UNL d   1      -0.236   2.043  -0.328  1.00  0.00     0.187 HD
ATOM      6  N   UNL d   1      -0.681  -0.028  -0.194  0.00  0.00    -0.280 N 
ATOM      7  C   UNL d   1      -2.114   0.135  -0.101  0.00  0.00     0.179 C 
ENDROOT
BRANCH   2   8
ATOM      8  N   UNL d   1      -0.401  -2.491   0.069  0.00  0.00    -0.310 N 
ATOM      9  C   UNL d   1      -1.368  -3.025  -0.853  0.00  0.00     0.232 C 
ATOM     10  O   UNL d   1      -1.807  -2.321  -1.751  0.00  0.00    -0.272 OA
ATOM     11  H   UNL d   1       0.106  -3.119   0.685  0.00  0.00     0.170 HD
BRANCH   9  12
ATOM     12  C   UNL d   1      -1.734  -4.476  -0.658  0.00  0.00     0.177 C 
BRANCH  12  13
ATOM     13  S   UNL d   1      -3.261  -4.576   0.329  0.00  0.00    -0.149 SA
BRANCH  13  14
ATOM     14  C   UNL d   1      -3.564  -6.374   0.238  0.00  0.00     0.184 C 
BRANCH  14  15
ATOM     15  C   UNL d   1      -2.508  -7.188   0.961  0.00  0.00     0.149 C 
ATOM     16  O   UNL d   1      -1.409  -6.777   1.296  0.00  0.00    -0.649 OA
BRANCH  15  17
ATOM     17  O   UNL d   1      -2.872  -8.477   1.150  0.00  0.00    -0.776 OA
ATOM     18  H   UNL d   1      -3.771  -8.717   0.849  0.00  0.00     0.167 HD
ENDBRANCH  15  17
ENDBRANCH  14  15
ENDBRANCH  13  14
ENDBRANCH  12  13
ENDBRANCH   9  12
ENDBRANCH   2   8
BRANCH   3  19
ATOM     19  C   UNL d   1       2.514  -1.715   0.096  0.00  0.00    -0.020 A 
ATOM     20  C   UNL d   1       2.533  -2.897  -0.669  0.00  0.00     0.015 A 
ATOM     21  C   UNL d   1       3.611  -3.782  -0.596  0.00  0.00     0.043 A 
ATOM     22  C   UNL d   1       4.696  -3.471   0.210  0.00  0.00     0.116 A 
ATOM     23  C   UNL d   1       4.713  -2.300   0.958  0.00  0.00     0.043 A 
ATOM     24  F   UNL d   1       5.742  -4.305   0.258  0.00  0.00    -0.206 F 
ATOM     25  C   UNL d   1       3.616  -1.433   0.916  0.00  0.00     0.015 A 
ENDBRANCH   3  19
BRANCH   1  26
ATOM     26  C   UNL d   1       2.501   1.615  -0.230  0.00  0.00     0.434 C 
ATOM     27  F   UNL d   1       3.692   1.014  -0.485  0.00  0.00    -0.165 F 
ATOM     28  F   UNL d   1       2.329   2.542  -1.208  0.00  0.00    -0.165 F 
ATOM     29  F   UNL d   1       2.656   2.293   0.939  0.00  0.00    -0.165 F 
ENDBRANCH   1  26
TORSDOF 8
