REMARK  5 active torsions:
REMARK  status: ('A' for Active; 'I' for Inactive)
REMARK    1  A    between atoms: O_9  and  S_1 
REMARK    2  A    between atoms: N_10  and  S_1 
REMARK    3  A    between atoms: C_4  and  C_13 
REMARK    4  A    between atoms: C_14  and  C_5 
REMARK    5  A    between atoms: C_17  and  O_9 
ROOT
ATOM      1  C   UNL d   1       1.511  -5.147  -1.701  0.00  0.00     0.010 A 
ATOM      2  C   UNL d   1       2.446  -4.130  -1.461  0.00  0.00     0.018 A 
ATOM      3  C   UNL d   1       0.188  -4.954  -1.280  0.00  0.00     0.018 A 
ATOM      4  C   UNL d   1       0.750  -2.794  -0.350  0.00  0.00     0.090 A 
ATOM      5  C   UNL d   1      -0.194  -3.782  -0.622  0.00  0.00     0.039 A 
ATOM      6  C   UNL d   1       2.065  -2.957  -0.794  0.00  0.00     0.039 A 
ENDROOT
BRANCH   1   7
ATOM      7  C   UNL d   1       1.890  -6.375  -2.394  0.00  0.00     0.137 A 
ATOM      8  N   UNL d   1       3.158  -6.597  -2.891  0.00  0.00    -0.322 N 
ATOM      9  C   UNL d   1       3.031  -7.756  -3.502  0.00  0.00     0.152 A 
ATOM     10  HN  UNL d   1       3.987  -6.010  -2.806  1.00  0.00     0.169 HD
ATOM     11  O   UNL d   1       1.778  -8.284  -3.380  0.00  0.00    -0.222 OA
ATOM     12  N   UNL d   1       1.031  -7.376  -2.644  0.00  0.00    -0.242 N 
ATOM     13  HN  UNL d   1       0.054  -7.452  -2.359  1.00  0.00     0.196 HD
BRANCH   9  14
ATOM     14  C   UNL d   1       4.115  -8.440  -4.311  0.00  0.00     0.063 C 
ATOM     15  C   UNL d   1       5.399  -8.789  -3.504  0.00  0.00     0.013 C 
ATOM     16  C   UNL d   1       6.205  -8.399  -4.757  0.00  0.00     0.002 C 
ATOM     17  C   UNL d   1       5.030  -7.473  -5.117  0.00  0.00     0.013 C 
ENDBRANCH   9  14
ENDBRANCH   1   7
BRANCH   4  18
ATOM     18  O   UNL d   1       0.467  -1.637   0.333  0.00  0.00    -0.221 OA
BRANCH  18  19
ATOM     19  S   UNL d   1      -0.714  -1.605   1.465  0.00  0.00     0.344 S 
ATOM     20  O   UNL d   1      -0.593  -2.778   2.305  0.00  0.00    -0.180 OA
ATOM     21  O   UNL d   1      -1.968  -1.289   0.808  0.00  0.00    -0.180 OA
BRANCH  19  22
ATOM     22  N   UNL d   1      -0.298  -0.272   2.445  0.00  0.00    -0.196 NA
ATOM     23  C   UNL d   1       1.019  -0.382   3.098  0.00  0.00     0.131 C 
ATOM     24  C   UNL d   1      -0.556   1.055   1.866  0.00  0.00     0.131 C 
ENDBRANCH  19  22
ENDBRANCH  18  19
ENDBRANCH   4  18
TORSDOF 5
