REMARK  9 active torsions:
REMARK  status: ('A' for Active; 'I' for Inactive)
REMARK    1  A    between atoms: N_4  and  S_1 
REMARK    2  A    between atoms: C_5  and  S_1 
REMARK    3  A    between atoms: C_11  and  C_2 
REMARK    4  A    between atoms: C_3  and  N_4 
REMARK    5  A    between atoms: C_6  and  C_8 
REMARK    6  A    between atoms: C_7  and  C_9 
REMARK    7  A    between atoms: O_27  and  C_11 
REMARK    8  A    between atoms: O_28  and  C_16 
REMARK    9  A    between atoms: O_29  and  C_17 
ROOT
ATOM      1  S   UNL d   1       0.681   0.769   2.513  0.00  0.00     0.245 S 
ATOM      2  O   UNL d   1       1.858   0.612   3.341  0.00  0.00    -0.206 OA
ATOM      3  O   UNL d   1      -0.639   0.932   3.084  0.00  0.00    -0.206 OA
ENDROOT
BRANCH   1   4
ATOM      4  N   UNL d   1       0.622  -0.512   1.386  0.00  0.00    -0.180 NA
ATOM      5  H   UNL d   1       1.242  -0.278   0.597  0.00  0.00     0.146 HD
BRANCH   4   6
ATOM      6  C   UNL d   1       0.944  -1.815   1.921  0.00  0.00     0.042 A 
ATOM      7  C   UNL d   1       2.265  -2.291   1.934  0.00  0.00     0.064 A 
ATOM      8  C   UNL d   1       2.529  -3.575   2.417  0.00  0.00     0.059 A 
ATOM      9  C   UNL d   1       1.496  -4.385   2.897  0.00  0.00     0.102 A 
ATOM     10  C   UNL d   1       0.181  -3.888   2.962  0.00  0.00     0.103 A 
ATOM     11  C   UNL d   1      -0.084  -2.597   2.470  0.00  0.00     0.065 A 
BRANCH   7  12
ATOM     12  C   UNL d   1       3.367  -1.457   1.393  0.00  0.00     0.294 C 
ATOM     13  O   UNL d   1       3.184  -0.573   0.566  0.00  0.00    -0.259 OA
BRANCH  12  14
ATOM     14  O   UNL d   1       4.538  -1.805   1.970  0.00  0.00    -0.322 OA
ATOM     15  C   UNL d   1       5.694  -1.056   1.587  0.00  0.00     0.213 C 
ENDBRANCH  12  14
ENDBRANCH   7  12
BRANCH   9  16
ATOM     16  O   UNL d   1       1.936  -5.616   3.314  0.00  0.00    -0.353 OA
ATOM     17  C   UNL d   1       1.046  -6.711   3.131  0.00  0.00     0.210 C 
ENDBRANCH   9  16
BRANCH  10  18
ATOM     18  O   UNL d   1      -0.758  -4.708   3.524  0.00  0.00    -0.353 OA
ATOM     19  C   UNL d   1      -2.082  -4.224   3.693  0.00  0.00     0.210 C 
ENDBRANCH  10  18
ENDBRANCH   4   6
ENDBRANCH   1   4
BRANCH   1  20
ATOM     20  C   UNL d   1       0.984   2.159   1.422  0.00  0.00     0.076 A 
ATOM     21  C   UNL d   1      -0.098   2.849   0.866  0.00  0.00     0.041 A 
ATOM     22  C   UNL d   1       0.125   3.946   0.021  0.00  0.00     0.050 A 
ATOM     23  C   UNL d   1       1.451   4.335  -0.258  0.00  0.00     0.032 A 
ATOM     24  C   UNL d   1       2.546   3.659   0.312  0.00  0.00     0.050 A 
ATOM     25  C   UNL d   1       2.300   2.566   1.161  0.00  0.00     0.041 A 
BRANCH  22  26
ATOM     26  C   UNL d   1      -1.025   4.717  -0.590  0.00  0.00     0.417 C 
ATOM     27  F   UNL d   1      -2.248   4.269  -0.195  0.00  0.00    -0.166 F 
ATOM     28  F   UNL d   1      -0.986   6.039  -0.274  0.00  0.00    -0.166 F 
ATOM     29  F   UNL d   1      -1.024   4.655  -1.950  0.00  0.00    -0.166 F 
ENDBRANCH  22  26
BRANCH  24  30
ATOM     30  C   UNL d   1       3.955   4.120   0.008  0.00  0.00     0.417 C 
ATOM     31  F   UNL d   1       4.917   3.416   0.664  0.00  0.00    -0.166 F 
ATOM     32  F   UNL d   1       4.255   4.026  -1.316  0.00  0.00    -0.166 F 
ATOM     33  F   UNL d   1       4.152   5.426   0.343  0.00  0.00    -0.166 F 
ENDBRANCH  24  30
ENDBRANCH   1  20
TORSDOF 9
