REMARK  3 active torsions:
REMARK  status: ('A' for Active; 'I' for Inactive)
REMARK    1  A    between atoms: N_2  and  C_1 
REMARK    2  A    between atoms: N_6  and  C_1 
REMARK    3  A    between atoms: C_7  and  N_2 
ROOT
ATOM      1  C   UNL d   1       1.085  -4.837  -0.293  0.00  0.00     0.124 A 
ATOM      2  C   UNL d   1       0.500  -3.587  -0.495  0.00  0.00     0.072 A 
ATOM      3  C   UNL d   1       0.992  -2.480   0.190  0.00  0.00     0.037 A 
ATOM      4  C   UNL d   1       2.129  -5.014   0.617  0.00  0.00    -0.023 A 
ATOM      5  C   UNL d   1       2.555  -3.917   1.373  0.00  0.00     0.012 A 
ATOM      6  F   UNL d   1       0.649  -5.877  -1.017  0.00  0.00    -0.205 F 
ATOM      7  C   UNL d   1       1.984  -2.658   1.161  0.00  0.00     0.030 A 
ATOM      8  C   UNL d   1       2.779  -6.356   0.761  0.00  0.00     0.051 C 
ENDROOT
BRANCH   3   9
ATOM      9  N   UNL d   1       0.451  -1.216  -0.121  0.00  0.00    -0.333 N 
ATOM     10  H   UNL d   1      -0.512  -1.212  -0.441  0.00  0.00     0.168 HD
BRANCH   9  11
ATOM     11  C   UNL d   1       0.961   0.033   0.120  0.00  0.00     0.173 C 
ATOM     12  S   UNL d   1      -0.162   1.267   0.319  0.00  0.00    -0.041 SA
BRANCH  11  13
ATOM     13  N   UNL d   1       2.337   0.210   0.089  0.00  0.00    -0.367 N 
ATOM     14  C   UNL d   1       3.187  -0.547  -0.830  0.00  0.00     0.151 C 
ATOM     15  C   UNL d   1       2.996   1.360   0.701  0.00  0.00     0.151 C 
ENDBRANCH  11  13
ENDBRANCH   9  11
ENDBRANCH   3   9
TORSDOF 3
