REMARK  4 active torsions:
REMARK  status: ('A' for Active; 'I' for Inactive)
REMARK    1  A    between atoms: N_4  and  C_2 
REMARK    2  A    between atoms: C_12  and  C_16 
REMARK    3  A    between atoms: O_20  and  C_12 
REMARK    4  A    between atoms: C_22  and  O_20 
ROOT
ATOM      1  C   UNL d   1      -0.030  -0.812  -0.894  0.00  0.00     0.043 A 
ATOM      2  C   UNL d   1      -0.904  -1.548  -0.050  0.00  0.00     0.097 A 
ATOM      3  C   UNL d   1      -0.183   0.569  -0.852  0.00  0.00     0.088 A 
ATOM      4  S   UNL d   1       0.886   1.401  -1.879  0.00  0.00    -0.083 SA
ATOM      5  C   UNL d   1       1.053  -1.172  -1.802  0.00  0.00    -0.039 A 
ATOM      6  N   UNL d   1      -1.779  -0.860   0.727  0.00  0.00    -0.342 N 
ATOM      7  HN  UNL d   1      -2.411  -1.357   1.355  1.00  0.00     0.167 HD
ATOM      8  C   UNL d   1       1.607  -0.049  -2.398  0.00  0.00     0.059 A 
ATOM      9  N   UNL d   1      -1.053   1.266  -0.101  0.00  0.00    -0.346 N 
ATOM     10  HN  UNL d   1      -1.128   2.283  -0.114  1.00  0.00     0.167 HD
ATOM     11  C   UNL d   1      -1.805   0.477   0.661  0.00  0.00     0.182 A 
ATOM     12  C   UNL d   1       1.554  -2.548  -2.097  0.00  0.00     0.050 C 
ENDROOT
BRANCH   2  13
ATOM     13  N   UNL d   1      -0.859  -2.950   0.049  0.00  0.00    -0.269 NA
ATOM     14  C   UNL d   1      -1.270  -3.443   1.369  0.00  0.00     0.098 C 
ATOM     15  C   UNL d   1      -0.891  -4.922   1.459  0.00  0.00     0.029 C 
ATOM     16  C   UNL d   1      -1.546  -5.739   0.332  0.00  0.00     0.088 C 
ATOM     17  C   UNL d   1      -1.246  -5.095  -1.034  0.00  0.00     0.029 C 
ATOM     18  C   UNL d   1      -1.587  -3.598  -1.053  0.00  0.00     0.098 C 
BRANCH  16  19
ATOM     19  C   UNL d   1      -3.049  -5.889   0.537  0.00  0.00     0.263 C 
ATOM     20  O   UNL d   1      -3.887  -5.743  -0.341  0.00  0.00    -0.265 OA
BRANCH  19  21
ATOM     21  O   UNL d   1      -3.326  -6.226   1.825  0.00  0.00    -0.322 OA
BRANCH  21  22
ATOM     22  C   UNL d   1      -4.708  -6.189   2.204  0.00  0.00     0.174 C 
ATOM     23  C   UNL d   1      -5.317  -7.575   2.154  0.00  0.00     0.034 C 
ENDBRANCH  21  22
ENDBRANCH  19  21
ENDBRANCH  16  19
ENDBRANCH   2  13
TORSDOF 4
