REMARK  4 active torsions:
REMARK  status: ('A' for Active; 'I' for Inactive)
REMARK    1  A    between atoms: C_9  and  N_1 
REMARK    2  A    between atoms: C_12  and  C_9 
REMARK    3  A    between atoms: S_10  and  C_12 
REMARK    4  A    between atoms: C_13  and  S_10 
ROOT
ATOM      1  N   UNL d   1       2.418  -0.475   0.005  0.00  0.00    -0.265 N 
ATOM      2  C   UNL d   1       1.583  -0.720   1.082  0.00  0.00     0.329 C 
ATOM      3  C   UNL d   1       2.083   0.365  -1.054  0.00  0.00     0.264 C 
ATOM      4  C   UNL d   1       0.877   1.189  -0.904  0.00  0.00     0.059 A 
ATOM      5  N   UNL d   1       0.427   0.015   1.142  0.00  0.00    -0.307 N 
ATOM      6  C   UNL d   1       0.076   0.989   0.212  0.00  0.00     0.052 A 
ATOM      7  O   UNL d   1       1.797  -1.553   1.962  0.00  0.00    -0.246 OA
ATOM      8  O   UNL d   1       2.741   0.455  -2.092  0.00  0.00    -0.267 OA
ATOM      9  C   UNL d   1       0.550   2.170  -1.846  0.00  0.00     0.019 A 
ATOM     10  C   UNL d   1      -1.062   1.770   0.406  0.00  0.00     0.030 A 
ATOM     11  C   UNL d   1      -0.576   2.969  -1.644  0.00  0.00     0.001 A 
ATOM     12  C   UNL d   1      -1.378   2.770  -0.518  0.00  0.00     0.002 A 
ATOM     13  H   UNL d   1      -0.157  -0.160   1.950  0.00  0.00     0.170 HD
ENDROOT
BRANCH   1  14
ATOM     14  C   UNL d   1       3.672  -1.222  -0.093  0.00  0.00     0.148 C 
BRANCH  14  15
ATOM     15  C   UNL d   1       4.936  -0.348  -0.190  0.00  0.00     0.100 C 
BRANCH  15  16
ATOM     16  S   UNL d   1       5.162   0.748   1.258  0.00  0.00    -0.128 SA
BRANCH  16  17
ATOM     17  C   UNL d   1       6.719   1.511   0.823  0.00  0.00     0.000 A 
ATOM     18  C   UNL d   1       6.859   2.314  -0.314  0.00  0.00     0.018 A 
ATOM     19  C   UNL d   1       8.091   2.907  -0.613  0.00  0.00     0.001 A 
ATOM     20  C   UNL d   1       9.186   2.707   0.227  0.00  0.00     0.000 A 
ATOM     21  C   UNL d   1       9.049   1.921   1.370  0.00  0.00     0.001 A 
ATOM     22  C   UNL d   1       7.818   1.331   1.668  0.00  0.00     0.018 A 
ENDBRANCH  16  17
ENDBRANCH  15  16
ENDBRANCH  14  15
ENDBRANCH   1  14
TORSDOF 4
