REMARK  1 active torsions:
REMARK  status: ('A' for Active; 'I' for Inactive)
REMARK    1  A    between atoms: C_2  and  N_1 
ROOT
ATOM      1  N   UNL d   1       0.580   1.159  -0.488  0.00  0.00    -0.251 N 
ATOM      2  C   UNL d   1       1.408   0.060  -0.202  0.00  0.00     0.240 C 
ATOM      3  C   UNL d   1      -0.703   1.251   0.073  0.00  0.00     0.240 C 
ATOM      4  S   UNL d   1      -0.758  -1.394   0.733  0.00  0.00    -0.150 SA
ATOM      5  O   UNL d   1      -1.197   2.249   0.595  0.00  0.00    -0.272 OA
ATOM      6  O   UNL d   1       2.625   0.153  -0.013  0.00  0.00    -0.272 OA
ATOM      7  C   UNL d   1      -1.546   0.003  -0.071  0.00  0.00     0.178 C 
ATOM      8  C   UNL d   1       0.773  -1.317  -0.199  0.00  0.00     0.178 C 
ENDROOT
BRANCH   1   9
ATOM      9  C   UNL d   1       1.209   2.321  -1.083  0.00  0.00     0.047 A 
ATOM     10  C   UNL d   1       0.808   3.644  -0.834  0.00  0.00     0.057 A 
ATOM     11  C   UNL d   1       1.367   4.712  -1.551  0.00  0.00     0.074 A 
ATOM     12 CL   UNL d   1       0.854   6.320  -1.207  0.00  0.00    -0.081 Cl
ATOM     13  C   UNL d   1       2.318   4.473  -2.535  0.00  0.00     0.138 A 
ATOM     14  C   UNL d   1       2.740   3.179  -2.798  0.00  0.00     0.046 A 
ATOM     15  F   UNL d   1       2.832   5.478  -3.257  0.00  0.00    -0.204 F 
ATOM     16  C   UNL d   1       2.196   2.116  -2.072  0.00  0.00     0.033 A 
ENDBRANCH   1   9
TORSDOF 1
