REMARK  4 active torsions:
REMARK  status: ('A' for Active; 'I' for Inactive)
REMARK    1  A    between atoms: N_5  and  C_3 
REMARK    2  A    between atoms: N_13  and  C_4 
REMARK    3  A    between atoms: C_8  and  C_12 
REMARK    4  A    between atoms: C_17  and  N_13 
ROOT
ATOM      1  N   UNL d   1      -0.450  -1.051  -0.475  0.00  0.00    -0.021 N 
ATOM      2  HN  UNL d   1      -0.874  -1.909  -0.828  1.00  0.00     0.203 HD
ATOM      3  C   UNL d   1      -1.069   0.124  -0.570  0.00  0.00     0.703 A 
ATOM      4  C   UNL d   1       0.749  -1.052   0.101  0.00  0.00     0.698 A 
ATOM      5  N   UNL d   1      -0.590   1.269  -0.082  0.00  0.00    -0.186 N 
ATOM      6  HN  UNL d   1      -1.093   2.154  -0.144  1.00  0.00     0.185 HD
ATOM      7  N   UNL d   1       1.329   0.040   0.590  0.00  0.00    -0.187 N 
ATOM      8  HN  UNL d   1       2.260   0.027   1.006  1.00  0.00     0.185 HD
ATOM      9  C   UNL d   1       0.602   1.152   0.494  0.00  0.00     0.215 A 
ENDROOT
BRANCH   4  10
ATOM     10  N   UNL d   1       1.470  -2.242   0.158  0.00  0.00    -0.191 N 
ATOM     11  H   UNL d   1       2.434  -2.102   0.418  0.00  0.00     0.184 HD
BRANCH  10  12
ATOM     12  C   UNL d   1       0.995  -3.556   0.061  0.00  0.00     0.050 A 
ATOM     13  C   UNL d   1       1.773  -4.536  -0.569  0.00  0.00     0.046 A 
ATOM     14  C   UNL d   1       1.272  -5.833  -0.782  0.00  0.00     0.050 A 
ATOM     15  C   UNL d   1      -0.015  -6.154  -0.326  0.00  0.00     0.016 A 
ATOM     16  C   UNL d   1      -0.793  -5.194   0.311  0.00  0.00     0.003 A 
ATOM     17  C   UNL d   1      -0.295  -3.905   0.486  0.00  0.00     0.030 A 
BRANCH  14  18
ATOM     18  C   UNL d   1       2.077  -6.874  -1.520  0.00  0.00     0.417 C 
ATOM     19  F   UNL d   1       3.288  -6.425  -1.953  0.00  0.00    -0.166 F 
ATOM     20  F   UNL d   1       2.337  -7.970  -0.754  0.00  0.00    -0.166 F 
ATOM     21  F   UNL d   1       1.434  -7.338  -2.628  0.00  0.00    -0.166 F 
ENDBRANCH  14  18
ENDBRANCH  10  12
ENDBRANCH   4  10
BRANCH   3  22
ATOM     22  N   UNL d   1      -2.317   0.141  -1.265  0.00  0.00    -0.168 N 
ATOM     23  C   UNL d   1      -2.958  -0.959  -1.809  0.00  0.00     0.114 A 
ATOM     24  C   UNL d   1      -4.121  -0.543  -2.417  0.00  0.00     0.020 A 
ATOM     25  C   UNL d   1      -4.204   0.858  -2.247  0.00  0.00     0.020 A 
ATOM     26  C   UNL d   1      -3.091   1.252  -1.534  0.00  0.00     0.114 A 
ENDBRANCH   3  22
TORSDOF 4
