REMARK  3 active torsions:
REMARK  status: ('A' for Active; 'I' for Inactive)
REMARK    1  A    between atoms: C_6  and  N_1 
REMARK    2  A    between atoms: C_5  and  C_2 
REMARK    3  A    between atoms: C_7  and  C_6 
ROOT
ATOM      1  N   UNL d   1      -0.556  -1.225   0.153  0.00  0.00    -0.329 N 
ATOM      2  C   UNL d   1       0.854  -1.349  -0.166  0.00  0.00     0.184 A 
ATOM      3  S   UNL d   1       1.468   0.345  -0.457  0.00  0.00    -0.129 SA
ATOM      4  C   UNL d   1      -1.106   0.046   0.172  0.00  0.00     0.230 A 
ATOM      5  C   UNL d   1      -0.137   1.119  -0.241  0.00  0.00     0.179 A 
ATOM      6  O   UNL d   1      -2.276   0.290   0.456  0.00  0.00    -0.272 OA
ENDROOT
BRANCH   2   7
ATOM      7  C   UNL d   1       1.724  -2.048   0.866  0.00  0.00    -0.010 A 
ATOM      8  C   UNL d   1       1.259  -2.509   2.095  0.00  0.00     0.097 A 
ATOM      9  N   UNL d   1       2.009  -3.171   3.010  0.00  0.00    -0.375 N 
ATOM     10  C   UNL d   1       3.311  -3.356   2.716  0.00  0.00     0.087 A 
ATOM     11  HN  UNL d   1       1.605  -3.513   3.882  1.00  0.00     0.164 HD
ATOM     12  C   UNL d   1       3.896  -2.913   1.545  0.00  0.00     0.018 A 
ATOM     13  C   UNL d   1       3.090  -2.268   0.609  0.00  0.00     0.013 A 
ENDBRANCH   2   7
BRANCH   1  14
ATOM     14  C   UNL d   1      -1.420  -2.395   0.239  0.00  0.00     0.173 C 
BRANCH  14  15
ATOM     15  C   UNL d   1      -2.174  -2.620  -1.038  0.00  0.00     0.000 A 
ATOM     16  S   UNL d   1      -1.556  -3.666  -2.248  0.00  0.00    -0.105 SA
ATOM     17  C   UNL d   1      -2.955  -3.479  -3.215  0.00  0.00     0.050 A 
ATOM     18  C   UNL d   1      -3.868  -2.621  -2.644  0.00  0.00     0.008 A 
ATOM     19  C   UNL d   1      -3.414  -2.122  -1.391  0.00  0.00     0.017 A 
ENDBRANCH  14  15
ENDBRANCH   1  14
TORSDOF 3
