REMARK  10 active torsions:
REMARK  status: ('A' for Active; 'I' for Inactive)
REMARK    1  A    between atoms: N_5  and  C_1 
REMARK    2  A    between atoms: N_4  and  C_2 
REMARK    3  A    between atoms: N_21  and  C_3 
REMARK    4  A    between atoms: C_6  and  C_7 
REMARK    5  A    between atoms: C_10  and  N_25 
REMARK    6  A    between atoms: N_13  and  C_10 
REMARK    7  A    between atoms: C_19  and  N_13 
REMARK    8  A    between atoms: C_30  and  N_21 
REMARK    9  A    between atoms: N_25  and  C_31 
REMARK   10  A    between atoms: C_31  and  C_30 
ROOT
ATOM      1  N   UNL d   1       1.167  -2.575   0.342  0.00  0.00    -0.384 N 
ATOM      2  H   UNL d   1       0.649  -3.196  -0.289  0.00  0.00     0.159 HD
ENDROOT
BRANCH   1   3
ATOM      3  C   UNL d   1       0.649  -1.276   0.429  0.00  0.00     0.095 A 
ATOM      4  C   UNL d   1      -0.553  -0.924  -0.241  0.00  0.00     0.132 A 
ATOM      5  C   UNL d   1      -1.193   0.332  -0.105  0.00  0.00     0.054 A 
ATOM      6  C   UNL d   1      -0.653   1.318   0.722  0.00  0.00     0.052 A 
ATOM      7  C   UNL d   1       0.552   1.032   1.372  0.00  0.00     0.054 A 
ATOM      8  C   UNL d   1       1.170  -0.232   1.225  0.00  0.00     0.132 A 
BRANCH   4   9
ATOM      9  N   UNL d   1      -1.179  -1.858  -1.182  0.00  0.00    -0.113 N 
ATOM     10  O   UNL d   1      -1.268  -3.046  -0.847  0.00  0.00    -0.532 OA
ATOM     11  O   UNL d   1      -1.576  -1.391  -2.260  0.00  0.00    -0.532 OA
ENDBRANCH   4   9
BRANCH   6  12
ATOM     12  C   UNL d   1      -1.337   2.650   0.933  0.00  0.00     0.417 C 
ATOM     13  F   UNL d   1      -2.511   2.763   0.257  0.00  0.00    -0.166 F 
ATOM     14  F   UNL d   1      -1.633   2.868   2.243  0.00  0.00    -0.166 F 
ATOM     15  F   UNL d   1      -0.567   3.697   0.539  0.00  0.00    -0.166 F 
ENDBRANCH   6  12
BRANCH   8  16
ATOM     16  N   UNL d   1       2.377  -0.393   2.005  0.00  0.00    -0.113 N 
ATOM     17  O   UNL d   1       2.275  -0.971   3.095  0.00  0.00    -0.532 OA
ATOM     18  O   UNL d   1       3.407   0.118   1.547  0.00  0.00    -0.532 OA
ENDBRANCH   8  16
ENDBRANCH   1   3
BRANCH   1  19
ATOM     19  C   UNL d   1       2.603  -2.881   0.312  0.00  0.00     0.139 C 
BRANCH  19  20
ATOM     20  C   UNL d   1       2.847  -4.365  -0.056  0.00  0.00     0.141 C 
BRANCH  20  21
ATOM     21  N   UNL d   1       2.325  -4.780  -1.361  0.00  0.00    -0.365 N 
ATOM     22  H   UNL d   1       1.483  -5.346  -1.359  0.00  0.00     0.161 HD
BRANCH  21  23
ATOM     23  C   UNL d   1       2.805  -4.430  -2.594  0.00  0.00     0.172 C 
ATOM     24  S   UNL d   1       4.039  -3.352  -2.907  0.00  0.00    -0.041 SA
BRANCH  23  25
ATOM     25  N   UNL d   1       2.116  -4.944  -3.659  0.00  0.00    -0.333 N 
ATOM     26  H   UNL d   1       2.198  -4.378  -4.499  0.00  0.00     0.168 HD
BRANCH  25  27
ATOM     27  C   UNL d   1       1.737  -6.282  -3.897  0.00  0.00     0.035 A 
ATOM     28  C   UNL d   1       2.220  -7.362  -3.154  0.00  0.00     0.055 A 
ATOM     29  C   UNL d   1       1.923  -8.676  -3.547  0.00  0.00     0.058 A 
ATOM     30 CL   UNL d   1       2.620  -9.967  -2.631  0.00  0.00    -0.082 Cl
ATOM     31  C   UNL d   1       1.118  -8.911  -4.668  0.00  0.00     0.055 A 
ATOM     32  C   UNL d   1       0.617  -7.831  -5.395  0.00  0.00     0.028 A 
ATOM     33 CL   UNL d   1       0.727 -10.501  -5.219  0.00  0.00    -0.083 Cl
ATOM     34  C   UNL d   1       0.937  -6.525  -5.019  0.00  0.00     0.031 A 
ENDBRANCH  25  27
ENDBRANCH  23  25
ENDBRANCH  21  23
ENDBRANCH  20  21
ENDBRANCH  19  20
ENDBRANCH   1  19
TORSDOF 10
