REMARK  7 active torsions:
REMARK  status: ('A' for Active; 'I' for Inactive)
REMARK    1  A    between atoms: N_4  and  S_1 
REMARK    2  A    between atoms: C_5  and  S_1 
REMARK    3  A    between atoms: S_2  and  C_3 
REMARK    4  A    between atoms: C_11  and  S_2 
REMARK    5  A    between atoms: C_3  and  C_6 
REMARK    6  A    between atoms: C_6  and  N_4 
REMARK    7  A    between atoms: C_17  and  N_4 
ROOT
ATOM      1  N   UNL d   1       0.340  -0.731   1.197  0.00  0.00    -0.206 NA
ENDROOT
BRANCH   1   2
ATOM      2  S   UNL d   1       0.940   0.055  -0.250  0.00  0.00     0.243 S 
ATOM      3  O   UNL d   1       0.530  -0.775  -1.368  0.00  0.00    -0.206 OA
ATOM      4  O   UNL d   1       2.337   0.371  -0.040  0.00  0.00    -0.206 OA
BRANCH   2   5
ATOM      5  C   UNL d   1       0.082   1.605  -0.391  0.00  0.00     0.074 A 
ATOM      6  C   UNL d   1       0.613   2.756   0.197  0.00  0.00     0.025 A 
ATOM      7  C   UNL d   1      -0.013   3.989  -0.013  0.00  0.00     0.008 A 
ATOM      8  C   UNL d   1      -1.167   4.077  -0.806  0.00  0.00    -0.062 A 
ATOM      9  C   UNL d   1      -1.656   2.925  -1.433  0.00  0.00     0.008 A 
ATOM     10  C   UNL d   1      -1.839   5.402  -1.018  0.00  0.00     0.048 C 
ATOM     11  C   UNL d   1      -1.031   1.693  -1.234  0.00  0.00     0.025 A 
ENDBRANCH   2   5
ENDBRANCH   1   2
BRANCH   1  12
ATOM     12  C   UNL d   1      -1.179  -0.780   1.274  0.00  0.00     0.122 C 
BRANCH  12  13
ATOM     13  C   UNL d   1      -1.686  -1.286   2.623  0.00  0.00     0.161 C 
BRANCH  13  14
ATOM     14  S   UNL d   1      -3.464  -1.325   2.641  0.00  0.00     0.176 S 
ATOM     15  O   UNL d   1      -3.951   0.035   2.527  0.00  0.00    -0.223 OA
ATOM     16  O   UNL d   1      -3.898  -2.351   1.713  0.00  0.00    -0.223 OA
BRANCH  14  17
ATOM     17  C   UNL d   1      -3.850  -1.895   4.283  0.00  0.00     0.059 A 
ATOM     18  C   UNL d   1      -4.058  -0.964   5.307  0.00  0.00     0.023 A 
ATOM     19  C   UNL d   1      -4.375  -1.414   6.591  0.00  0.00     0.002 A 
ATOM     20  C   UNL d   1      -4.495  -2.782   6.844  0.00  0.00     0.000 A 
ATOM     21  C   UNL d   1      -4.308  -3.707   5.817  0.00  0.00     0.002 A 
ATOM     22  C   UNL d   1      -3.990  -3.266   4.531  0.00  0.00     0.023 A 
ENDBRANCH  14  17
ENDBRANCH  13  14
ENDBRANCH  12  13
ENDBRANCH   1  12
BRANCH   1  23
ATOM     23  C   UNL d   1       0.914  -2.132   1.315  0.00  0.00     0.103 C 
ATOM     24  C   UNL d   1       2.423  -2.191   1.464  0.00  0.00     0.021 C 
ENDBRANCH   1  23
TORSDOF 7
