REMARK  8 active torsions:
REMARK  status: ('A' for Active; 'I' for Inactive)
REMARK    1  A    between atoms: C_8  and  C_1 
REMARK    2  A    between atoms: C_11  and  C_1 
REMARK    3  A    between atoms: C_2  and  N_6 
REMARK    4  A    between atoms: C_3  and  C_7 
REMARK    5  A    between atoms: N_6  and  N_4 
REMARK    6  A    between atoms: C_14  and  C_8 
REMARK    7  A    between atoms: O_22  and  C_11 
REMARK    8  A    between atoms: O_23  and  C_14 
ROOT
ATOM      1  N   UNL d   1       1.201  -1.877   1.440  0.00  0.00    -0.202 NA
ATOM      2  H   UNL d   1       1.645  -1.498   2.287  0.00  0.00     0.153 HD
ENDROOT
BRANCH   1   3
ATOM      3  C   UNL d   1       0.602  -3.145   1.678  0.00  0.00     0.071 A 
ATOM      4  C   UNL d   1      -0.139  -3.848   0.702  0.00  0.00     0.059 A 
ATOM      5  C   UNL d   1      -0.679  -5.113   0.976  0.00  0.00     0.042 A 
ATOM      6 CL   UNL d   1      -0.379  -3.278  -0.921  0.00  0.00    -0.082 Cl
ATOM      7  C   UNL d   1      -0.475  -5.733   2.213  0.00  0.00     0.051 A 
ATOM      8  C   UNL d   1       0.283  -5.063   3.180  0.00  0.00     0.042 A 
ATOM      9  C   UNL d   1       0.815  -3.795   2.912  0.00  0.00     0.059 A 
ATOM     10 CL   UNL d   1       1.745  -3.036   4.163  0.00  0.00    -0.082 Cl
BRANCH   7  11
ATOM     11  C   UNL d   1      -1.034  -7.106   2.492  0.00  0.00     0.417 C 
ATOM     12  F   UNL d   1      -1.752  -7.619   1.456  0.00  0.00    -0.166 F 
ATOM     13  F   UNL d   1      -0.058  -8.015   2.756  0.00  0.00    -0.166 F 
ATOM     14  F   UNL d   1      -1.865  -7.119   3.568  0.00  0.00    -0.166 F 
ENDBRANCH   7  11
ENDBRANCH   1   3
BRANCH   1  15
ATOM     15  N   UNL d   1       0.466  -0.995   0.718  0.00  0.00    -0.315 N 
ATOM     16  C   UNL d   1       1.118  -0.070   0.075  0.00  0.00     0.105 C 
ATOM     17  HN  UNL d   1      -0.552  -1.055   0.680  1.00  0.00     0.181 HD
BRANCH  16  18
ATOM     18  C   UNL d   1       0.347   0.825  -0.854  0.00  0.00     0.175 C 
BRANCH  18  19
ATOM     19  C   UNL d   1       0.525   2.281  -0.568  0.00  0.00     0.264 C 
ATOM     20  O   UNL d   1       1.247   2.741   0.302  0.00  0.00    -0.265 OA
BRANCH  19  21
ATOM     21  O   UNL d   1      -0.244   3.009  -1.421  0.00  0.00    -0.326 OA
ATOM     22  C   UNL d   1      -0.183   4.419  -1.209  0.00  0.00     0.213 C 
ENDBRANCH  19  21
ENDBRANCH  18  19
ENDBRANCH  16  18
BRANCH  16  23
ATOM     23  C   UNL d   1       2.632   0.119   0.140  0.00  0.00     0.306 C 
ATOM     24  O   UNL d   1       3.280  -0.026   1.162  0.00  0.00    -0.258 OA
BRANCH  23  25
ATOM     25  O   UNL d   1       3.100   0.411  -1.093  0.00  0.00    -0.322 OA
ATOM     26  C   UNL d   1       4.518   0.579  -1.149  0.00  0.00     0.213 C 
ENDBRANCH  23  25
ENDBRANCH  16  23
ENDBRANCH   1  15
TORSDOF 8
