REMARK  6 active torsions:
REMARK  status: ('A' for Active; 'I' for Inactive)
REMARK    1  A    between atoms: C_4  and  S_1 
REMARK    2  A    between atoms: N_7  and  S_1 
REMARK    3  A    between atoms: C_2  and  C_5 
REMARK    4  A    between atoms: C_3  and  C_6 
REMARK    5  A    between atoms: C_15  and  N_7 
REMARK    6  A    between atoms: C_11  and  C_15 
ROOT
ATOM      1  C   UNL d   1       0.190   0.198  -1.694  0.00  0.00     0.081 A 
ATOM      2  C   UNL d   1      -0.830  -0.708  -3.698  0.00  0.00     0.050 A 
ATOM      3  C   UNL d   1      -0.544   1.715  -3.440  0.00  0.00     0.050 A 
ATOM      4  C   UNL d   1      -0.242  -0.902  -2.439  0.00  0.00     0.041 A 
ATOM      5  C   UNL d   1       0.018   1.499  -2.175  0.00  0.00     0.041 A 
ATOM      6  C   UNL d   1      -0.960   0.604  -4.194  0.00  0.00     0.032 A 
ENDROOT
BRANCH   1   7
ATOM      7  S   UNL d   1       0.940  -0.043  -0.101  0.00  0.00     0.259 S 
ATOM      8  O   UNL d   1       1.043  -1.466   0.127  0.00  0.00    -0.201 OA
ATOM      9  O   UNL d   1       0.279   0.840   0.833  0.00  0.00    -0.201 OA
BRANCH   7  10
ATOM     10  N   UNL d   1       2.507   0.491  -0.357  0.00  0.00    -0.311 N 
ATOM     11  H   UNL d   1       3.194  -0.230  -0.135  0.00  0.00     0.172 HD
BRANCH  10  12
ATOM     12  C   UNL d   1       2.829   1.855   0.062  0.00  0.00     0.178 C 
BRANCH  12  13
ATOM     13  C   UNL d   1       4.310   2.042  -0.041  0.00  0.00     0.001 A 
ATOM     14  S   UNL d   1       5.031   2.506  -1.524  0.00  0.00    -0.105 SA
ATOM     15  C   UNL d   1       6.593   2.537  -0.827  0.00  0.00     0.050 A 
ATOM     16  C   UNL d   1       6.571   2.193   0.506  0.00  0.00     0.008 A 
ATOM     17  C   UNL d   1       5.254   1.902   0.960  0.00  0.00     0.017 A 
ENDBRANCH  12  13
ENDBRANCH  10  12
ENDBRANCH   7  10
ENDBRANCH   1   7
BRANCH   2  18
ATOM     18  C   UNL d   1      -1.317  -1.878  -4.522  0.00  0.00     0.417 C 
ATOM     19  F   UNL d   1      -1.232  -3.073  -3.876  0.00  0.00    -0.166 F 
ATOM     20  F   UNL d   1      -2.621  -1.742  -4.890  0.00  0.00    -0.166 F 
ATOM     21  F   UNL d   1      -0.614  -2.023  -5.678  0.00  0.00    -0.166 F 
ENDBRANCH   2  18
BRANCH   3  22
ATOM     22  C   UNL d   1      -0.706   3.115  -3.987  0.00  0.00     0.417 C 
ATOM     23  F   UNL d   1      -0.261   4.082  -3.136  0.00  0.00    -0.166 F 
ATOM     24  F   UNL d   1      -0.025   3.298  -5.149  0.00  0.00    -0.166 F 
ATOM     25  F   UNL d   1      -2.004   3.420  -4.256  0.00  0.00    -0.166 F 
ENDBRANCH   3  22
TORSDOF 6
