REMARK  4 active torsions:
REMARK  status: ('A' for Active; 'I' for Inactive)
REMARK    1  A    between atoms: C_6  and  C_1 
REMARK    2  A    between atoms: C_7  and  C_1 
REMARK    3  A    between atoms: N_5  and  N_2 
REMARK    4  A    between atoms: C_4  and  N_5 
ROOT
ATOM      1  N   UNL d   1       1.075  -1.573  -1.615  0.00  0.00    -0.294 N 
ATOM      2  H   UNL d   1       2.098  -1.611  -1.697  0.00  0.00     0.187 HD
ENDROOT
BRANCH   1   3
ATOM      3  C   UNL d   1       0.359  -2.656  -2.158  0.00  0.00     0.125 A 
ATOM      4  C   UNL d   1      -1.036  -2.680  -2.290  0.00  0.00     0.147 A 
ATOM      5  F   UNL d   1      -1.781  -1.608  -1.972  0.00  0.00    -0.204 F 
ATOM      6  C   UNL d   1      -1.708  -3.806  -2.772  0.00  0.00     0.045 A 
ATOM      7  C   UNL d   1      -0.992  -4.949  -3.123  0.00  0.00     0.006 A 
ATOM      8  C   UNL d   1       0.395  -4.953  -3.000  0.00  0.00     0.045 A 
ATOM      9  C   UNL d   1       1.052  -3.816  -2.528  0.00  0.00     0.147 A 
ATOM     10  F   UNL d   1       2.388  -3.857  -2.397  0.00  0.00    -0.204 F 
ENDBRANCH   1   3
BRANCH   1  11
ATOM     11  N   UNL d   1       0.442  -0.733  -0.770  0.00  0.00    -0.293 N 
ATOM     12  C   UNL d   1       1.149   0.008   0.039  0.00  0.00     0.139 C 
ATOM     13  HN  UNL d   1      -0.576  -0.678  -0.764  1.00  0.00     0.187 HD
BRANCH  12  14
ATOM     14  C   UNL d   1       0.348   0.910   0.952  0.00  0.00     0.177 C 
ATOM     15  O   UNL d   1       0.888   1.923   1.386  0.00  0.00    -0.291 OA
ATOM     16  C   UNL d   1      -1.049   0.497   1.322  0.00  0.00     0.098 C 
ENDBRANCH  12  14
BRANCH  12  17
ATOM     17  C   UNL d   1       2.669  -0.043   0.090  0.00  0.00     0.177 C 
ATOM     18  O   UNL d   1       3.308  -0.283  -0.931  0.00  0.00    -0.291 OA
ATOM     19  C   UNL d   1       3.334   0.157   1.419  0.00  0.00     0.098 C 
ENDBRANCH  12  17
ENDBRANCH   1  11
TORSDOF 4
