REMARK  5 active torsions:
REMARK  status: ('A' for Active; 'I' for Inactive)
REMARK    1  A    between atoms: C_2  and  C_1 
REMARK    2  A    between atoms: O_10  and  C_1 
REMARK    3  A    between atoms: C_9  and  N_3 
REMARK    4  A    between atoms: O_12  and  C_6 
REMARK    5  A    between atoms: C_11  and  C_9 
ROOT
ATOM      1  C   UNL d   1      -0.895  -0.029  -0.686  0.00  0.00     0.091 C 
ATOM      2  N   UNL d   1       1.952  -0.084   0.144  0.00  0.00     0.092 N 
ATOM      3  C   UNL d   1       0.076   1.148  -0.879  0.00  0.00     0.073 C 
ATOM      4  C   UNL d   1      -0.038  -1.314  -0.708  0.00  0.00     0.073 C 
ATOM      5  C   UNL d   1       1.168   1.156   0.178  0.00  0.00     0.276 C 
ATOM      6  C   UNL d   1       1.082  -1.255   0.343  0.00  0.00     0.276 C 
ENDROOT
BRANCH   1   7
ATOM      7  C   UNL d   1      -2.035   0.063  -1.706  0.00  0.00     0.009 A 
ATOM      8  C   UNL d   1      -2.896   1.180  -1.812  0.00  0.00     0.077 A 
ATOM      9  C   UNL d   1      -3.841   1.253  -2.851  0.00  0.00     0.037 A 
ATOM     10  C   UNL d   1      -3.961   0.232  -3.789  0.00  0.00     0.003 A 
ATOM     11  C   UNL d   1      -3.142  -0.881  -3.691  0.00  0.00     0.001 A 
ATOM     12  C   UNL d   1      -2.204  -0.970  -2.658  0.00  0.00     0.013 A 
BRANCH   8  13
ATOM     13  O   UNL d   1      -2.812   2.353  -1.103  0.00  0.00    -0.355 OA
ATOM     14  C   UNL d   1      -2.959   2.278   0.311  0.00  0.00     0.210 C 
ENDBRANCH   8  13
ENDBRANCH   1   7
BRANCH   1  15
ATOM     15  O   UNL d   1      -1.489  -0.029   0.622  0.00  0.00    -0.385 OA
ATOM     16  H   UNL d   1      -2.282  -0.591   0.567  0.00  0.00     0.211 HD
ENDBRANCH   1  15
BRANCH   2  17
ATOM     17  C   UNL d   1       3.000  -0.004   1.181  0.00  0.00     0.311 C 
BRANCH  17  18
ATOM     18  C   UNL d   1       3.966  -1.166   1.150  0.00  0.00    -0.030 A 
ATOM     19  C   UNL d   1       4.708  -1.444  -0.006  0.00  0.00     0.009 A 
ATOM     20  C   UNL d   1       5.582  -2.530  -0.041  0.00  0.00     0.001 A 
ATOM     21  C   UNL d   1       5.724  -3.344   1.079  0.00  0.00     0.000 A 
ATOM     22  C   UNL d   1       4.999  -3.070   2.240  0.00  0.00     0.001 A 
ATOM     23  C   UNL d   1       4.125  -1.985   2.276  0.00  0.00     0.009 A 
ENDBRANCH  17  18
ENDBRANCH   2  17
TORSDOF 5
