REMARK  5 active torsions:
REMARK  status: ('A' for Active; 'I' for Inactive)
REMARK    1  A    between atoms: C_12  and  C_1 
REMARK    2  A    between atoms: C_2  and  C_9 
REMARK    3  A    between atoms: C_3  and  C_10 
REMARK    4  A    between atoms: N_13  and  C_12 
REMARK    5  A    between atoms: C_14  and  N_13 
ROOT
ATOM      1  C   UNL d   1      -5.946   4.342  -0.671  0.00  0.00     0.050 A 
ATOM      2  C   UNL d   1      -4.408   6.229  -0.603  0.00  0.00     0.050 A 
ATOM      3  C   UNL d   1      -5.713   5.725  -0.677  0.00  0.00     0.032 A 
ATOM      4  C   UNL d   1      -3.540   3.939  -0.481  0.00  0.00     0.010 A 
ATOM      5  C   UNL d   1      -3.337   5.323  -0.521  0.00  0.00     0.039 A 
ATOM      6  C   UNL d   1      -4.849   3.462  -0.572  0.00  0.00     0.039 A 
ENDROOT
BRANCH   4   7
ATOM      7  N   UNL d   1      -2.400   3.126  -0.484  0.00  0.00    -0.289 NA
ATOM      8  H   UNL d   1      -1.986   3.107  -1.413  0.00  0.00     0.128 HD
BRANCH   7   9
ATOM      9  C   UNL d   1      -2.482   1.770   0.059  0.00  0.00     0.132 C 
BRANCH   9  10
ATOM     10  C   UNL d   1      -1.145   1.017   0.077  0.00  0.00    -0.032 C 
ATOM     11  C   UNL d   1       0.113   1.669   0.205  0.00  0.00    -0.048 C 
ATOM     12  C   UNL d   1       1.317   0.929   0.035  0.00  0.00    -0.049 C 
ATOM     13  C   UNL d   1       0.205   3.146   0.524  0.00  0.00     0.049 C 
ATOM     14  C   UNL d   1       2.654   1.644  -0.037  0.00  0.00     0.049 C 
ATOM     15  C   UNL d   1       1.291  -0.490  -0.031  0.00  0.00    -0.049 C 
ATOM     16  C   UNL d   1       0.050  -1.165   0.017  0.00  0.00    -0.049 C 
ATOM     17  C   UNL d   1       2.615  -1.222  -0.111  0.00  0.00     0.049 C 
ATOM     18  C   UNL d   1      -1.166  -0.412   0.035  0.00  0.00    -0.048 C 
ATOM     19  C   UNL d   1      -0.046  -2.677   0.022  0.00  0.00     0.049 C 
ATOM     20  C   UNL d   1      -2.473  -1.188   0.023  0.00  0.00     0.049 C 
ENDBRANCH   9  10
ENDBRANCH   7   9
ENDBRANCH   4   7
BRANCH   2  21
ATOM     21  C   UNL d   1      -4.132   7.712  -0.618  0.00  0.00     0.417 C 
ATOM     22  F   UNL d   1      -5.251   8.469  -0.789  0.00  0.00    -0.166 F 
ATOM     23  F   UNL d   1      -3.559   8.149   0.538  0.00  0.00    -0.166 F 
ATOM     24  F   UNL d   1      -3.282   8.073  -1.619  0.00  0.00    -0.166 F 
ENDBRANCH   2  21
BRANCH   1  25
ATOM     25  C   UNL d   1      -7.342   3.783  -0.799  0.00  0.00     0.417 C 
ATOM     26  F   UNL d   1      -8.305   4.740  -0.900  0.00  0.00    -0.166 F 
ATOM     27  F   UNL d   1      -7.484   2.995  -1.901  0.00  0.00    -0.166 F 
ATOM     28  F   UNL d   1      -7.694   3.007   0.263  0.00  0.00    -0.166 F 
ENDBRANCH   1  25
TORSDOF 5
