REMARK  3 active torsions:
REMARK  status: ('A' for Active; 'I' for Inactive)
REMARK    1  A    between atoms: C_4  and  C_1 
REMARK       I    between atoms: N_11  and  C_4 
REMARK       I    between atoms: C_8  and  N_12 
REMARK    2  A    between atoms: C_10  and  C_8 
REMARK    3  A    between atoms: N_12  and  N_11 
ROOT
ATOM      1  C   UNL d   1      -0.192  -2.540   0.091  0.00  0.00     0.280 C 
ATOM      2  N   UNL d   1       0.791  -3.514   0.158  0.00  0.00    -0.262 N 
ATOM      3  O   UNL d   1       0.126  -1.372  -0.142  0.00  0.00    -0.265 OA
ATOM      4  H   UNL d   1       0.612  -4.506   0.306  0.00  0.00     0.190 HD
ENDROOT
BRANCH   2   5
ATOM      5  N   UNL d   1       2.123  -3.135  -0.051  0.00  0.00    -0.263 N 
ATOM      6  C   UNL d   1       3.115  -4.097  -0.114  0.00  0.00     0.277 C 
ATOM      7  O   UNL d   1       2.843  -5.287   0.062  0.00  0.00    -0.265 OA
ATOM      8  H   UNL d   1       2.312  -2.145  -0.200  0.00  0.00     0.190 HD
BRANCH   6   9
ATOM      9  C   UNL d   1       4.460  -3.610  -0.389  0.00  0.00     0.074 A 
ATOM     10  S   UNL d   1       4.780  -1.964  -0.754  0.00  0.00    -0.097 SA
ATOM     11  C   UNL d   1       6.453  -2.254  -0.945  0.00  0.00     0.050 A 
ATOM     12  C   UNL d   1       6.774  -3.575  -0.729  0.00  0.00     0.009 A 
ATOM     13  C   UNL d   1       5.625  -4.356  -0.410  0.00  0.00     0.025 A 
ENDBRANCH   6   9
ENDBRANCH   2   5
BRANCH   1  14
ATOM     14  C   UNL d   1      -1.556  -2.965   0.310  0.00  0.00     0.115 A 
ATOM     15  C   UNL d   1      -2.740  -2.233   0.291  0.00  0.00     0.046 A 
ATOM     16  N   UNL d   1      -3.884  -2.981   0.564  0.00  0.00    -0.298 N 
ATOM     17  C   UNL d   1      -2.940  -0.785   0.025  0.00  0.00     0.071 C 
ATOM     18  N   UNL d   1      -3.608  -4.251   0.787  0.00  0.00    -0.269 N 
ATOM     19  HN  UNL d   1      -4.826  -2.590   0.587  1.00  0.00     0.187 HD
ATOM     20  S   UNL d   1      -1.980  -4.586   0.675  0.00  0.00     0.009 SA
ATOM     21  HN  UNL d   1      -4.316  -4.952   1.005  1.00  0.00     0.195 HD
ENDBRANCH   1  14
TORSDOF 3
