REMARK  8 active torsions:
REMARK  status: ('A' for Active; 'I' for Inactive)
REMARK    1  A    between atoms: C_8  and  C_21 
REMARK    2  A    between atoms: C_9  and  O_15 
REMARK    3  A    between atoms: C_19  and  C_9 
REMARK    4  A    between atoms: C_20  and  O_15 
REMARK    5  A    between atoms: C_26  and  C_21 
REMARK    6  A    between atoms: C_25  and  C_26 
REMARK    7  A    between atoms: C_30  and  C_25 
REMARK    8  A    between atoms: C_31  and  C_30 
ROOT
ATOM      1  C   UNL d   1      -0.406  -2.585   0.588  0.00  0.00    -0.047 C 
ATOM      2  C   UNL d   1       0.593  -1.549   0.456  0.00  0.00    -0.050 C 
ATOM      3  C   UNL d   1      -1.891  -2.211   0.661  0.00  0.00    -0.012 C 
ATOM      4  C   UNL d   1       1.552   0.751   1.343  0.00  0.00    -0.032 C 
ATOM      5  C   UNL d   1       0.431  -0.383   1.408  0.00  0.00     0.027 C 
ATOM      6  C   UNL d   1      -0.219  -3.909   0.651  0.00  0.00    -0.018 C 
ATOM      7  C   UNL d   1       1.463  -1.547  -0.550  0.00  0.00    -0.018 C 
ATOM      8  C   UNL d   1      -2.398  -3.463   1.441  0.00  0.00     0.005 C 
ATOM      9  C   UNL d   1       2.007   0.949  -0.149  0.00  0.00     0.000 C 
ATOM     10  C   UNL d   1      -2.086  -0.911   1.458  0.00  0.00     0.015 C 
ATOM     11  C   UNL d   1      -1.517  -4.611   0.881  0.00  0.00     0.033 C 
ATOM     12  C   UNL d   1      -1.023   0.148   1.129  0.00  0.00     0.011 C 
ATOM     13  C   UNL d   1       2.869   0.489   2.121  0.00  0.00     0.012 C 
ATOM     14  C   UNL d   1       2.364  -0.405  -0.842  0.00  0.00     0.033 C 
ATOM     15  C   UNL d   1       3.268   1.826  -0.384  0.00  0.00     0.038 C 
ATOM     16  C   UNL d   1       3.707   2.651   0.811  0.00  0.00     0.132 C 
ATOM     17  C   UNL d   1       3.875   1.695   2.031  0.00  0.00     0.033 C 
ATOM     18  C   UNL d   1      -2.367  -2.027  -0.791  0.00  0.00     0.021 C 
ATOM     19  C   UNL d   1       0.900   1.955   2.077  0.00  0.00     0.016 C 
ENDROOT
BRANCH  16  20
ATOM     20  O   UNL d   1       2.759   3.698   1.123  0.00  0.00    -0.312 OA
BRANCH  20  21
ATOM     21  C   UNL d   1       2.364   4.581   0.172  0.00  0.00     0.293 C 
ATOM     22  O   UNL d   1       2.880   4.764  -0.916  0.00  0.00    -0.259 OA
BRANCH  21  23
ATOM     23  C   UNL d   1       1.065   5.182   0.589  0.00  0.00     0.039 A 
ATOM     24  C   UNL d   1       0.117   5.490  -0.396  0.00  0.00     0.017 A 
ATOM     25  C   UNL d   1      -1.150   5.953  -0.030  0.00  0.00     0.001 A 
ATOM     26  C   UNL d   1      -1.476   6.110   1.318  0.00  0.00     0.000 A 
ATOM     27  C   UNL d   1      -0.531   5.819   2.302  0.00  0.00     0.001 A 
ATOM     28  C   UNL d   1       0.739   5.366   1.940  0.00  0.00     0.017 A 
ENDBRANCH  21  23
ENDBRANCH  20  21
ENDBRANCH  16  20
BRANCH   8  29
ATOM     29  C   UNL d   1      -3.861  -3.958   1.661  0.00  0.00    -0.013 C 
ATOM     30  C   UNL d   1      -4.005  -4.315   3.163  0.00  0.00     0.010 C 
BRANCH  29  31
ATOM     31  C   UNL d   1      -5.085  -3.100   1.281  0.00  0.00     0.005 C 
BRANCH  31  32
ATOM     32  C   UNL d   1      -5.366  -3.051  -0.219  0.00  0.00     0.001 C 
BRANCH  32  33
ATOM     33  C   UNL d   1      -6.854  -3.017  -0.588  0.00  0.00     0.004 C 
BRANCH  33  34
ATOM     34  C   UNL d   1      -7.057  -2.627  -2.069  0.00  0.00    -0.023 C 
ATOM     35  C   UNL d   1      -6.447  -3.647  -3.033  0.00  0.00     0.009 C 
ATOM     36  C   UNL d   1      -8.541  -2.439  -2.383  0.00  0.00     0.009 C 
ENDBRANCH  33  34
ENDBRANCH  32  33
ENDBRANCH  31  32
ENDBRANCH  29  31
ENDBRANCH   8  29
TORSDOF 8
