REMARK  9 active torsions:
REMARK  status: ('A' for Active; 'I' for Inactive)
REMARK    1  A    between atoms: N_2  and  C_1 
REMARK    2  A    between atoms: C_3  and  C_1 
REMARK    3  A    between atoms: C_4  and  C_1 
REMARK    4  A    between atoms: N_5  and  C_1 
REMARK       I    between atoms: C_6  and  N_2 
REMARK    5  A    between atoms: N_7  and  N_5 
REMARK    6  A    between atoms: O_20  and  C_6 
REMARK    7  A    between atoms: C_22  and  O_20 
REMARK    8  A    between atoms: C_23  and  C_22 
REMARK    9  A    between atoms: C_24  and  C_23 
ROOT
ATOM      1  C   UNL d   1       0.836   0.196  -0.199  0.00  0.00     0.300 C 
ENDROOT
BRANCH   1   2
ATOM      2  N   UNL d   1       0.307  -1.145  -0.534  0.00  0.00    -0.298 N 
ATOM      3  C   UNL d   1       0.324  -2.238   0.269  0.00  0.00     0.362 C 
ATOM      4  O   UNL d   1       0.811  -2.292   1.383  0.00  0.00    -0.238 OA
ATOM      5  H   UNL d   1       0.036  -1.327  -1.486  0.00  0.00     0.167 HD
BRANCH   3   6
ATOM      6  O   UNL d   1      -0.225  -3.279  -0.417  0.00  0.00    -0.304 OA
BRANCH   6   7
ATOM      7  C   UNL d   1       0.306  -4.574  -0.140  0.00  0.00     0.180 C 
BRANCH   7   8
ATOM      8  C   UNL d   1      -0.615  -5.495   0.651  0.00  0.00     0.026 C 
BRANCH   8   9
ATOM      9  C   UNL d   1      -1.931  -5.837  -0.056  0.00  0.00    -0.002 C 
ATOM     10  C   UNL d   1      -2.669  -6.958   0.670  0.00  0.00     0.005 C 
ENDBRANCH   8   9
ENDBRANCH   7   8
ENDBRANCH   6   7
ENDBRANCH   3   6
ENDBRANCH   1   2
BRANCH   1  11
ATOM     11  C   UNL d   1       0.193   0.813   1.086  0.00  0.00     0.436 C 
ATOM     12  F   UNL d   1      -1.101   0.438   1.233  0.00  0.00    -0.167 F 
ATOM     13  F   UNL d   1       0.848   0.413   2.208  0.00  0.00    -0.167 F 
ATOM     14  F   UNL d   1       0.226   2.166   1.101  0.00  0.00    -0.167 F 
ENDBRANCH   1  11
BRANCH   1  15
ATOM     15  C   UNL d   1       0.407   1.202  -1.305  0.00  0.00     0.436 C 
ATOM     16  F   UNL d   1       0.300   0.564  -2.507  0.00  0.00    -0.167 F 
ATOM     17  F   UNL d   1      -0.804   1.766  -1.092  0.00  0.00    -0.167 F 
ATOM     18  F   UNL d   1       1.297   2.207  -1.484  0.00  0.00    -0.167 F 
ENDBRANCH   1  15
BRANCH   1  19
ATOM     19  N   UNL d   1       2.338   0.103   0.024  0.00  0.00    -0.215 NA
ATOM     20  H   UNL d   1       2.412  -0.309   0.971  0.00  0.00     0.144 HD
BRANCH  19  21
ATOM     21  N   UNL d   1       3.098  -0.748  -0.915  0.00  0.00    -0.246 NA
ATOM     22  C   UNL d   1       3.420  -0.043  -2.182  0.00  0.00     0.138 C 
ATOM     23  C   UNL d   1       4.400   1.145  -2.062  0.00  0.00     0.287 C 
ATOM     24  N   UNL d   1       5.675   0.756  -1.433  0.00  0.00     0.086 N 
ATOM     25  C   UNL d   1       5.404   0.097  -0.142  0.00  0.00     0.287 C 
ATOM     26  C   UNL d   1       6.535   1.927  -1.257  0.00  0.00     0.310 C 
ATOM     27  C   UNL d   1       4.406  -1.086  -0.273  0.00  0.00     0.138 C 
ENDBRANCH  19  21
ENDBRANCH   1  19
TORSDOF 9
