REMARK  2 active torsions:
REMARK  status: ('A' for Active; 'I' for Inactive)
REMARK    1  A    between atoms: N_3  and  C_1 
REMARK    2  A    between atoms: C_2  and  N_3 
ROOT
ATOM      1  C   UNL d   1       1.183  -0.190  -2.484  0.00  0.00     0.037 A 
ATOM      2  C   UNL d   1       0.762   0.630  -3.533  0.00  0.00     0.053 A 
ATOM      3  C   UNL d   1       2.247  -1.071  -2.692  0.00  0.00     0.053 A 
ATOM      4  C   UNL d   1       2.854  -1.153  -3.946  0.00  0.00     0.037 A 
ATOM      5  C   UNL d   1       1.365   0.526  -4.790  0.00  0.00     0.037 A 
ATOM      6  C   UNL d   1       2.412  -0.365  -5.003  0.00  0.00     0.048 A 
ATOM      7 CL   UNL d   1       4.177  -2.229  -4.182  0.00  0.00    -0.084 Cl
ATOM      8 CL   UNL d   1       0.802   1.504  -6.088  0.00  0.00    -0.084 Cl
ENDROOT
BRANCH   1   9
ATOM      9  N   UNL d   1       0.544  -0.034  -1.238  0.00  0.00    -0.333 N 
ATOM     10  H   UNL d   1       0.078   0.854  -1.076  0.00  0.00     0.168 HD
BRANCH   9  11
ATOM     11  C   UNL d   1       0.490  -0.868  -0.170  0.00  0.00     0.169 C 
ATOM     12  S   UNL d   1       0.030  -0.312   1.326  0.00  0.00    -0.041 SA
ATOM     13  N   UNL d   1       0.755  -2.179  -0.355  0.00  0.00    -0.376 N 
ATOM     14  H   UNL d   1       0.569  -2.578  -1.267  0.00  0.00     0.158 HD
ATOM     15  H   UNL d   1       0.559  -2.792   0.428  0.00  0.00     0.158 HD
ENDBRANCH   9  11
ENDBRANCH   1   9
TORSDOF 2
