REMARK  3 active torsions:
REMARK  status: ('A' for Active; 'I' for Inactive)
REMARK    1  A    between atoms: C_8  and  N_1 
REMARK    2  A    between atoms: S_16  and  C_2 
REMARK    3  A    between atoms: C_13  and  C_7 
ROOT
ATOM      1  N   UNL d   1      -3.554  -1.611   2.089  0.00  0.00    -0.197 NA
ATOM      2  C   UNL d   1      -3.165  -1.016   1.169  0.00  0.00     0.066 C 
ATOM      3  C   UNL d   1      -2.659  -0.313  -0.012  0.00  0.00     0.202 C 
ENDROOT
BRANCH   3   4
ATOM      4  C   UNL d   1      -1.169  -0.240  -0.014  0.00  0.00     0.118 A 
ATOM      5  N   UNL d   1      -0.525   0.910   0.021  0.00  0.00    -0.286 N 
ATOM      6  N   UNL d   1       0.809   0.660   0.117  0.00  0.00    -0.278 N 
ATOM      7  HN  UNL d   1      -0.956   1.834  -0.017  1.00  0.00     0.188 HD
ATOM      8  C   UNL d   1       0.979  -0.639   0.119  0.00  0.00     0.164 A 
ATOM      9  HN  UNL d   1       1.547   1.362   0.177  1.00  0.00     0.189 HD
ATOM     10  N   UNL d   1      -0.248  -1.293   0.053  0.00  0.00    -0.278 N 
BRANCH   8  11
ATOM     11  S   UNL d   1       2.557  -1.355   0.007  0.00  0.00    -0.105 SA
ATOM     12  H   UNL d   1       2.239  -2.527  -0.554  0.00  0.00     0.110 HD
ENDBRANCH   8  11
BRANCH  10  13
ATOM     13  C   UNL d   1      -0.509  -2.697   0.066  0.00  0.00     0.044 A 
ATOM     14  C   UNL d   1      -1.545  -3.243  -0.704  0.00  0.00     0.055 A 
ATOM     15  C   UNL d   1      -1.800  -4.624  -0.684  0.00  0.00     0.058 A 
ATOM     16 CL   UNL d   1      -3.110  -5.205  -1.650  0.00  0.00    -0.082 Cl
ATOM     17  C   UNL d   1      -1.004  -5.474   0.086  0.00  0.00     0.055 A 
ATOM     18  C   UNL d   1       0.031  -4.937   0.852  0.00  0.00     0.028 A 
ATOM     19 CL   UNL d   1      -1.236  -7.184   0.127  0.00  0.00    -0.083 Cl
ATOM     20  C   UNL d   1       0.267  -3.557   0.857  0.00  0.00     0.032 A 
ENDBRANCH  10  13
ENDBRANCH   3   4
TORSDOF 3
