REMARK  9 active torsions:
REMARK  status: ('A' for Active; 'I' for Inactive)
REMARK    1  A    between atoms: N_4  and  C_1 
REMARK    2  A    between atoms: N_9  and  C_1 
REMARK    3  A    between atoms: O_3  and  C_2 
REMARK    4  A    between atoms: C_13  and  O_3 
REMARK    5  A    between atoms: C_11  and  N_4 
REMARK    6  A    between atoms: N_5  and  N_9 
REMARK    7  A    between atoms: C_7  and  C_12 
REMARK    8  A    between atoms: O_14  and  C_10 
REMARK    9  A    between atoms: C_15  and  C_13 
ROOT
ATOM      1  C   UNL d   1       4.748   1.605   3.419  0.00  0.00     0.114 A 
ATOM      2  C   UNL d   1       5.032   1.823   2.055  0.00  0.00     0.017 A 
ATOM      3  C   UNL d   1       5.563   2.245   4.380  0.00  0.00     0.102 A 
ATOM      4  C   UNL d   1       6.168   2.566   1.678  0.00  0.00     0.016 A 
ATOM      5  C   UNL d   1       6.984   3.156   2.636  0.00  0.00     0.004 A 
ATOM      6  C   UNL d   1       6.673   3.002   3.981  0.00  0.00     0.040 A 
ENDROOT
BRANCH   2   7
ATOM      7  C   UNL d   1       4.229   1.375   0.891  0.00  0.00     0.121 C 
ATOM      8  N   UNL d   1       2.936   1.320   0.713  0.00  0.00    -0.309 N 
ATOM      9  HN  UNL d   1       2.542   0.956  -0.154  1.00  0.00     0.186 HD
BRANCH   8  10
ATOM     10  N   UNL d   1       2.130   1.762   1.715  0.00  0.00    -0.277 N 
ATOM     11  H   UNL d   1       2.525   2.167   2.560  0.00  0.00     0.189 HD
BRANCH  10  12
ATOM     12  C   UNL d   1       0.788   1.443   1.762  0.00  0.00     0.187 C 
ATOM     13  S   UNL d   1      -0.058   1.803   3.150  0.00  0.00    -0.040 SA
BRANCH  12  14
ATOM     14  N   UNL d   1       0.340   0.855   0.609  0.00  0.00    -0.358 N 
ATOM     15  H   UNL d   1       1.116   0.746  -0.041  0.00  0.00     0.162 HD
BRANCH  14  16
ATOM     16  C   UNL d   1      -1.025   0.768   0.058  0.00  0.00     0.021 C 
ATOM     17  C   UNL d   1      -1.709   2.144   0.108  0.00  0.00     0.037 C 
ATOM     18  C   UNL d   1      -0.908   0.352  -1.423  0.00  0.00     0.037 C 
ATOM     19  C   UNL d   1      -1.877  -0.290   0.775  0.00  0.00     0.037 C 
ENDBRANCH  14  16
ENDBRANCH  12  14
ENDBRANCH  10  12
ENDBRANCH   8  10
ENDBRANCH   2   7
BRANCH   1  20
ATOM     20  O   UNL d   1       3.685   0.900   3.910  0.00  0.00    -0.343 OA
BRANCH  20  21
ATOM     21  C   UNL d   1       3.373  -0.392   3.388  0.00  0.00     0.214 C 
BRANCH  21  22
ATOM     22  C   UNL d   1       4.188  -1.512   3.968  0.00  0.00    -0.034 A 
ATOM     23  C   UNL d   1       4.048  -1.883   5.312  0.00  0.00     0.009 A 
ATOM     24  C   UNL d   1       4.713  -3.006   5.797  0.00  0.00     0.001 A 
ATOM     25  C   UNL d   1       5.528  -3.761   4.950  0.00  0.00     0.000 A 
ATOM     26  C   UNL d   1       5.685  -3.385   3.617  0.00  0.00     0.001 A 
ATOM     27  C   UNL d   1       5.023  -2.268   3.128  0.00  0.00     0.009 A 
ENDBRANCH  21  22
ENDBRANCH  20  21
ENDBRANCH   1  20
BRANCH   3  28
ATOM     28  O   UNL d   1       5.447   2.145   5.744  0.00  0.00    -0.353 OA
ATOM     29  C   UNL d   1       4.134   2.253   6.284  0.00  0.00     0.210 C 
ENDBRANCH   3  28
TORSDOF 9
