REMARK  5 active torsions:
REMARK  status: ('A' for Active; 'I' for Inactive)
REMARK    1  A    between atoms: C_7  and  C_3 
REMARK    2  A    between atoms: C_21  and  C_4 
REMARK    3  A    between atoms: C_8  and  C_14 
REMARK    4  A    between atoms: O_22  and  C_21 
REMARK    5  A    between atoms: C_23  and  O_22 
ROOT
ATOM      1  N   UNL d   1       1.449  -0.599  -0.012  0.00  0.00    -0.351 N 
ATOM      2  HN  UNL d   1       2.337  -1.100  -0.046  1.00  0.00     0.166 HD
ATOM      3  C   UNL d   1       1.317   0.780   0.016  0.00  0.00     0.049 A 
ATOM      4  C   UNL d   1       0.262  -1.169   0.013  0.00  0.00     0.075 A 
ATOM      5  S   UNL d   1      -1.075  -0.085   0.057  0.00  0.00    -0.084 SA
ATOM      6  C   UNL d   1       0.012   1.235   0.056  0.00  0.00     0.082 A 
ENDROOT
BRANCH   4   7
ATOM      7  C   UNL d   1       0.010  -2.647  -0.027  0.00  0.00     0.240 C 
BRANCH   7   8
ATOM      8  O   UNL d   1      -0.018  -3.108   1.327  0.00  0.00    -0.345 OA
BRANCH   8   9
ATOM      9  C   UNL d   1      -0.171  -4.459   1.481  0.00  0.00     0.069 A 
ATOM     10  C   UNL d   1       0.392  -5.001   2.634  0.00  0.00     0.037 A 
ATOM     11  C   UNL d   1       0.318  -6.379   2.879  0.00  0.00     0.012 A 
ATOM     12  C   UNL d   1      -0.339  -7.233   1.978  0.00  0.00    -0.035 A 
ATOM     13  C   UNL d   1      -0.951  -6.662   0.850  0.00  0.00     0.012 A 
ATOM     14  C   UNL d   1      -0.863  -5.288   0.600  0.00  0.00     0.037 A 
BRANCH  12  15
ATOM     15  C   UNL d   1      -0.328  -8.732   2.205  0.00  0.00     0.141 C 
ATOM     16  S   UNL d   1       0.505  -9.601   0.835  0.00  0.00    -0.148 SA
ATOM     17  C   UNL d   1      -0.497 -11.098   0.906  0.00  0.00     0.085 C 
ATOM     18  C   UNL d   1      -1.933 -10.700   1.182  0.00  0.00     0.085 C 
ATOM     19  S   UNL d   1      -1.987  -9.433   2.478  0.00  0.00    -0.148 SA
ENDBRANCH  12  15
ENDBRANCH   8   9
ENDBRANCH   7   8
ENDBRANCH   4   7
BRANCH   3  20
ATOM     20  C   UNL d   1       2.482   1.657   0.025  0.00  0.00    -0.006 A 
ATOM     21  C   UNL d   1       2.428   2.951  -0.510  0.00  0.00     0.053 A 
ATOM     22  C   UNL d   1       3.559   3.774  -0.510  0.00  0.00     0.102 A 
ATOM     23  O   UNL d   1       3.376   4.997  -1.108  0.00  0.00    -0.348 OA
ATOM     24  C   UNL d   1       4.750   3.327   0.077  0.00  0.00     0.102 A 
ATOM     25  C   UNL d   1       4.516   5.429  -1.853  0.00  0.00     0.178 C 
ATOM     26  C   UNL d   1       5.503   6.161  -0.960  0.00  0.00     0.053 C 
ATOM     27  C   UNL d   1       5.699   5.453   0.370  0.00  0.00     0.178 C 
ATOM     28  O   UNL d   1       5.909   4.053   0.186  0.00  0.00    -0.348 OA
ATOM     29  C   UNL d   1       4.816   2.030   0.590  0.00  0.00     0.040 A 
ATOM     30  C   UNL d   1       3.691   1.199   0.562  0.00  0.00     0.017 A 
ENDBRANCH   3  20
TORSDOF 5
