REMARK  7 active torsions:
REMARK  status: ('A' for Active; 'I' for Inactive)
REMARK    1  A    between atoms: C_8  and  C_1 
REMARK    2  A    between atoms: C_9  and  C_1 
REMARK    3  A    between atoms: N_11  and  C_6 
REMARK    4  A    between atoms: O_22  and  C_7 
REMARK    5  A    between atoms: S_20  and  C_13 
REMARK    6  A    between atoms: S_21  and  C_13 
REMARK    7  A    between atoms: C_25  and  O_22 
ROOT
ATOM      1  C   UNL d   1       1.266  -0.538   0.103  0.00  0.00     0.309 A 
ATOM      2  N   UNL d   1       0.873   0.834  -0.237  0.00  0.00    -0.314 N 
ATOM      3  HN  UNL d   1       1.587   1.552  -0.360  1.00  0.00     0.166 HD
ATOM      4  N   UNL d   1       0.121  -1.466   0.094  0.00  0.00    -0.308 N 
ATOM      5  HN  UNL d   1       0.260  -2.468   0.225  1.00  0.00     0.166 HD
ATOM      6  C   UNL d   1      -0.360   1.133  -0.378  0.00  0.00     0.231 A 
ATOM      7  C   UNL d   1      -1.045  -0.989  -0.081  0.00  0.00     0.270 A 
ATOM      8  O   UNL d   1      -1.383   0.289  -0.273  0.00  0.00    -0.241 OA
ENDROOT
BRANCH   1   9
ATOM      9  C   UNL d   1       2.329  -1.011  -0.928  0.00  0.00     0.441 C 
ATOM     10  F   UNL d   1       2.975   0.034  -1.506  0.00  0.00    -0.166 F 
ATOM     11  F   UNL d   1       3.268  -1.841  -0.432  0.00  0.00    -0.166 F 
ATOM     12  F   UNL d   1       1.727  -1.678  -1.953  0.00  0.00    -0.166 F 
ENDBRANCH   1   9
BRANCH   1  13
ATOM     13  C   UNL d   1       1.945  -0.555   1.507  0.00  0.00     0.441 C 
ATOM     14  F   UNL d   1       1.533   0.499   2.265  0.00  0.00    -0.166 F 
ATOM     15  F   UNL d   1       1.589  -1.663   2.212  0.00  0.00    -0.166 F 
ATOM     16  F   UNL d   1       3.293  -0.511   1.493  0.00  0.00    -0.166 F 
ENDBRANCH   1  13
BRANCH   6  17
ATOM     17  N   UNL d   1      -0.640   2.439  -0.545  0.00  0.00    -0.311 N 
ATOM     18  C   UNL d   1      -1.683   2.945  -1.092  0.00  0.00     0.110 C 
ATOM     19  HN  UNL d   1       0.056   3.099  -0.199  1.00  0.00     0.170 HD
BRANCH  18  20
ATOM     20  S   UNL d   1      -3.044   2.141  -1.831  0.00  0.00    -0.110 SA
ATOM     21  C   UNL d   1      -2.261   1.534  -3.337  0.00  0.00     0.097 C 
ENDBRANCH  18  20
BRANCH  18  22
ATOM     22  S   UNL d   1      -1.828   4.703  -1.155  0.00  0.00    -0.110 SA
ATOM     23  C   UNL d   1      -0.552   5.191   0.026  0.00  0.00     0.097 C 
ENDBRANCH  18  22
ENDBRANCH   6  17
BRANCH   7  24
ATOM     24  O   UNL d   1      -2.165  -1.743  -0.099  0.00  0.00    -0.317 OA
BRANCH  24  25
ATOM     25  C   UNL d   1      -2.025  -3.106   0.321  0.00  0.00     0.175 C 
ATOM     26  C   UNL d   1      -3.419  -3.665   0.525  0.00  0.00     0.034 C 
ENDBRANCH  24  25
ENDBRANCH   7  24
TORSDOF 7
