REMARK  4 active torsions:
REMARK  status: ('A' for Active; 'I' for Inactive)
REMARK    1  A    between atoms: C_2  and  S_1 
REMARK    2  A    between atoms: C_4  and  S_1 
REMARK    3  A    between atoms: O_9  and  C_8 
REMARK    4  A    between atoms: C_13  and  O_9 
ROOT
ATOM      1  C   UNL d   1       0.295   1.127  -1.397  0.00  0.00     0.161 C 
ATOM      2  C   UNL d   1      -0.964   1.748  -1.216  0.00  0.00     0.113 C 
ATOM      3  N   UNL d   1      -2.003   2.253  -1.099  0.00  0.00    -0.191 NA
ATOM      4  C   UNL d   1       1.037   1.317  -2.499  0.00  0.00     0.169 C 
ENDROOT
BRANCH   1   5
ATOM      5  S   UNL d   1       0.931   0.157  -0.104  0.00  0.00     0.194 S 
ATOM      6  O   UNL d   1       0.328   0.581   1.146  0.00  0.00    -0.221 OA
ATOM      7  O   UNL d   1       2.383   0.141  -0.208  0.00  0.00    -0.221 OA
BRANCH   5   8
ATOM      8  C   UNL d   1       0.355  -1.548  -0.437  0.00  0.00     0.058 C 
ATOM      9  C   UNL d   1       0.909  -2.064  -1.772  0.00  0.00     0.031 C 
ATOM     10  C   UNL d   1       0.886  -2.460   0.688  0.00  0.00     0.031 C 
ATOM     11  C   UNL d   1      -1.178  -1.621  -0.449  0.00  0.00     0.031 C 
ENDBRANCH   5   8
ENDBRANCH   1   5
BRANCH   4  12
ATOM     12  O   UNL d   1       0.583   2.039  -3.573  0.00  0.00    -0.361 OA
BRANCH  12  13
ATOM     13  C   UNL d   1       1.617   2.687  -4.317  0.00  0.00     0.170 C 
ATOM     14  C   UNL d   1       0.941   3.534  -5.380  0.00  0.00     0.034 C 
ENDBRANCH  12  13
ENDBRANCH   4  12
TORSDOF 4
