REMARK  7 active torsions:
REMARK  status: ('A' for Active; 'I' for Inactive)
REMARK    1  A    between atoms: C_14  and  N_9 
REMARK    2  A    between atoms: C_12  and  N_11 
REMARK    3  A    between atoms: N_13  and  C_21 
REMARK    4  A    between atoms: C_17  and  C_14 
REMARK    5  A    between atoms: C_21  and  C_17 
REMARK    6  A    between atoms: O_26  and  C_17 
REMARK    7  A    between atoms: O_27  and  C_20 
ROOT
ATOM      1  C   UNL d   1       3.523   2.212   0.081  0.00  0.00     0.164 C 
ENDROOT
BRANCH   1   2
ATOM      2  C   UNL d   1       3.719   3.738   0.140  0.00  0.00     0.163 C 
BRANCH   2   3
ATOM      3  N   UNL d   1       3.076   4.406   1.260  0.00  0.00    -0.333 N 
ATOM      4  C   UNL d   1       3.594   4.636   2.509  0.00  0.00     0.149 A 
ATOM      5  C   UNL d   1       2.762   5.554   3.076  0.00  0.00     0.145 A 
ATOM      6  C   UNL d   1       4.742   4.126   3.176  0.00  0.00     0.282 C 
ATOM      7  N   UNL d   1       3.019   6.096   4.315  0.00  0.00    -0.287 N 
ATOM      8  N   UNL d   1       1.715   5.859   2.263  0.00  0.00    -0.336 N 
ATOM      9  C   UNL d   1       4.102   5.617   5.059  0.00  0.00     0.332 C 
ATOM     10  C   UNL d   1       2.245   7.201   4.843  0.00  0.00     0.163 C 
ATOM     11  N   UNL d   1       4.859   4.581   4.492  0.00  0.00    -0.269 N 
ATOM     12  O   UNL d   1       4.379   6.100   6.164  0.00  0.00    -0.246 OA
ATOM     13  C   UNL d   1       5.906   3.977   5.294  0.00  0.00     0.164 C 
ATOM     14  C   UNL d   1       1.905   5.121   1.187  0.00  0.00     0.185 A 
ATOM     15  HN  UNL d   1       0.953   6.513   2.444  1.00  0.00     0.168 HD
ATOM     16  O   UNL d   1       5.544   3.362   2.636  0.00  0.00    -0.265 OA
ENDBRANCH   2   3
ENDBRANCH   1   2
BRANCH   1  17
ATOM     17  C   UNL d   1       4.204   1.645  -1.206  0.00  0.00     0.305 C 
BRANCH  17  18
ATOM     18  N   UNL d   1       3.942   0.214  -1.506  0.00  0.00     0.094 N 
ATOM     19  C   UNL d   1       4.621  -0.676  -0.525  0.00  0.00     0.292 C 
ATOM     20  C   UNL d   1       4.489  -2.180  -0.858  0.00  0.00     0.153 C 
ATOM     21  N   UNL d   1       5.047  -2.428  -2.198  0.00  0.00    -0.375 N 
ATOM     22  C   UNL d   1       4.353  -1.643  -3.227  0.00  0.00     0.153 C 
ATOM     23  C   UNL d   1       4.436  -0.130  -2.871  0.00  0.00     0.292 C 
BRANCH  21  24
ATOM     24  C   UNL d   1       5.524  -3.716  -2.456  0.00  0.00     0.064 A 
ATOM     25  C   UNL d   1       6.593  -4.278  -1.705  0.00  0.00     0.094 A 
ATOM     26  C   UNL d   1       7.136  -5.528  -2.045  0.00  0.00     0.039 A 
ATOM     27  C   UNL d   1       6.595  -6.272  -3.088  0.00  0.00     0.003 A 
ATOM     28  C   UNL d   1       5.518  -5.766  -3.804  0.00  0.00     0.002 A 
ATOM     29  C   UNL d   1       5.000  -4.502  -3.498  0.00  0.00     0.032 A 
BRANCH  25  30
ATOM     30  O   UNL d   1       7.139  -3.517  -0.694  0.00  0.00    -0.354 OA
ATOM     31  C   UNL d   1       7.625  -4.256   0.424  0.00  0.00     0.210 C 
ENDBRANCH  25  30
ENDBRANCH  21  24
ENDBRANCH  17  18
ENDBRANCH   1  17
BRANCH   1  32
ATOM     32  O   UNL d   1       4.060   1.607   1.259  0.00  0.00    -0.392 OA
ATOM     33  H   UNL d   1       4.920   2.022   1.479  0.00  0.00     0.210 HD
ENDBRANCH   1  32
TORSDOF 7
