REMARK  1 active torsions:
REMARK  status: ('A' for Active; 'I' for Inactive)
REMARK    1  A    between atoms: C_11  and  C_6 
ROOT
ATOM      1  N   UNL d   1      -8.477  -1.688  -0.091  0.00  0.00    -0.191 NA
ATOM      2  C   UNL d   1      -7.465  -1.122  -0.062  0.00  0.00     0.099 C 
ATOM      3  C   UNL d   1      -3.713   0.858   0.005  0.00  0.00    -0.034 A 
ATOM      4  C   UNL d   1      -6.208  -0.429  -0.026  0.00  0.00     0.044 A 
ATOM      5  C   UNL d   1      -4.597   1.056  -1.063  0.00  0.00     0.013 A 
ATOM      6  C   UNL d   1      -4.096   0.038   1.071  0.00  0.00     0.013 A 
ATOM      7  C   UNL d   1      -5.338  -0.607   1.054  0.00  0.00     0.023 A 
ATOM      8  C   UNL d   1      -5.840   0.416  -1.079  0.00  0.00     0.023 A 
ENDROOT
BRANCH   3   9
ATOM      9  C   UNL d   1      -2.398   1.498  -0.005  0.00  0.00     0.046 C 
ATOM     10  C   UNL d   1      -2.147   2.701   0.516  0.00  0.00     0.104 A 
ATOM     11  C   UNL d   1      -0.819   3.395   0.481  0.00  0.00     0.274 A 
ATOM     12  N   UNL d   1      -3.014   3.538   1.162  0.00  0.00    -0.329 N 
ATOM     13  N   UNL d   1      -1.044   4.589   1.115  0.00  0.00    -0.298 N 
ATOM     14  O   UNL d   1       0.216   2.985  -0.004  0.00  0.00    -0.266 OA
ATOM     15  C   UNL d   1      -2.347   4.692   1.532  0.00  0.00     0.179 A 
ATOM     16  H   UNL d   1      -0.336   5.290   1.253  0.00  0.00     0.171 HD
ATOM     17  S   UNL d   1      -3.009   5.968   2.336  0.00  0.00    -0.040 SA
ATOM     18  H   UNL d   1      -3.987   3.345   1.353  0.00  0.00     0.168 HD
ENDBRANCH   3   9
TORSDOF 1
