REMARK  2 active torsions:
REMARK  status: ('A' for Active; 'I' for Inactive)
REMARK    1  A    between atoms: C_10  and  C_1 
REMARK    2  A    between atoms: C_11  and  C_7 
ROOT
ATOM      1  N   UNL d   1      -3.148  -2.768  -1.265  0.00  0.00    -0.197 NA
ATOM      2  C   UNL d   1      -2.115  -2.692  -0.731  0.00  0.00     0.066 C 
ATOM      3  C   UNL d   1      -0.826  -2.542  -0.021  0.00  0.00     0.201 C 
ENDROOT
BRANCH   3   4
ATOM      4  C   UNL d   1      -0.338  -1.127  -0.011  0.00  0.00     0.110 A 
ATOM      5  N   UNL d   1      -1.145  -0.018   0.009  0.00  0.00    -0.327 N 
ATOM      6  C   UNL d   1      -0.324   1.080   0.017  0.00  0.00     0.148 A 
ATOM      7  H   UNL d   1      -2.154   0.033  -0.004  0.00  0.00     0.169 HD
ATOM      8  N   UNL d   1       0.925   0.658   0.017  0.00  0.00    -0.282 N 
ATOM      9  N   UNL d   1       0.916  -0.722   0.008  0.00  0.00    -0.286 N 
ATOM     10  HN  UNL d   1       1.756   1.250   0.023  1.00  0.00     0.188 HD
ATOM     11  HN  UNL d   1       1.738  -1.325   0.016  1.00  0.00     0.188 HD
BRANCH   6  12
ATOM     12  C   UNL d   1      -0.824   2.450   0.026  0.00  0.00     0.078 A 
ATOM     13  N   UNL d   1      -2.178   2.573   0.024  0.00  0.00    -0.363 N 
ATOM     14  C   UNL d   1      -2.669   3.836   0.033  0.00  0.00     0.088 A 
ATOM     15  HN  UNL d   1      -2.792   1.758   0.016  1.00  0.00     0.165 HD
ATOM     16  C   UNL d   1      -1.881   4.976   0.049  0.00  0.00     0.017 A 
ATOM     17  C   UNL d   1      -0.499   4.821   0.053  0.00  0.00     0.004 A 
ATOM     18  C   UNL d   1       0.041   3.538   0.039  0.00  0.00     0.033 A 
ENDBRANCH   6  12
ENDBRANCH   3   4
TORSDOF 2
