REMARK  6 active torsions:
REMARK  status: ('A' for Active; 'I' for Inactive)
REMARK    1  A    between atoms: N_2  and  C_1 
REMARK       I    between atoms: N_3  and  C_5 
REMARK       I    between atoms: C_8  and  N_3 
REMARK    2  A    between atoms: C_4  and  C_9 
REMARK    3  A    between atoms: C_5  and  C_12 
REMARK    4  A    between atoms: O_11  and  C_7 
REMARK    5  A    between atoms: O_24  and  C_8 
REMARK    6  A    between atoms: C_23  and  O_11 
ROOT
ATOM      1  C   UNL d   1       5.930   1.946  -0.878  0.00  0.00     0.032 A 
ATOM      2  C   UNL d   1       5.450   2.770   0.150  0.00  0.00     0.020 A 
ATOM      3  C   UNL d   1       5.024   1.185  -1.630  0.00  0.00     0.020 A 
ATOM      4  C   UNL d   1       3.174   2.132  -0.395  0.00  0.00     0.076 A 
ATOM      5  C   UNL d   1       4.075   2.849   0.399  0.00  0.00     0.038 A 
ATOM      6  C   UNL d   1       3.650   1.278  -1.389  0.00  0.00     0.038 A 
ENDROOT
BRANCH   4   7
ATOM      7  O   UNL d   1       1.807   2.173  -0.218  0.00  0.00    -0.308 OA
BRANCH   7   8
ATOM      8  C   UNL d   1       1.226   3.382   0.088  0.00  0.00     0.109 A 
ATOM      9  C   UNL d   1       0.170   3.437   1.001  0.00  0.00     0.137 A 
ATOM     10  C   UNL d   1      -0.461   4.648   1.328  0.00  0.00     0.055 A 
ATOM     11  C   UNL d   1      -0.029   5.840   0.727  0.00  0.00     0.050 A 
ATOM     12  C   UNL d   1       1.008   5.784  -0.219  0.00  0.00     0.019 A 
ATOM     13  C   UNL d   1       1.611   4.567  -0.553  0.00  0.00     0.040 A 
BRANCH   9  14
ATOM     14  N   UNL d   1      -0.299   2.227   1.652  0.00  0.00    -0.113 N 
ATOM     15  O   UNL d   1      -1.510   1.984   1.573  0.00  0.00    -0.532 OA
ATOM     16  O   UNL d   1       0.533   1.562   2.281  0.00  0.00    -0.532 OA
ENDBRANCH   9  14
BRANCH  11  17
ATOM     17  C   UNL d   1      -0.644   7.174   1.082  0.00  0.00     0.417 C 
ATOM     18  F   UNL d   1      -1.719   7.071   1.908  0.00  0.00    -0.166 F 
ATOM     19  F   UNL d   1       0.242   7.990   1.716  0.00  0.00    -0.166 F 
ATOM     20  F   UNL d   1      -1.070   7.858  -0.013  0.00  0.00    -0.166 F 
ENDBRANCH  11  17
ENDBRANCH   7   8
ENDBRANCH   4   7
BRANCH   1  21
ATOM     21  C   UNL d   1       7.389   1.801  -1.158  0.00  0.00     0.260 C 
ATOM     22  N   UNL d   1       8.167   2.899  -0.860  0.00  0.00    -0.269 N 
ATOM     23  C   UNL d   1       9.531   2.901  -0.789  0.00  0.00     0.367 C 
ATOM     24  H   UNL d   1       7.744   3.785  -0.647  0.00  0.00     0.174 HD
ATOM     25  O   UNL d   1      10.287   1.948  -0.879  0.00  0.00    -0.238 OA
ATOM     26  O   UNL d   1       7.786   0.777  -1.700  0.00  0.00    -0.267 OA
BRANCH  23  27
ATOM     27  O   UNL d   1       9.938   4.175  -0.535  0.00  0.00    -0.309 OA
ATOM     28  C   UNL d   1      11.355   4.324  -0.406  0.00  0.00     0.215 C 
ENDBRANCH  23  27
ENDBRANCH   1  21
TORSDOF 6
