REMARK  5 active torsions:
REMARK  status: ('A' for Active; 'I' for Inactive)
REMARK    1  A    between atoms: C_2  and  N_1 
REMARK    2  A    between atoms: O_10  and  C_6 
REMARK    3  A    between atoms: C_11  and  O_10 
REMARK    4  A    between atoms: C_14  and  C_13 
REMARK    5  A    between atoms: C_19  and  C_14 
ROOT
ATOM      1  C   UNL d   1      -2.066   3.926   4.059  0.00  0.00     0.077 A 
ATOM      2  C   UNL d   1      -1.820   6.625   4.815  0.00  0.00    -0.054 A 
ATOM      3  C   UNL d   1      -2.060   4.932   3.088  0.00  0.00     0.038 A 
ATOM      4  C   UNL d   1      -2.029   4.277   5.407  0.00  0.00     0.038 A 
ATOM      5  C   UNL d   1      -1.906   5.617   5.786  0.00  0.00     0.010 A 
ATOM      6  C   UNL d   1      -1.897   6.268   3.463  0.00  0.00     0.010 A 
ENDROOT
BRANCH   1   7
ATOM      7  O   UNL d   1      -2.164   2.580   3.786  0.00  0.00    -0.294 OA
BRANCH   7   8
ATOM      8  C   UNL d   1      -1.612   2.060   2.635  0.00  0.00     0.148 A 
ATOM      9  C   UNL d   1      -0.456   2.558   2.038  0.00  0.00     0.059 A 
ATOM     10  C   UNL d   1      -0.003   1.983   0.850  0.00  0.00     0.041 A 
ATOM     11  C   UNL d   1      -0.683   0.878   0.340  0.00  0.00     0.118 A 
ATOM     12  C   UNL d   1      -1.783   0.395   1.027  0.00  0.00     0.126 A 
ATOM     13  N   UNL d   1      -2.261   0.970   2.159  0.00  0.00    -0.344 N 
ATOM     14  HN  UNL d   1      -3.081   0.594   2.636  1.00  0.00     0.167 HD
BRANCH  11  15
ATOM     15  N   UNL d   1      -0.249   0.233  -0.890  0.00  0.00    -0.114 N 
ATOM     16  O   UNL d   1      -0.863  -0.771  -1.264  0.00  0.00    -0.532 OA
ATOM     17  O   UNL d   1       0.713   0.731  -1.492  0.00  0.00    -0.532 OA
ENDBRANCH  11  15
ENDBRANCH   7   8
ENDBRANCH   1   7
BRANCH   2  18
ATOM     18  C   UNL d   1      -1.631   8.071   5.215  0.00  0.00     0.077 C 
BRANCH  18  19
ATOM     19  C   UNL d   1      -0.181   8.465   5.387  0.00  0.00    -0.054 A 
ATOM     20  C   UNL d   1       0.552   8.982   4.309  0.00  0.00     0.007 A 
ATOM     21  C   UNL d   1       1.903   9.302   4.458  0.00  0.00     0.001 A 
ATOM     22  C   UNL d   1       2.536   9.108   5.684  0.00  0.00     0.000 A 
ATOM     23  C   UNL d   1       1.815   8.606   6.766  0.00  0.00     0.001 A 
ATOM     24  C   UNL d   1       0.464   8.286   6.619  0.00  0.00     0.007 A 
ENDBRANCH  18  19
ENDBRANCH   2  18
TORSDOF 5
