REMARK  1 active torsions:
REMARK  status: ('A' for Active; 'I' for Inactive)
REMARK    1  A    between atoms: C_8  and  N_4 
ROOT
ATOM      1  C   UNL d   1       1.652   1.032   0.193  0.00  0.00     0.143 C 
ATOM      2  N   UNL d   1       0.351   0.564   0.164  0.00  0.00    -0.356 N 
ATOM      3  S   UNL d   1       2.743  -0.316   0.525  0.00  0.00    -0.092 SA
ATOM      4  N   UNL d   1       1.996   2.263  -0.021  0.00  0.00    -0.337 N 
ATOM      5  HN  UNL d   1       1.256   2.939  -0.210  1.00  0.00     0.168 HD
ATOM      6  C   UNL d   1       0.251  -0.827  -0.286  0.00  0.00     0.096 C 
ATOM      7  C   UNL d   1       1.459  -1.572   0.283  0.00  0.00     0.107 C 
ATOM      8  C   UNL d   1      -0.762   1.445  -0.163  0.00  0.00     0.125 C 
ATOM      9  C   UNL d   1      -1.064  -1.460   0.171  0.00  0.00     0.026 C 
ATOM     10  C   UNL d   1      -2.078   0.825   0.313  0.00  0.00     0.020 C 
ATOM     11  C   UNL d   1      -2.256  -0.594  -0.223  0.00  0.00     0.004 C 
ENDROOT
BRANCH   4  12
ATOM     12  C   UNL d   1       3.324   2.728  -0.011  0.00  0.00     0.036 A 
ATOM     13  C   UNL d   1       3.602   3.901   0.700  0.00  0.00     0.069 A 
ATOM     14  C   UNL d   1       4.895   4.380   0.707  0.00  0.00     0.107 A 
ATOM     15  O   UNL d   1       5.328   5.504   1.341  0.00  0.00    -0.323 OA
ATOM     16  C   UNL d   1       5.912   3.733   0.043  0.00  0.00     0.105 A 
ATOM     17  C   UNL d   1       6.734   5.477   1.015  0.00  0.00     0.352 A 
ATOM     18  O   UNL d   1       7.112   4.351   0.197  0.00  0.00    -0.323 OA
ATOM     19  C   UNL d   1       5.678   2.601  -0.698  0.00  0.00     0.042 A 
ATOM     20  C   UNL d   1       4.367   2.120  -0.752  0.00  0.00     0.032 A 
ENDBRANCH   4  12
TORSDOF 1
