REMARK  4 active torsions:
REMARK  status: ('A' for Active; 'I' for Inactive)
REMARK    1  A    between atoms: C_6  and  N_1 
REMARK    2  A    between atoms: C_4  and  C_3 
REMARK    3  A    between atoms: O_8  and  C_5 
REMARK    4  A    between atoms: O_13  and  C_7 
ROOT
ATOM      1  N   UNL d   1       0.962   0.131   0.139  0.00  0.00    -0.365 N 
ATOM      2  HN  UNL d   1       0.417  -0.541  -0.402  1.00  0.00     0.165 HD
ATOM      3  C   UNL d   1       0.377   0.986   0.919  0.00  0.00     0.102 C 
ENDROOT
BRANCH   1   4
ATOM      4  C   UNL d   1       2.365   0.153   0.057  0.00  0.00     0.032 A 
ATOM      5  C   UNL d   1       3.050  -1.062   0.053  0.00  0.00     0.032 A 
ATOM      6  C   UNL d   1       4.445  -1.097  -0.049  0.00  0.00     0.039 A 
ATOM      7  C   UNL d   1       5.176   0.085  -0.167  0.00  0.00     0.068 A 
ATOM      8  C   UNL d   1       4.502   1.305  -0.170  0.00  0.00     0.039 A 
ATOM      9  C   UNL d   1       3.105   1.335  -0.073  0.00  0.00     0.032 A 
BRANCH   7  10
ATOM     10  O   UNL d   1       6.532  -0.073  -0.247  0.00  0.00    -0.356 OA
ATOM     11  C   UNL d   1       7.251   1.002  -0.842  0.00  0.00     0.210 C 
ENDBRANCH   7  10
ENDBRANCH   1   4
BRANCH   3  12
ATOM     12  C   UNL d   1      -1.092   1.028   1.056  0.00  0.00     0.012 A 
ATOM     13  C   UNL d   1      -1.919   0.043   0.506  0.00  0.00     0.077 A 
ATOM     14  C   UNL d   1      -3.300   0.110   0.679  0.00  0.00     0.037 A 
ATOM     15  C   UNL d   1      -3.861   1.169   1.393  0.00  0.00     0.003 A 
ATOM     16  C   UNL d   1      -3.041   2.161   1.937  0.00  0.00     0.001 A 
ATOM     17  C   UNL d   1      -1.655   2.090   1.774  0.00  0.00     0.015 A 
BRANCH  13  18
ATOM     18  O   UNL d   1      -1.437  -1.017  -0.210  0.00  0.00    -0.360 OA
ATOM     19  H   UNL d   1      -0.464  -0.888  -0.295  0.00  0.00     0.217 HD
ENDBRANCH  13  18
ENDBRANCH   3  12
TORSDOF 4
