REMARK  6 active torsions:
REMARK  status: ('A' for Active; 'I' for Inactive)
REMARK    1  A    between atoms: C_8  and  C_1 
REMARK    2  A    between atoms: N_7  and  C_2 
REMARK    3  A    between atoms: S_3  and  N_7 
REMARK    4  A    between atoms: C_9  and  S_3 
REMARK    5  A    between atoms: C_12  and  C_5 
REMARK       I    between atoms: N_22  and  C_8 
REMARK    6  A    between atoms: C_13  and  C_14 
ROOT
ATOM      1  C   UNL d   1       0.023   1.323   0.024  0.00  0.00     0.100 A 
ATOM      2  C   UNL d   1       1.345   0.900  -0.020  0.00  0.00     0.066 A 
ATOM      3  S   UNL d   1      -1.047  -0.022   0.080  0.00  0.00    -0.082 SA
ATOM      4  C   UNL d   1       0.213  -1.169   0.012  0.00  0.00     0.018 A 
ATOM      5  C   UNL d   1       1.439  -0.530   0.018  0.00  0.00     0.051 A 
ENDROOT
BRANCH   2   6
ATOM      6  N   UNL d   1       2.507   1.698   0.023  0.00  0.00    -0.279 N 
ATOM      7  H   UNL d   1       3.152   1.512   0.794  0.00  0.00     0.179 HD
BRANCH   6   8
ATOM      8  S   UNL d   1       3.436   2.061  -1.355  0.00  0.00     0.263 S 
ATOM      9  O   UNL d   1       2.610   2.873  -2.227  0.00  0.00    -0.200 OA
ATOM     10  O   UNL d   1       4.690   2.565  -0.843  0.00  0.00    -0.200 OA
BRANCH   8  11
ATOM     11  C   UNL d   1       3.785   0.516  -2.176  0.00  0.00     0.079 A 
ATOM     12  C   UNL d   1       2.965   0.088  -3.222  0.00  0.00     0.026 A 
ATOM     13  C   UNL d   1       3.305  -1.057  -3.953  0.00  0.00     0.008 A 
ATOM     14  C   UNL d   1       4.473  -1.776  -3.658  0.00  0.00    -0.062 A 
ATOM     15  C   UNL d   1       5.300  -1.328  -2.621  0.00  0.00     0.008 A 
ATOM     16  C   UNL d   1       4.840  -2.978  -4.483  0.00  0.00     0.048 C 
ATOM     17  C   UNL d   1       4.966  -0.181  -1.887  0.00  0.00     0.026 A 
ENDBRANCH   8  11
ENDBRANCH   6   8
ENDBRANCH   2   6
BRANCH   1  18
ATOM     18  C   UNL d   1      -0.613   2.637   0.070  0.00  0.00     0.258 C 
ATOM     19  O   UNL d   1      -1.822   2.837   0.131  0.00  0.00    -0.267 OA
ATOM     20  N   UNL d   1       0.208   3.727   0.036  0.00  0.00    -0.365 N 
ATOM     21  H   UNL d   1       1.183   3.653  -0.212  0.00  0.00     0.159 HD
ATOM     22  H   UNL d   1      -0.256   4.620  -0.078  0.00  0.00     0.159 HD
ENDBRANCH   1  18
BRANCH   4  23
ATOM     23  C   UNL d   1      -0.087  -2.611  -0.009  0.00  0.00    -0.019 A 
ATOM     24  C   UNL d   1      -1.255  -3.123  -0.590  0.00  0.00     0.013 A 
ATOM     25  C   UNL d   1      -1.508  -4.501  -0.623  0.00  0.00     0.009 A 
ATOM     26  C   UNL d   1      -0.602  -5.425  -0.078  0.00  0.00    -0.051 A 
ATOM     27  C   UNL d   1       0.561  -4.903   0.508  0.00  0.00     0.009 A 
ATOM     28  C   UNL d   1       0.815  -3.526   0.543  0.00  0.00     0.013 A 
BRANCH  26  29
ATOM     29  C   UNL d   1      -0.898  -6.934  -0.127  0.00  0.00    -0.024 C 
ATOM     30  C   UNL d   1       0.223  -7.789   0.504  0.00  0.00     0.019 C 
ATOM     31  C   UNL d   1      -2.204  -7.239   0.638  0.00  0.00     0.019 C 
ATOM     32  C   UNL d   1      -1.060  -7.404  -1.589  0.00  0.00     0.019 C 
ENDBRANCH  26  29
ENDBRANCH   4  23
TORSDOF 6
