REMARK  4 active torsions:
REMARK  status: ('A' for Active; 'I' for Inactive)
REMARK    1  A    between atoms: C_10  and  N_1 
REMARK    2  A    between atoms: C_4  and  C_3 
REMARK    3  A    between atoms: C_5  and  C_6 
REMARK    4  A    between atoms: O_13  and  C_7 
ROOT
ATOM      1  N   UNL d   1       1.036  -0.144  -0.234  0.00  0.00    -0.365 N 
ATOM      2  HN  UNL d   1       0.530   0.568   0.292  1.00  0.00     0.165 HD
ATOM      3  C   UNL d   1       0.396  -1.033  -0.927  0.00  0.00     0.102 C 
ENDROOT
BRANCH   1   4
ATOM      4  C   UNL d   1       2.445  -0.182  -0.223  0.00  0.00     0.031 A 
ATOM      5  C   UNL d   1       3.139   1.027  -0.211  0.00  0.00     0.030 A 
ATOM      6  C   UNL d   1       4.541   1.056  -0.211  0.00  0.00     0.010 A 
ATOM      7  C   UNL d   1       5.300  -0.130  -0.230  0.00  0.00    -0.051 A 
ATOM      8  C   UNL d   1       4.588  -1.338  -0.204  0.00  0.00     0.010 A 
ATOM      9  C   UNL d   1       3.187  -1.362  -0.186  0.00  0.00     0.030 A 
BRANCH   7  10
ATOM     10  C   UNL d   1       6.837  -0.076  -0.280  0.00  0.00    -0.024 C 
ATOM     11  C   UNL d   1       7.501  -1.472  -0.336  0.00  0.00     0.019 C 
ATOM     12  C   UNL d   1       7.291   0.693  -1.540  0.00  0.00     0.019 C 
ATOM     13  C   UNL d   1       7.385   0.640   0.972  0.00  0.00     0.019 C 
ENDBRANCH   7  10
ENDBRANCH   1   4
BRANCH   3  14
ATOM     14  C   UNL d   1      -1.079  -1.038  -1.010  0.00  0.00     0.012 A 
ATOM     15  C   UNL d   1      -1.855  -0.005  -0.475  0.00  0.00     0.077 A 
ATOM     16  C   UNL d   1      -3.241  -0.027  -0.614  0.00  0.00     0.037 A 
ATOM     17  C   UNL d   1      -3.857  -1.087  -1.280  0.00  0.00     0.003 A 
ATOM     18  C   UNL d   1      -3.088  -2.127  -1.806  0.00  0.00     0.001 A 
ATOM     19  C   UNL d   1      -1.698  -2.103  -1.674  0.00  0.00     0.015 A 
BRANCH  15  20
ATOM     20  O   UNL d   1      -1.315   1.062   0.189  0.00  0.00    -0.360 OA
ATOM     21  H   UNL d   1      -0.344   0.909   0.235  0.00  0.00     0.217 HD
ENDBRANCH  15  20
ENDBRANCH   3  14
TORSDOF 4
