REMARK  1 active torsions:
REMARK  status: ('A' for Active; 'I' for Inactive)
REMARK    1  A    between atoms: C_9  and  C_2 
ROOT
ATOM      1  C   UNL d   1       0.270   0.595  -0.014  0.00  0.00     0.078 A 
ATOM      2  C   UNL d   1      -0.592   1.746   0.059  0.00  0.00     0.006 A 
ATOM      3  C   UNL d   1      -0.450  -0.590  -0.014  0.00  0.00     0.091 A 
ATOM      4  C   UNL d   1       1.719   0.463  -0.023  0.00  0.00     0.260 A 
ATOM      5  C   UNL d   1      -1.916   1.361   0.176  0.00  0.00     0.065 A 
ATOM      6  N   UNL d   1       0.046  -1.857  -0.070  0.00  0.00    -0.346 N 
ATOM      7  HN  UNL d   1      -0.549  -2.685  -0.080  1.00  0.00     0.167 HD
ATOM      8  S   UNL d   1      -2.128  -0.331   0.107  0.00  0.00    -0.082 SA
ATOM      9  N   UNL d   1       2.169  -0.836  -0.107  0.00  0.00    -0.319 N 
ATOM     10  C   UNL d   1       1.335  -1.921  -0.111  0.00  0.00     0.184 A 
ATOM     11  O   UNL d   1       2.523   1.383   0.071  0.00  0.00    -0.267 OA
ATOM     12  H   UNL d   1       3.171  -0.954  -0.099  0.00  0.00     0.169 HD
ENDROOT
BRANCH   2  13
ATOM     13  C   UNL d   1      -0.215   3.209   0.040  0.00  0.00     0.016 A 
ATOM     14  S   UNL d   1      -1.181   4.444   0.744  0.00  0.00    -0.101 SA
ATOM     15  C   UNL d   1      -0.050   5.660   0.344  0.00  0.00     0.050 A 
ATOM     16  C   UNL d   1       1.009   5.157  -0.374  0.00  0.00     0.008 A 
ATOM     17  C   UNL d   1       0.905   3.746  -0.560  0.00  0.00     0.020 A 
ENDBRANCH   2  13
TORSDOF 1
