REMARK  7 active torsions:
REMARK  status: ('A' for Active; 'I' for Inactive)
REMARK    1  A    between atoms: C_8  and  N_1 
REMARK    2  A    between atoms: C_9  and  C_2 
REMARK    3  A    between atoms: S_14  and  C_3 
REMARK    4  A    between atoms: C_13  and  C_9 
REMARK    5  A    between atoms: O_23  and  C_10 
REMARK    6  A    between atoms: O_24  and  C_11 
REMARK    7  A    between atoms: C_22  and  C_15 
ROOT
ATOM      1  N   UNL d   1      -0.456  -1.226   0.115  0.00  0.00    -0.279 N 
ATOM      2  C   UNL d   1       0.826  -0.664   0.149  0.00  0.00     0.109 A 
ATOM      3  C   UNL d   1      -1.285  -0.110   0.037  0.00  0.00     0.164 A 
ATOM      4  N   UNL d   1       0.737   0.653   0.110  0.00  0.00    -0.286 N 
ATOM      5  HN  UNL d   1       1.522   1.304   0.132  1.00  0.00     0.188 HD
ATOM      6  N   UNL d   1      -0.572   0.996   0.034  0.00  0.00    -0.278 N 
ATOM      7  HN  UNL d   1      -0.940   1.946  -0.017  1.00  0.00     0.189 HD
ENDROOT
BRANCH   2   8
ATOM      8  C   UNL d   1       2.144  -1.368   0.045  0.00  0.00     0.117 C 
BRANCH   8   9
ATOM      9  C   UNL d   1       2.812  -1.722   1.359  0.00  0.00    -0.048 A 
ATOM     10  C   UNL d   1       3.710  -2.804   1.394  0.00  0.00     0.047 A 
ATOM     11  C   UNL d   1       4.315  -3.226   2.591  0.00  0.00     0.102 A 
ATOM     12  C   UNL d   1       4.078  -2.502   3.769  0.00  0.00     0.101 A 
ATOM     13  C   UNL d   1       3.224  -1.391   3.721  0.00  0.00     0.040 A 
ATOM     14  C   UNL d   1       2.601  -1.000   2.535  0.00  0.00     0.010 A 
BRANCH  11  15
ATOM     15  O   UNL d   1       5.153  -4.310   2.624  0.00  0.00    -0.353 OA
ATOM     16  C   UNL d   1       4.870  -5.353   1.696  0.00  0.00     0.210 C 
ENDBRANCH  11  15
BRANCH  12  17
ATOM     17  O   UNL d   1       4.554  -2.734   5.032  0.00  0.00    -0.353 OA
ATOM     18  C   UNL d   1       5.509  -3.763   5.231  0.00  0.00     0.210 C 
ENDBRANCH  12  17
ENDBRANCH   8   9
ENDBRANCH   2   8
BRANCH   1  19
ATOM     19  C   UNL d   1      -0.811  -2.615   0.111  0.00  0.00     0.043 A 
ATOM     20  C   UNL d   1      -0.076  -3.551   0.845  0.00  0.00     0.030 A 
ATOM     21  C   UNL d   1      -0.409  -4.916   0.813  0.00  0.00     0.010 A 
ATOM     22  C   UNL d   1      -1.496  -5.379   0.060  0.00  0.00    -0.055 A 
ATOM     23  C   UNL d   1      -2.253  -4.434  -0.639  0.00  0.00     0.010 A 
ATOM     24  C   UNL d   1      -1.906  -3.075  -0.632  0.00  0.00     0.030 A 
BRANCH  22  25
ATOM     25  C   UNL d   1      -1.847  -6.854  -0.042  0.00  0.00     0.010 C 
ATOM     26  C   UNL d   1      -0.713  -7.659  -0.689  0.00  0.00     0.015 C 
ATOM     27  C   UNL d   1      -2.261  -7.457   1.304  0.00  0.00     0.015 C 
ENDBRANCH  22  25
ENDBRANCH   1  19
BRANCH   3  28
ATOM     28  S   UNL d   1      -3.019  -0.060   0.099  0.00  0.00    -0.105 SA
ATOM     29  H   UNL d   1      -3.269  -1.275   0.598  0.00  0.00     0.110 HD
ENDBRANCH   3  28
TORSDOF 7
