REMARK  5 active torsions:
REMARK  status: ('A' for Active; 'I' for Inactive)
REMARK    1  A    between atoms: N_9  and  S_1 
REMARK    2  A    between atoms: C_10  and  S_1 
REMARK    3  A    between atoms: C_6  and  C_2 
REMARK    4  A    between atoms: N_5  and  C_13 
REMARK    5  A    between atoms: C_19  and  N_9 
ROOT
ATOM      1  C   UNL d   1       1.434  -2.016   4.898  0.00  0.00     0.056 A 
ATOM      2  C   UNL d   1       0.842  -0.445   2.657  0.00  0.00     0.042 A 
ATOM      3  C   UNL d   1       2.457  -1.597   4.033  0.00  0.00     0.034 A 
ATOM      4  C   UNL d   1       0.109  -1.648   4.624  0.00  0.00     0.034 A 
ATOM      5  C   UNL d   1      -0.178  -0.845   3.515  0.00  0.00     0.032 A 
ATOM      6  C   UNL d   1       2.156  -0.833   2.905  0.00  0.00     0.032 A 
ENDROOT
BRANCH   2   7
ATOM      7  N   UNL d   1       0.538   0.418   1.566  0.00  0.00    -0.281 N 
ATOM      8  H   UNL d   1       0.948   0.192   0.664  0.00  0.00     0.179 HD
BRANCH   7   9
ATOM      9  S   UNL d   1       0.531   2.091   1.850  0.00  0.00     0.263 S 
ATOM     10  O   UNL d   1      -0.374   2.380   2.938  0.00  0.00    -0.200 OA
ATOM     11  O   UNL d   1       0.393   2.729   0.562  0.00  0.00    -0.200 OA
BRANCH   9  12
ATOM     12  C   UNL d   1       2.194   2.403   2.405  0.00  0.00     0.080 A 
ATOM     13  C   UNL d   1       3.255   2.190   1.512  0.00  0.00     0.027 A 
ATOM     14  C   UNL d   1       4.569   2.310   1.965  0.00  0.00     0.025 A 
ATOM     15  C   UNL d   1       4.814   2.674   3.291  0.00  0.00     0.034 A 
ATOM     16  C   UNL d   1       3.756   2.934   4.164  0.00  0.00     0.025 A 
ATOM     17 CL   UNL d   1       6.435   2.788   3.854  0.00  0.00    -0.084 Cl
ATOM     18  C   UNL d   1       2.437   2.799   3.723  0.00  0.00     0.027 A 
ENDBRANCH   9  12
ENDBRANCH   7   9
ENDBRANCH   2   7
BRANCH   1  19
ATOM     19  N   UNL d   1       1.767  -2.788   6.046  0.00  0.00    -0.267 N 
ATOM     20  N   UNL d   1       3.064  -3.034   6.363  0.00  0.00    -0.290 N 
ATOM     21  C   UNL d   1       3.030  -3.711   7.526  0.00  0.00     0.134 A 
ATOM     22  HN  UNL d   1       3.892  -2.763   5.831  1.00  0.00     0.187 HD
ATOM     23  C   UNL d   1       1.694  -3.950   7.927  0.00  0.00     0.055 A 
ATOM     24  C   UNL d   1       0.915  -3.354   6.966  0.00  0.00     0.119 A 
BRANCH  21  25
ATOM     25  C   UNL d   1       4.268  -4.131   8.276  0.00  0.00     0.434 C 
ATOM     26  F   UNL d   1       5.427  -3.802   7.649  0.00  0.00    -0.165 F 
ATOM     27  F   UNL d   1       4.315  -3.559   9.511  0.00  0.00    -0.165 F 
ATOM     28  F   UNL d   1       4.298  -5.477   8.477  0.00  0.00    -0.165 F 
ENDBRANCH  21  25
ENDBRANCH   1  19
TORSDOF 5
