REMARK  5 active torsions:
REMARK  status: ('A' for Active; 'I' for Inactive)
REMARK    1  A    between atoms: C_8  and  C_6 
REMARK    2  A    between atoms: O_15  and  C_12 
REMARK    3  A    between atoms: C_20  and  O_15 
REMARK    4  A    between atoms: O_21  and  C_16 
REMARK    5  A    between atoms: C_22  and  C_20 
ROOT
ATOM      1  C   UNL d   1       1.921   1.411  -0.321  0.00  0.00     0.026 C 
ATOM      2  N   UNL d   1       0.863   1.382  -1.062  0.00  0.00    -0.357 N 
ATOM      3  HN  UNL d   1       0.860   1.930  -1.922  1.00  0.00     0.166 HD
ATOM      4  C   UNL d   1       2.295   0.494   0.791  0.00  0.00     0.055 C 
ATOM      5  S   UNL d   1       0.819  -1.885   0.231  0.00  0.00    -0.117 SA
ATOM      6  C   UNL d   1       2.356  -0.974   0.413  0.00  0.00     0.095 C 
ATOM      7  C   UNL d   1       2.845   2.560  -0.304  0.00  0.00    -0.007 A 
ATOM      8  C   UNL d   1      -0.282   0.634  -0.745  0.00  0.00     0.049 A 
ATOM      9  C   UNL d   1      -0.414  -0.685  -0.264  0.00  0.00     0.028 A 
ATOM     10  C   UNL d   1       1.678   1.115   2.031  0.00  0.00     0.017 C 
ATOM     11  C   UNL d   1       3.142   3.028   1.005  0.00  0.00    -0.046 A 
ATOM     12  C   UNL d   1       2.355   2.515   2.223  0.00  0.00     0.040 C 
ATOM     13  C   UNL d   1       3.634   2.868  -1.406  0.00  0.00     0.014 A 
ATOM     14  C   UNL d   1      -1.470   1.384  -0.923  0.00  0.00     0.031 A 
ATOM     15  C   UNL d   1      -1.717  -1.208  -0.073  0.00  0.00     0.021 A 
ATOM     16  C   UNL d   1       4.280   3.816   1.179  0.00  0.00     0.008 A 
ATOM     17  C   UNL d   1       4.779   3.636  -1.199  0.00  0.00     0.001 A 
ATOM     18  C   UNL d   1      -2.741   0.869  -0.674  0.00  0.00     0.002 A 
ATOM     19  C   UNL d   1      -2.868  -0.446  -0.268  0.00  0.00     0.002 A 
ATOM     20  C   UNL d   1       5.103   4.097   0.084  0.00  0.00     0.001 A 
ENDROOT
BRANCH   6  21
ATOM     21  C   UNL d   1       3.372  -1.585   1.405  0.00  0.00    -0.040 C 
ATOM     22  C   UNL d   1       4.735  -1.245   1.229  0.00  0.00     0.048 C 
ATOM     23  C   UNL d   1       5.650  -1.323   2.284  0.00  0.00     0.102 C 
ATOM     24  C   UNL d   1       5.269  -1.962   3.471  0.00  0.00     0.101 C 
ATOM     25  C   UNL d   1       3.940  -2.383   3.626  0.00  0.00     0.040 C 
ATOM     26  C   UNL d   1       2.991  -2.161   2.621  0.00  0.00     0.011 C 
BRANCH  23  27
ATOM     27  O   UNL d   1       6.840  -0.678   2.038  0.00  0.00    -0.344 OA
BRANCH  27  28
ATOM     28  C   UNL d   1       7.429   0.019   3.144  0.00  0.00     0.214 C 
BRANCH  28  29
ATOM     29  C   UNL d   1       7.591   1.511   2.909  0.00  0.00    -0.034 A 
ATOM     30  C   UNL d   1       7.116   2.419   3.873  0.00  0.00     0.009 A 
ATOM     31  C   UNL d   1       7.354   3.789   3.753  0.00  0.00     0.001 A 
ATOM     32  C   UNL d   1       8.073   4.273   2.663  0.00  0.00     0.000 A 
ATOM     33  C   UNL d   1       8.540   3.388   1.692  0.00  0.00     0.001 A 
ATOM     34  C   UNL d   1       8.299   2.014   1.810  0.00  0.00     0.009 A 
ENDBRANCH  28  29
ENDBRANCH  27  28
ENDBRANCH  23  27
BRANCH  24  35
ATOM     35  O   UNL d   1       6.235  -2.212   4.411  0.00  0.00    -0.353 OA
ATOM     36  C   UNL d   1       5.809  -2.145   5.767  0.00  0.00     0.210 C 
ENDBRANCH  24  35
ENDBRANCH   6  21
TORSDOF 5
