REMARK  1 active torsions:
REMARK  status: ('A' for Active; 'I' for Inactive)
REMARK    1  A    between atoms: C_8  and  C_3 
ROOT
ATOM      1  N   UNL d   1      -1.811  -1.557  -0.098  0.00  0.00    -0.296 N 
ATOM      2  HN  UNL d   1      -2.537  -2.273  -0.128  1.00  0.00     0.187 HD
ATOM      3  C   UNL d   1      -0.552  -1.892  -0.098  0.00  0.00     0.069 A 
ATOM      4  N   UNL d   1      -2.144  -0.241  -0.058  0.00  0.00    -0.265 N 
ATOM      5  C   UNL d   1       0.536  -0.875   0.001  0.00  0.00     0.009 A 
ATOM      6  C   UNL d   1      -1.272   0.815  -0.094  0.00  0.00     0.271 A 
ATOM      7  C   UNL d   1       0.158   0.467  -0.056  0.00  0.00     0.046 A 
ATOM      8  O   UNL d   1      -1.647   1.979  -0.131  0.00  0.00    -0.266 OA
ATOM      9  C   UNL d   1       1.892  -1.183   0.175  0.00  0.00     0.015 A 
ATOM     10  C   UNL d   1       1.117   1.490  -0.024  0.00  0.00     0.018 A 
ATOM     11  C   UNL d   1       2.853  -0.166   0.200  0.00  0.00     0.001 A 
ATOM     12  C   UNL d   1       2.468   1.168   0.087  0.00  0.00     0.001 A 
ATOM     13  H   UNL d   1      -3.136  -0.025  -0.078  0.00  0.00     0.190 HD
ENDROOT
BRANCH   3  14
ATOM     14  C   UNL d   1      -0.266  -3.355  -0.212  0.00  0.00    -0.007 A 
ATOM     15  C   UNL d   1       0.725  -3.858  -1.064  0.00  0.00     0.015 A 
ATOM     16  C   UNL d   1       0.938  -5.238  -1.155  0.00  0.00     0.024 A 
ATOM     17  C   UNL d   1       0.133  -6.116  -0.431  0.00  0.00     0.034 A 
ATOM     18  C   UNL d   1      -0.889  -5.629   0.380  0.00  0.00     0.024 A 
ATOM     19 CL   UNL d   1       0.391  -7.812  -0.556  0.00  0.00    -0.084 Cl
ATOM     20  C   UNL d   1      -1.088  -4.250   0.489  0.00  0.00     0.015 A 
ENDBRANCH   3  14
TORSDOF 1
