REMARK  4 active torsions:
REMARK  status: ('A' for Active; 'I' for Inactive)
REMARK    1  A    between atoms: N_4  and  C_1 
REMARK    2  A    between atoms: N_5  and  C_2 
REMARK    3  A    between atoms: N_10  and  C_3 
REMARK    4  A    between atoms: C_6  and  C_7 
ROOT
ATOM      1  C   UNL d   1       1.318  -0.274  -0.003  0.00  0.00     0.132 A 
ATOM      2  C   UNL d   1      -0.872  -1.110   0.058  0.00  0.00     0.132 A 
ATOM      3  C   UNL d   1       0.513  -1.454  -0.007  0.00  0.00     0.097 A 
ATOM      4  C   UNL d   1      -0.539   1.316   0.169  0.00  0.00     0.052 A 
ATOM      5  C   UNL d   1      -1.385   0.216   0.142  0.00  0.00     0.054 A 
ATOM      6  C   UNL d   1       0.823   1.059   0.083  0.00  0.00     0.054 A 
ENDROOT
BRANCH   3   7
ATOM      7  N   UNL d   1       1.011  -2.755  -0.021  0.00  0.00    -0.377 N 
ATOM      8  C   UNL d   1       0.219  -3.998  -0.080  0.00  0.00     0.123 C 
ATOM      9  C   UNL d   1       1.153  -5.075   0.448  0.00  0.00     0.021 C 
ATOM     10  C   UNL d   1       2.491  -4.661  -0.108  0.00  0.00     0.021 C 
ATOM     11  C   UNL d   1       2.442  -3.134  -0.081  0.00  0.00     0.123 C 
ENDBRANCH   3   7
BRANCH   2  12
ATOM     12  N   UNL d   1      -1.939  -2.087   0.071  0.00  0.00    -0.113 N 
ATOM     13  O   UNL d   1      -2.236  -2.627  -1.009  0.00  0.00    -0.532 OA
ATOM     14  O   UNL d   1      -2.533  -2.251   1.148  0.00  0.00    -0.532 OA
ENDBRANCH   2  12
BRANCH   1  15
ATOM     15  N   UNL d   1       2.767  -0.295  -0.076  0.00  0.00    -0.113 N 
ATOM     16  O   UNL d   1       3.273  -0.413  -1.199  0.00  0.00    -0.532 OA
ATOM     17  O   UNL d   1       3.383  -0.090   0.978  0.00  0.00    -0.532 OA
ENDBRANCH   1  15
BRANCH   4  18
ATOM     18  C   UNL d   1      -1.061   2.724   0.303  0.00  0.00     0.417 C 
ATOM     19  F   UNL d   1      -2.417   2.788   0.388  0.00  0.00    -0.166 F 
ATOM     20  F   UNL d   1      -0.582   3.344   1.414  0.00  0.00    -0.166 F 
ATOM     21  F   UNL d   1      -0.710   3.506  -0.752  0.00  0.00    -0.166 F 
ENDBRANCH   4  18
TORSDOF 4
