REMARK  2 active torsions:
REMARK  status: ('A' for Active; 'I' for Inactive)
REMARK    1  A    between atoms: C_7  and  N_1 
REMARK    2  A    between atoms: N_6  and  C_4 
ROOT
ATOM      1  N   UNL d   1       0.056   0.878  -0.002  0.00  0.00    -0.251 N 
ATOM      2  C   UNL d   1      -1.066   0.123   0.272  0.00  0.00     0.265 C 
ATOM      3  C   UNL d   1       1.164   0.071  -0.165  0.00  0.00     0.233 C 
ATOM      4  C   UNL d   1      -0.735  -1.345   0.044  0.00  0.00     0.323 C 
ATOM      5  C   UNL d   1       0.782  -1.357   0.089  0.00  0.00     0.149 C 
ATOM      6  O   UNL d   1      -2.182   0.499   0.615  0.00  0.00    -0.270 OA
ATOM      7  O   UNL d   1       2.326   0.387  -0.386  0.00  0.00    -0.273 OA
ENDROOT
BRANCH   1   8
ATOM      8  C   UNL d   1       0.075   2.307  -0.066  0.00  0.00     0.045 A 
ATOM      9  C   UNL d   1      -0.950   3.084   0.497  0.00  0.00     0.031 A 
ATOM     10  C   UNL d   1      -0.931   4.484   0.437  0.00  0.00     0.009 A 
ATOM     11  C   UNL d   1       0.109   5.153  -0.205  0.00  0.00    -0.062 A 
ATOM     12  C   UNL d   1       1.133   4.398  -0.779  0.00  0.00     0.009 A 
ATOM     13  C   UNL d   1       0.129   6.651  -0.246  0.00  0.00     0.048 C 
ATOM     14  C   UNL d   1       1.115   2.998  -0.707  0.00  0.00     0.031 A 
ENDBRANCH   1   8
BRANCH   4  15
ATOM     15  N   UNL d   1      -1.341  -1.922  -1.188  0.00  0.00     0.102 N 
ATOM     16  C   UNL d   1      -2.816  -1.860  -1.142  0.00  0.00     0.273 C 
ATOM     17  C   UNL d   1      -3.462  -2.596  -2.317  0.00  0.00     0.030 C 
ATOM     18  C   UNL d   1      -2.935  -2.072  -3.647  0.00  0.00     0.003 C 
ATOM     19  C   UNL d   1      -1.414  -2.124  -3.657  0.00  0.00     0.030 C 
ATOM     20  C   UNL d   1      -0.828  -1.379  -2.454  0.00  0.00     0.273 C 
ENDBRANCH   4  15
TORSDOF 2
