REMARK  3 active torsions:
REMARK  status: ('A' for Active; 'I' for Inactive)
REMARK    1  A    between atoms: C_11  and  N_1 
REMARK    2  A    between atoms: N_9  and  N_7 
REMARK    3  A    between atoms: C_12  and  N_9 
ROOT
ATOM      1  N   UNL d   1      -0.685  -1.367   0.038  0.00  0.00    -0.218 N 
ATOM      2  C   UNL d   1      -1.212  -0.082  -0.035  0.00  0.00     0.297 A 
ATOM      3  C   UNL d   1       0.020   0.762   0.050  0.00  0.00     0.142 A 
ATOM      4  N   UNL d   1       0.719  -1.419   0.117  0.00  0.00    -0.293 N 
ATOM      5  HN  UNL d   1       1.290  -2.263   0.176  1.00  0.00     0.187 HD
ATOM      6  C   UNL d   1       1.153  -0.194   0.100  0.00  0.00     0.056 A 
ATOM      7  N   UNL d   1       0.156   2.047   0.113  0.00  0.00    -0.293 N 
ATOM      8  HN  UNL d   1       1.074   2.490   0.158  1.00  0.00     0.187 HD
ATOM      9  O   UNL d   1      -2.331   0.374  -0.139  0.00  0.00    -0.264 OA
ATOM     10  C   UNL d   1       2.564   0.256   0.113  0.00  0.00     0.072 C 
ENDROOT
BRANCH   7  11
ATOM     11  N   UNL d   1      -0.993   2.775   0.116  0.00  0.00    -0.300 N 
ATOM     12  H   UNL d   1      -1.900   2.335  -0.056  0.00  0.00     0.187 HD
BRANCH  11  13
ATOM     13  C   UNL d   1      -0.937   4.182   0.109  0.00  0.00     0.054 A 
ATOM     14  C   UNL d   1      -2.103   4.976   0.117  0.00  0.00    -0.033 A 
ATOM     15  C   UNL d   1      -1.985   6.383   0.130  0.00  0.00     0.015 A 
ATOM     16  C   UNL d   1      -3.504   4.422   0.094  0.00  0.00     0.050 C 
ATOM     17  C   UNL d   1      -0.737   7.016   0.160  0.00  0.00    -0.061 A 
ATOM     18  C   UNL d   1       0.411   6.229   0.181  0.00  0.00     0.009 A 
ATOM     19  C   UNL d   1      -0.649   8.511   0.167  0.00  0.00     0.048 C 
ATOM     20  C   UNL d   1       0.307   4.837   0.159  0.00  0.00     0.032 A 
ENDBRANCH  11  13
ENDBRANCH   7  11
BRANCH   1  21
ATOM     21  C   UNL d   1      -1.399  -2.588  -0.022  0.00  0.00     0.060 A 
ATOM     22  C   UNL d   1      -2.767  -2.627  -0.327  0.00  0.00     0.031 A 
ATOM     23  C   UNL d   1      -3.449  -3.845  -0.409  0.00  0.00     0.002 A 
ATOM     24  C   UNL d   1      -2.779  -5.041  -0.167  0.00  0.00     0.000 A 
ATOM     25  C   UNL d   1      -1.425  -5.020   0.153  0.00  0.00     0.002 A 
ATOM     26  C   UNL d   1      -0.740  -3.804   0.218  0.00  0.00     0.031 A 
ENDBRANCH   1  21
TORSDOF 3
