REMARK  7 active torsions:
REMARK  status: ('A' for Active; 'I' for Inactive)
REMARK    1  A    between atoms: C_2  and  S_1 
REMARK    2  A    between atoms: N_6  and  S_1 
REMARK    3  A    between atoms: O_17  and  C_5 
REMARK    4  A    between atoms: C_19  and  N_6 
REMARK    5  A    between atoms: O_20  and  C_7 
REMARK    6  A    between atoms: C_12  and  C_21 
REMARK    7  A    between atoms: C_21  and  C_19 
ROOT
ATOM      1  N   UNL d   1       2.528   0.044   0.045  0.00  0.00    -0.215 NA
ATOM      2  H   UNL d   1       2.907   0.297  -0.865  0.00  0.00     0.139 HD
ENDROOT
BRANCH   1   3
ATOM      3  S   UNL d   1       0.838  -0.045   0.001  0.00  0.00     0.241 S 
ATOM      4  O   UNL d   1       0.488  -0.814  -1.168  0.00  0.00    -0.206 OA
ATOM      5  O   UNL d   1       0.357  -0.383   1.323  0.00  0.00    -0.206 OA
BRANCH   3   6
ATOM      6  C   UNL d   1       0.401   1.651  -0.328  0.00  0.00     0.074 A 
ATOM      7  C   UNL d   1       0.261   2.079  -1.652  0.00  0.00     0.026 A 
ATOM      8  C   UNL d   1      -0.113   3.398  -1.912  0.00  0.00     0.025 A 
ATOM      9  C   UNL d   1      -0.345   4.277  -0.851  0.00  0.00     0.034 A 
ATOM     10  C   UNL d   1      -0.201   3.849   0.469  0.00  0.00     0.025 A 
ATOM     11 CL   UNL d   1      -0.823   5.897  -1.175  0.00  0.00    -0.084 Cl
ATOM     12  C   UNL d   1       0.164   2.528   0.736  0.00  0.00     0.026 A 
ENDBRANCH   3   6
ENDBRANCH   1   3
BRANCH   1  13
ATOM     13  C   UNL d   1       3.117   0.716   1.218  0.00  0.00     0.109 C 
BRANCH  13  14
ATOM     14  C   UNL d   1       4.640   0.673   1.155  0.00  0.00     0.054 C 
BRANCH  14  15
ATOM     15  C   UNL d   1       5.244   1.398   2.333  0.00  0.00    -0.054 A 
ATOM     16  C   UNL d   1       5.429   2.790   2.289  0.00  0.00     0.046 A 
ATOM     17  C   UNL d   1       6.031   3.484   3.350  0.00  0.00     0.102 A 
ATOM     18  C   UNL d   1       6.408   2.767   4.499  0.00  0.00     0.101 A 
ATOM     19  C   UNL d   1       6.202   1.382   4.549  0.00  0.00     0.040 A 
ATOM     20  C   UNL d   1       5.616   0.701   3.483  0.00  0.00     0.010 A 
BRANCH  17  21
ATOM     21  O   UNL d   1       6.316   4.822   3.302  0.00  0.00    -0.353 OA
ATOM     22  C   UNL d   1       5.966   5.546   2.130  0.00  0.00     0.210 C 
ENDBRANCH  17  21
BRANCH  18  23
ATOM     23  O   UNL d   1       7.040   3.255   5.614  0.00  0.00    -0.353 OA
ATOM     24  C   UNL d   1       6.745   4.594   5.990  0.00  0.00     0.210 C 
ENDBRANCH  18  23
ENDBRANCH  14  15
ENDBRANCH  13  14
ENDBRANCH   1  13
TORSDOF 7
