REMARK  4 active torsions:
REMARK  status: ('A' for Active; 'I' for Inactive)
REMARK    1  A    between atoms: C_7  and  C_1 
REMARK    2  A    between atoms: S_8  and  C_12 
REMARK    3  A    between atoms: C_11  and  S_8 
REMARK    4  A    between atoms: C_12  and  C_13 
ROOT
ATOM      1  C   UNL d   1      -3.278  -1.485  -0.015  0.00  0.00    -0.002 A 
ATOM      2  C   UNL d   1      -4.134  -1.101  -1.058  0.00  0.00     0.015 A 
ATOM      3  C   UNL d   1      -3.751  -2.432   0.905  0.00  0.00     0.015 A 
ATOM      4  C   UNL d   1      -5.893  -2.581  -0.245  0.00  0.00    -0.049 A 
ATOM      5  C   UNL d   1      -5.026  -2.986   0.778  0.00  0.00     0.009 A 
ATOM      6  C   UNL d   1      -5.420  -1.647  -1.178  0.00  0.00     0.009 A 
ENDROOT
BRANCH   1   7
ATOM      7  C   UNL d   1      -1.939  -0.877   0.106  0.00  0.00     0.085 A 
ATOM      8  N   UNL d   1      -1.603   0.297  -0.391  0.00  0.00    -0.349 N 
ATOM      9  C   UNL d   1      -0.297   0.610  -0.050  0.00  0.00     0.050 A 
ATOM     10  HN  UNL d   1      -2.217   0.891  -0.948  1.00  0.00     0.166 HD
ATOM     11  C   UNL d   1       0.383   1.804  -0.362  0.00  0.00     0.031 A 
ATOM     12  C   UNL d   1       0.380  -0.369   0.680  0.00  0.00     0.033 A 
ATOM     13  C   UNL d   1       1.701   1.989   0.067  0.00  0.00     0.002 A 
ATOM     14  C   UNL d   1       2.353   0.999   0.796  0.00  0.00     0.002 A 
ATOM     15  C   UNL d   1       1.704  -0.199   1.112  0.00  0.00     0.021 A 
ATOM     16  S   UNL d   1      -0.663  -1.708   0.918  0.00  0.00    -0.070 SA
ENDBRANCH   1   7
BRANCH   4  17
ATOM     17  C   UNL d   1      -7.276  -3.179  -0.402  0.00  0.00     0.117 C 
BRANCH  17  18
ATOM     18  S   UNL d   1      -8.130  -3.466   1.192  0.00  0.00    -0.125 SA
BRANCH  18  19
ATOM     19  C   UNL d   1      -9.687  -4.100   0.613  0.00  0.00     0.000 A 
ATOM     20  C   UNL d   1      -9.774  -5.260  -0.161  0.00  0.00     0.019 A 
ATOM     21  C   UNL d   1     -11.020  -5.726  -0.589  0.00  0.00     0.008 A 
ATOM     22  C   UNL d   1     -12.191  -5.043  -0.240  0.00  0.00    -0.062 A 
ATOM     23  C   UNL d   1     -12.101  -3.899   0.557  0.00  0.00     0.008 A 
ATOM     24  C   UNL d   1     -13.522  -5.539  -0.723  0.00  0.00     0.048 C 
ATOM     25  C   UNL d   1     -10.856  -3.435   0.985  0.00  0.00     0.019 A 
ENDBRANCH  18  19
ENDBRANCH  17  18
ENDBRANCH   4  17
TORSDOF 4
