REMARK  6 active torsions:
REMARK  status: ('A' for Active; 'I' for Inactive)
REMARK    1  A    between atoms: C_2  and  N_1 
REMARK       I    between atoms: C_3  and  N_1 
REMARK    2  A    between atoms: C_15  and  C_3 
REMARK    3  A    between atoms: C_5  and  C_16 
REMARK    4  A    between atoms: O_12  and  C_5 
REMARK    5  A    between atoms: O_11  and  C_15 
REMARK    6  A    between atoms: C_16  and  O_11 
ROOT
ATOM      1  N   UNL d   1       1.205  -0.148  -0.122  0.00  0.00    -0.325 N 
ATOM      2  C   UNL d   1       2.565   0.076   0.032  0.00  0.00     0.245 C 
ATOM      3  O   UNL d   1       3.356  -0.706   0.546  0.00  0.00    -0.271 OA
ATOM      4  H   UNL d   1       0.738   0.341  -0.876  0.00  0.00     0.169 HD
ENDROOT
BRANCH   1   5
ATOM      5  C   UNL d   1       0.512  -1.235   0.454  0.00  0.00     0.040 A 
ATOM      6  C   UNL d   1      -0.532  -1.863  -0.251  0.00  0.00    -0.034 A 
ATOM      7  C   UNL d   1      -1.272  -2.876   0.390  0.00  0.00     0.032 A 
ATOM      8  C   UNL d   1      -0.849  -1.588  -1.696  0.00  0.00     0.050 C 
ATOM      9  C   UNL d   1      -0.970  -3.265   1.694  0.00  0.00     0.034 A 
ATOM     10  C   UNL d   1       0.076  -2.660   2.380  0.00  0.00     0.026 A 
ATOM     11 CL   UNL d   1      -1.888  -4.508   2.450  0.00  0.00    -0.084 Cl
ATOM     12  C   UNL d   1       0.817  -1.651   1.760  0.00  0.00     0.032 A 
ENDBRANCH   1   5
BRANCH   2  13
ATOM     13  C   UNL d   1       3.034   1.414  -0.577  0.00  0.00     0.271 C 
BRANCH  13  14
ATOM     14  O   UNL d   1       4.205   1.405  -1.390  0.00  0.00    -0.372 OA
BRANCH  14  15
ATOM     15  C   UNL d   1       4.075   0.581  -2.545  0.00  0.00     0.277 C 
BRANCH  15  16
ATOM     16  C   UNL d   1       3.087   1.163  -3.546  0.00  0.00     0.164 C 
ATOM     17  O   UNL d   1       2.120   0.569  -3.987  0.00  0.00    -0.648 OA
BRANCH  16  18
ATOM     18  O   UNL d   1       3.360   2.458  -3.842  0.00  0.00    -0.775 OA
ATOM     19  H   UNL d   1       4.133   2.785  -3.334  0.00  0.00     0.167 HD
ENDBRANCH  16  18
ENDBRANCH  15  16
ENDBRANCH  14  15
ENDBRANCH  13  14
ENDBRANCH   2  13
TORSDOF 6
