REMARK  2 active torsions:
REMARK  status: ('A' for Active; 'I' for Inactive)
REMARK    1  A    between atoms: N_5  and  C_1 
REMARK       I    between atoms: C_4  and  N_5 
REMARK       I    between atoms: N_9  and  C_4 
REMARK    2  A    between atoms: C_11  and  N_9 
ROOT
ATOM      1  C   UNL d   1       3.635   1.038  -0.223  0.00  0.00     0.326 C 
ATOM      2  N   UNL d   1       2.328   1.423  -0.230  0.00  0.00    -0.293 N 
ATOM      3  N   UNL d   1       3.905  -0.300  -0.215  0.00  0.00    -0.309 N 
ATOM      4  O   UNL d   1       4.476   1.943  -0.229  0.00  0.00    -0.247 OA
ATOM      5  H   UNL d   1       2.214   2.425  -0.227  0.00  0.00     0.172 HD
ATOM      6  H   UNL d   1       3.083  -0.894  -0.336  0.00  0.00     0.170 HD
ENDROOT
BRANCH   2   7
ATOM      7  C   UNL d   1       1.192   0.662  -0.120  0.00  0.00     0.125 A 
ATOM      8  N   UNL d   1       1.169  -0.670  -0.030  0.00  0.00    -0.284 N 
ATOM      9  N   UNL d   1      -0.134  -0.961   0.151  0.00  0.00    -0.306 N 
ATOM     10  HN  UNL d   1       1.956  -1.318  -0.085  1.00  0.00     0.188 HD
ATOM     11  C   UNL d   1      -0.532  -2.326   0.395  0.00  0.00     0.177 C 
ATOM     12  C   UNL d   1      -0.947   0.133   0.130  0.00  0.00     0.113 A 
ATOM     13  C   UNL d   1      -0.111   1.208  -0.063  0.00  0.00     0.069 A 
ENDBRANCH   2   7
BRANCH   3  14
ATOM     14  C   UNL d   1       5.152  -0.918   0.011  0.00  0.00     0.036 A 
ATOM     15  C   UNL d   1       6.272  -0.216   0.471  0.00  0.00     0.031 A 
ATOM     16  C   UNL d   1       7.441  -0.891   0.838  0.00  0.00     0.026 A 
ATOM     17  C   UNL d   1       7.507  -2.274   0.717  0.00  0.00     0.034 A 
ATOM     18  C   UNL d   1       6.429  -2.981   0.190  0.00  0.00     0.026 A 
ATOM     19 CL   UNL d   1       8.909  -3.111   1.257  0.00  0.00    -0.084 Cl
ATOM     20  C   UNL d   1       5.251  -2.305  -0.156  0.00  0.00     0.031 A 
ENDBRANCH   3  14
TORSDOF 2
