REMARK  3 active torsions:
REMARK  status: ('A' for Active; 'I' for Inactive)
REMARK    1  A    between atoms: C_14  and  C_3 
REMARK    2  A    between atoms: C_13  and  C_4 
REMARK    3  A    between atoms: C_7  and  C_15 
ROOT
ATOM      1  N   UNL d   1       1.392  -0.600  -0.022  0.00  0.00    -0.349 N 
ATOM      2  HN  UNL d   1       2.271  -1.117  -0.028  1.00  0.00     0.166 HD
ATOM      3  C   UNL d   1       0.194  -1.154  -0.042  0.00  0.00     0.084 A 
ATOM      4  C   UNL d   1       1.289   0.784   0.007  0.00  0.00     0.050 A 
ATOM      5  S   UNL d   1      -1.117  -0.033   0.009  0.00  0.00    -0.081 SA
ATOM      6  C   UNL d   1      -0.004   1.266   0.018  0.00  0.00     0.082 A 
ENDROOT
BRANCH   3   7
ATOM      7  C   UNL d   1      -0.057  -2.606  -0.059  0.00  0.00    -0.002 A 
ATOM      8  C   UNL d   1       0.860  -3.474   0.555  0.00  0.00     0.015 A 
ATOM      9  C   UNL d   1       0.654  -4.861   0.559  0.00  0.00     0.014 A 
ATOM     10  C   UNL d   1      -0.471  -5.415  -0.065  0.00  0.00    -0.008 A 
ATOM     11  C   UNL d   1      -1.379  -4.554  -0.695  0.00  0.00     0.014 A 
ATOM     12  C   UNL d   1      -1.175  -3.169  -0.691  0.00  0.00     0.015 A 
BRANCH  10  13
ATOM     13  C   UNL d   1      -0.708  -6.852  -0.101  0.00  0.00     0.063 A 
ATOM     14  N   UNL d   1      -1.387  -7.440  -1.165  0.00  0.00    -0.292 N 
ATOM     15  N   UNL d   1      -1.506  -8.748  -1.015  0.00  0.00    -0.061 NA
ATOM     16  HN  UNL d   1      -1.749  -6.922  -1.966  1.00  0.00     0.183 HD
ATOM     17  S   UNL d   1      -0.828  -9.302   0.408  0.00  0.00    -0.010 SA
ATOM     18  C   UNL d   1      -0.324  -7.735   0.893  0.00  0.00     0.096 A 
ENDBRANCH  10  13
ENDBRANCH   3   7
BRANCH   4  19
ATOM     19  C   UNL d   1       2.471   1.638  -0.009  0.00  0.00    -0.006 A 
ATOM     20  C   UNL d   1       3.633   1.199  -0.656  0.00  0.00     0.056 A 
ATOM     21  C   UNL d   1       4.755   2.021  -0.699  0.00  0.00     0.117 A 
ATOM     22  F   UNL d   1       5.857   1.600  -1.333  0.00  0.00    -0.206 F 
ATOM     23  C   UNL d   1       4.753   3.276  -0.101  0.00  0.00     0.042 A 
ATOM     24  C   UNL d   1       3.609   3.718   0.558  0.00  0.00     0.004 A 
ATOM     25  C   UNL d   1       2.474   2.902   0.605  0.00  0.00     0.014 A 
ENDBRANCH   4  19
TORSDOF 3
