REMARK  3 active torsions:
REMARK  status: ('A' for Active; 'I' for Inactive)
REMARK    1  A    between atoms: N_2  and  C_1 
REMARK       I    between atoms: C_3  and  N_2 
REMARK    2  A    between atoms: C_6  and  N_2 
REMARK       I    between atoms: N_9  and  C_3 
REMARK    3  A    between atoms: C_16  and  N_9 
ROOT
ATOM      1  N   UNL d   1       2.115   1.425  -0.273  0.00  0.00    -0.244 N 
ATOM      2  C   UNL d   1       3.491   1.024  -0.290  0.00  0.00     0.333 C 
ATOM      3  N   UNL d   1       3.702  -0.307  -0.625  0.00  0.00    -0.308 N 
ATOM      4  O   UNL d   1       4.407   1.798  -0.009  0.00  0.00    -0.246 OA
ATOM      5  H   UNL d   1       2.873  -0.858  -0.792  0.00  0.00     0.170 HD
ENDROOT
BRANCH   1   6
ATOM      6  C   UNL d   1       1.010   0.586  -0.019  0.00  0.00     0.151 C 
ATOM      7  N   UNL d   1      -0.213   0.890  -0.316  0.00  0.00    -0.369 N 
ATOM      8  C   UNL d   1      -1.139  -0.204   0.029  0.00  0.00     0.137 C 
ATOM      9  HN  UNL d   1      -0.499   1.774  -0.735  1.00  0.00     0.161 HD
ATOM     10  C   UNL d   1      -0.536  -1.085   1.115  0.00  0.00     0.069 C 
ATOM     11  S   UNL d   1       1.228  -0.972   0.753  0.00  0.00    -0.087 SA
ATOM     12  C   UNL d   1      -0.817  -0.575   2.522  0.00  0.00     0.023 C 
ENDBRANCH   1   6
BRANCH   1  13
ATOM     13  C   UNL d   1       1.859   2.866  -0.365  0.00  0.00     0.048 A 
ATOM     14  C   UNL d   1       2.690   3.712  -1.125  0.00  0.00     0.056 A 
ATOM     15  C   UNL d   1       2.451   5.093  -1.204  0.00  0.00     0.058 A 
ATOM     16 CL   UNL d   1       3.539   6.044  -2.157  0.00  0.00    -0.082 Cl
ATOM     17  C   UNL d   1       1.367   5.662  -0.536  0.00  0.00     0.055 A 
ATOM     18  C   UNL d   1       0.532   4.845   0.224  0.00  0.00     0.028 A 
ATOM     19 CL   UNL d   1       0.998   7.346  -0.603  0.00  0.00    -0.083 Cl
ATOM     20  C   UNL d   1       0.784   3.469   0.315  0.00  0.00     0.032 A 
ENDBRANCH   1  13
BRANCH   3  21
ATOM     21  C   UNL d   1       4.905  -1.046  -0.548  0.00  0.00     0.036 A 
ATOM     22  C   UNL d   1       6.149  -0.494  -0.236  0.00  0.00     0.031 A 
ATOM     23  C   UNL d   1       7.279  -1.311  -0.108  0.00  0.00     0.026 A 
ATOM     24  C   UNL d   1       7.171  -2.685  -0.298  0.00  0.00     0.034 A 
ATOM     25  C   UNL d   1       5.944  -3.249  -0.632  0.00  0.00     0.026 A 
ATOM     26 CL   UNL d   1       8.554  -3.690  -0.107  0.00  0.00    -0.084 Cl
ATOM     27  C   UNL d   1       4.817  -2.431  -0.760  0.00  0.00     0.031 A 
ENDBRANCH   3  21
TORSDOF 3
