REMARK  4 active torsions:
REMARK  status: ('A' for Active; 'I' for Inactive)
REMARK    1  A    between atoms: C_8  and  C_1 
REMARK    2  A    between atoms: C_4  and  C_2 
REMARK    3  A    between atoms: O_13  and  C_8 
REMARK    4  A    between atoms: C_20  and  O_13 
ROOT
ATOM      1  C   UNL d   1       1.444   1.045   0.066  0.00  0.00     0.067 C 
ATOM      2  C   UNL d   1       0.190   1.887  -0.046  0.00  0.00     0.166 C 
ATOM      3  C   UNL d   1       1.375  -0.305   0.014  0.00  0.00     0.024 C 
ATOM      4  C   UNL d   1      -1.062  -0.256  -0.038  0.00  0.00     0.321 C 
ATOM      5  N   UNL d   1       0.135  -0.897  -0.092  0.00  0.00    -0.312 N 
ATOM      6  N   UNL d   1      -1.013   1.086   0.113  0.00  0.00    -0.330 N 
ATOM      7  O   UNL d   1      -2.127  -0.859  -0.095  0.00  0.00    -0.247 OA
ATOM      8  C   UNL d   1       2.507  -1.300   0.031  0.00  0.00     0.069 C 
ATOM      9  H   UNL d   1       0.061  -1.907  -0.147  0.00  0.00     0.170 HD
ATOM     10  H   UNL d   1      -1.917   1.538   0.097  0.00  0.00     0.165 HD
ENDROOT
BRANCH   2  11
ATOM     11  C   UNL d   1       0.074   3.099   0.859  0.00  0.00     0.030 A 
ATOM     12  C   UNL d   1       0.152   3.058   2.260  0.00  0.00     0.045 A 
ATOM     13 CL   UNL d   1       0.411   1.590   3.134  0.00  0.00    -0.084 Cl
ATOM     14  C   UNL d   1       0.007   4.228   3.018  0.00  0.00     0.024 A 
ATOM     15  C   UNL d   1      -0.224   5.454   2.398  0.00  0.00     0.005 A 
ATOM     16  C   UNL d   1      -0.312   5.514   1.013  0.00  0.00     0.043 A 
ATOM     17  C   UNL d   1      -0.166   4.348   0.265  0.00  0.00     0.126 A 
ATOM     18  F   UNL d   1      -0.270   4.445  -1.070  0.00  0.00    -0.205 F 
ENDBRANCH   2  11
BRANCH   1  19
ATOM     19  C   UNL d   1       2.752   1.738   0.196  0.00  0.00     0.293 C 
ATOM     20  O   UNL d   1       3.746   1.253   0.716  0.00  0.00    -0.259 OA
BRANCH  19  21
ATOM     21  O   UNL d   1       2.694   2.988  -0.331  0.00  0.00    -0.318 OA
BRANCH  21  22
ATOM     22  C   UNL d   1       3.907   3.755  -0.238  0.00  0.00     0.174 C 
ATOM     23  C   UNL d   1       4.148   4.262   1.175  0.00  0.00     0.034 C 
ENDBRANCH  21  22
ENDBRANCH  19  21
ENDBRANCH   1  19
TORSDOF 4
