REMARK  4 active torsions:
REMARK  status: ('A' for Active; 'I' for Inactive)
REMARK    1  A    between atoms: O_5  and  C_1 
REMARK    2  A    between atoms: S_2  and  O_5 
REMARK    3  A    between atoms: C_11  and  S_2 
REMARK    4  A    between atoms: C_12  and  C_3 
ROOT
ATOM      1  C   UNL d   1      -2.335  -0.193  -0.003  0.00  0.00     0.175 A 
ATOM      2  C   UNL d   1      -1.871  -1.458  -0.025  0.00  0.00     0.125 A 
ATOM      3  C   UNL d   1      -1.329   0.902  -0.074  0.00  0.00     0.222 A 
ATOM      4  O   UNL d   1      -0.538  -1.824  -0.006  0.00  0.00    -0.306 OA
ATOM      5  C   UNL d   1       0.087   0.513   0.010  0.00  0.00     0.051 A 
ATOM      6  C   UNL d   1       0.409  -0.838   0.023  0.00  0.00     0.090 A 
ATOM      7  O   UNL d   1      -1.645   2.066  -0.289  0.00  0.00    -0.284 OA
ATOM      8  C   UNL d   1       1.098   1.479   0.012  0.00  0.00     0.018 A 
ATOM      9  C   UNL d   1       1.745  -1.239   0.034  0.00  0.00     0.038 A 
ATOM     10  C   UNL d   1       2.435   1.079   0.017  0.00  0.00     0.001 A 
ATOM     11  C   UNL d   1       2.758  -0.279   0.025  0.00  0.00     0.003 A 
ENDROOT
BRANCH   1  12
ATOM     12  O   UNL d   1      -3.691   0.085  -0.060  0.00  0.00    -0.222 OA
BRANCH  12  13
ATOM     13  S   UNL d   1      -4.402   1.339   0.708  0.00  0.00     0.303 S 
ATOM     14  O   UNL d   1      -5.744   0.912   1.063  0.00  0.00    -0.193 OA
ATOM     15  O   UNL d   1      -3.523   1.853   1.745  0.00  0.00    -0.193 OA
BRANCH  13  16
ATOM     16  C   UNL d   1      -4.635   2.588  -0.544  0.00  0.00     0.086 A 
ATOM     17  C   UNL d   1      -4.900   2.194  -1.861  0.00  0.00     0.026 A 
ATOM     18  C   UNL d   1      -5.142   3.165  -2.833  0.00  0.00     0.002 A 
ATOM     19  C   UNL d   1      -5.119   4.517  -2.490  0.00  0.00     0.000 A 
ATOM     20  C   UNL d   1      -4.841   4.906  -1.178  0.00  0.00     0.002 A 
ATOM     21  C   UNL d   1      -4.593   3.941  -0.198  0.00  0.00     0.026 A 
ENDBRANCH  13  16
ENDBRANCH  12  13
ENDBRANCH   1  12
BRANCH   2  22
ATOM     22  C   UNL d   1      -2.759  -2.625  -0.134  0.00  0.00     0.001 A 
ATOM     23  C   UNL d   1      -3.095  -3.121  -1.401  0.00  0.00     0.014 A 
ATOM     24  C   UNL d   1      -3.873  -4.274  -1.527  0.00  0.00     0.001 A 
ATOM     25  C   UNL d   1      -4.319  -4.939  -0.387  0.00  0.00     0.000 A 
ATOM     26  C   UNL d   1      -3.994  -4.449   0.878  0.00  0.00     0.001 A 
ATOM     27  C   UNL d   1      -3.217  -3.294   1.007  0.00  0.00     0.014 A 
ENDBRANCH   2  22
TORSDOF 4
