REMARK  8 active torsions:
REMARK  status: ('A' for Active; 'I' for Inactive)
REMARK       I    between atoms: N_9  and  C1_1 
REMARK    1  A    between atoms: C5_3  and  C1_1 
REMARK    2  A    between atoms: CA_12  and  N_9 
REMARK       I    between atoms: NH1_13  and  CZ_10 
REMARK       I    between atoms: NH2_17  and  CZ_10 
REMARK    3  A    between atoms: C_11  and  CA_12 
REMARK    4  A    between atoms: OXT_18  and  C_11 
REMARK    5  A    between atoms: CB_19  and  CA_12 
REMARK    6  A    between atoms: NE_16  and  CD_20 
REMARK    7  A    between atoms: CG_21  and  CB_19 
REMARK    8  A    between atoms: CD_20  and  CG_21 
ROOT
ATOM      1  CA  ARG d   1       1.012  -2.449   0.292  0.00  0.00     0.182 C 
ENDROOT
BRANCH   1   2
ATOM      2  C   ARG d   1       1.580  -2.628   1.721  0.00  0.00     0.163 C 
ATOM      3  O   ARG d   1       1.542  -3.680   2.344  0.00  0.00    -0.648 OA
BRANCH   2   4
ATOM      4  OXT ARG d   1       2.240  -1.551   2.205  0.00  0.00    -0.775 OA
ATOM      5  HXT ARG d   1       2.370  -0.850   1.522  0.00  0.00     0.167 HD
ENDBRANCH   2   4
ENDBRANCH   1   2
BRANCH   1   6
ATOM      6  N   ARG d   1       0.406  -1.126   0.077  0.00  0.00    -0.343 N 
ATOM      7  C1  <1> d   1       1.134   0.017  -0.146  0.00  0.00     0.252 C 
ATOM      8  O1  <1> d   1       2.350   0.018   0.030  0.00  0.00    -0.268 OA
ATOM      9  H   ARG d   1      -0.594  -1.108  -0.051  0.00  0.00     0.163 HD
BRANCH   7  10
ATOM     10  C5  <1> d   1       0.394   1.261  -0.519  0.00  0.00     0.032 A 
ATOM     11  C7  <1> d   1      -1.001   1.374  -0.424  0.00  0.00     0.017 A 
ATOM     12  C11 <1> d   1      -1.633   2.582  -0.726  0.00  0.00     0.001 A 
ATOM     13  C13 <1> d   1      -0.882   3.686  -1.123  0.00  0.00     0.000 A 
ATOM     14  C12 <1> d   1       0.503   3.579  -1.237  0.00  0.00     0.001 A 
ATOM     15  C8  <1> d   1       1.139   2.372  -0.939  0.00  0.00     0.017 A 
ENDBRANCH   7  10
ENDBRANCH   1   6
BRANCH   1  16
ATOM     16  CB  ARG d   1      -0.025  -3.554   0.009  0.00  0.00     0.038 C 
BRANCH  16  17
ATOM     17  CG  ARG d   1      -0.581  -3.505  -1.418  0.00  0.00     0.022 C 
BRANCH  17  18
ATOM     18  CD  ARG d   1      -1.602  -4.617  -1.660  0.00  0.00     0.122 C 
BRANCH  18  19
ATOM     19  NE  ARG d   1      -2.134  -4.502  -3.000  0.00  0.00    -0.367 N 
ATOM     20  CZ  ARG d   1      -3.072  -5.315  -3.524  0.00  0.00     0.143 C 
ATOM     21  NH1 ARG d   1      -3.961  -5.994  -2.900  0.00  0.00    -0.376 N 
ATOM     22  NH2 ARG d   1      -3.022  -5.365  -4.868  0.00  0.00    -0.274 NA
ATOM     23  HH1 ARG d   1      -3.886  -5.807  -1.900  0.00  0.00     0.158 HD
ATOM     24  HH1 ARG d   1      -4.636  -6.622  -3.335  1.00  0.00     0.158 HD
ATOM     25 1HH2 ARG d   1      -2.100  -5.548  -5.237  0.00  0.00     0.127 HD
ATOM     26 2HH2 ARG d   1      -3.674  -6.074  -5.194  0.00  0.00     0.127 HD
ATOM     27  HE  ARG d   1      -1.537  -4.050  -3.681  0.00  0.00     0.162 HD
ENDBRANCH  18  19
ENDBRANCH  17  18
ENDBRANCH  16  17
ENDBRANCH   1  16
TORSDOF 8
