REMARK  3 active torsions:
REMARK  status: ('A' for Active; 'I' for Inactive)
REMARK    1  A    between atoms: C_6  and  N_1 
REMARK    2  A    between atoms: N_7  and  C_6 
REMARK    3  A    between atoms: C_8  and  C_11 
REMARK       I    between atoms: N_17  and  C_8 
ROOT
ATOM      1  C   UNL d   1       3.257   0.036  -0.121  0.00  0.00     0.408 C 
ENDROOT
BRANCH   1   2
ATOM      2  N   UNL d   1       1.810   0.024  -0.125  0.00  0.00    -0.252 N 
ATOM      3  C   UNL d   1       1.035   0.049   1.003  0.00  0.00     0.263 A 
ATOM      4  C   UNL d   1      -0.356  -0.039   0.554  0.00  0.00     0.048 A 
ATOM      5  O   UNL d   1       1.366   0.079   2.171  0.00  0.00    -0.267 OA
ATOM      6  C   UNL d   1      -1.537  -0.008   1.272  0.00  0.00     0.018 A 
ATOM      7  C   UNL d   1      -0.341  -0.202  -0.818  0.00  0.00     0.048 A 
ATOM      8  C   UNL d   1      -2.727  -0.156   0.551  0.00  0.00     0.001 A 
ATOM      9  C   UNL d   1      -2.709  -0.335  -0.848  0.00  0.00     0.001 A 
ATOM     10  C   UNL d   1      -1.502  -0.358  -1.552  0.00  0.00     0.018 A 
ATOM     11  C   UNL d   1       1.056  -0.195  -1.246  0.00  0.00     0.263 A 
ATOM     12  O   UNL d   1       1.409  -0.379  -2.395  0.00  0.00    -0.267 OA
ENDBRANCH   1   2
BRANCH   1  13
ATOM     13  N   UNL d   1       3.836   1.386  -0.234  0.00  0.00     0.106 N 
ATOM     14  C   UNL d   1       3.425   2.081  -1.456  0.00  0.00     0.275 C 
ATOM     15  C   UNL d   1       4.095   3.450  -1.592  0.00  0.00     0.044 C 
ATOM     16  C   UNL d   1       3.850   4.321  -0.357  0.00  0.00     0.081 C 
ATOM     17  C   UNL d   1       4.303   3.555   0.889  0.00  0.00     0.044 C 
ATOM     18  C   UNL d   1       3.644   2.176   0.987  0.00  0.00     0.275 C 
BRANCH  16  19
ATOM     19  C   UNL d   1       2.395   4.774  -0.246  0.00  0.00     0.219 C 
ATOM     20  O   UNL d   1       1.662   4.554   0.712  0.00  0.00    -0.273 OA
ATOM     21  N   UNL d   1       1.924   5.499  -1.302  0.00  0.00    -0.370 N 
ATOM     22  H   UNL d   1       2.537   5.907  -1.994  0.00  0.00     0.159 HD
ATOM     23  H   UNL d   1       0.990   5.876  -1.208  0.00  0.00     0.159 HD
ENDBRANCH  16  19
ENDBRANCH   1  13
TORSDOF 3
