REMARK  7 active torsions:
REMARK  status: ('A' for Active; 'I' for Inactive)
REMARK    1  A    between atoms: C_2  and  S_1 
REMARK    2  A    between atoms: C_24  and  S_1 
REMARK    3  A    between atoms: C_3  and  C_7 
REMARK    4  A    between atoms: C_4  and  C_8 
REMARK    5  A    between atoms: N_12  and  N_5 
REMARK    6  A    between atoms: C_15  and  N_12 
REMARK    7  A    between atoms: C_25  and  C_24 
ROOT
ATOM      1  C   UNL d   1       0.617  -1.760  -0.389  0.00  0.00     0.224 C 
ATOM      2  N   UNL d   1      -0.248  -2.325   0.405  0.00  0.00    -0.281 N 
ATOM      3  HN  UNL d   1      -0.685  -3.204   0.128  1.00  0.00     0.188 HD
ATOM      4  C   UNL d   1       1.205  -0.502  -0.032  0.00  0.00     0.131 C 
ATOM      5  N   UNL d   1       1.611   0.532   0.314  0.00  0.00    -0.189 NA
ENDROOT
BRANCH   1   6
ATOM      6  S   UNL d   1       1.085  -2.515  -1.897  0.00  0.00     0.202 S 
ATOM      7  O   UNL d   1       1.675  -3.795  -1.556  0.00  0.00    -0.220 OA
ATOM      8  O   UNL d   1       1.827  -1.524  -2.655  0.00  0.00    -0.220 OA
BRANCH   6   9
ATOM      9  C   UNL d   1      -0.465  -2.800  -2.735  0.00  0.00     0.148 C 
BRANCH   9  10
ATOM     10  C   UNL d   1      -0.241  -3.475  -4.085  0.00  0.00     0.011 C 
ATOM     11  C   UNL d   1      -1.546  -3.691  -4.832  0.00  0.00     0.006 C 
ENDBRANCH   9  10
ENDBRANCH   6   9
ENDBRANCH   1   6
BRANCH   2  12
ATOM     12  N   UNL d   1      -0.576  -1.757   1.602  0.00  0.00    -0.299 N 
ATOM     13  H   UNL d   1      -0.400  -0.780   1.843  0.00  0.00     0.187 HD
BRANCH  12  14
ATOM     14  C   UNL d   1      -1.372  -2.490   2.503  0.00  0.00     0.049 A 
ATOM     15  C   UNL d   1      -1.830  -3.777   2.198  0.00  0.00     0.047 A 
ATOM     16  C   UNL d   1      -2.574  -4.538   3.115  0.00  0.00     0.050 A 
ATOM     17  C   UNL d   1      -2.867  -3.987   4.368  0.00  0.00     0.032 A 
ATOM     18  C   UNL d   1      -2.396  -2.712   4.719  0.00  0.00     0.050 A 
ATOM     19  C   UNL d   1      -1.648  -1.977   3.779  0.00  0.00     0.047 A 
BRANCH  16  20
ATOM     20  C   UNL d   1      -3.004  -5.934   2.740  0.00  0.00     0.417 C 
ATOM     21  F   UNL d   1      -3.679  -6.577   3.732  0.00  0.00    -0.166 F 
ATOM     22  F   UNL d   1      -3.824  -5.954   1.654  0.00  0.00    -0.166 F 
ATOM     23  F   UNL d   1      -1.948  -6.734   2.428  0.00  0.00    -0.166 F 
ENDBRANCH  16  20
BRANCH  18  24
ATOM     24  C   UNL d   1      -2.648  -2.150   6.099  0.00  0.00     0.417 C 
ATOM     25  F   UNL d   1      -3.426  -2.952   6.878  0.00  0.00    -0.166 F 
ATOM     26  F   UNL d   1      -1.495  -1.958   6.796  0.00  0.00    -0.166 F 
ATOM     27  F   UNL d   1      -3.273  -0.941   6.066  0.00  0.00    -0.166 F 
ENDBRANCH  18  24
ENDBRANCH  12  14
ENDBRANCH   2  12
TORSDOF 7
