REMARK  2 active torsions:
REMARK  status: ('A' for Active; 'I' for Inactive)
REMARK    1  A    between atoms: C_5  and  C_1 
REMARK    2  A    between atoms: N_8  and  C_2 
REMARK       I    between atoms: N_9  and  C_5 
ROOT
ATOM      1  C   UNL d   1       1.008  -0.726  -0.014  0.00  0.00     0.071 A 
ATOM      2  C   UNL d   1       1.087   0.661  -0.079  0.00  0.00     0.084 A 
ATOM      3  S   UNL d   1      -0.446   1.406  -0.132  0.00  0.00    -0.083 SA
ATOM      4  C   UNL d   1      -0.382  -1.170  -0.006  0.00  0.00    -0.037 A 
ATOM      5  C   UNL d   1      -1.246  -0.091  -0.070  0.00  0.00     0.059 A 
ATOM      6  C   UNL d   1      -0.894  -2.571   0.099  0.00  0.00     0.050 C 
ENDROOT
BRANCH   1   7
ATOM      7  C   UNL d   1       2.224  -1.540   0.063  0.00  0.00     0.252 C 
ATOM      8  O   UNL d   1       3.264  -1.167   0.599  0.00  0.00    -0.268 OA
ATOM      9  N   UNL d   1       2.184  -2.753  -0.563  0.00  0.00    -0.366 N 
ATOM     10  H   UNL d   1       1.474  -2.953  -1.250  0.00  0.00     0.159 HD
ATOM     11  H   UNL d   1       3.068  -3.240  -0.632  0.00  0.00     0.159 HD
ENDBRANCH   1   7
BRANCH   2  12
ATOM     12  N   UNL d   1       2.205   1.424  -0.111  0.00  0.00    -0.393 N 
ATOM     13  H   UNL d   1       3.077   1.001   0.212  0.00  0.00     0.156 HD
ATOM     14  H   UNL d   1       2.124   2.409   0.123  0.00  0.00     0.156 HD
ENDBRANCH   2  12
TORSDOF 2
