REMARK  8 active torsions:
REMARK  status: ('A' for Active; 'I' for Inactive)
REMARK    1  A    between atoms: C_2  and  C_1 
REMARK    2  A    between atoms: N_3  and  C_1 
REMARK    3  A    between atoms: N_4  and  C_1 
REMARK    4  A    between atoms: C_5  and  C_1 
REMARK    5  A    between atoms: C_6  and  N_3 
REMARK       I    between atoms: C_7  and  N_4 
REMARK    6  A    between atoms: O_14  and  C_5 
REMARK    7  A    between atoms: O_15  and  C_9 
REMARK    8  A    between atoms: C_19  and  O_14 
ROOT
ATOM      1  C   UNL d   1       0.989   0.252  -0.283  0.00  0.00     0.280 C 
ENDROOT
BRANCH   1   2
ATOM      2  C   UNL d   1       0.250   0.488  -1.651  0.00  0.00     0.436 C 
ATOM      3  F   UNL d   1      -0.626  -0.509  -1.936  0.00  0.00    -0.166 F 
ATOM      4  F   UNL d   1      -0.456   1.649  -1.657  0.00  0.00    -0.166 F 
ATOM      5  F   UNL d   1       1.096   0.549  -2.711  0.00  0.00    -0.166 F 
ENDBRANCH   1   2
BRANCH   1   6
ATOM      6  N   UNL d   1       0.928  -1.154   0.221  0.00  0.00    -0.248 NA
ATOM      7  H   UNL d   1      -0.065  -1.360   0.364  0.00  0.00     0.131 HD
BRANCH   6   8
ATOM      8  C   UNL d   1       1.503  -2.274  -0.392  0.00  0.00     0.044 A 
ATOM      9  C   UNL d   1       1.399  -3.568   0.182  0.00  0.00     0.089 A 
ATOM     10  C   UNL d   1       2.007  -4.673  -0.447  0.00  0.00     0.038 A 
ATOM     11  C   UNL d   1       2.697  -4.541  -1.644  0.00  0.00     0.003 A 
ATOM     12  C   UNL d   1       2.791  -3.290  -2.228  0.00  0.00     0.002 A 
ATOM     13  C   UNL d   1       2.219  -2.177  -1.600  0.00  0.00     0.026 A 
BRANCH   9  14
ATOM     14  O   UNL d   1       0.752  -3.975   1.320  0.00  0.00    -0.354 OA
ATOM     15  C   UNL d   1       0.194  -3.043   2.224  0.00  0.00     0.210 C 
ENDBRANCH   9  14
ENDBRANCH   6   8
ENDBRANCH   1   6
BRANCH   1  16
ATOM     16  N   UNL d   1       0.435   1.011   0.861  0.00  0.00    -0.323 N 
ATOM     17  C   UNL d   1      -0.887   0.973   1.198  0.00  0.00     0.215 C 
ATOM     18  O   UNL d   1      -1.690   0.253   0.621  0.00  0.00    -0.274 OA
ATOM     19  C   UNL d   1      -1.278   1.893   2.325  0.00  0.00     0.117 C 
ATOM     20  H   UNL d   1       1.089   1.502   1.458  0.00  0.00     0.165 HD
ENDBRANCH   1  16
BRANCH   1  21
ATOM     21  C   UNL d   1       2.433   0.817  -0.357  0.00  0.00     0.312 C 
ATOM     22  O   UNL d   1       3.371   0.456   0.354  0.00  0.00    -0.260 OA
BRANCH  21  23
ATOM     23  O   UNL d   1       2.495   1.942  -1.136  0.00  0.00    -0.319 OA
BRANCH  23  24
ATOM     24  C   UNL d   1       3.749   2.650  -1.163  0.00  0.00     0.174 C 
ATOM     25  C   UNL d   1       4.715   1.992  -2.130  0.00  0.00     0.034 C 
ENDBRANCH  23  24
ENDBRANCH  21  23
ENDBRANCH   1  21
TORSDOF 8
