REMARK  4 active torsions:
REMARK  status: ('A' for Active; 'I' for Inactive)
REMARK    1  A    between atoms: C_10  and  C_3 
REMARK    2  A    between atoms: C_12  and  C_6 
REMARK    3  A    between atoms: O_15  and  C_10 
REMARK    4  A    between atoms: C_19  and  O_15 
ROOT
ATOM      1  N   UNL d   1       0.073  -0.681   0.112  0.00  0.00    -0.283 N 
ATOM      2  C   UNL d   1       0.209   0.661  -0.004  0.00  0.00     0.150 A 
ATOM      3  C   UNL d   1      -2.327  -0.269   0.096  0.00  0.00     0.067 C 
ATOM      4  N   UNL d   1      -0.751   1.515  -0.063  0.00  0.00    -0.340 N 
ATOM      5  HN  UNL d   1      -0.560   2.508  -0.193  1.00  0.00     0.167 HD
ATOM      6  C   UNL d   1      -1.233  -1.308   0.004  0.00  0.00     0.169 C 
ATOM      7  C   UNL d   1      -2.047   1.052   0.052  0.00  0.00     0.022 C 
ATOM      8  S   UNL d   1       1.871   1.147  -0.039  0.00  0.00    -0.084 SA
ATOM      9  C   UNL d   1       1.225  -1.411   0.276  0.00  0.00     0.236 A 
ATOM     10  C   UNL d   1       2.457  -0.554   0.123  0.00  0.00     0.185 A 
ATOM     11  O   UNL d   1       1.276  -2.613   0.513  0.00  0.00    -0.272 OA
ATOM     12  C   UNL d   1      -3.040   2.186   0.131  0.00  0.00     0.069 C 
ENDROOT
BRANCH   6  13
ATOM     13  C   UNL d   1      -1.311  -2.107  -1.303  0.00  0.00    -0.030 A 
ATOM     14  C   UNL d   1      -1.219  -1.476  -2.557  0.00  0.00     0.009 A 
ATOM     15  C   UNL d   1      -1.247  -2.228  -3.733  0.00  0.00     0.001 A 
ATOM     16  C   UNL d   1      -1.366  -3.614  -3.673  0.00  0.00     0.000 A 
ATOM     17  C   UNL d   1      -1.464  -4.253  -2.439  0.00  0.00     0.001 A 
ATOM     18  C   UNL d   1      -1.439  -3.505  -1.261  0.00  0.00     0.009 A 
ENDBRANCH   6  13
BRANCH   3  19
ATOM     19  C   UNL d   1      -3.675  -0.884   0.195  0.00  0.00     0.293 C 
ATOM     20  O   UNL d   1      -3.874  -1.970   0.714  0.00  0.00    -0.259 OA
BRANCH  19  21
ATOM     21  O   UNL d   1      -4.572  -0.160  -0.509  0.00  0.00    -0.318 OA
BRANCH  21  22
ATOM     22  C   UNL d   1      -5.773  -0.830  -0.910  0.00  0.00     0.174 C 
ATOM     23  C   UNL d   1      -5.590  -1.207  -2.367  0.00  0.00     0.034 C 
ENDBRANCH  21  22
ENDBRANCH  19  21
ENDBRANCH   3  19
TORSDOF 4
