REMARK  5 active torsions:
REMARK  status: ('A' for Active; 'I' for Inactive)
REMARK    1  A    between atoms: C_10  and  C_1 
REMARK    2  A    between atoms: C_15  and  C_7 
REMARK    3  A    between atoms: C_8  and  C_13 
REMARK    4  A    between atoms: C_9  and  C_12 
REMARK    5  A    between atoms: C_14  and  C_10 
ROOT
ATOM      1  C   UNL d   1       4.760   2.985  -0.450  0.00  0.00     0.086 A 
ATOM      2  O   UNL d   1       4.221   1.802  -0.866  0.00  0.00    -0.310 OA
ATOM      3  C   UNL d   1       3.303   1.380   0.064  0.00  0.00     0.077 A 
ATOM      4  C   UNL d   1       4.161   3.363   0.733  0.00  0.00     0.041 A 
ATOM      5  C   UNL d   1       3.237   2.342   1.061  0.00  0.00     0.040 A 
ENDROOT
BRANCH   1   6
ATOM      6  C   UNL d   1       5.833   3.537  -1.276  0.00  0.00    -0.001 A 
ATOM      7  C   UNL d   1       6.224   2.915  -2.473  0.00  0.00     0.030 A 
ATOM      8  C   UNL d   1       7.322   3.381  -3.218  0.00  0.00     0.049 A 
ATOM      9  C   UNL d   1       8.025   4.504  -2.761  0.00  0.00     0.032 A 
ATOM     10  C   UNL d   1       7.662   5.143  -1.567  0.00  0.00     0.049 A 
ATOM     11  C   UNL d   1       6.552   4.664  -0.848  0.00  0.00     0.030 A 
BRANCH   8  12
ATOM     12  C   UNL d   1       7.764   2.634  -4.454  0.00  0.00     0.417 C 
ATOM     13  F   UNL d   1       8.876   3.166  -5.036  0.00  0.00    -0.166 F 
ATOM     14  F   UNL d   1       8.072   1.335  -4.187  0.00  0.00    -0.166 F 
ATOM     15  F   UNL d   1       6.811   2.606  -5.423  0.00  0.00    -0.166 F 
ENDBRANCH   8  12
BRANCH  10  16
ATOM     16  C   UNL d   1       8.484   6.284  -1.015  0.00  0.00     0.417 C 
ATOM     17  F   UNL d   1       9.585   6.570  -1.764  0.00  0.00    -0.166 F 
ATOM     18  F   UNL d   1       7.780   7.444  -0.920  0.00  0.00    -0.166 F 
ATOM     19  F   UNL d   1       8.947   6.021   0.239  0.00  0.00    -0.166 F 
ENDBRANCH  10  16
ENDBRANCH   1   6
BRANCH   3  20
ATOM     20  C   UNL d   1       2.569   0.175  -0.078  0.00  0.00     0.060 C 
BRANCH  20  21
ATOM     21  C   UNL d   1       2.940  -1.004   0.454  0.00  0.00     0.103 A 
ATOM     22  C   UNL d   1       2.068  -2.162   0.130  0.00  0.00     0.265 A 
ATOM     23  N   UNL d   1       2.480  -3.369   0.622  0.00  0.00    -0.275 N 
ATOM     24  O   UNL d   1       1.039  -2.074  -0.530  0.00  0.00    -0.267 OA
ATOM     25  C   UNL d   1       3.588  -3.602   1.373  0.00  0.00     0.329 A 
ATOM     26  H   UNL d   1       1.897  -4.167   0.416  0.00  0.00     0.173 HD
ATOM     27  N   UNL d   1       4.375  -2.528   1.648  0.00  0.00    -0.275 N 
ATOM     28  O   UNL d   1       3.856  -4.723   1.794  0.00  0.00    -0.246 OA
ATOM     29  C   UNL d   1       4.135  -1.225   1.308  0.00  0.00     0.265 A 
ATOM     30  H   UNL d   1       5.178  -2.697   2.237  0.00  0.00     0.173 HD
ATOM     31  O   UNL d   1       4.866  -0.336   1.733  0.00  0.00    -0.267 OA
ENDBRANCH  20  21
ENDBRANCH   3  20
TORSDOF 5
