REMARK  4 active torsions:
REMARK  status: ('A' for Active; 'I' for Inactive)
REMARK    1  A    between atoms: C_7  and  C_2 
REMARK    2  A    between atoms: C_6  and  C_3 
REMARK    3  A    between atoms: C_8  and  C_4 
REMARK    4  A    between atoms: O_26  and  C_20 
ROOT
ATOM      1  N   UNL d   1       0.704   0.039   0.056  0.00  0.00    -0.349 N 
ATOM      2  C   UNL d   1      -1.383  -0.757  -0.109  0.00  0.00     0.004 A 
ATOM      3  C   UNL d   1      -0.118   1.151  -0.077  0.00  0.00     0.045 A 
ATOM      4  C   UNL d   1      -0.044  -1.145   0.010  0.00  0.00     0.056 A 
ATOM      5  C   UNL d   1      -1.410   0.663  -0.139  0.00  0.00     0.045 A 
ATOM      6  C   UNL d   1       2.137   0.096   0.283  0.00  0.00     0.156 C 
ENDROOT
BRANCH   3   7
ATOM      7  C   UNL d   1       0.307   2.564  -0.105  0.00  0.00    -0.008 A 
ATOM      8  C   UNL d   1      -0.446   3.538   0.573  0.00  0.00     0.026 A 
ATOM      9  C   UNL d   1      -0.091   4.903   0.545  0.00  0.00    -0.025 A 
ATOM     10  C   UNL d   1      -0.865   5.880   1.195  0.00  0.00     0.012 A 
ATOM     11  C   UNL d   1       1.063   5.301  -0.160  0.00  0.00    -0.026 A 
ATOM     12  C   UNL d   1      -0.497   7.228   1.156  0.00  0.00     0.001 A 
ATOM     13  C   UNL d   1       0.653   7.613   0.480  0.00  0.00     0.001 A 
ATOM     14  C   UNL d   1       1.434   6.658  -0.173  0.00  0.00     0.012 A 
ATOM     15  C   UNL d   1       1.814   4.332  -0.842  0.00  0.00     0.013 A 
ATOM     16  C   UNL d   1       1.423   2.988  -0.838  0.00  0.00     0.014 A 
ENDBRANCH   3   7
BRANCH   4  17
ATOM     17  C   UNL d   1       0.549  -2.498   0.133  0.00  0.00    -0.008 A 
ATOM     18  C   UNL d   1       1.663  -2.881  -0.633  0.00  0.00     0.017 A 
ATOM     19  C   UNL d   1       2.219  -4.159  -0.507  0.00  0.00     0.043 A 
ATOM     20  C   UNL d   1       1.633  -5.080   0.350  0.00  0.00     0.116 A 
ATOM     21  C   UNL d   1       0.514  -4.741   1.097  0.00  0.00     0.043 A 
ATOM     22  F   UNL d   1       2.151  -6.311   0.453  0.00  0.00    -0.206 F 
ATOM     23  C   UNL d   1      -0.012  -3.448   1.004  0.00  0.00     0.017 A 
ENDBRANCH   4  17
BRANCH   2  24
ATOM     24  C   UNL d   1      -2.546  -1.644  -0.183  0.00  0.00    -0.023 A 
ATOM     25  C   UNL d   1      -3.717  -1.326   0.520  0.00  0.00     0.015 A 
ATOM     26  C   UNL d   1      -4.841  -2.165   0.471  0.00  0.00     0.037 A 
ATOM     27  C   UNL d   1      -4.801  -3.340  -0.277  0.00  0.00     0.068 A 
ATOM     28  C   UNL d   1      -3.652  -3.646  -1.005  0.00  0.00     0.037 A 
ATOM     29  C   UNL d   1      -2.537  -2.801  -0.969  0.00  0.00     0.015 A 
BRANCH  27  30
ATOM     30  O   UNL d   1      -5.821  -4.243  -0.402  0.00  0.00    -0.356 OA
ATOM     31  C   UNL d   1      -6.809  -4.225   0.620  0.00  0.00     0.210 C 
ENDBRANCH  27  30
ENDBRANCH   2  24
TORSDOF 4
