REMARK  7 active torsions:
REMARK  status: ('A' for Active; 'I' for Inactive)
REMARK    1  A    between atoms: N_4  and  C_1 
REMARK    2  A    between atoms: S_2  and  C_3 
REMARK    3  A    between atoms: C_10  and  S_2 
REMARK    4  A    between atoms: C_11  and  N_4 
REMARK    5  A    between atoms: N_5  and  N_9 
REMARK    6  A    between atoms: C_7  and  C_12 
REMARK    7  A    between atoms: C_15  and  C_11 
ROOT
ATOM      1  N   UNL d   1       3.765   1.259   0.516  0.00  0.00    -0.309 N 
ATOM      2  HN  UNL d   1       3.721   2.261   0.331  1.00  0.00     0.186 HD
ATOM      3  C   UNL d   1       4.866   0.714   0.964  0.00  0.00     0.120 C 
ENDROOT
BRANCH   1   4
ATOM      4  N   UNL d   1       2.686   0.474   0.302  0.00  0.00    -0.277 N 
ATOM      5  C   UNL d   1       1.418   0.849   0.059  0.00  0.00     0.187 C 
ATOM      6  S   UNL d   1       0.289  -0.382  -0.137  0.00  0.00    -0.040 SA
ATOM      7  H   UNL d   1       2.833  -0.529   0.253  0.00  0.00     0.189 HD
BRANCH   5   8
ATOM      8  N   UNL d   1       0.951   2.099  -0.030  0.00  0.00    -0.358 N 
ATOM      9  H   UNL d   1      -0.035   2.065  -0.259  0.00  0.00     0.162 HD
BRANCH   8  10
ATOM     10  C   UNL d   1       1.503   3.473  -0.040  0.00  0.00     0.025 C 
ATOM     11  C   UNL d   1       2.232   3.837   1.261  0.00  0.00     0.038 C 
ATOM     12  C   UNL d   1       2.423   3.671  -1.257  0.00  0.00     0.038 C 
BRANCH  10  13
ATOM     13  C   UNL d   1       0.303   4.466  -0.227  0.00  0.00     0.026 C 
ATOM     14  C   UNL d   1      -0.763   4.431   0.867  0.00  0.00     0.007 C 
ENDBRANCH  10  13
ENDBRANCH   8  10
ENDBRANCH   5   8
ENDBRANCH   1   4
BRANCH   3  15
ATOM     15  C   UNL d   1       5.107  -0.664   1.477  0.00  0.00    -0.003 A 
ATOM     16  C   UNL d   1       6.332  -1.332   1.270  0.00  0.00     0.013 A 
ATOM     17  C   UNL d   1       6.453  -2.667   1.694  0.00  0.00     0.019 A 
ATOM     18  C   UNL d   1       5.429  -3.298   2.400  0.00  0.00     0.001 A 
ATOM     19  C   UNL d   1       4.264  -2.600   2.694  0.00  0.00     0.001 A 
ATOM     20  C   UNL d   1       4.107  -1.292   2.240  0.00  0.00     0.014 A 
BRANCH  16  21
ATOM     21  S   UNL d   1       7.747  -0.624   0.431  0.00  0.00    -0.120 SA
BRANCH  21  22
ATOM     22  C   UNL d   1       8.867  -0.124   1.839  0.00  0.00     0.002 C 
ATOM     23  C   UNL d   1       9.244  -1.297   2.755  0.00  0.00     0.026 C 
ATOM     24  C   UNL d   1      10.155   0.412   1.190  0.00  0.00     0.026 C 
ATOM     25  C   UNL d   1       8.214   0.996   2.657  0.00  0.00     0.026 C 
ENDBRANCH  21  22
ENDBRANCH  16  21
ENDBRANCH   3  15
TORSDOF 7
