REMARK  2 active torsions:
REMARK  status: ('A' for Active; 'I' for Inactive)
REMARK    1  A    between atoms: C_2  and  C_7 
REMARK    2  A    between atoms: C_3  and  C_6 
ROOT
ATOM      1  C   UNL d   1       0.023   0.284   0.030  0.00  0.00     0.130 A 
ATOM      2  C   UNL d   1       0.071   1.623   0.735  0.00  0.00     0.069 A 
ATOM      3  C   UNL d   1       0.027   1.560  -0.785  0.00  0.00     0.069 A 
ATOM      4 CL   UNL d   1      -1.450  -0.662   0.263  0.00  0.00    -0.100 Cl
ATOM      5 CL   UNL d   1       1.456  -0.737  -0.121  0.00  0.00    -0.100 Cl
ENDROOT
BRANCH   2   6
ATOM      6  C   UNL d   1       1.308   2.115   1.455  0.00  0.00    -0.050 A 
ATOM      7  C   UNL d   1       1.952   3.309   1.086  0.00  0.00     0.007 A 
ATOM      8  C   UNL d   1       3.073   3.778   1.778  0.00  0.00     0.001 A 
ATOM      9  C   UNL d   1       3.572   3.063   2.863  0.00  0.00     0.000 A 
ATOM     10  C   UNL d   1       2.948   1.884   3.257  0.00  0.00     0.001 A 
ATOM     11  C   UNL d   1       1.826   1.422   2.564  0.00  0.00     0.007 A 
ENDBRANCH   2   6
BRANCH   3  12
ATOM     12  C   UNL d   1      -1.191   2.032  -1.550  0.00  0.00    -0.050 A 
ATOM     13  C   UNL d   1      -1.802   3.267  -1.282  0.00  0.00     0.007 A 
ATOM     14  C   UNL d   1      -2.906   3.711  -2.018  0.00  0.00     0.001 A 
ATOM     15  C   UNL d   1      -3.418   2.929  -3.047  0.00  0.00     0.000 A 
ATOM     16  C   UNL d   1      -2.825   1.705  -3.343  0.00  0.00     0.001 A 
ATOM     17  C   UNL d   1      -1.721   1.269  -2.606  0.00  0.00     0.007 A 
ENDBRANCH   3  12
TORSDOF 2
