REMARK  4 active torsions:
REMARK  status: ('A' for Active; 'I' for Inactive)
REMARK    1  A    between atoms: N_11  and  C_1 
REMARK    2  A    between atoms: N_10  and  C_4 
REMARK    3  A    between atoms: C_5  and  C_14 
REMARK    4  A    between atoms: N_7  and  N_11 
ROOT
ATOM      1  N   UNL d   1       2.951  -4.749  -0.304  0.00  0.00    -0.327 N 
ATOM      2  HN  UNL d   1       3.481  -5.529  -0.695  1.00  0.00     0.180 HD
ATOM      3  C   UNL d   1       3.526  -3.700   0.195  0.00  0.00     0.115 C 
ENDROOT
BRANCH   1   4
ATOM      4  N   UNL d   1       1.592  -4.737  -0.271  0.00  0.00    -0.205 NA
ATOM      5  H   UNL d   1       1.132  -3.969  -0.769  0.00  0.00     0.153 HD
BRANCH   4   6
ATOM      6  C   UNL d   1       0.982  -5.981  -0.593  0.00  0.00     0.051 A 
ATOM      7  C   UNL d   1       1.583  -7.188  -0.200  0.00  0.00     0.050 A 
ATOM      8  C   UNL d   1       0.976  -8.410  -0.481  0.00  0.00     0.035 A 
ATOM      9 CL   UNL d   1       1.742  -9.876  -0.006  0.00  0.00    -0.084 Cl
ATOM     10  C   UNL d   1      -0.247  -8.456  -1.147  0.00  0.00     0.026 A 
ATOM     11  C   UNL d   1      -0.875  -7.266  -1.521  0.00  0.00     0.027 A 
ATOM     12  C   UNL d   1      -0.271  -6.038  -1.233  0.00  0.00     0.057 A 
ATOM     13 CL   UNL d   1      -1.083  -4.591  -1.716  0.00  0.00    -0.082 Cl
ENDBRANCH   4   6
ENDBRANCH   1   4
BRANCH   3  14
ATOM     14  C   UNL d   1       5.001  -3.600   0.204  0.00  0.00     0.002 A 
ATOM     15  C   UNL d   1       5.683  -2.674   0.990  0.00  0.00     0.047 A 
ATOM     16  C   UNL d   1       7.087  -2.638   0.970  0.00  0.00     0.054 A 
ATOM     17 CL   UNL d   1       4.873  -1.553   2.028  0.00  0.00    -0.083 Cl
ATOM     18  C   UNL d   1       7.848  -3.506   0.168  0.00  0.00     0.031 A 
ATOM     19  C   UNL d   1       7.133  -4.424  -0.615  0.00  0.00     0.030 A 
ATOM     20  C   UNL d   1       5.735  -4.477  -0.600  0.00  0.00     0.017 A 
BRANCH  18  21
ATOM     21  N   UNL d   1       9.229  -3.453   0.145  0.00  0.00    -0.390 N 
ATOM     22  C   UNL d   1       9.998  -3.065   1.322  0.00  0.00     0.149 C 
ATOM     23  C   UNL d   1       9.998  -3.894  -1.012  0.00  0.00     0.149 C 
ENDBRANCH  18  21
ENDBRANCH   3  14
TORSDOF 4
