REMARK  8 active torsions:
REMARK  status: ('A' for Active; 'I' for Inactive)
REMARK    1  A    between atoms: C_6  and  C_1 
REMARK    2  A    between atoms: C_16  and  N_2 
REMARK    3  A    between atoms: C_10  and  C_4 
REMARK       I    between atoms: N_7  and  C_6 
REMARK    4  A    between atoms: C_18  and  N_7 
REMARK    5  A    between atoms: C_8  and  C_18 
REMARK    6  A    between atoms: N_9  and  C_21 
REMARK    7  A    between atoms: C_19  and  C_16 
REMARK    8  A    between atoms: C_21  and  C_19 
ROOT
ATOM      1  C   UNL d   1      -0.257   1.152   0.080  0.00  0.00     0.056 A 
ATOM      2  N   UNL d   1       0.928  -0.786   0.049  0.00  0.00    -0.349 N 
ATOM      3  C   UNL d   1       1.036   0.621   0.076  0.00  0.00     0.024 A 
ATOM      4  C   UNL d   1      -0.412  -1.149   0.159  0.00  0.00     0.046 A 
ATOM      5  C   UNL d   1      -1.128   0.031   0.157  0.00  0.00     0.049 A 
ATOM      6  C   UNL d   1       2.339   1.348   0.094  0.00  0.00     0.069 C 
ENDROOT
BRANCH   1   7
ATOM      7  C   UNL d   1      -0.781   2.525   0.041  0.00  0.00     0.254 C 
ATOM      8  N   UNL d   1       0.090   3.587  -0.035  0.00  0.00    -0.351 N 
ATOM      9  H   UNL d   1       1.085   3.472  -0.114  0.00  0.00     0.163 HD
ATOM     10  O   UNL d   1      -1.996   2.724   0.069  0.00  0.00    -0.268 OA
BRANCH   8  11
ATOM     11  C   UNL d   1      -0.465   4.919  -0.094  0.00  0.00     0.187 C 
BRANCH  11  12
ATOM     12  C   UNL d   1       0.567   5.984  -0.145  0.00  0.00     0.070 A 
ATOM     13  O   UNL d   1       1.887   5.629  -0.155  0.00  0.00    -0.325 OA
ATOM     14  C   UNL d   1       2.604   6.782  -0.203  0.00  0.00     0.142 A 
ATOM     15  C   UNL d   1       1.768   7.872  -0.226  0.00  0.00     0.027 A 
ATOM     16  C   UNL d   1       0.451   7.362  -0.190  0.00  0.00     0.036 A 
ENDBRANCH  11  12
ENDBRANCH   8  11
ENDBRANCH   1   7
BRANCH   2  17
ATOM     17  C   UNL d   1       2.081  -1.694   0.013  0.00  0.00     0.131 C 
BRANCH  17  18
ATOM     18  C   UNL d   1       2.037  -2.911  -0.914  0.00  0.00     0.050 C 
BRANCH  18  19
ATOM     19  C   UNL d   1       3.334  -3.736  -0.831  0.00  0.00     0.274 C 
BRANCH  19  20
ATOM     20  N   UNL d   1       3.116  -5.146  -1.189  0.00  0.00     0.092 N 
ATOM     21  C   UNL d   1       4.350  -5.948  -1.042  0.00  0.00     0.298 C 
ATOM     22  C   UNL d   1       4.080  -7.427  -1.364  0.00  0.00     0.198 C 
ATOM     23  O   UNL d   1       3.563  -7.583  -2.694  0.00  0.00    -0.388 OA
ATOM     24  C   UNL d   1       2.354  -6.828  -2.841  0.00  0.00     0.198 C 
ATOM     25  C   UNL d   1       2.590  -5.337  -2.554  0.00  0.00     0.298 C 
ENDBRANCH  19  20
ENDBRANCH  18  19
ENDBRANCH  17  18
ENDBRANCH   2  17
BRANCH   4  26
ATOM     26  C   UNL d   1      -1.010  -2.495   0.155  0.00  0.00    -0.009 A 
ATOM     27  C   UNL d   1      -2.106  -2.750  -0.691  0.00  0.00     0.014 A 
ATOM     28  C   UNL d   1      -2.642  -4.033  -0.813  0.00  0.00     0.001 A 
ATOM     29  C   UNL d   1      -2.083  -5.086  -0.097  0.00  0.00     0.000 A 
ATOM     30  C   UNL d   1      -1.038  -4.839   0.792  0.00  0.00     0.001 A 
ATOM     31  C   UNL d   1      -0.536  -3.543   0.952  0.00  0.00     0.014 A 
ENDBRANCH   4  26
TORSDOF 8
