REMARK  1 active torsions:
REMARK  status: ('A' for Active; 'I' for Inactive)
REMARK    1  A    between atoms: C_6  and  C_1 
REMARK       I    between atoms: N_10  and  C_6 
ROOT
ATOM      1  C   UNL d   1       1.887   0.873  -0.025  0.00  0.00     0.080 A 
ATOM      2  S   UNL d   1       2.765  -0.601   0.038  0.00  0.00    -0.072 SA
ATOM      3  C   UNL d   1       0.517   0.637  -0.005  0.00  0.00    -0.027 A 
ATOM      4  C   UNL d   1       1.351  -1.548   0.071  0.00  0.00     0.092 A 
ATOM      5  C   UNL d   1       0.208  -0.774   0.030  0.00  0.00    -0.023 A 
ATOM      6  C   UNL d   1       1.388  -2.975   0.135  0.00  0.00     0.107 C 
ATOM      7  N   UNL d   1       1.405  -4.134   0.187  0.00  0.00    -0.191 NA
ATOM      8  C   UNL d   1      -0.568   1.683  -0.059  0.00  0.00     0.041 C 
ATOM      9  C   UNL d   1      -1.208  -1.284   0.054  0.00  0.00     0.041 C 
ATOM     10  C   UNL d   1      -1.948   1.117   0.303  0.00  0.00     0.005 C 
ATOM     11  C   UNL d   1      -2.212  -0.219  -0.395  0.00  0.00     0.005 C 
ENDROOT
BRANCH   1  12
ATOM     12  C   UNL d   1       2.584   2.153  -0.095  0.00  0.00     0.256 C 
ATOM     13  O   UNL d   1       2.028   3.247  -0.150  0.00  0.00    -0.267 OA
ATOM     14  N   UNL d   1       3.952   2.111  -0.103  0.00  0.00    -0.365 N 
ATOM     15  H   UNL d   1       4.461   1.241  -0.073  0.00  0.00     0.159 HD
ATOM     16  H   UNL d   1       4.455   2.985  -0.160  0.00  0.00     0.159 HD
ENDBRANCH   1  12
TORSDOF 1
