REMARK  3 active torsions:
REMARK  status: ('A' for Active; 'I' for Inactive)
REMARK    1  A    between atoms: N_5  and  C_1 
REMARK    2  A    between atoms: C_9  and  C_4 
REMARK       I    between atoms: C_8  and  N_5 
REMARK    3  A    between atoms: C_10  and  C_8 
ROOT
ATOM      1  C   UNL d   1      -1.528   0.182  -0.097  0.00  0.00     0.152 A 
ATOM      2  N   UNL d   1      -1.374  -1.108  -0.191  0.00  0.00    -0.335 N 
ATOM      3  HN  UNL d   1      -2.132  -1.777  -0.329  1.00  0.00     0.168 HD
ATOM      4  C   UNL d   1      -0.035  -1.441  -0.076  0.00  0.00     0.057 A 
ATOM      5  S   UNL d   1      -0.107   1.095   0.115  0.00  0.00    -0.057 SA
ATOM      6  C   UNL d   1       0.827  -0.355   0.015  0.00  0.00     0.010 A 
ATOM      7  C   UNL d   1       2.314  -0.279   0.029  0.00  0.00     0.059 C 
ENDROOT
BRANCH   1   8
ATOM      8  N   UNL d   1      -2.678   0.914  -0.135  0.00  0.00    -0.302 N 
ATOM      9  C   UNL d   1      -3.890   0.359  -0.491  0.00  0.00     0.264 C 
ATOM     10  O   UNL d   1      -4.048  -0.796  -0.866  0.00  0.00    -0.267 OA
ATOM     11  H   UNL d   1      -2.615   1.901   0.057  0.00  0.00     0.171 HD
BRANCH   9  12
ATOM     12  C   UNL d   1      -5.021   1.288  -0.445  0.00  0.00     0.072 A 
ATOM     13  S   UNL d   1      -4.900   2.878   0.188  0.00  0.00    -0.097 SA
ATOM     14  C   UNL d   1      -6.541   3.216  -0.158  0.00  0.00     0.050 A 
ATOM     15  C   UNL d   1      -7.180   2.142  -0.734  0.00  0.00     0.009 A 
ATOM     16  C   UNL d   1      -6.307   1.028  -0.886  0.00  0.00     0.025 A 
ENDBRANCH   9  12
ENDBRANCH   1   8
BRANCH   4  17
ATOM     17  C   UNL d   1       0.344  -2.850  -0.081  0.00  0.00    -0.007 A 
ATOM     18  C   UNL d   1      -0.395  -3.754  -0.859  0.00  0.00     0.038 A 
ATOM     19  C   UNL d   1      -0.104  -5.122  -0.833  0.00  0.00     0.040 A 
ATOM     20 CL   UNL d   1      -1.071  -6.175  -1.803  0.00  0.00    -0.084 Cl
ATOM     21  C   UNL d   1       0.932  -5.617  -0.028  0.00  0.00    -0.040 A 
ATOM     22  C   UNL d   1       1.660  -4.714   0.758  0.00  0.00     0.009 A 
ATOM     23  C   UNL d   1       1.266  -7.081   0.032  0.00  0.00     0.050 C 
ATOM     24  C   UNL d   1       1.362  -3.348   0.738  0.00  0.00     0.014 A 
ENDBRANCH   4  17
TORSDOF 3
