REMARK  3 active torsions:
REMARK  status: ('A' for Active; 'I' for Inactive)
REMARK    1  A    between atoms: N_2  and  S_1 
REMARK    2  A    between atoms: C_9  and  S_1 
REMARK    3  A    between atoms: C_3  and  C_4 
ROOT
ATOM      1  N   UNL d   1       0.131  -0.431   1.596  0.00  0.00    -0.281 N 
ATOM      2  C   UNL d   1      -0.103  -1.768   4.379  0.00  0.00     0.114 C 
ATOM      3  C   UNL d   1       0.009  -2.389   3.020  0.00  0.00     0.052 C 
ATOM      4  C   UNL d   1       0.147  -1.835   1.815  0.00  0.00     0.105 C 
ATOM      5  N   UNL d   1      -0.644  -0.633   4.672  0.00  0.00    -0.384 N 
ATOM      6  HN  UNL d   1      -0.688  -0.321   5.642  1.00  0.00     0.159 HD
ATOM      7  C   UNL d   1      -0.097   0.605   2.627  0.00  0.00     0.160 C 
ATOM      8  C   UNL d   1      -1.191   0.201   3.607  0.00  0.00     0.141 C 
ENDROOT
BRANCH   1   9
ATOM      9  S   UNL d   1       0.892   0.098   0.148  0.00  0.00     0.264 S 
ATOM     10  O   UNL d   1       0.252   1.325  -0.283  0.00  0.00    -0.200 OA
ATOM     11  O   UNL d   1       1.057  -1.015  -0.762  0.00  0.00    -0.200 OA
BRANCH   9  12
ATOM     12  C   UNL d   1       2.510   0.525   0.767  0.00  0.00     0.080 A 
ATOM     13  C   UNL d   1       3.502  -0.461   0.845  0.00  0.00     0.028 A 
ATOM     14  C   UNL d   1       4.745  -0.133   1.385  0.00  0.00     0.044 A 
ATOM     15  C   UNL d   1       4.982   1.165   1.831  0.00  0.00     0.116 A 
ATOM     16  C   UNL d   1       4.005   2.152   1.734  0.00  0.00     0.044 A 
ATOM     17  F   UNL d   1       6.172   1.469   2.364  0.00  0.00    -0.206 F 
ATOM     18  C   UNL d   1       2.763   1.837   1.187  0.00  0.00     0.028 A 
ENDBRANCH   9  12
ENDBRANCH   1   9
BRANCH   2  19
ATOM     19  C   UNL d   1       0.472  -2.618   5.531  0.00  0.00     0.432 C 
ATOM     20  F   UNL d   1       1.030  -3.786   5.100  0.00  0.00    -0.165 F 
ATOM     21  F   UNL d   1       1.449  -1.965   6.217  0.00  0.00    -0.165 F 
ATOM     22  F   UNL d   1      -0.480  -2.969   6.438  0.00  0.00    -0.165 F 
ENDBRANCH   2  19
TORSDOF 3
