REMARK  7 active torsions:
REMARK  status: ('A' for Active; 'I' for Inactive)
REMARK    1  A    between atoms: C_2  and  S_1 
REMARK    2  A    between atoms: N_9  and  S_1 
REMARK    3  A    between atoms: C_10  and  C_3 
REMARK    4  A    between atoms: C_4  and  N_9 
REMARK    5  A    between atoms: C_11  and  C_5 
REMARK    6  A    between atoms: O_25  and  C_10 
REMARK    7  A    between atoms: O_24  and  C_11 
ROOT
ATOM      1  C   UNL d   1       2.010  -2.832  -1.049  0.00  0.00     0.103 A 
ATOM      2  C   UNL d   1       0.754  -2.676  -0.477  0.00  0.00     0.047 A 
ATOM      3  S   UNL d   1       2.081  -4.292  -1.974  0.00  0.00    -0.081 SA
ATOM      4  C   UNL d   1       0.482  -4.732  -1.591  0.00  0.00     0.024 A 
ATOM      5  C   UNL d   1      -0.095  -3.792  -0.767  0.00  0.00     0.046 A 
ATOM      6  C   UNL d   1      -0.120  -5.939  -2.102  0.00  0.00     0.022 A 
ATOM      7  S   UNL d   1      -1.799  -6.010  -2.464  0.00  0.00    -0.101 SA
ATOM      8  C   UNL d   1       0.496  -7.147  -2.376  0.00  0.00     0.021 A 
ATOM      9  C   UNL d   1      -1.690  -7.628  -2.997  0.00  0.00     0.050 A 
ATOM     10  C   UNL d   1      -0.409  -8.121  -2.892  0.00  0.00     0.008 A 
ENDROOT
BRANCH   2  11
ATOM     11  N   UNL d   1       0.276  -1.656   0.377  0.00  0.00    -0.180 NA
ATOM     12  H   UNL d   1      -0.412  -1.968   1.078  0.00  0.00     0.146 HD
BRANCH  11  13
ATOM     13  S   UNL d   1      -0.374  -0.228  -0.286  0.00  0.00     0.247 S 
ATOM     14  O   UNL d   1      -0.904   0.560   0.801  0.00  0.00    -0.205 OA
ATOM     15  O   UNL d   1       0.553   0.323  -1.252  0.00  0.00    -0.205 OA
BRANCH  13  16
ATOM     16  C   UNL d   1      -1.803  -0.587  -1.225  0.00  0.00     0.098 A 
ATOM     17  C   UNL d   1      -2.946  -1.208  -0.738  0.00  0.00     0.102 A 
ATOM     18  S   UNL d   1      -4.155  -1.308  -1.960  0.00  0.00    -0.094 SA
ATOM     19  C   UNL d   1      -3.196  -0.472  -3.093  0.00  0.00     0.052 A 
ATOM     20  C   UNL d   1      -1.961  -0.150  -2.581  0.00  0.00     0.033 A 
BRANCH  17  21
ATOM     21  C   UNL d   1      -3.186  -1.763   0.582  0.00  0.00     0.301 C 
ATOM     22  O   UNL d   1      -2.301  -2.118   1.354  0.00  0.00    -0.259 OA
BRANCH  21  23
ATOM     23  O   UNL d   1      -4.523  -1.858   0.832  0.00  0.00    -0.322 OA
ATOM     24  C   UNL d   1      -4.890  -2.411   2.096  0.00  0.00     0.213 C 
ENDBRANCH  21  23
ENDBRANCH  17  21
ENDBRANCH  13  16
ENDBRANCH  11  13
ENDBRANCH   2  11
BRANCH   1  25
ATOM     25  C   UNL d   1       3.248  -2.064  -0.988  0.00  0.00     0.301 C 
ATOM     26  O   UNL d   1       4.309  -2.385  -1.520  0.00  0.00    -0.259 OA
BRANCH  25  27
ATOM     27  O   UNL d   1       3.104  -0.948  -0.222  0.00  0.00    -0.322 OA
ATOM     28  C   UNL d   1       4.270  -0.123  -0.127  0.00  0.00     0.213 C 
ENDBRANCH  25  27
ENDBRANCH   1  25
TORSDOF 7
