REMARK  2 active torsions:
REMARK  status: ('A' for Active; 'I' for Inactive)
REMARK    1  A    between atoms: N_7  and  C_1 
REMARK    2  A    between atoms: C_8  and  C_5 
ROOT
ATOM      1  C   UNL d   1      -1.276  -1.509  -0.054  0.00  0.00     0.025 A 
ATOM      2  N   UNL d   1      -1.239   1.311  -0.089  0.00  0.00    -0.354 N 
ATOM      3  HN  UNL d   1      -1.230   2.330  -0.126  1.00  0.00     0.166 HD
ATOM      4  C   UNL d   1      -2.456  -0.758  -0.091  0.00  0.00     0.055 A 
ATOM      5  C   UNL d   1      -2.404   0.629  -0.083  0.00  0.00     0.051 A 
ATOM      6  C   UNL d   1      -0.043  -0.797  -0.012  0.00  0.00     0.012 A 
ATOM      7  C   UNL d   1      -0.093   0.616  -0.045  0.00  0.00     0.044 A 
ATOM      8  C   UNL d   1       1.225  -1.421   0.091  0.00  0.00     0.015 A 
ATOM      9  C   UNL d   1       1.098   1.333  -0.020  0.00  0.00     0.030 A 
ATOM     10  C   UNL d   1       2.407  -0.679   0.106  0.00  0.00     0.001 A 
ATOM     11  C   UNL d   1       2.343   0.704   0.046  0.00  0.00     0.002 A 
ENDROOT
BRANCH   1  12
ATOM     12  N   UNL d   1      -1.309  -2.926  -0.035  0.00  0.00    -0.283 NA
ATOM     13  C   UNL d   1      -2.522  -3.554   0.519  0.00  0.00     0.095 C 
ATOM     14  C   UNL d   1      -2.244  -5.027   0.814  0.00  0.00     0.015 C 
ATOM     15  C   UNL d   1      -1.733  -5.752  -0.428  0.00  0.00     0.002 C 
ATOM     16  C   UNL d   1      -0.547  -5.014  -1.048  0.00  0.00     0.015 C 
ATOM     17  C   UNL d   1      -0.879  -3.541  -1.306  0.00  0.00     0.095 C 
ENDBRANCH   1  12
BRANCH   5  18
ATOM     18  C   UNL d   1      -3.607   1.476  -0.085  0.00  0.00     0.031 A 
ATOM     19  S   UNL d   1      -5.088   0.928   0.605  0.00  0.00    -0.100 SA
ATOM     20  C   UNL d   1      -5.902   2.374   0.210  0.00  0.00     0.050 A 
ATOM     21  C   UNL d   1      -5.072   3.278  -0.413  0.00  0.00     0.008 A 
ATOM     22  C   UNL d   1      -3.750   2.767  -0.567  0.00  0.00     0.021 A 
ENDBRANCH   5  18
TORSDOF 2
