REMARK  2 active torsions:
REMARK  status: ('A' for Active; 'I' for Inactive)
REMARK    1  A    between atoms: C_7  and  C_2 
REMARK    2  A    between atoms: O_12  and  C_7 
ROOT
ATOM      1  C   UNL d   1      -1.963   1.106  -0.015  0.00  0.00     0.071 A 
ATOM      2  C   UNL d   1      -2.751   2.206  -0.006  0.00  0.00     0.136 C 
ATOM      3  C   UNL d   1      -2.610  -0.268  -0.019  0.00  0.00     0.258 A 
ATOM      4  N   UNL d   1      -1.578  -1.175  -0.010  0.00  0.00    -0.322 N 
ATOM      5  C   UNL d   1      -0.492   0.848  -0.006  0.00  0.00     0.008 A 
ATOM      6  C   UNL d   1      -0.344  -0.549  -0.004  0.00  0.00     0.046 A 
ATOM      7  C   UNL d   1      -4.189   2.131  -0.013  0.00  0.00     0.106 C 
ATOM      8  N   UNL d   1      -5.353   2.144  -0.025  0.00  0.00    -0.191 NA
ATOM      9  O   UNL d   1      -3.790  -0.548  -0.025  0.00  0.00    -0.267 OA
ATOM     10  C   UNL d   1       0.665   1.612   0.002  0.00  0.00     0.015 A 
ATOM     11  C   UNL d   1       0.874  -1.208   0.001  0.00  0.00     0.030 A 
ATOM     12  C   UNL d   1       1.919   0.970   0.000  0.00  0.00     0.001 A 
ATOM     13  C   UNL d   1       2.024  -0.428   0.001  0.00  0.00     0.002 A 
ATOM     14  H   UNL d   1      -1.735  -2.172  -0.010  0.00  0.00     0.169 HD
ENDROOT
BRANCH   2  15
ATOM     15  C   UNL d   1      -2.214   3.596  -0.002  0.00  0.00     0.304 C 
ATOM     16  O   UNL d   1      -1.126   3.943  -0.430  0.00  0.00    -0.258 OA
BRANCH  15  17
ATOM     17  O   UNL d   1      -3.136   4.444   0.528  0.00  0.00    -0.322 OA
ATOM     18  C   UNL d   1      -2.797   5.832   0.501  0.00  0.00     0.213 C 
ENDBRANCH  15  17
ENDBRANCH   2  15
TORSDOF 2
