REMARK  3 active torsions:
REMARK  status: ('A' for Active; 'I' for Inactive)
REMARK    1  A    between atoms: S_10  and  C_5 
REMARK    2  A    between atoms: C_16  and  S_10 
REMARK    3  A    between atoms: C_15  and  C_16 
ROOT
ATOM      1  C   UNL d   1      -0.429   1.058  -0.005  0.00  0.00     0.139 A 
ATOM      2  N   UNL d   1      -1.203  -0.067  -0.043  0.00  0.00    -0.320 N 
ATOM      3  N   UNL d   1       0.840   0.696   0.021  0.00  0.00    -0.282 N 
ATOM      4  HN  UNL d   1       1.642   1.325   0.043  1.00  0.00     0.188 HD
ATOM      5  C   UNL d   1      -0.343  -1.119  -0.014  0.00  0.00     0.161 A 
ATOM      6  N   UNL d   1       0.892  -0.687   0.015  0.00  0.00    -0.278 N 
ATOM      7  HN  UNL d   1       1.735  -1.262   0.029  1.00  0.00     0.189 HD
ATOM      8  C   UNL d   1      -0.920   2.402   0.011  0.00  0.00     0.050 A 
ATOM      9  S   UNL d   1      -2.591   2.767   0.147  0.00  0.00    -0.098 SA
ATOM     10  C   UNL d   1      -0.163   3.554  -0.070  0.00  0.00     0.023 A 
ATOM     11  C   UNL d   1      -2.299   4.450   0.099  0.00  0.00     0.050 A 
ATOM     12  C   UNL d   1      -0.958   4.738  -0.021  0.00  0.00     0.009 A 
ATOM     13  H   UNL d   1      -2.215  -0.124  -0.036  0.00  0.00     0.169 HD
ENDROOT
BRANCH   5  14
ATOM     14  S   UNL d   1      -0.900  -2.746  -0.072  0.00  0.00    -0.085 SA
BRANCH  14  15
ATOM     15  C   UNL d   1      -1.654  -2.937   1.565  0.00  0.00     0.160 C 
BRANCH  15  16
ATOM     16  C   UNL d   1      -2.947  -2.154   1.731  0.00  0.00     0.132 C 
ATOM     17  O   UNL d   1      -3.365  -1.326   0.917  0.00  0.00    -0.298 OA
ATOM     18  C   UNL d   1      -3.707  -2.406   3.009  0.00  0.00     0.091 C 
ENDBRANCH  15  16
ENDBRANCH  14  15
ENDBRANCH   5  14
TORSDOF 3
