REMARK  2 active torsions:
REMARK  status: ('A' for Active; 'I' for Inactive)
REMARK    1  A    between atoms: C_7  and  C_1 
REMARK    2  A    between atoms: C_8  and  C_9 
ROOT
ATOM      1  C   UNL d   1       1.341  -2.643   0.046  0.00  0.00    -0.008 A 
ATOM      2  C   UNL d   1       2.793  -5.106  -0.070  0.00  0.00    -0.023 A 
ATOM      3  C   UNL d   1       1.156  -3.538  -1.014  0.00  0.00     0.014 A 
ATOM      4  C   UNL d   1       2.203  -3.020   1.074  0.00  0.00     0.014 A 
ATOM      5  C   UNL d   1       1.863  -4.751  -1.063  0.00  0.00     0.013 A 
ATOM      6  C   UNL d   1       2.944  -4.204   0.996  0.00  0.00     0.013 A 
ENDROOT
BRANCH   1   7
ATOM      7  C   UNL d   1       0.633  -1.365   0.053  0.00  0.00     0.056 A 
ATOM      8  N   UNL d   1      -0.634  -1.274  -0.513  0.00  0.00    -0.353 N 
ATOM      9  C   UNL d   1      -1.090  -0.045  -0.419  0.00  0.00     0.047 A 
ATOM     10  HN  UNL d   1      -1.138  -2.051  -0.941  1.00  0.00     0.166 HD
ATOM     11  C   UNL d   1      -2.413   0.408  -0.925  0.00  0.00     0.076 C 
ATOM     12  S   UNL d   1      -0.040   1.074   0.338  0.00  0.00    -0.080 SA
ATOM     13  C   UNL d   1       1.141  -0.164   0.535  0.00  0.00     0.008 A 
ATOM     14  C   UNL d   1       2.453   0.208   1.137  0.00  0.00     0.059 C 
ENDBRANCH   1   7
BRANCH   2  15
ATOM     15  C   UNL d   1       3.575  -6.367  -0.134  0.00  0.00     0.013 A 
ATOM     16  C   UNL d   1       3.997  -7.053   1.023  0.00  0.00     0.127 A 
ATOM     17  F   UNL d   1       3.687  -6.596   2.246  0.00  0.00    -0.205 F 
ATOM     18  C   UNL d   1       4.737  -8.234   0.962  0.00  0.00     0.043 A 
ATOM     19  C   UNL d   1       5.070  -8.780  -0.269  0.00  0.00     0.003 A 
ATOM     20  C   UNL d   1       4.670  -8.135  -1.436  0.00  0.00     0.001 A 
ATOM     21  C   UNL d   1       3.942  -6.940  -1.368  0.00  0.00     0.015 A 
ENDBRANCH   2  15
TORSDOF 2
