REMARK  5 active torsions:
REMARK  status: ('A' for Active; 'I' for Inactive)
REMARK    1  A    between atoms: O_4  and  C_1 
REMARK    2  A    between atoms: C_5  and  O_4 
REMARK       I    between atoms: N_14  and  C_5 
REMARK    3  A    between atoms: S_13  and  C_6 
REMARK    4  A    between atoms: C_10  and  C_12 
REMARK    5  A    between atoms: C_12  and  S_13 
ROOT
ATOM      1  C   UNL d   1      -0.662   1.014   0.098  0.00  0.00     0.163 A 
ATOM      2  N   UNL d   1      -1.297  -0.173   0.112  0.00  0.00    -0.317 N 
ATOM      3  HN  UNL d   1      -2.314  -0.249   0.138  1.00  0.00     0.170 HD
ATOM      4  C   UNL d   1      -0.498  -1.248   0.090  0.00  0.00     0.146 A 
ATOM      5  C   UNL d   1       0.716   1.187   0.054  0.00  0.00     0.012 A 
ATOM      6  N   UNL d   1       0.846  -1.198   0.057  0.00  0.00    -0.340 N 
ATOM      7  HN  UNL d   1       1.401  -2.054   0.045  1.00  0.00     0.167 HD
ATOM      8  C   UNL d   1       1.442   0.010   0.040  0.00  0.00     0.017 A 
ATOM      9  C   UNL d   1       1.385   2.525   0.026  0.00  0.00     0.055 C 
ATOM     10  C   UNL d   1       2.942   0.005  -0.002  0.00  0.00     0.069 C 
ENDROOT
BRANCH   4  11
ATOM     11  S   UNL d   1      -1.160  -2.897   0.062  0.00  0.00    -0.089 SA
BRANCH  11  12
ATOM     12  C   UNL d   1      -2.933  -2.595   0.313  0.00  0.00     0.124 C 
BRANCH  12  13
ATOM     13  C   UNL d   1      -3.702  -3.904   0.367  0.00  0.00    -0.005 A 
ATOM     14  C   UNL d   1      -3.885  -4.600   1.580  0.00  0.00     0.042 A 
ATOM     15 CL   UNL d   1      -3.237  -4.026   3.079  0.00  0.00    -0.084 Cl
ATOM     16  C   UNL d   1      -4.599  -5.806   1.630  0.00  0.00     0.024 A 
ATOM     17  C   UNL d   1      -5.137  -6.355   0.471  0.00  0.00     0.003 A 
ATOM     18  C   UNL d   1      -4.946  -5.704  -0.743  0.00  0.00     0.024 A 
ATOM     19  C   UNL d   1      -4.231  -4.497  -0.798  0.00  0.00     0.042 A 
ATOM     20 CL   UNL d   1      -4.029  -3.794  -2.366  0.00  0.00    -0.084 Cl
ENDBRANCH  12  13
ENDBRANCH  11  12
ENDBRANCH   4  11
BRANCH   1  21
ATOM     21  O   UNL d   1      -1.411   2.238   0.105  0.00  0.00    -0.243 OA
BRANCH  21  22
ATOM     22  C   UNL d   1      -2.785   2.398   0.230  0.00  0.00     0.368 C 
ATOM     23  N   UNL d   1      -3.147   3.749   0.199  0.00  0.00    -0.336 N 
ATOM     24  C   UNL d   1      -4.548   4.115   0.157  0.00  0.00     0.154 C 
ATOM     25  C   UNL d   1      -2.187   4.806  -0.073  0.00  0.00     0.154 C 
ATOM     26  O   UNL d   1      -3.588   1.482   0.354  0.00  0.00    -0.238 OA
ENDBRANCH  21  22
ENDBRANCH   1  21
TORSDOF 5
