REMARK  2 active torsions:
REMARK  status: ('A' for Active; 'I' for Inactive)
REMARK    1  A    between atoms: N_8  and  C_3 
REMARK    2  A    between atoms: C_7  and  C_4 
ROOT
ATOM      1  N   UNL d   1      -1.532  -0.114  -0.574  0.00  0.00    -0.336 N 
ATOM      2  HN  UNL d   1      -2.437   0.026  -1.024  1.00  0.00     0.168 HD
ATOM      3  C   UNL d   1      -0.605   0.803  -0.455  0.00  0.00     0.142 A 
ATOM      4  C   UNL d   1      -1.108  -1.304  -0.001  0.00  0.00     0.051 A 
ATOM      5  S   UNL d   1       0.830   0.303   0.341  0.00  0.00    -0.064 SA
ATOM      6  C   UNL d   1       0.165  -1.264   0.534  0.00  0.00     0.083 A 
ENDROOT
BRANCH   4   7
ATOM      7  C   UNL d   1      -1.956  -2.491  -0.004  0.00  0.00    -0.009 A 
ATOM      8  C   UNL d   1      -2.887  -2.673  -1.038  0.00  0.00     0.015 A 
ATOM      9  C   UNL d   1      -3.708  -3.806  -1.069  0.00  0.00     0.024 A 
ATOM     10  C   UNL d   1      -3.608  -4.760  -0.060  0.00  0.00     0.034 A 
ATOM     11  C   UNL d   1      -2.698  -4.589   0.982  0.00  0.00     0.024 A 
ATOM     12 CL   UNL d   1      -4.615  -6.154  -0.093  0.00  0.00    -0.084 Cl
ATOM     13  C   UNL d   1      -1.876  -3.458   1.010  0.00  0.00     0.015 A 
ENDBRANCH   4   7
BRANCH   3  14
ATOM     14  N   UNL d   1      -0.751   2.060  -0.903  0.00  0.00    -0.380 N 
ATOM     15  H   UNL d   1      -1.704   2.348  -1.094  0.00  0.00     0.158 HD
ATOM     16  H   UNL d   1      -0.171   2.780  -0.490  0.00  0.00     0.158 HD
ENDBRANCH   3  14
TORSDOF 2
