REMARK  3 active torsions:
REMARK  status: ('A' for Active; 'I' for Inactive)
REMARK    1  A    between atoms: C_3  and  C_1 
REMARK    2  A    between atoms: C_2  and  C_4 
REMARK    3  A    between atoms: N_6  and  C_5 
ROOT
ATOM      1  C   UNL d   1       0.469   0.035  -1.315  0.00  0.00     0.050 A 
ATOM      2  C   UNL d   1      -0.334  -1.210  -3.235  0.00  0.00     0.050 A 
ATOM      3  C   UNL d   1      -0.568   1.245  -3.197  0.00  0.00     0.031 A 
ATOM      4  C   UNL d   1       0.276  -1.180  -1.978  0.00  0.00     0.032 A 
ATOM      5  C   UNL d   1      -0.736   0.003  -3.830  0.00  0.00     0.045 A 
ATOM      6  C   UNL d   1       0.028   1.225  -1.927  0.00  0.00     0.045 A 
ENDROOT
BRANCH   3   7
ATOM      7  N   UNL d   1      -0.972   2.413  -3.791  0.00  0.00    -0.381 N 
ATOM      8  C   UNL d   1      -1.104   2.587  -5.236  0.00  0.00     0.123 C 
ATOM      9  C   UNL d   1      -0.950   4.093  -5.426  0.00  0.00     0.021 C 
ATOM     10  C   UNL d   1      -1.593   4.659  -4.171  0.00  0.00     0.021 C 
ATOM     11  C   UNL d   1      -1.156   3.680  -3.082  0.00  0.00     0.123 C 
ENDBRANCH   3   7
BRANCH   1  12
ATOM     12  C   UNL d   1       1.154   0.105   0.028  0.00  0.00     0.417 C 
ATOM     13  F   UNL d   1       1.449  -1.119   0.551  0.00  0.00    -0.166 F 
ATOM     14  F   UNL d   1       0.402   0.740   0.969  0.00  0.00    -0.166 F 
ATOM     15  F   UNL d   1       2.335   0.781  -0.025  0.00  0.00    -0.166 F 
ENDBRANCH   1  12
BRANCH   2  16
ATOM     16  C   UNL d   1      -0.583  -2.510  -3.961  0.00  0.00     0.417 C 
ATOM     17  F   UNL d   1      -0.153  -3.604  -3.273  0.00  0.00    -0.166 F 
ATOM     18  F   UNL d   1      -1.905  -2.723  -4.211  0.00  0.00    -0.166 F 
ATOM     19  F   UNL d   1       0.040  -2.561  -5.170  0.00  0.00    -0.166 F 
ENDBRANCH   2  16
TORSDOF 3
