REMARK  6 active torsions:
REMARK  status: ('A' for Active; 'I' for Inactive)
REMARK    1  A    between atoms: N_5  and  C_1 
REMARK    2  A    between atoms: C_2  and  C_7 
REMARK    3  A    between atoms: C_3  and  N_5 
REMARK    4  A    between atoms: N_10  and  C_3 
REMARK    5  A    between atoms: N_6  and  C_4 
REMARK    6  A    between atoms: C_9  and  N_10 
ROOT
ATOM      1  C   UNL d   1       1.770   0.025  -0.328  0.00  0.00     0.061 A 
ATOM      2  C   UNL d   1       0.819  -1.024  -0.174  0.00  0.00     0.057 A 
ATOM      3  C   UNL d   1       0.042   1.728  -0.009  0.00  0.00     0.050 A 
ATOM      4  C   UNL d   1       1.382   1.371  -0.210  0.00  0.00     0.048 A 
ATOM      5  C   UNL d   1      -0.525  -0.628   0.010  0.00  0.00     0.032 A 
ATOM      6  C   UNL d   1      -0.909   0.713   0.090  0.00  0.00     0.018 A 
ENDROOT
BRANCH   1   7
ATOM      7  N   UNL d   1       3.130  -0.301  -0.469  0.00  0.00    -0.331 N 
ATOM      8  H   UNL d   1       3.350  -1.147   0.039  0.00  0.00     0.168 HD
BRANCH   7   9
ATOM      9  C   UNL d   1       4.239   0.347  -0.826  0.00  0.00     0.176 C 
ATOM     10  S   UNL d   1       5.673  -0.231  -0.160  0.00  0.00    -0.041 SA
BRANCH   9  11
ATOM     11  N   UNL d   1       4.374   1.371  -1.681  0.00  0.00    -0.333 N 
ATOM     12  H   UNL d   1       5.331   1.709  -1.635  0.00  0.00     0.168 HD
BRANCH  11  13
ATOM     13  C   UNL d   1       3.628   1.968  -2.717  0.00  0.00     0.037 A 
ATOM     14  C   UNL d   1       4.242   3.066  -3.346  0.00  0.00     0.053 A 
ATOM     15  C   UNL d   1       3.595   3.764  -4.368  0.00  0.00     0.037 A 
ATOM     16 CL   UNL d   1       4.388   5.088  -5.129  0.00  0.00    -0.084 Cl
ATOM     17  C   UNL d   1       2.320   3.396  -4.769  0.00  0.00     0.048 A 
ATOM     18  C   UNL d   1       1.724   2.289  -4.173  0.00  0.00     0.037 A 
ATOM     19  C   UNL d   1       2.388   1.551  -3.183  0.00  0.00     0.053 A 
ATOM     20 CL   UNL d   1       0.136   1.829  -4.655  0.00  0.00    -0.084 Cl
ENDBRANCH  11  13
ENDBRANCH   9  11
ENDBRANCH   7   9
ENDBRANCH   1   7
BRANCH   2  21
ATOM     21  N   UNL d   1       1.076  -2.404  -0.244  0.00  0.00    -0.379 N 
ATOM     22  C   UNL d   1       2.207  -2.968  -0.995  0.00  0.00     0.123 C 
ATOM     23  C   UNL d   1       1.886  -4.389  -1.451  0.00  0.00     0.020 C 
ATOM     24  C   UNL d   1       1.486  -5.269  -0.271  0.00  0.00     0.003 C 
ATOM     25  C   UNL d   1       0.335  -4.634   0.503  0.00  0.00     0.020 C 
ATOM     26  C   UNL d   1       0.660  -3.200   0.927  0.00  0.00     0.123 C 
ENDBRANCH   2  21
BRANCH   3  27
ATOM     27  C   UNL d   1      -0.377   3.171   0.110  0.00  0.00     0.417 C 
ATOM     28  F   UNL d   1       0.647   4.054  -0.055  0.00  0.00    -0.166 F 
ATOM     29  F   UNL d   1      -1.320   3.518  -0.808  0.00  0.00    -0.166 F 
ATOM     30  F   UNL d   1      -0.919   3.453   1.328  0.00  0.00    -0.166 F 
ENDBRANCH   3  27
TORSDOF 6
