REMARK  4 active torsions:
REMARK  status: ('A' for Active; 'I' for Inactive)
REMARK    1  A    between atoms: C_5  and  C_1 
REMARK    2  A    between atoms: C_4  and  C_12 
REMARK       I    between atoms: N_10  and  C_5 
REMARK       I    between atoms: C_9  and  N_11 
REMARK    3  A    between atoms: C_13  and  C_9 
REMARK    4  A    between atoms: N_11  and  N_10 
ROOT
ATOM      1  C   UNL d   1      -3.532   3.521   0.121  0.00  0.00     0.270 C 
ATOM      2  N   UNL d   1      -2.352   2.919  -0.264  0.00  0.00    -0.263 N 
ATOM      3  O   UNL d   1      -3.578   4.427   0.949  0.00  0.00    -0.266 OA
ATOM      4  H   UNL d   1      -2.313   2.062  -0.813  0.00  0.00     0.190 HD
ENDROOT
BRANCH   2   5
ATOM      5  N   UNL d   1      -1.135   3.326   0.318  0.00  0.00    -0.263 N 
ATOM      6  C   UNL d   1      -0.001   2.645  -0.089  0.00  0.00     0.274 C 
ATOM      7  O   UNL d   1      -0.108   1.694  -0.864  0.00  0.00    -0.266 OA
ATOM      8  H   UNL d   1      -1.157   4.173   0.875  0.00  0.00     0.190 HD
BRANCH   6   9
ATOM      9  C   UNL d   1       1.293   3.089   0.403  0.00  0.00     0.089 A 
ATOM     10  C   UNL d   1       2.487   2.558  -0.059  0.00  0.00     0.090 A 
ATOM     11  O   UNL d   1       3.531   3.141   0.576  0.00  0.00    -0.242 OA
ATOM     12  C   UNL d   1       2.833   1.528  -1.061  0.00  0.00     0.080 C 
ATOM     13  N   UNL d   1       3.060   4.070   1.472  0.00  0.00    -0.265 N 
ATOM     14  C   UNL d   1       1.724   4.042   1.373  0.00  0.00     0.047 A 
ATOM     15  HN  UNL d   1       3.616   4.663   2.089  1.00  0.00     0.194 HD
ATOM     16  C   UNL d   1       0.950   4.944   2.259  0.00  0.00     0.071 C 
ENDBRANCH   6   9
ENDBRANCH   2   5
BRANCH   1  17
ATOM     17  C   UNL d   1      -4.774   2.996  -0.518  0.00  0.00     0.033 A 
ATOM     18  C   UNL d   1      -5.980   3.074   0.190  0.00  0.00     0.018 A 
ATOM     19  C   UNL d   1      -7.175   2.634  -0.394  0.00  0.00     0.017 A 
ATOM     20  C   UNL d   1      -7.186   2.122  -1.700  0.00  0.00     0.048 A 
ATOM     21  C   UNL d   1      -5.973   2.041  -2.403  0.00  0.00     0.017 A 
ATOM     22  C   UNL d   1      -4.776   2.475  -1.819  0.00  0.00     0.018 A 
BRANCH  20  23
ATOM     23  C   UNL d   1      -8.475   1.688  -2.362  0.00  0.00     0.417 C 
ATOM     24  F   UNL d   1      -9.569   1.802  -1.558  0.00  0.00    -0.166 F 
ATOM     25  F   UNL d   1      -8.754   2.419  -3.477  0.00  0.00    -0.166 F 
ATOM     26  F   UNL d   1      -8.443   0.388  -2.767  0.00  0.00    -0.166 F 
ENDBRANCH  20  23
ENDBRANCH   1  17
TORSDOF 4
