REMARK  4 active torsions:
REMARK  status: ('A' for Active; 'I' for Inactive)
REMARK    1  A    between atoms: C_4  and  C_1 
REMARK    2  A    between atoms: C_6  and  N_2 
REMARK    3  A    between atoms: N_3  and  C_5 
REMARK    4  A    between atoms: N_24  and  C_23 
ROOT
ATOM      1  N   UNL d   1      -1.792   1.602   7.949  0.00  0.00    -0.364 N 
ATOM      2  N   UNL d   1      -0.882   1.038   5.334  0.00  0.00    -0.364 N 
ATOM      3  C   UNL d   1      -1.750   2.213   5.553  0.00  0.00     0.144 C 
ATOM      4  C   UNL d   1      -2.648   1.951   6.795  0.00  0.00     0.144 C 
ATOM      5  C   UNL d   1      -0.923   0.439   7.710  0.00  0.00     0.144 C 
ATOM      6  C   UNL d   1      -0.021   0.739   6.494  0.00  0.00     0.144 C 
ENDROOT
BRANCH   2   7
ATOM      7  C   UNL d   1      -0.340   0.856   4.073  0.00  0.00     0.103 A 
ATOM      8  C   UNL d   1       0.145  -0.406   3.728  0.00  0.00     0.049 A 
ATOM      9  C   UNL d   1       0.592  -0.659   2.437  0.00  0.00     0.021 A 
ATOM     10  C   UNL d   1       0.559   0.360   1.491  0.00  0.00     0.063 A 
ATOM     11  C   UNL d   1       0.076   1.595   1.910  0.00  0.00     0.106 A 
ATOM     12  N   UNL d   1      -0.373   1.851   3.161  0.00  0.00    -0.352 N 
ATOM     13  HN  UNL d   1      -0.728   2.774   3.409  1.00  0.00     0.166 HD
BRANCH  10  14
ATOM     14  C   UNL d   1       0.989   0.123   0.080  0.00  0.00     0.418 C 
ATOM     15  F   UNL d   1       0.966   1.242  -0.695  0.00  0.00    -0.166 F 
ATOM     16  F   UNL d   1       0.203  -0.791  -0.552  0.00  0.00    -0.166 F 
ATOM     17  F   UNL d   1       2.259  -0.362  -0.003  0.00  0.00    -0.166 F 
ENDBRANCH  10  14
ENDBRANCH   2   7
BRANCH   1  18
ATOM     18  C   UNL d   1      -2.256   1.877   9.220  0.00  0.00     0.103 A 
ATOM     19  N   UNL d   1      -3.527   2.293   9.388  0.00  0.00    -0.351 N 
ATOM     20  C   UNL d   1      -3.913   2.688  10.628  0.00  0.00     0.113 A 
ATOM     21  HN  UNL d   1      -4.181   2.310   8.605  1.00  0.00     0.166 HD
ATOM     22  C   UNL d   1      -3.110   2.663  11.763  0.00  0.00     0.021 A 
ATOM     23  C   UNL d   1      -1.796   2.270  11.567  0.00  0.00     0.028 A 
ATOM     24  C   UNL d   1      -1.375   1.856  10.302  0.00  0.00     0.050 A 
BRANCH  22  25
ATOM     25  N   UNL d   1      -3.501   3.244  12.973  0.00  0.00    -0.302 NA
ATOM     26  H   UNL d   1      -2.964   2.926  13.775  0.00  0.00     0.124 HD
ATOM     27  H   UNL d   1      -4.501   3.222  13.142  0.00  0.00     0.124 HD
ENDBRANCH  22  25
ENDBRANCH   1  18
TORSDOF 4
