REMARK  3 active torsions:
REMARK  status: ('A' for Active; 'I' for Inactive)
REMARK    1  A    between atoms: C_5  and  C_1 
REMARK    2  A    between atoms: C_8  and  C_2 
REMARK    3  A    between atoms: O_11  and  C_8 
ROOT
ATOM      1  C   UNL d   1      -1.310  -0.830   0.055  0.00  0.00     0.086 A 
ATOM      2  C   UNL d   1       0.029  -1.329  -0.099  0.00  0.00     0.098 A 
ATOM      3  N   UNL d   1      -1.276   0.491   0.286  0.00  0.00    -0.259 N 
ATOM      4  HN  UNL d   1      -2.076   1.094   0.477  1.00  0.00     0.195 HD
ATOM      5  O   UNL d   1       0.036   0.878   0.219  0.00  0.00    -0.241 OA
ATOM      6  C   UNL d   1       0.824  -0.202  -0.002  0.00  0.00     0.091 A 
ATOM      7  C   UNL d   1       2.265   0.104  -0.105  0.00  0.00     0.080 C 
ENDROOT
BRANCH   1   8
ATOM      8  C   UNL d   1      -2.586  -1.558   0.101  0.00  0.00     0.015 A 
ATOM      9  C   UNL d   1      -3.776  -1.069  -0.474  0.00  0.00     0.046 A 
ATOM     10 CL   UNL d   1      -3.855   0.381  -1.420  0.00  0.00    -0.083 Cl
ATOM     11  C   UNL d   1      -4.981  -1.774  -0.329  0.00  0.00     0.025 A 
ATOM     12  C   UNL d   1      -5.017  -2.981   0.366  0.00  0.00     0.002 A 
ATOM     13  C   UNL d   1      -3.849  -3.488   0.922  0.00  0.00     0.001 A 
ATOM     14  C   UNL d   1      -2.649  -2.780   0.799  0.00  0.00     0.015 A 
ENDBRANCH   1   8
BRANCH   2  15
ATOM     15  C   UNL d   1       0.462  -2.684  -0.341  0.00  0.00     0.181 C 
ATOM     16  O   UNL d   1      -0.164  -3.486  -1.019  0.00  0.00    -0.646 OA
BRANCH  15  17
ATOM     17  O   UNL d   1       1.607  -3.048   0.292  0.00  0.00    -0.773 OA
ATOM     18  H   UNL d   1       1.929  -2.383   0.928  0.00  0.00     0.167 HD
ENDBRANCH  15  17
ENDBRANCH   2  15
TORSDOF 3
