REMARK  5 active torsions:
REMARK  status: ('A' for Active; 'I' for Inactive)
REMARK    1  A    between atoms: C_12  and  N_3 
REMARK    2  A    between atoms: C_11  and  C_4 
REMARK    3  A    between atoms: O_15  and  C_7 
REMARK    4  A    between atoms: O_16  and  C_11 
REMARK    5  A    between atoms: C_20  and  O_16 
ROOT
ATOM      1  C   UNL d   1      -0.248  -0.760   0.067  0.00  0.00     0.086 A 
ATOM      2  C   UNL d   1      -0.401   0.599   0.006  0.00  0.00     0.189 A 
ATOM      3  N   UNL d   1      -1.763   0.870   0.083  0.00  0.00    -0.231 N 
ATOM      4  C   UNL d   1       1.075  -1.283   0.031  0.00  0.00     0.070 A 
ATOM      5  N   UNL d   1      -2.473  -0.298   0.200  0.00  0.00    -0.270 N 
ATOM      6  HN  UNL d   1      -3.484  -0.414   0.275  1.00  0.00     0.190 HD
ATOM      7  C   UNL d   1      -1.543  -1.239   0.194  0.00  0.00     0.171 A 
ATOM      8  O   UNL d   1       0.555   1.506  -0.059  0.00  0.00    -0.255 OA
ATOM      9  C   UNL d   1       1.842   1.067  -0.045  0.00  0.00     0.296 A 
ATOM     10  C   UNL d   1       2.117  -0.414  -0.001  0.00  0.00     0.031 A 
ATOM     11  O   UNL d   1       2.763   1.878  -0.090  0.00  0.00    -0.259 OA
ATOM     12  C   UNL d   1       3.573  -0.794  -0.036  0.00  0.00     0.056 C 
ENDROOT
BRANCH   3  13
ATOM     13  C   UNL d   1      -2.446   2.121   0.089  0.00  0.00     0.059 A 
ATOM     14  C   UNL d   1      -1.785   3.332  -0.154  0.00  0.00     0.031 A 
ATOM     15  C   UNL d   1      -2.488   4.539  -0.106  0.00  0.00     0.002 A 
ATOM     16  C   UNL d   1      -3.850   4.550   0.184  0.00  0.00     0.000 A 
ATOM     17  C   UNL d   1      -4.519   3.352   0.417  0.00  0.00     0.002 A 
ATOM     18  C   UNL d   1      -3.825   2.141   0.363  0.00  0.00     0.031 A 
ENDBRANCH   3  13
BRANCH   7  19
ATOM     19  O   UNL d   1      -2.016  -2.473   0.340  0.00  0.00    -0.344 OA
ATOM     20  H   UNL d   1      -2.984  -2.374   0.357  0.00  0.00     0.219 HD
ENDBRANCH   7  19
BRANCH   4  21
ATOM     21  C   UNL d   1       1.346  -2.754  -0.054  0.00  0.00     0.295 C 
ATOM     22  O   UNL d   1       2.383  -3.296   0.287  0.00  0.00    -0.259 OA
BRANCH  21  23
ATOM     23  O   UNL d   1       0.320  -3.359  -0.696  0.00  0.00    -0.318 OA
BRANCH  23  24
ATOM     24  C   UNL d   1       0.534  -4.692  -1.170  0.00  0.00     0.174 C 
ATOM     25  C   UNL d   1       0.893  -4.579  -2.638  0.00  0.00     0.034 C 
ENDBRANCH  23  24
ENDBRANCH  21  23
ENDBRANCH   4  21
TORSDOF 5
