REMARK  2 active torsions:
REMARK  status: ('A' for Active; 'I' for Inactive)
REMARK    1  A    between atoms: C_6  and  N_1 
REMARK    2  A    between atoms: N_7  and  C_4 
ROOT
ATOM      1  N   UNL d   1       0.056   0.884   0.003  0.00  0.00    -0.250 N 
ATOM      2  C   UNL d   1      -1.075   0.131   0.247  0.00  0.00     0.265 C 
ATOM      3  C   UNL d   1       1.166   0.077  -0.126  0.00  0.00     0.233 C 
ATOM      4  C   UNL d   1      -0.743  -1.337   0.049  0.00  0.00     0.323 C 
ATOM      5  C   UNL d   1       0.775  -1.354   0.090  0.00  0.00     0.149 C 
ATOM      6  O   UNL d   1      -2.182   0.522   0.604  0.00  0.00    -0.270 OA
ATOM      7  O   UNL d   1       2.325   0.396  -0.361  0.00  0.00    -0.273 OA
ENDROOT
BRANCH   1   8
ATOM      8  C   UNL d   1       0.064   2.314  -0.062  0.00  0.00     0.047 A 
ATOM      9  C   UNL d   1      -1.124   3.041  -0.270  0.00  0.00     0.057 A 
ATOM     10  C   UNL d   1      -1.122   4.439  -0.323  0.00  0.00     0.074 A 
ATOM     11 CL   UNL d   1      -2.605   5.279  -0.578  0.00  0.00    -0.081 Cl
ATOM     12  C   UNL d   1       0.068   5.138  -0.176  0.00  0.00     0.138 A 
ATOM     13  C   UNL d   1       1.258   4.451   0.017  0.00  0.00     0.046 A 
ATOM     14  F   UNL d   1       0.093   6.478  -0.221  0.00  0.00    -0.204 F 
ATOM     15  C   UNL d   1       1.255   3.051   0.070  0.00  0.00     0.033 A 
ENDBRANCH   1   8
BRANCH   4  16
ATOM     16  N   UNL d   1      -1.345  -1.930  -1.175  0.00  0.00     0.102 N 
ATOM     17  C   UNL d   1      -0.951  -1.280  -2.434  0.00  0.00     0.273 C 
ATOM     18  C   UNL d   1      -1.526  -2.014  -3.647  0.00  0.00     0.030 C 
ATOM     19  C   UNL d   1      -3.043  -2.117  -3.558  0.00  0.00     0.003 C 
ATOM     20  C   UNL d   1      -3.442  -2.757  -2.236  0.00  0.00     0.030 C 
ATOM     21  C   UNL d   1      -2.814  -2.017  -1.054  0.00  0.00     0.273 C 
ENDBRANCH   4  16
TORSDOF 2
