REMARK  4 active torsions:
REMARK  status: ('A' for Active; 'I' for Inactive)
REMARK    1  A    between atoms: C_2  and  C_1 
REMARK    2  A    between atoms: C_3  and  C_2 
REMARK    3  A    between atoms: C_12  and  C_4 
REMARK    4  A    between atoms: N_10  and  C_9 
ROOT
ATOM      1  C   UNL d   1       1.224   1.464  -0.890  0.00  0.00     0.091 C 
ATOM      2  C   UNL d   1       0.337   0.447  -0.872  0.00  0.00     0.038 C 
ATOM      3  C   UNL d   1       0.820   2.823  -0.838  0.00  0.00     0.103 C 
ATOM      4  N   UNL d   1       0.529   3.947  -0.786  0.00  0.00    -0.191 NA
ENDROOT
BRANCH   1   5
ATOM      5  C   UNL d   1       2.674   1.120  -1.010  0.00  0.00     0.174 C 
ATOM      6  O   UNL d   1       3.072  -0.039  -1.057  0.00  0.00    -0.291 OA
BRANCH   5   7
ATOM      7  C   UNL d   1       3.641   2.257  -1.135  0.00  0.00     0.061 A 
ATOM      8  C   UNL d   1       4.372   2.453  -2.446  0.00  0.00     0.013 A 
ATOM      9  C   UNL d   1       5.130   2.009  -1.231  0.00  0.00     0.013 A 
ENDBRANCH   5   7
ENDBRANCH   1   5
BRANCH   2  10
ATOM     10  C   UNL d   1      -1.118   0.623  -0.854  0.00  0.00    -0.035 A 
ATOM     11  C   UNL d   1      -1.825   0.593  -2.056  0.00  0.00     0.013 A 
ATOM     12  C   UNL d   1      -3.216   0.768  -2.067  0.00  0.00     0.030 A 
ATOM     13  C   UNL d   1      -3.959   0.970  -0.892  0.00  0.00     0.029 A 
ATOM     14  C   UNL d   1      -3.214   0.994   0.302  0.00  0.00     0.030 A 
ATOM     15  C   UNL d   1      -1.819   0.832   0.329  0.00  0.00     0.013 A 
BRANCH  13  16
ATOM     16  N   UNL d   1      -5.348   1.059  -0.884  0.00  0.00    -0.390 N 
ATOM     17  C   UNL d   1      -6.023   1.942   0.069  0.00  0.00     0.149 C 
ATOM     18  C   UNL d   1      -6.128   0.790  -2.092  0.00  0.00     0.149 C 
ENDBRANCH  13  16
ENDBRANCH   2  10
TORSDOF 4
