REMARK  3 active torsions:
REMARK  status: ('A' for Active; 'I' for Inactive)
REMARK    1  A    between atoms: C_13  and  C_2 
REMARK    2  A    between atoms: C_14  and  C_4 
REMARK    3  A    between atoms: C_16  and  C_12 
REMARK       I    between atoms: N_18  and  C_14 
ROOT
ATOM      1  N   UNL d   1      -0.262  -0.670   0.046  0.00  0.00    -0.235 N 
ATOM      2  C   UNL d   1       0.913  -1.431   0.013  0.00  0.00     0.104 A 
ATOM      3  C   UNL d   1      -0.190   0.710  -0.025  0.00  0.00     0.144 A 
ATOM      4  C   UNL d   1       2.065  -0.732  -0.115  0.00  0.00     0.145 A 
ATOM      5  N   UNL d   1      -1.552  -1.091   0.127  0.00  0.00    -0.291 N 
ATOM      6  HN  UNL d   1      -1.879  -2.051   0.234  1.00  0.00     0.187 HD
ATOM      7  N   UNL d   1       2.072   0.660  -0.159  0.00  0.00    -0.292 N 
ATOM      8  HN  UNL d   1       2.965   1.147  -0.239  1.00  0.00     0.187 HD
ATOM      9  C   UNL d   1      -1.483   1.169  -0.021  0.00  0.00     0.083 A 
ATOM     10  N   UNL d   1       1.013   1.337  -0.103  0.00  0.00    -0.283 N 
ATOM     11  HN  UNL d   1       1.057   2.356  -0.116  1.00  0.00     0.188 HD
ATOM     12  C   UNL d   1      -2.306   0.016   0.038  0.00  0.00     0.062 A 
ENDROOT
BRANCH   2  13
ATOM     13  C   UNL d   1       0.817  -2.901   0.089  0.00  0.00     0.017 A 
ATOM     14  C   UNL d   1       0.691  -3.710  -1.053  0.00  0.00     0.046 A 
ATOM     15 CL   UNL d   1       0.679  -3.035  -2.646  0.00  0.00    -0.083 Cl
ATOM     16  C   UNL d   1       0.571  -5.097  -0.926  0.00  0.00     0.025 A 
ATOM     17  C   UNL d   1       0.573  -5.688   0.338  0.00  0.00     0.002 A 
ATOM     18  C   UNL d   1       0.702  -4.896   1.477  0.00  0.00     0.001 A 
ATOM     19  C   UNL d   1       0.825  -3.511   1.355  0.00  0.00     0.015 A 
ENDBRANCH   2  13
BRANCH   4  20
ATOM     20  C   UNL d   1       3.414  -1.396  -0.238  0.00  0.00     0.269 C 
ATOM     21  O   UNL d   1       3.615  -2.603  -0.207  0.00  0.00    -0.266 OA
ATOM     22  N   UNL d   1       4.461  -0.534  -0.403  0.00  0.00    -0.365 N 
ATOM     23  H   UNL d   1       4.332   0.467  -0.463  0.00  0.00     0.159 HD
ATOM     24  H   UNL d   1       5.385  -0.925  -0.532  0.00  0.00     0.159 HD
ENDBRANCH   4  20
BRANCH  12  25
ATOM     25  C   UNL d   1      -3.774  -0.050  -0.002  0.00  0.00    -0.008 A 
ATOM     26  C   UNL d   1      -4.437  -1.286   0.074  0.00  0.00     0.014 A 
ATOM     27  C   UNL d   1      -5.832  -1.359   0.003  0.00  0.00     0.001 A 
ATOM     28  C   UNL d   1      -6.585  -0.197  -0.147  0.00  0.00     0.000 A 
ATOM     29  C   UNL d   1      -5.946   1.037  -0.220  0.00  0.00     0.001 A 
ATOM     30  C   UNL d   1      -4.551   1.111  -0.147  0.00  0.00     0.014 A 
ENDBRANCH  12  25
TORSDOF 3
