REMARK  5 active torsions:
REMARK  status: ('A' for Active; 'I' for Inactive)
REMARK    1  A    between atoms: C_2  and  S_1 
REMARK    2  A    between atoms: N_5  and  S_1 
REMARK    3  A    between atoms: N_3  and  C_11 
REMARK    4  A    between atoms: O_6  and  C_4 
REMARK    5  A    between atoms: C_13  and  O_6 
ROOT
ATOM      1  C   UNL d   1       0.488   0.403  -1.723  0.00  0.00     0.078 A 
ATOM      2  C   UNL d   1      -0.425   0.939  -4.311  0.00  0.00     0.119 A 
ATOM      3  C   UNL d   1      -0.296   1.980  -3.376  0.00  0.00     0.071 A 
ATOM      4  C   UNL d   1      -0.150  -0.378  -3.904  0.00  0.00     0.071 A 
ATOM      5  C   UNL d   1       0.302  -0.655  -2.611  0.00  0.00     0.051 A 
ATOM      6  C   UNL d   1       0.195   1.716  -2.097  0.00  0.00     0.051 A 
ATOM      7 CL   UNL d   1      -0.375  -1.714  -4.981  0.00  0.00    -0.081 Cl
ATOM      8 CL   UNL d   1      -0.778   3.612  -3.688  0.00  0.00    -0.081 Cl
ENDROOT
BRANCH   2   9
ATOM      9  O   UNL d   1      -0.899   1.111  -5.596  0.00  0.00    -0.306 OA
BRANCH   9  10
ATOM     10  C   UNL d   1      -0.349   2.096  -6.391  0.00  0.00     0.098 A 
ATOM     11  C   UNL d   1      -1.199   2.753  -7.295  0.00  0.00     0.070 A 
ATOM     12  C   UNL d   1      -0.724   3.803  -8.084  0.00  0.00     0.062 A 
ATOM     13 CL   UNL d   1      -2.863   2.312  -7.440  0.00  0.00    -0.081 Cl
ATOM     14  C   UNL d   1       0.616   4.190  -7.966  0.00  0.00     0.104 A 
ATOM     15  C   UNL d   1       1.484   3.518  -7.094  0.00  0.00     0.039 A 
ATOM     16  C   UNL d   1       1.005   2.454  -6.327  0.00  0.00     0.041 A 
BRANCH  14  17
ATOM     17  N   UNL d   1       1.120   5.312  -8.769  0.00  0.00    -0.116 N 
ATOM     18  O   UNL d   1       0.355   5.813  -9.601  0.00  0.00    -0.532 OA
ATOM     19  O   UNL d   1       2.285   5.685  -8.563  0.00  0.00    -0.532 OA
ENDBRANCH  14  17
ENDBRANCH   9  10
ENDBRANCH   2   9
BRANCH   1  20
ATOM     20  S   UNL d   1       0.960   0.111  -0.037  0.00  0.00     0.243 S 
ATOM     21  O   UNL d   1       1.193  -1.308   0.131  0.00  0.00    -0.206 OA
ATOM     22  O   UNL d   1      -0.003   0.821   0.774  0.00  0.00    -0.206 OA
BRANCH  20  23
ATOM     23  N   UNL d   1       2.475   0.918   0.063  0.00  0.00    -0.206 NA
ATOM     24  C   UNL d   1       3.601   0.155  -0.554  0.00  0.00     0.107 C 
ATOM     25  C   UNL d   1       4.891   0.970  -0.525  0.00  0.00     0.015 C 
ATOM     26  C   UNL d   1       5.231   1.411   0.894  0.00  0.00     0.002 C 
ATOM     27  C   UNL d   1       4.065   2.191   1.484  0.00  0.00     0.015 C 
ATOM     28  C   UNL d   1       2.783   1.366   1.455  0.00  0.00     0.107 C 
ENDBRANCH  20  23
ENDBRANCH   1  20
TORSDOF 5
