REMARK  6 active torsions:
REMARK  status: ('A' for Active; 'I' for Inactive)
REMARK    1  A    between atoms: C_8  and  C_1 
REMARK    2  A    between atoms: C_16  and  N_7 
REMARK    3  A    between atoms: C_10  and  C_13 
REMARK       I    between atoms: N_17  and  C_10 
REMARK    4  A    between atoms: N_11  and  N_17 
REMARK    5  A    between atoms: C_13  and  C_16 
REMARK    6  A    between atoms: C_14  and  C_20 
ROOT
ATOM      1  C   UNL d   1       2.091   1.350  -0.037  0.00  0.00     0.176 C 
ENDROOT
BRANCH   1   2
ATOM      2  C   UNL d   1       3.475   0.714  -0.111  0.00  0.00     0.127 C 
BRANCH   2   3
ATOM      3  C   UNL d   1       4.549   1.774  -0.051  0.00  0.00     0.237 C 
ATOM      4  N   UNL d   1       5.750   1.375  -0.619  0.00  0.00    -0.270 N 
ATOM      5  H   UNL d   1       5.848   0.476  -1.080  0.00  0.00     0.190 HD
ATOM      6  O   UNL d   1       4.354   2.853   0.505  0.00  0.00    -0.272 OA
BRANCH   4   7
ATOM      7  N   UNL d   1       6.798   2.238  -0.591  0.00  0.00    -0.308 N 
ATOM      8  C   UNL d   1       7.894   1.863  -1.169  0.00  0.00     0.120 C 
ATOM      9  HN  UNL d   1       6.725   3.146  -0.133  1.00  0.00     0.186 HD
BRANCH   8  10
ATOM     10  C   UNL d   1       9.082   2.750  -1.161  0.00  0.00     0.002 A 
ATOM     11  C   UNL d   1      10.288   2.389  -1.772  0.00  0.00     0.045 A 
ATOM     12 CL   UNL d   1      10.500   0.899  -2.622  0.00  0.00    -0.083 Cl
ATOM     13  C   UNL d   1      11.387   3.256  -1.711  0.00  0.00     0.024 A 
ATOM     14  C   UNL d   1      11.285   4.480  -1.048  0.00  0.00     0.002 A 
ATOM     15  C   UNL d   1      10.084   4.847  -0.447  0.00  0.00     0.001 A 
ATOM     16  C   UNL d   1       8.987   3.987  -0.503  0.00  0.00     0.014 A 
ENDBRANCH   8  10
ENDBRANCH   4   7
ENDBRANCH   2   3
ENDBRANCH   1   2
BRANCH   1  17
ATOM     17  N   UNL d   1       1.782   2.198  -1.170  0.00  0.00    -0.216 N 
ATOM     18  N   UNL d   1       2.222   1.915  -2.412  0.00  0.00    -0.269 N 
ATOM     19  C   UNL d   1       1.565   2.853  -3.121  0.00  0.00     0.146 A 
ATOM     20  HN  UNL d   1       2.870   1.193  -2.726  1.00  0.00     0.190 HD
ATOM     21  N   UNL d   1       0.757   3.633  -2.331  0.00  0.00    -0.266 N 
ATOM     22  N   UNL d   1       0.875   3.181  -1.090  0.00  0.00    -0.003 NA
ATOM     23  HN  UNL d   1       0.177   4.413  -2.640  1.00  0.00     0.186 HD
BRANCH  19  24
ATOM     24  C   UNL d   1       1.718   3.008  -4.563  0.00  0.00     0.034 A 
ATOM     25  C   UNL d   1       0.684   3.430  -5.421  0.00  0.00     0.069 A 
ATOM     26  C   UNL d   1       0.919   3.484  -6.809  0.00  0.00     0.056 A 
ATOM     27 CL   UNL d   1      -0.894   3.834  -4.814  0.00  0.00    -0.082 Cl
ATOM     28 CL   UNL d   1      -0.300   3.961  -7.946  0.00  0.00    -0.083 Cl
ATOM     29  C   UNL d   1       2.164   3.129  -7.340  0.00  0.00     0.026 A 
ATOM     30  C   UNL d   1       3.192   2.727  -6.497  0.00  0.00     0.003 A 
ATOM     31  C   UNL d   1       2.970   2.670  -5.122  0.00  0.00     0.017 A 
ENDBRANCH  19  24
ENDBRANCH   1  17
TORSDOF 6
