REMARK  1 active torsions:
REMARK  status: ('A' for Active; 'I' for Inactive)
REMARK    1  A    between atoms: S_13  and  C_5 
ROOT
ATOM      1  C   UNL d   1       1.843  -0.647   0.039  0.00  0.00     0.182 A 
ATOM      2  O   UNL d   1       0.832  -0.797  -0.882  0.00  0.00    -0.267 OA
ATOM      3  N   UNL d   1       1.562   0.299   0.918  0.00  0.00    -0.276 N 
ATOM      4  HN  UNL d   1       2.149   0.597   1.697  1.00  0.00     0.189 HD
ATOM      5  C   UNL d   1      -0.076   0.140  -0.478  0.00  0.00     0.201 A 
ATOM      6  N   UNL d   1       0.325   0.808   0.581  0.00  0.00    -0.272 N 
ATOM      7  HN  UNL d   1      -0.179   1.554   1.060  1.00  0.00     0.189 HD
ATOM      8  C   UNL d   1       3.050  -1.420   0.057  0.00  0.00     0.057 A 
ATOM      9  S   UNL d   1       3.380  -2.609  -1.132  0.00  0.00    -0.098 SA
ATOM     10  C   UNL d   1       4.077  -1.336   0.980  0.00  0.00     0.024 A 
ATOM     11  C   UNL d   1       4.882  -3.008  -0.417  0.00  0.00     0.050 A 
ATOM     12  C   UNL d   1       5.134  -2.254   0.707  0.00  0.00     0.009 A 
ENDROOT
BRANCH   5  13
ATOM     13  S   UNL d   1      -1.589   0.394  -1.282  0.00  0.00    -0.098 SA
ATOM     14  H   UNL d   1      -1.480  -0.622  -2.147  0.00  0.00     0.110 HD
ENDBRANCH   5  13
TORSDOF 1
