REMARK  6 active torsions:
REMARK  status: ('A' for Active; 'I' for Inactive)
REMARK    1  A    between atoms: C_6  and  C_1 
REMARK    2  A    between atoms: C_2  and  C_4 
REMARK    3  A    between atoms: N_7  and  C_3 
REMARK       I    between atoms: C_5  and  N_10 
REMARK       I    between atoms: N_9  and  C_5 
REMARK    4  A    between atoms: O_21  and  C_6 
REMARK    5  A    between atoms: C_8  and  N_9 
REMARK    6  A    between atoms: N_10  and  C_13 
ROOT
ATOM      1  C   UNL d   1       1.673  -0.121  -0.100  0.00  0.00     0.068 C 
ATOM      2  C   UNL d   1       0.947  -1.239  -0.552  0.00  0.00     0.046 C 
ATOM      3  C   UNL d   1       1.069   1.155  -0.054  0.00  0.00     0.049 C 
ATOM      4  C   UNL d   1      -0.299  -0.975  -1.151  0.00  0.00     0.032 C 
ATOM      5  C   UNL d   1      -0.253   1.343  -0.451  0.00  0.00     0.037 C 
ATOM      6  C   UNL d   1      -0.894   0.296  -1.104  0.00  0.00     0.032 C 
ENDROOT
BRANCH   5   7
ATOM      7  N   UNL d   1      -0.988   2.523  -0.170  0.00  0.00    -0.309 N 
ATOM      8  C   UNL d   1      -0.622   3.460   0.784  0.00  0.00     0.325 C 
ATOM      9  N   UNL d   1      -1.576   4.463   0.924  0.00  0.00    -0.308 N 
ATOM     10  O   UNL d   1       0.418   3.433   1.431  0.00  0.00    -0.247 OA
ATOM     11  H   UNL d   1      -2.113   4.652   0.083  0.00  0.00     0.170 HD
ATOM     12  H   UNL d   1      -1.955   2.533  -0.460  0.00  0.00     0.170 HD
BRANCH   9  13
ATOM     13  C   UNL d   1      -1.379   5.544   1.827  0.00  0.00     0.051 A 
ATOM     14  C   UNL d   1      -1.690   6.862   1.458  0.00  0.00     0.074 A 
ATOM     15  C   UNL d   1      -1.328   7.914   2.327  0.00  0.00     0.018 A 
ATOM     16  C   UNL d   1      -0.720   7.662   3.557  0.00  0.00     0.001 A 
ATOM     17  C   UNL d   1      -0.492   6.352   3.953  0.00  0.00     0.002 A 
ATOM     18  C   UNL d   1      -0.825   5.302   3.096  0.00  0.00     0.030 A 
BRANCH  14  19
ATOM     19  C   UNL d   1      -2.323   7.228   0.144  0.00  0.00     0.419 C 
ATOM     20  F   UNL d   1      -2.695   6.153  -0.614  0.00  0.00    -0.166 F 
ATOM     21  F   UNL d   1      -3.456   7.969   0.299  0.00  0.00    -0.166 F 
ATOM     22  F   UNL d   1      -1.499   7.968  -0.649  0.00  0.00    -0.166 F 
ENDBRANCH  14  19
ENDBRANCH   9  13
ENDBRANCH   5   7
BRANCH   1  23
ATOM     23  C   UNL d   1       3.119  -0.212   0.270  0.00  0.00     0.295 C 
ATOM     24  O   UNL d   1       3.924  -0.985  -0.229  0.00  0.00    -0.259 OA
BRANCH  23  25
ATOM     25  O   UNL d   1       3.396   0.687   1.245  0.00  0.00    -0.322 OA
ATOM     26  C   UNL d   1       4.762   0.764   1.663  0.00  0.00     0.213 C 
ENDBRANCH  23  25
ENDBRANCH   1  23
BRANCH   2  27
ATOM     27  N   UNL d   1       1.327  -2.551  -0.334  0.00  0.00    -0.376 N 
ATOM     28  C   UNL d   1       1.947  -2.969   0.936  0.00  0.00     0.149 C 
ATOM     29  C   UNL d   1       1.211  -4.202   1.485  0.00  0.00     0.187 C 
ATOM     30  O   UNL d   1       1.183  -5.272   0.526  0.00  0.00    -0.388 OA
ATOM     31  C   UNL d   1       0.514  -4.848  -0.675  0.00  0.00     0.187 C 
ATOM     32  C   UNL d   1       1.197  -3.629  -1.320  0.00  0.00     0.149 C 
ENDBRANCH   2  27
TORSDOF 6
