REMARK  3 active torsions:
REMARK  status: ('A' for Active; 'I' for Inactive)
REMARK    1  A    between atoms: S_2  and  C_1 
REMARK    2  A    between atoms: C_6  and  C_3 
REMARK    3  A    between atoms: N_12  and  C_9 
ROOT
ATOM      1  C   UNL d   1       0.871  -0.023  -0.674  0.00  0.00     0.139 C 
ATOM      2  C   UNL d   1       0.206   1.061  -0.231  0.00  0.00     0.048 C 
ATOM      3  C   UNL d   1       0.246  -1.214  -1.113  0.00  0.00     0.111 C 
ATOM      4  N   UNL d   1      -0.297  -2.188  -1.442  0.00  0.00    -0.191 NA
ENDROOT
BRANCH   1   5
ATOM      5  S   UNL d   1       2.606  -0.002  -0.675  0.00  0.00     0.181 S 
ATOM      6  O   UNL d   1       3.107  -0.890  -1.707  0.00  0.00    -0.222 OA
ATOM      7  O   UNL d   1       3.084   1.369  -0.616  0.00  0.00    -0.222 OA
ATOM      8  C   UNL d   1       2.985  -0.749   0.891  0.00  0.00     0.168 C 
ENDBRANCH   1   5
BRANCH   2   9
ATOM      9  C   UNL d   1      -1.260   1.124  -0.161  0.00  0.00    -0.012 A 
ATOM     10  C   UNL d   1      -1.986   0.690   0.953  0.00  0.00     0.046 A 
ATOM     11  C   UNL d   1      -3.386   0.699   0.935  0.00  0.00     0.054 A 
ATOM     12 CL   UNL d   1      -1.190   0.127   2.384  0.00  0.00    -0.083 Cl
ATOM     13  C   UNL d   1      -4.115   1.119  -0.192  0.00  0.00     0.031 A 
ATOM     14  C   UNL d   1      -3.364   1.580  -1.285  0.00  0.00     0.030 A 
ATOM     15  C   UNL d   1      -1.962   1.585  -1.276  0.00  0.00     0.015 A 
BRANCH  13  16
ATOM     16  N   UNL d   1      -5.510   1.128  -0.169  0.00  0.00    -0.390 N 
ATOM     17  C   UNL d   1      -6.196  -0.058   0.355  0.00  0.00     0.149 C 
ATOM     18  C   UNL d   1      -6.254   1.826  -1.216  0.00  0.00     0.149 C 
ENDBRANCH  13  16
ENDBRANCH   2   9
TORSDOF 3
