REMARK  3 active torsions:
REMARK  status: ('A' for Active; 'I' for Inactive)
REMARK    1  A    between atoms: N_6  and  C_1 
REMARK    2  A    between atoms: C_10  and  N_2 
REMARK       I    between atoms: C_8  and  N_6 
REMARK    3  A    between atoms: C_9  and  C_8 
ROOT
ATOM      1  C   UNL d   1       0.009  -1.207  -0.208  0.00  0.00     0.133 A 
ATOM      2  N   UNL d   1       1.214  -0.515  -0.043  0.00  0.00    -0.243 N 
ATOM      3  C   UNL d   1      -0.981  -0.242  -0.208  0.00  0.00     0.098 A 
ATOM      4  N   UNL d   1       0.981   0.808   0.210  0.00  0.00    -0.295 N 
ATOM      5  HN  UNL d   1       1.669   1.518   0.463  1.00  0.00     0.187 HD
ATOM      6  C   UNL d   1      -0.335   0.977   0.058  0.00  0.00     0.047 A 
ATOM      7 CL   UNL d   1      -2.642  -0.473  -0.473  0.00  0.00    -0.079 Cl
ATOM      8  C   UNL d   1      -0.904   2.346   0.156  0.00  0.00     0.071 C 
ENDROOT
BRANCH   1   9
ATOM      9  N   UNL d   1      -0.148  -2.565  -0.494  0.00  0.00    -0.209 NA
ATOM     10  C   UNL d   1      -0.500  -3.473   0.485  0.00  0.00     0.236 C 
ATOM     11  O   UNL d   1      -1.355  -4.308   0.141  0.00  0.00    -0.276 OA
ATOM     12  H   UNL d   1      -0.861  -2.711  -1.210  0.00  0.00     0.138 HD
BRANCH  10  13
ATOM     13  C   UNL d   1       0.187  -3.626   1.841  0.00  0.00     0.264 C 
ATOM     14 CL   UNL d   1       1.681  -4.562   1.640  0.00  0.00    -0.098 Cl
ATOM     15 CL   UNL d   1       0.455  -2.134   2.734  0.00  0.00    -0.098 Cl
ENDBRANCH  10  13
ENDBRANCH   1   9
BRANCH   2  16
ATOM     16  C   UNL d   1       2.570  -0.961  -0.143  0.00  0.00     0.058 A 
ATOM     17  C   UNL d   1       2.906  -2.246  -0.582  0.00  0.00     0.031 A 
ATOM     18  C   UNL d   1       4.247  -2.642  -0.645  0.00  0.00     0.002 A 
ATOM     19  C   UNL d   1       5.261  -1.753  -0.300  0.00  0.00     0.000 A 
ATOM     20  C   UNL d   1       4.941  -0.463   0.109  0.00  0.00     0.002 A 
ATOM     21  C   UNL d   1       3.605  -0.069   0.190  0.00  0.00     0.031 A 
ENDBRANCH   2  16
TORSDOF 3
