REMARK  6 active torsions:
REMARK  status: ('A' for Active; 'I' for Inactive)
REMARK    1  A    between atoms: C_2  and  N_1 
REMARK    2  A    between atoms: C_4  and  C_2 
REMARK    3  A    between atoms: S_3  and  C_4 
REMARK    4  A    between atoms: C_5  and  S_3 
REMARK    5  A    between atoms: C_9  and  C_4 
REMARK    6  A    between atoms: N_10  and  C_8 
ROOT
ATOM      1  C   UNL d   1       1.212   1.916  -1.330  0.00  0.00     0.109 C 
ENDROOT
BRANCH   1   2
ATOM      2  S   UNL d   1       2.348   1.179  -2.608  0.00  0.00    -0.117 SA
BRANCH   2   3
ATOM      3  C   UNL d   1       3.437   2.563  -3.009  0.00  0.00     0.022 A 
ATOM      4  C   UNL d   1       3.867   2.760  -4.341  0.00  0.00     0.022 A 
ATOM      5  C   UNL d   1       4.620   3.902  -4.651  0.00  0.00     0.024 A 
ATOM      6  C   UNL d   1       5.028   4.786  -3.651  0.00  0.00     0.002 A 
ATOM      7  C   UNL d   1       4.685   4.540  -2.329  0.00  0.00     0.001 A 
ATOM      8  C   UNL d   1       3.907   3.426  -2.008  0.00  0.00     0.020 A 
BRANCH   4   9
ATOM      9  N   UNL d   1       3.386   1.964  -5.402  0.00  0.00    -0.302 NA
ATOM     10  H   UNL d   1       3.099   1.046  -5.074  0.00  0.00     0.124 HD
ATOM     11  H   UNL d   1       4.026   1.914  -6.189  0.00  0.00     0.124 HD
ENDBRANCH   4   9
ENDBRANCH   2   3
ENDBRANCH   1   2
BRANCH   1  12
ATOM     12  C   UNL d   1       0.190   0.918  -0.782  0.00  0.00     0.221 C 
BRANCH  12  13
ATOM     13  N   UNL d   1       0.885  -0.228  -0.125  0.00  0.00    -0.154 N 
ATOM     14  O   UNL d   1       0.653  -1.357  -0.566  0.00  0.00    -0.536 OA
ATOM     15  O   UNL d   1       1.605   0.033   0.851  0.00  0.00    -0.536 OA
ENDBRANCH  12  13
ENDBRANCH   1  12
BRANCH   1  16
ATOM     16  C   UNL d   1       0.473   3.129  -1.886  0.00  0.00    -0.042 A 
ATOM     17  C   UNL d   1      -0.407   3.017  -2.977  0.00  0.00     0.008 A 
ATOM     18  C   UNL d   1      -1.064   4.140  -3.480  0.00  0.00     0.001 A 
ATOM     19  C   UNL d   1      -0.848   5.391  -2.906  0.00  0.00     0.000 A 
ATOM     20  C   UNL d   1       0.018   5.519  -1.824  0.00  0.00     0.001 A 
ATOM     21  C   UNL d   1       0.668   4.396  -1.311  0.00  0.00     0.008 A 
ENDBRANCH   1  16
TORSDOF 6
