REMARK  3 active torsions:
REMARK  status: ('A' for Active; 'I' for Inactive)
REMARK    1  A    between atoms: S_13  and  C_7 
REMARK    2  A    between atoms: C_10  and  C_12 
REMARK    3  A    between atoms: C_12  and  S_13 
ROOT
ATOM      1  N   UNL d   1      -0.149  -0.720  -0.208  0.00  0.00    -0.189 N 
ATOM      2  C   UNL d   1       1.085  -1.281  -0.500  0.00  0.00     0.135 A 
ATOM      3  N   UNL d   1       2.249  -0.604  -0.291  0.00  0.00    -0.321 N 
ATOM      4  HN  UNL d   1       3.161  -1.014  -0.496  1.00  0.00     0.169 HD
ATOM      5  C   UNL d   1      -0.302   0.568   0.324  0.00  0.00     0.349 A 
ATOM      6  N   UNL d   1       0.921   1.175   0.496  0.00  0.00    -0.287 N 
ATOM      7  C   UNL d   1       2.123   0.593   0.185  0.00  0.00     0.150 A 
ATOM      8  N   UNL d   1      -1.188  -1.544  -0.503  0.00  0.00    -0.299 N 
ATOM      9  HN  UNL d   1      -2.185  -1.368  -0.381  1.00  0.00     0.186 HD
ATOM     10  C   UNL d   1       0.808  -2.533  -1.002  0.00  0.00     0.069 A 
ATOM     11  C   UNL d   1      -0.596  -2.635  -0.990  0.00  0.00     0.112 A 
ATOM     12  O   UNL d   1      -1.394   1.059   0.585  0.00  0.00    -0.245 OA
ATOM     13  H   UNL d   1       0.918   2.113   0.865  0.00  0.00     0.172 HD
ENDROOT
BRANCH   7  14
ATOM     14  S   UNL d   1       3.461   1.659   0.497  0.00  0.00    -0.089 SA
BRANCH  14  15
ATOM     15  C   UNL d   1       4.855   0.593   0.035  0.00  0.00     0.124 C 
BRANCH  15  16
ATOM     16  C   UNL d   1       6.182   1.324  -0.002  0.00  0.00    -0.005 A 
ATOM     17  C   UNL d   1       7.034   1.367   1.120  0.00  0.00     0.042 A 
ATOM     18 CL   UNL d   1       6.575   0.701   2.649  0.00  0.00    -0.084 Cl
ATOM     19  C   UNL d   1       8.306   1.953   1.046  0.00  0.00     0.024 A 
ATOM     20  C   UNL d   1       8.749   2.528  -0.140  0.00  0.00     0.003 A 
ATOM     21  C   UNL d   1       7.906   2.544  -1.246  0.00  0.00     0.024 A 
ATOM     22  C   UNL d   1       6.635   1.958  -1.177  0.00  0.00     0.042 A 
ATOM     23 CL   UNL d   1       5.662   2.048  -2.606  0.00  0.00    -0.084 Cl
ENDBRANCH  15  16
ENDBRANCH  14  15
ENDBRANCH   7  14
TORSDOF 3
