REMARK  2 active torsions:
REMARK  status: ('A' for Active; 'I' for Inactive)
REMARK    1  A    between atoms: C_3  and  C_7 
REMARK       I    between atoms: N_6  and  C_3 
REMARK    2  A    between atoms: C_8  and  N_6 
ROOT
ATOM      1  N   UNL d   1       6.420  -0.223  -2.683  0.00  0.00    -0.197 NA
ATOM      2  C   UNL d   1       6.127  -1.247  -2.221  0.00  0.00     0.068 C 
ATOM      3  C   UNL d   1       5.679  -2.505  -1.634  0.00  0.00     0.226 C 
ENDROOT
BRANCH   3   4
ATOM      4  C   UNL d   1       4.195  -2.788  -1.814  0.00  0.00     0.235 C 
ATOM      5  N   UNL d   1       3.380  -1.710  -2.116  0.00  0.00    -0.326 N 
ATOM      6  H   UNL d   1       3.818  -0.821  -2.342  0.00  0.00     0.169 HD
ATOM      7  O   UNL d   1       3.796  -3.937  -1.617  0.00  0.00    -0.272 OA
BRANCH   5   8
ATOM      8  C   UNL d   1       1.965  -1.669  -2.094  0.00  0.00     0.036 A 
ATOM      9  C   UNL d   1       1.151  -2.744  -1.733  0.00  0.00     0.053 A 
ATOM     10  C   UNL d   1      -0.233  -2.572  -1.595  0.00  0.00     0.042 A 
ATOM     11 CL   UNL d   1      -1.175  -3.946  -1.128  0.00  0.00    -0.084 Cl
ATOM     12  C   UNL d   1      -0.830  -1.321  -1.807  0.00  0.00    -0.040 A 
ATOM     13  C   UNL d   1      -0.021  -0.271  -2.259  0.00  0.00     0.011 A 
ATOM     14  C   UNL d   1      -2.291  -1.078  -1.554  0.00  0.00     0.050 C 
ATOM     15  C   UNL d   1       1.360  -0.444  -2.399  0.00  0.00     0.030 A 
ENDBRANCH   5   8
ENDBRANCH   3   4
TORSDOF 2
