REMARK  7 active torsions:
REMARK  status: ('A' for Active; 'I' for Inactive)
REMARK    1  A    between atoms: N_3  and  C_1 
REMARK    2  A    between atoms: N_5  and  C_1 
REMARK       I    between atoms: C_2  and  N_4 
REMARK    3  A    between atoms: O_8  and  C_2 
REMARK    4  A    between atoms: N_4  and  N_3 
REMARK    5  A    between atoms: C_9  and  N_5 
REMARK    6  A    between atoms: C_10  and  O_8 
REMARK    7  A    between atoms: C_11  and  C_9 
ROOT
ATOM      1  N   UNL d   1       0.460  -1.157   0.576  0.00  0.00    -0.272 N 
ATOM      2  H   UNL d   1      -0.466  -1.450   0.267  0.00  0.00     0.189 HD
ENDROOT
BRANCH   1   3
ATOM      3  C   UNL d   1       1.130  -0.154  -0.064  0.00  0.00     0.186 C 
ATOM      4  S   UNL d   1       2.789   0.069  -0.041  0.00  0.00    -0.040 SA
BRANCH   3   5
ATOM      5  N   UNL d   1       0.374   0.782  -0.704  0.00  0.00    -0.362 N 
ATOM      6  H   UNL d   1       0.941   1.510  -1.126  0.00  0.00     0.162 HD
BRANCH   5   7
ATOM      7  C   UNL d   1      -1.034   1.115  -0.469  0.00  0.00     0.079 C 
ATOM      8  C   UNL d   1      -1.482   2.178  -1.474  0.00  0.00     0.032 C 
BRANCH   7   9
ATOM      9  C   UNL d   1      -1.290   1.572   0.982  0.00  0.00     0.020 C 
ATOM     10  C   UNL d   1      -0.529   2.826   1.400  0.00  0.00     0.007 C 
ENDBRANCH   7   9
ENDBRANCH   5   7
ENDBRANCH   3   5
ENDBRANCH   1   3
BRANCH   1  11
ATOM     11  N   UNL d   1       1.128  -2.057   1.423  0.00  0.00    -0.243 N 
ATOM     12  C   UNL d   1       0.396  -3.058   1.999  0.00  0.00     0.379 C 
ATOM     13  O   UNL d   1      -0.712  -3.417   1.608  0.00  0.00    -0.237 OA
ATOM     14  H   UNL d   1       1.894  -1.676   1.971  0.00  0.00     0.192 HD
BRANCH  12  15
ATOM     15  O   UNL d   1       1.024  -3.506   3.114  0.00  0.00    -0.303 OA
BRANCH  15  16
ATOM     16  C   UNL d   1       0.203  -4.266   4.011  0.00  0.00     0.176 C 
ATOM     17  C   UNL d   1      -0.515  -3.298   4.935  0.00  0.00     0.034 C 
ENDBRANCH  15  16
ENDBRANCH  12  15
ENDBRANCH   1  11
TORSDOF 7
