REMARK  3 active torsions:
REMARK  status: ('A' for Active; 'I' for Inactive)
REMARK    1  A    between atoms: N_3  and  C_1 
REMARK       I    between atoms: C_7  and  N_3 
REMARK       I    between atoms: N_11  and  C_7 
REMARK    2  A    between atoms: C_8  and  C_10 
REMARK    3  A    between atoms: C_14  and  N_11 
ROOT
ATOM      1  N   UNL d   1       1.470  -2.220   0.263  0.00  0.00    -0.293 N 
ATOM      2  C   UNL d   1       1.222  -3.567   0.028  0.00  0.00     0.326 C 
ATOM      3  N   UNL d   1      -0.133  -3.845   0.091  0.00  0.00    -0.309 N 
ATOM      4  O   UNL d   1       2.095  -4.391  -0.219  0.00  0.00    -0.247 OA
ATOM      5  H   UNL d   1       0.741  -1.589  -0.038  0.00  0.00     0.172 HD
ATOM      6  H   UNL d   1      -0.716  -3.134   0.507  0.00  0.00     0.170 HD
ENDROOT
BRANCH   1   7
ATOM      7  C   UNL d   1       2.763  -1.710   0.221  0.00  0.00     0.127 A 
ATOM      8  N   UNL d   1       3.931  -2.318   0.634  0.00  0.00    -0.281 N 
ATOM      9  N   UNL d   1       5.033  -1.591   0.343  0.00  0.00    -0.302 N 
ATOM     10  C   UNL d   1       4.114  -3.511   1.429  0.00  0.00     0.179 C 
ATOM     11  C   UNL d   1       4.558  -0.477  -0.218  0.00  0.00     0.025 A 
ATOM     12  HN  UNL d   1       6.008  -1.839   0.513  1.00  0.00     0.186 HD
ATOM     13  C   UNL d   1       3.146  -0.470  -0.248  0.00  0.00     0.076 A 
ATOM     14  C   UNL d   1       5.495   0.545  -0.737  0.00  0.00     0.070 C 
ENDBRANCH   1   7
BRANCH   3  15
ATOM     15  C   UNL d   1      -0.753  -5.074  -0.226  0.00  0.00     0.037 A 
ATOM     16  C   UNL d   1      -0.072  -6.163  -0.781  0.00  0.00     0.045 A 
ATOM     17  C   UNL d   1      -0.737  -7.363  -1.085  0.00  0.00     0.050 A 
ATOM     18  C   UNL d   1      -2.112  -7.456  -0.840  0.00  0.00     0.016 A 
ATOM     19  C   UNL d   1      -2.804  -6.375  -0.296  0.00  0.00     0.003 A 
ATOM     20  C   UNL d   1      -2.127  -5.191   0.010  0.00  0.00     0.029 A 
BRANCH  17  21
ATOM     21  C   UNL d   1       0.015  -8.530  -1.677  0.00  0.00     0.417 C 
ATOM     22  F   UNL d   1       1.359  -8.333  -1.776  0.00  0.00    -0.166 F 
ATOM     23  F   UNL d   1      -0.140  -9.671  -0.949  0.00  0.00    -0.166 F 
ATOM     24  F   UNL d   1      -0.410  -8.833  -2.936  0.00  0.00    -0.166 F 
ENDBRANCH  17  21
ENDBRANCH   3  15
TORSDOF 3
