REMARK  6 active torsions:
REMARK  status: ('A' for Active; 'I' for Inactive)
REMARK    1  A    between atoms: C_13  and  C_3 
REMARK    2  A    between atoms: C_14  and  C_4 
REMARK    3  A    between atoms: C_5  and  C_8 
REMARK    4  A    between atoms: C_7  and  C_12 
REMARK    5  A    between atoms: C_15  and  O_18 
REMARK    6  A    between atoms: O_18  and  C_31 
ROOT
ATOM      1  C   UNL d   1      -0.079  -2.558  -0.066  0.00  0.00    -0.002 A 
ATOM      2  C   UNL d   1       0.450  -3.309   0.994  0.00  0.00     0.017 A 
ATOM      3  C   UNL d   1      -0.777  -3.238  -1.078  0.00  0.00     0.017 A 
ATOM      4  C   UNL d   1      -0.376  -5.365   0.015  0.00  0.00     0.077 A 
ATOM      5  C   UNL d   1      -0.927  -4.629  -1.035  0.00  0.00     0.038 A 
ATOM      6  C   UNL d   1       0.285  -4.696   1.047  0.00  0.00     0.038 A 
ENDROOT
BRANCH   1   7
ATOM      7  C   UNL d   1       0.143  -1.104  -0.087  0.00  0.00     0.084 A 
ATOM      8  N   UNL d   1       1.220  -0.513   0.396  0.00  0.00    -0.349 N 
ATOM      9  C   UNL d   1       1.150   0.859   0.212  0.00  0.00     0.050 A 
ATOM     10  HN  UNL d   1       1.997  -1.000   0.844  1.00  0.00     0.166 HD
ATOM     11  C   UNL d   1      -0.031   1.302  -0.348  0.00  0.00     0.082 A 
ATOM     12  S   UNL d   1      -1.050  -0.028  -0.708  0.00  0.00    -0.081 SA
BRANCH   9  13
ATOM     13  C   UNL d   1       2.255   1.731   0.606  0.00  0.00    -0.009 A 
ATOM     14  C   UNL d   1       2.449   2.990   0.020  0.00  0.00     0.014 A 
ATOM     15  C   UNL d   1       3.524   3.799   0.406  0.00  0.00     0.017 A 
ATOM     16  C   UNL d   1       4.431   3.367   1.384  0.00  0.00     0.048 A 
ATOM     17  C   UNL d   1       4.242   2.107   1.966  0.00  0.00     0.017 A 
ATOM     18  C   UNL d   1       3.167   1.298   1.578  0.00  0.00     0.014 A 
BRANCH  16  19
ATOM     19  C   UNL d   1       5.587   4.252   1.780  0.00  0.00     0.417 C 
ATOM     20  F   UNL d   1       6.369   3.727   2.764  0.00  0.00    -0.166 F 
ATOM     21  F   UNL d   1       6.423   4.514   0.737  0.00  0.00    -0.166 F 
ATOM     22  F   UNL d   1       5.177   5.467   2.241  0.00  0.00    -0.166 F 
ENDBRANCH  16  19
ENDBRANCH   9  13
ENDBRANCH   1   7
BRANCH   4  23
ATOM     23  O   UNL d   1      -0.591  -6.725  -0.013  0.00  0.00    -0.294 OA
BRANCH  23  24
ATOM     24  C   UNL d   1       0.376  -7.548   0.547  0.00  0.00     0.147 A 
ATOM     25  N   UNL d   1       1.683  -7.218   0.434  0.00  0.00    -0.346 N 
ATOM     26  C   UNL d   1       2.575  -8.022   1.052  0.00  0.00     0.106 A 
ATOM     27  HN  UNL d   1       1.981  -6.399  -0.095  1.00  0.00     0.167 HD
ATOM     28  C   UNL d   1       2.228  -9.158   1.768  0.00  0.00     0.063 A 
ATOM     29  C   UNL d   1       0.872  -9.504   1.814  0.00  0.00     0.022 A 
ATOM     30  C   UNL d   1      -0.071  -8.691   1.189  0.00  0.00     0.057 A 
BRANCH  28  31
ATOM     31  C   UNL d   1       3.272  -9.966   2.474  0.00  0.00     0.418 C 
ATOM     32  F   UNL d   1       4.524  -9.437   2.387  0.00  0.00    -0.166 F 
ATOM     33  F   UNL d   1       3.014 -10.091   3.806  0.00  0.00    -0.166 F 
ATOM     34  F   UNL d   1       3.366 -11.234   1.991  0.00  0.00    -0.166 F 
ENDBRANCH  28  31
ENDBRANCH  23  24
ENDBRANCH   4  23
TORSDOF 6
