REMARK  3 active torsions:
REMARK  status: ('A' for Active; 'I' for Inactive)
REMARK    1  A    between atoms: C_6  and  C_1 
REMARK    2  A    between atoms: N_9  and  C_2 
REMARK    3  A    between atoms: C_7  and  C_6 
ROOT
ATOM      1  C   UNL d   1      -0.173  -1.174  -0.049  0.00  0.00     0.056 A 
ATOM      2  C   UNL d   1       1.134  -0.719  -0.190  0.00  0.00     0.083 A 
ATOM      3  S   UNL d   1       1.237   0.973  -0.296  0.00  0.00    -0.076 SA
ATOM      4  C   UNL d   1      -1.110  -0.051  -0.005  0.00  0.00    -0.032 A 
ATOM      5  C   UNL d   1      -0.445   1.165  -0.114  0.00  0.00    -0.012 A 
ATOM      6  C   UNL d   1      -2.594  -0.132   0.190  0.00  0.00     0.050 C 
ATOM      7  C   UNL d   1      -0.991   2.558  -0.058  0.00  0.00     0.057 C 
ENDROOT
BRANCH   1   8
ATOM      8  C   UNL d   1      -0.426  -2.619   0.135  0.00  0.00     0.202 C 
ATOM      9  O   UNL d   1       0.371  -3.300   0.786  0.00  0.00    -0.286 OA
BRANCH   8  10
ATOM     10  C   UNL d   1      -1.608  -3.197  -0.489  0.00  0.00     0.055 A 
ATOM     11  S   UNL d   1      -2.303  -4.590   0.248  0.00  0.00    -0.098 SA
ATOM     12  C   UNL d   1      -3.524  -4.703  -0.939  0.00  0.00     0.050 A 
ATOM     13  C   UNL d   1      -3.408  -3.718  -1.891  0.00  0.00     0.009 A 
ATOM     14  C   UNL d   1      -2.296  -2.856  -1.642  0.00  0.00     0.023 A 
ENDBRANCH   8  10
ENDBRANCH   1   8
BRANCH   2  15
ATOM     15  N   UNL d   1       2.269  -1.459  -0.236  0.00  0.00    -0.393 N 
ATOM     16  H   UNL d   1       2.230  -2.398   0.168  0.00  0.00     0.156 HD
ATOM     17  H   UNL d   1       3.143  -0.986  -0.026  0.00  0.00     0.156 HD
ENDBRANCH   2  15
TORSDOF 3
