REMARK  4 active torsions:
REMARK  status: ('A' for Active; 'I' for Inactive)
REMARK    1  A    between atoms: N_3  and  S_1 
REMARK    2  A    between atoms: C_8  and  S_1 
REMARK    3  A    between atoms: C_2  and  N_3 
REMARK    4  A    between atoms: C_9  and  C_7 
ROOT
ATOM      1  S   UNL d   1       1.049   0.022  -0.101  0.00  0.00     0.247 S 
ATOM      2  O   UNL d   1       0.337   0.997  -0.898  0.00  0.00    -0.205 OA
ATOM      3  O   UNL d   1       2.488   0.085   0.025  0.00  0.00    -0.205 OA
ENDROOT
BRANCH   1   4
ATOM      4  N   UNL d   1       0.625  -1.526  -0.638  0.00  0.00    -0.164 NA
ATOM      5  H   UNL d   1       1.208  -2.205  -0.145  0.00  0.00     0.147 HD
BRANCH   4   6
ATOM      6  C   UNL d   1      -0.722  -1.847  -0.638  0.00  0.00     0.128 A 
ATOM      7  C   UNL d   1      -1.649  -1.671  -1.680  0.00  0.00     0.068 A 
ATOM      8  C   UNL d   1      -2.845  -2.129  -1.194  0.00  0.00     0.132 A 
ATOM      9 BR   UNL d   1      -1.300  -1.010  -3.392  0.00  0.00    -0.046 Br
ATOM     10  N   UNL d   1      -2.575  -2.557   0.074  0.00  0.00    -0.305 N 
ATOM     11  N   UNL d   1      -1.273  -2.448   0.418  0.00  0.00    -0.287 N 
ATOM     12  C   UNL d   1      -3.536  -3.095   1.008  0.00  0.00     0.177 C 
ATOM     13  HN  UNL d   1      -0.820  -2.751   1.280  1.00  0.00     0.188 HD
ENDBRANCH   4   6
ENDBRANCH   1   4
BRANCH   1  14
ATOM     14  C   UNL d   1       0.404   0.100   1.573  0.00  0.00     0.089 A 
ATOM     15  C   UNL d   1       0.879  -0.738   2.604  0.00  0.00     0.070 A 
ATOM     16  C   UNL d   1       0.362  -0.539   3.904  0.00  0.00     0.018 A 
ATOM     17  C   UNL d   1      -0.598   0.439   4.166  0.00  0.00     0.001 A 
ATOM     18  C   UNL d   1      -1.063   1.245   3.135  0.00  0.00     0.002 A 
ATOM     19  C   UNL d   1      -0.562   1.082   1.844  0.00  0.00     0.026 A 
BRANCH  15  20
ATOM     20  C   UNL d   1       1.891  -1.847   2.451  0.00  0.00     0.418 C 
ATOM     21  F   UNL d   1       2.215  -2.195   1.179  0.00  0.00    -0.166 F 
ATOM     22  F   UNL d   1       3.063  -1.572   3.083  0.00  0.00    -0.166 F 
ATOM     23  F   UNL d   1       1.442  -3.010   3.012  0.00  0.00    -0.166 F 
ENDBRANCH  15  20
ENDBRANCH   1  14
TORSDOF 4
