REMARK  5 active torsions:
REMARK  status: ('A' for Active; 'I' for Inactive)
REMARK    1  A    between atoms: C_2  and  C_1 
REMARK    2  A    between atoms: C_3  and  C_6 
REMARK    3  A    between atoms: C_13  and  C_8 
REMARK    4  A    between atoms: N_19  and  N_9 
REMARK    5  A    between atoms: C_20  and  N_19 
ROOT
ATOM      1  C   UNL d   1      -0.068   1.070  -0.005  0.00  0.00     0.088 A 
ATOM      2  O   UNL d   1      -0.924  -0.005  -0.007  0.00  0.00    -0.308 OA
ATOM      3  C   UNL d   1       1.236   0.617  -0.054  0.00  0.00     0.041 A 
ATOM      4  C   UNL d   1      -0.155  -1.137  -0.017  0.00  0.00     0.093 A 
ATOM      5  C   UNL d   1       1.181  -0.792  -0.043  0.00  0.00     0.041 A 
ENDROOT
BRANCH   4   6
ATOM      6  C   UNL d   1      -0.778  -2.431   0.011  0.00  0.00     0.144 C 
ATOM      7  N   UNL d   1      -0.015  -3.477   0.022  0.00  0.00    -0.309 N 
ATOM      8  HN  UNL d   1       1.001  -3.391  -0.008  1.00  0.00     0.186 HD
BRANCH   7   9
ATOM      9  N   UNL d   1      -0.617  -4.693   0.074  0.00  0.00    -0.301 N 
ATOM     10  H   UNL d   1      -1.514  -4.834  -0.387  0.00  0.00     0.187 HD
BRANCH   9  11
ATOM     11  C   UNL d   1       0.233  -5.824   0.026  0.00  0.00     0.048 A 
ATOM     12  C   UNL d   1       1.628  -5.709   0.166  0.00  0.00     0.034 A 
ATOM     13  C   UNL d   1       2.450  -6.837   0.187  0.00  0.00     0.044 A 
ATOM     14  C   UNL d   1       1.875  -8.096   0.100  0.00  0.00     0.116 A 
ATOM     15  C   UNL d   1       0.498  -8.245  -0.005  0.00  0.00     0.044 A 
ATOM     16  F   UNL d   1       2.658  -9.182   0.129  0.00  0.00    -0.206 F 
ATOM     17  C   UNL d   1      -0.322  -7.110  -0.032  0.00  0.00     0.034 A 
ENDBRANCH   9  11
ENDBRANCH   7   9
ENDBRANCH   4   6
BRANCH   1  18
ATOM     18  C   UNL d   1      -0.683   2.398   0.036  0.00  0.00     0.020 A 
ATOM     19  C   UNL d   1      -1.892   2.613  -0.656  0.00  0.00     0.032 A 
ATOM     20  C   UNL d   1      -2.510   3.878  -0.692  0.00  0.00     0.048 A 
ATOM     21  C   UNL d   1      -1.904   4.947  -0.021  0.00  0.00     0.018 A 
ATOM     22  C   UNL d   1      -0.714   4.753   0.678  0.00  0.00     0.026 A 
ATOM     23  C   UNL d   1      -0.108   3.491   0.714  0.00  0.00     0.047 A 
ATOM     24 CL   UNL d   1       1.333   3.370   1.667  0.00  0.00    -0.083 Cl
BRANCH  20  25
ATOM     25  C   UNL d   1      -3.807   4.102  -1.432  0.00  0.00     0.417 C 
ATOM     26  F   UNL d   1      -4.263   2.997  -2.084  0.00  0.00    -0.166 F 
ATOM     27  F   UNL d   1      -4.814   4.490  -0.603  0.00  0.00    -0.166 F 
ATOM     28  F   UNL d   1      -3.703   5.078  -2.376  0.00  0.00    -0.166 F 
ENDBRANCH  20  25
ENDBRANCH   1  18
TORSDOF 5
