REMARK  4 active torsions:
REMARK  status: ('A' for Active; 'I' for Inactive)
REMARK    1  A    between atoms: C_9  and  N_6 
REMARK    2  A    between atoms: C_10  and  C_9 
REMARK       I    between atoms: N_13  and  C_10 
REMARK    3  A    between atoms: N_11  and  N_13 
REMARK    4  A    between atoms: C_16  and  C_15 
ROOT
ATOM      1  C   UNL d   1       3.191  -0.078  -0.349  0.00  0.00     0.257 C 
ATOM      2  N   UNL d   1       3.373  -1.216   0.425  0.00  0.00    -0.269 N 
ATOM      3  O   UNL d   1       4.016   0.355  -1.158  0.00  0.00    -0.270 OA
ATOM      4  H   UNL d   1       2.548  -1.637   0.863  0.00  0.00     0.190 HD
ENDROOT
BRANCH   1   5
ATOM      5  C   UNL d   1       1.960   0.723  -0.012  0.00  0.00     0.272 C 
BRANCH   5   6
ATOM      6  N   UNL d   1       0.718  -0.021   0.041  0.00  0.00    -0.194 N 
ATOM      7  N   UNL d   1       0.644  -1.360   0.196  0.00  0.00    -0.115 N 
ATOM      8  C   UNL d   1      -0.683  -1.518   0.306  0.00  0.00     0.709 A 
ATOM      9  HN  UNL d   1       1.388  -2.057   0.221  1.00  0.00     0.207 HD
ATOM     10  N   UNL d   1      -1.353  -0.320   0.318  0.00  0.00    -0.113 N 
ATOM     11  N   UNL d   1      -1.347  -2.683   0.430  0.00  0.00    -0.215 N 
ATOM     12  N   UNL d   1      -0.449   0.634   0.160  0.00  0.00     0.011 NA
ATOM     13  HN  UNL d   1      -2.359  -0.189   0.429  1.00  0.00     0.203 HD
ATOM     14  C   UNL d   1      -2.798  -2.732   0.418  0.00  0.00     0.141 C 
ATOM     15  C   UNL d   1      -0.779  -3.938  -0.038  0.00  0.00     0.141 C 
ATOM     16  C   UNL d   1      -3.087  -4.204   0.674  0.00  0.00     0.022 C 
ATOM     17  C   UNL d   1      -1.951  -4.925  -0.038  0.00  0.00     0.022 C 
ENDBRANCH   5   6
ENDBRANCH   1   5
BRANCH   2  18
ATOM     18  N   UNL d   1       4.496  -1.978   0.281  0.00  0.00    -0.308 N 
ATOM     19  C   UNL d   1       4.544  -3.011   1.059  0.00  0.00     0.118 C 
ATOM     20  HN  UNL d   1       5.235  -1.752  -0.384  1.00  0.00     0.186 HD
BRANCH  19  21
ATOM     21  C   UNL d   1       5.655  -3.981   1.024  0.00  0.00    -0.019 A 
ATOM     22  C   UNL d   1       6.671  -3.888   0.066  0.00  0.00     0.014 A 
ATOM     23  C   UNL d   1       7.685  -4.849   0.036  0.00  0.00     0.024 A 
ATOM     24  C   UNL d   1       7.682  -5.891   0.963  0.00  0.00     0.034 A 
ATOM     25  C   UNL d   1       6.677  -5.979   1.927  0.00  0.00     0.024 A 
ATOM     26 CL   UNL d   1       8.921  -7.084   0.917  0.00  0.00    -0.084 Cl
ATOM     27  C   UNL d   1       5.660  -5.022   1.958  0.00  0.00     0.014 A 
ENDBRANCH  19  21
ENDBRANCH   2  18
TORSDOF 4
