REMARK  7 active torsions:
REMARK  status: ('A' for Active; 'I' for Inactive)
REMARK    1  A    between atoms: C_6  and  C_1 
REMARK    2  A    between atoms: C_8  and  C_1 
REMARK    3  A    between atoms: C_10  and  C_1 
REMARK    4  A    between atoms: C_5  and  N_17 
REMARK    5  A    between atoms: C_7  and  C_6 
REMARK    6  A    between atoms: N_17  and  C_8 
REMARK    7  A    between atoms: N_11  and  C_10 
ROOT
ATOM      1  C   UNL d   1       1.085  -0.028  -0.045  0.00  0.00     0.088 C 
ENDROOT
BRANCH   1   2
ATOM      2  C   UNL d   1       0.376  -1.208  -0.627  0.00  0.00     0.174 C 
ATOM      3  O   UNL d   1      -0.837  -1.358  -0.509  0.00  0.00    -0.291 OA
BRANCH   2   4
ATOM      4  C   UNL d   1       1.212  -2.208  -1.363  0.00  0.00     0.061 A 
ATOM      5  C   UNL d   1       0.571  -3.284  -2.208  0.00  0.00     0.013 A 
ATOM      6  C   UNL d   1       1.227  -3.650  -0.909  0.00  0.00     0.013 A 
ENDBRANCH   2   4
ENDBRANCH   1   2
BRANCH   1   7
ATOM      7  C   UNL d   1       0.421   1.033   0.439  0.00  0.00     0.115 C 
BRANCH   7   8
ATOM      8  N   UNL d   1      -0.941   1.240   0.535  0.00  0.00    -0.349 N 
ATOM      9  H   UNL d   1      -1.502   0.434   0.243  0.00  0.00     0.167 HD
BRANCH   8  10
ATOM     10  C   UNL d   1      -1.553   2.374   0.959  0.00  0.00     0.128 A 
ATOM     11  N   UNL d   1      -0.963   3.527   1.299  0.00  0.00    -0.245 N 
ATOM     12  O   UNL d   1      -1.979   4.390   1.658  0.00  0.00    -0.241 OA
ATOM     13  HN  UNL d   1       0.037   3.727   1.294  1.00  0.00     0.196 HD
ATOM     14  C   UNL d   1      -3.173   3.753   1.541  0.00  0.00     0.076 A 
ATOM     15  C   UNL d   1      -2.957   2.473   1.095  0.00  0.00     0.084 A 
ATOM     16  C   UNL d   1      -4.367   4.537   1.899  0.00  0.00     0.079 C 
ENDBRANCH   8  10
ENDBRANCH   7   8
ENDBRANCH   1   7
BRANCH   1  17
ATOM     17  C   UNL d   1       2.605  -0.028  -0.045  0.00  0.00    -0.032 C 
BRANCH  17  18
ATOM     18  N   UNL d   1       3.865  -0.028  -0.045  0.00  0.00    -0.365 N 
ATOM     19  HN2 UNL d   1       2.845  -0.028  -0.045  1.00  0.00     0.165 HD
ATOM     20  HN1 UNL d   1       4.886  -0.028  -0.045  1.00  0.00     0.165 HD
ENDBRANCH  17  18
ENDBRANCH   1  17
TORSDOF 7
