REMARK  4 active torsions:
REMARK  status: ('A' for Active; 'I' for Inactive)
REMARK    1  A    between atoms: C_2  and  C_1 
REMARK    2  A    between atoms: N_9  and  C_2 
REMARK    3  A    between atoms: N_12  and  C_3 
REMARK    4  A    between atoms: O_14  and  N_10 
ROOT
ATOM      1  C   UNL d   1       0.321  -2.707  -0.030  0.00  0.00     0.156 C 
ATOM      2  N   UNL d   1       1.242  -2.791  -0.944  0.00  0.00    -0.251 N 
ATOM      3  HN  UNL d   1       2.000  -2.118  -1.057  1.00  0.00     0.196 HD
ENDROOT
BRANCH   1   4
ATOM      4  C   UNL d   1       0.401  -1.591   0.921  0.00  0.00     0.147 A 
ATOM      5  C   UNL d   1       1.330  -0.519   0.975  0.00  0.00     0.154 A 
ATOM      6  N   UNL d   1       1.050   0.267   2.011  0.00  0.00    -0.224 N 
ATOM      7  O   UNL d   1      -0.072  -0.294   2.600  0.00  0.00    -0.155 OA
ATOM      8  HN  UNL d   1       1.553   1.103   2.309  1.00  0.00     0.198 HD
ATOM      9  N   UNL d   1      -0.470  -1.443   1.934  0.00  0.00    -0.234 N 
ATOM     10  HN  UNL d   1      -1.259  -2.048   2.164  1.00  0.00     0.197 HD
BRANCH   5  11
ATOM     11  N   UNL d   1       2.353  -0.312   0.121  0.00  0.00    -0.382 N 
ATOM     12  H   UNL d   1       2.619  -1.039  -0.537  0.00  0.00     0.157 HD
ATOM     13  H   UNL d   1       3.082   0.348   0.368  0.00  0.00     0.157 HD
ENDBRANCH   5  11
ENDBRANCH   1   4
BRANCH   1  14
ATOM     14  N   UNL d   1      -0.772  -3.522   0.194  0.00  0.00    -0.360 N 
ATOM     15  C   UNL d   1      -1.745  -3.809  -0.861  0.00  0.00     0.151 C 
ATOM     16  C   UNL d   1      -3.115  -4.045  -0.202  0.00  0.00     0.187 C 
ATOM     17  O   UNL d   1      -3.056  -5.108   0.768  0.00  0.00    -0.388 OA
ATOM     18  C   UNL d   1      -2.090  -4.803   1.793  0.00  0.00     0.187 C 
ATOM     19  C   UNL d   1      -0.694  -4.595   1.191  0.00  0.00     0.151 C 
ENDBRANCH   1  14
BRANCH   2  20
ATOM     20  O   UNL d   1       1.064  -3.921  -1.755  0.00  0.00    -0.288 OA
ATOM     21  H   UNL d   1       1.837  -3.882  -2.348  0.00  0.00     0.244 HD
ENDBRANCH   2  20
TORSDOF 4
