REMARK  5 active torsions:
REMARK  status: ('A' for Active; 'I' for Inactive)
REMARK    1  A    between atoms: N_2  and  C_1 
REMARK       I    between atoms: C_3  and  N_7 
REMARK    2  A    between atoms: C_5  and  C_3 
REMARK    3  A    between atoms: N_8  and  C_4 
REMARK    4  A    between atoms: C_6  and  C_10 
REMARK    5  A    between atoms: N_7  and  N_8 
ROOT
ATOM      1  C   UNL d   1       1.366  -0.167   0.183  0.00  0.00     0.126 A 
ATOM      2  C   UNL d   1       0.478  -1.225  -0.109  0.00  0.00     0.063 A 
ATOM      3  C   UNL d   1       0.981   1.188   0.163  0.00  0.00     0.054 A 
ATOM      4  C   UNL d   1      -0.323   1.534  -0.201  0.00  0.00     0.050 A 
ATOM      5  C   UNL d   1      -0.792  -0.835  -0.570  0.00  0.00     0.029 A 
ATOM      6  C   UNL d   1      -1.188   0.512  -0.611  0.00  0.00     0.018 A 
ENDROOT
BRANCH   2   7
ATOM      7  N   UNL d   1       0.813  -2.587   0.083  0.00  0.00    -0.196 NA
ATOM      8  C   UNL d   1      -0.105  -3.625  -0.408  0.00  0.00     0.143 C 
BRANCH   7   9
ATOM      9  N   UNL d   1       1.288  -2.842   1.392  0.00  0.00    -0.281 N 
ATOM     10  C   UNL d   1       2.277  -3.813   1.602  0.00  0.00     0.287 C 
ATOM     11  O   UNL d   1       2.755  -4.471   0.671  0.00  0.00    -0.267 OA
ATOM     12  H   UNL d   1       0.810  -2.386   2.168  0.00  0.00     0.184 HD
BRANCH  10  13
ATOM     13  C   UNL d   1       2.627  -4.080   3.083  0.00  0.00     0.270 C 
ATOM     14 CL   UNL d   1       2.171  -2.697   4.125  0.00  0.00    -0.073 Cl
ATOM     15 CL   UNL d   1       1.682  -5.511   3.596  0.00  0.00    -0.073 Cl
ATOM     16 CL   UNL d   1       4.368  -4.398   3.254  0.00  0.00    -0.073 Cl
ENDBRANCH  10  13
ENDBRANCH   7   9
ENDBRANCH   2   7
BRANCH   1  17
ATOM     17  N   UNL d   1       2.755  -0.440   0.502  0.00  0.00    -0.114 N 
ATOM     18  O   UNL d   1       3.462  -0.938  -0.380  0.00  0.00    -0.532 OA
ATOM     19  O   UNL d   1       3.138  -0.096   1.631  0.00  0.00    -0.532 OA
ENDBRANCH   1  17
BRANCH   4  20
ATOM     20  C   UNL d   1      -0.814   2.960  -0.145  0.00  0.00     0.417 C 
ATOM     21  F   UNL d   1       0.122   3.839   0.310  0.00  0.00    -0.166 F 
ATOM     22  F   UNL d   1      -1.212   3.425  -1.361  0.00  0.00    -0.166 F 
ATOM     23  F   UNL d   1      -1.888   3.098   0.680  0.00  0.00    -0.166 F 
ENDBRANCH   4  20
TORSDOF 5
