REMARK  8 active torsions:
REMARK  status: ('A' for Active; 'I' for Inactive)
REMARK    1  A    between atoms: S_11  and  C_3 
REMARK    2  A    between atoms: S_12  and  C_4 
REMARK    3  A    between atoms: C_17  and  S_11 
REMARK    4  A    between atoms: C_18  and  S_12 
REMARK    5  A    between atoms: C_13  and  C_17 
REMARK    6  A    between atoms: C_15  and  C_13 
REMARK    7  A    between atoms: C_14  and  C_18 
REMARK    8  A    between atoms: C_16  and  C_14 
ROOT
ATOM      1  N   UNL d   1      -0.015   0.708   0.294  0.00  0.00    -0.241 N 
ATOM      2  N   UNL d   1      -0.101  -0.646   0.338  0.00  0.00    -0.241 N 
ATOM      3  C   UNL d   1       1.254   1.050  -0.110  0.00  0.00     0.161 A 
ATOM      4  C   UNL d   1      -1.339  -1.028  -0.102  0.00  0.00     0.161 C 
ATOM      5  N   UNL d   1       2.104   0.053  -0.269  0.00  0.00    -0.347 N 
ATOM      6  HN  UNL d   1       3.098   0.082  -0.496  1.00  0.00     0.163 HD
ATOM      7  N   UNL d   1      -2.212  -0.063  -0.293  0.00  0.00    -0.347 N 
ATOM      8  HN  UNL d   1      -3.200  -0.125  -0.537  1.00  0.00     0.163 HD
ATOM      9  C   UNL d   1      -1.351   1.170  -0.055  0.00  0.00     0.206 C 
ATOM     10  C   UNL d   1       1.207  -1.148  -0.021  0.00  0.00     0.206 A 
ATOM     11  C   UNL d   1      -1.481   2.023  -1.304  0.00  0.00     0.057 C 
ATOM     12  C   UNL d   1       1.745  -1.959   1.153  0.00  0.00     0.057 C 
ENDROOT
BRANCH   3  13
ATOM     13  S   UNL d   1       1.730   2.710  -0.301  0.00  0.00    -0.085 SA
BRANCH  13  14
ATOM     14  C   UNL d   1       3.507   2.590  -0.674  0.00  0.00     0.166 C 
BRANCH  14  15
ATOM     15  C   UNL d   1       4.119   3.964  -0.949  0.00  0.00     0.169 C 
ATOM     16  O   UNL d   1       3.488   5.014  -0.910  0.00  0.00    -0.291 OA
BRANCH  15  17
ATOM     17  C   UNL d   1       5.580   4.045  -1.302  0.00  0.00     0.011 A 
ATOM     18  C   UNL d   1       6.423   2.926  -1.296  0.00  0.00     0.018 A 
ATOM     19  C   UNL d   1       7.769   3.057  -1.654  0.00  0.00     0.043 A 
ATOM     20  C   UNL d   1       8.277   4.300  -2.015  0.00  0.00     0.116 A 
ATOM     21  C   UNL d   1       7.461   5.423  -2.018  0.00  0.00     0.043 A 
ATOM     22  F   UNL d   1       9.564   4.413  -2.362  0.00  0.00    -0.206 F 
ATOM     23  C   UNL d   1       6.116   5.299  -1.659  0.00  0.00     0.018 A 
ENDBRANCH  15  17
ENDBRANCH  14  15
ENDBRANCH  13  14
ENDBRANCH   3  13
BRANCH   4  24
ATOM     24  S   UNL d   1      -1.726  -2.701  -0.362  0.00  0.00    -0.085 SA
BRANCH  24  25
ATOM     25  C   UNL d   1      -3.505  -2.592  -0.726  0.00  0.00     0.166 C 
BRANCH  25  26
ATOM     26  C   UNL d   1      -4.116  -3.955  -1.036  0.00  0.00     0.169 C 
ATOM     27  O   UNL d   1      -3.485  -5.010  -1.020  0.00  0.00    -0.291 OA
BRANCH  26  28
ATOM     28  C   UNL d   1      -5.572  -4.012  -1.398  0.00  0.00     0.011 A 
ATOM     29  C   UNL d   1      -6.401  -2.879  -1.370  0.00  0.00     0.018 A 
ATOM     30  C   UNL d   1      -7.748  -2.987  -1.738  0.00  0.00     0.043 A 
ATOM     31  C   UNL d   1      -8.263  -4.217  -2.131  0.00  0.00     0.116 A 
ATOM     32  C   UNL d   1      -7.462  -5.350  -2.157  0.00  0.00     0.043 A 
ATOM     33  F   UNL d   1      -9.550  -4.307  -2.492  0.00  0.00    -0.206 F 
ATOM     34  C   UNL d   1      -6.117  -5.248  -1.788  0.00  0.00     0.018 A 
ENDBRANCH  26  28
ENDBRANCH  25  26
ENDBRANCH  24  25
ENDBRANCH   4  24
TORSDOF 8
