REMARK  4 active torsions:
REMARK  status: ('A' for Active; 'I' for Inactive)
REMARK    1  A    between atoms: N_2  and  S_1 
REMARK    2  A    between atoms: C_5  and  S_1 
REMARK    3  A    between atoms: N_4  and  N_2 
REMARK    4  A    between atoms: C_3  and  N_4 
ROOT
ATOM      1  N   UNL d   1       0.219  -1.115   0.873  0.00  0.00    -0.222 N 
ATOM      2  H   UNL d   1      -0.702  -0.917   1.270  0.00  0.00     0.200 HD
ENDROOT
BRANCH   1   3
ATOM      3  S   UNL d   1       0.930   0.004  -0.181  0.00  0.00     0.276 S 
ATOM      4  O   UNL d   1       0.562  -0.360  -1.531  0.00  0.00    -0.199 OA
ATOM      5  O   UNL d   1       2.322   0.144   0.202  0.00  0.00    -0.199 OA
BRANCH   3   6
ATOM      6  C   UNL d   1       0.093   1.517   0.215  0.00  0.00     0.082 A 
ATOM      7  C   UNL d   1      -1.091   1.840  -0.453  0.00  0.00     0.050 A 
ATOM      8  C   UNL d   1      -1.685   3.090  -0.241  0.00  0.00     0.057 A 
ATOM      9 CL   UNL d   1      -3.141   3.441  -1.102  0.00  0.00    -0.083 Cl
ATOM     10  C   UNL d   1      -1.090   4.011   0.632  0.00  0.00     0.055 A 
ATOM     11  C   UNL d   1       0.096   3.676   1.297  0.00  0.00     0.027 A 
ATOM     12 CL   UNL d   1      -1.752   5.581   0.914  0.00  0.00    -0.083 Cl
ATOM     13  C   UNL d   1       0.691   2.429   1.088  0.00  0.00     0.027 A 
ENDBRANCH   3   6
ENDBRANCH   1   3
BRANCH   1  14
ATOM     14  N   UNL d   1       0.863  -2.404   1.073  0.00  0.00    -0.288 N 
ATOM     15  H   UNL d   1       1.804  -2.495   0.673  0.00  0.00     0.188 HD
BRANCH  14  16
ATOM     16  C   UNL d   1       0.443  -3.476   1.886  0.00  0.00     0.092 A 
ATOM     17  C   UNL d   1      -0.848  -3.617   2.431  0.00  0.00     0.063 A 
ATOM     18 CL   UNL d   1      -2.139  -2.512   2.091  0.00  0.00    -0.082 Cl
ATOM     19  C   UNL d   1      -1.166  -4.699   3.268  0.00  0.00     0.026 A 
ATOM     20  C   UNL d   1      -0.207  -5.657   3.588  0.00  0.00     0.003 A 
ATOM     21  C   UNL d   1       1.073  -5.548   3.059  0.00  0.00     0.026 A 
ATOM     22  C   UNL d   1       1.388  -4.476   2.218  0.00  0.00     0.063 A 
ATOM     23 CL   UNL d   1       3.006  -4.402   1.594  0.00  0.00    -0.082 Cl
ENDBRANCH  14  16
ENDBRANCH   1  14
TORSDOF 4
