REMARK  2 active torsions:
REMARK  status: ('A' for Active; 'I' for Inactive)
REMARK    1  A    between atoms: N_5  and  C_1 
REMARK       I    between atoms: C_4  and  N_5 
REMARK       I    between atoms: N_9  and  C_4 
REMARK    2  A    between atoms: C_11  and  N_9 
ROOT
ATOM      1  C   UNL d   1       3.634   1.077  -0.135  0.00  0.00     0.326 C 
ATOM      2  N   UNL d   1       2.319   1.455  -0.158  0.00  0.00    -0.293 N 
ATOM      3  N   UNL d   1       3.900  -0.262  -0.068  0.00  0.00    -0.309 N 
ATOM      4  O   UNL d   1       4.460   1.985  -0.196  0.00  0.00    -0.247 OA
ATOM      5  H   UNL d   1       2.200   2.454  -0.221  0.00  0.00     0.172 HD
ATOM      6  H   UNL d   1       3.071  -0.851  -0.067  0.00  0.00     0.170 HD
ENDROOT
BRANCH   2   7
ATOM      7  C   UNL d   1       1.188   0.689  -0.059  0.00  0.00     0.125 A 
ATOM      8  N   UNL d   1       1.173  -0.643   0.055  0.00  0.00    -0.284 N 
ATOM      9  N   UNL d   1      -0.132  -0.941   0.209  0.00  0.00    -0.306 N 
ATOM     10  HN  UNL d   1       1.965  -1.285   0.030  1.00  0.00     0.188 HD
ATOM     11  C   UNL d   1      -0.525  -2.307   0.450  0.00  0.00     0.177 C 
ATOM     12  C   UNL d   1      -0.949   0.149   0.179  0.00  0.00     0.113 A 
ATOM     13  C   UNL d   1      -0.121   1.225  -0.034  0.00  0.00     0.069 A 
ENDBRANCH   2   7
BRANCH   3  14
ATOM     14  C   UNL d   1       5.164  -0.882  -0.177  0.00  0.00     0.036 A 
ATOM     15  C   UNL d   1       6.369  -0.175  -0.198  0.00  0.00     0.029 A 
ATOM     16  C   UNL d   1       7.580  -0.826  -0.454  0.00  0.00     0.002 A 
ATOM     17  C   UNL d   1       7.600  -2.199  -0.671  0.00  0.00     0.000 A 
ATOM     18  C   UNL d   1       6.416  -2.927  -0.582  0.00  0.00     0.002 A 
ATOM     19  C   UNL d   1       5.204  -2.274  -0.324  0.00  0.00     0.029 A 
ENDBRANCH   3  14
TORSDOF 2
