REMARK  4 active torsions:
REMARK  status: ('A' for Active; 'I' for Inactive)
REMARK    1  A    between atoms: C_7  and  C_1 
REMARK    2  A    between atoms: C_9  and  C_6 
REMARK       I    between atoms: N_8  and  C_7 
REMARK    3  A    between atoms: C_15  and  N_8 
REMARK    4  A    between atoms: O_20  and  C_17 
ROOT
ATOM      1  C   UNL d   1      -0.513  -1.206   0.043  0.00  0.00     0.059 C 
ATOM      2  C   UNL d   1      -1.269  -0.105   0.280  0.00  0.00     0.026 C 
ATOM      3  C   UNL d   1       0.645   1.370  -0.161  0.00  0.00     0.323 C 
ATOM      4  N   UNL d   1      -0.698   1.165   0.103  0.00  0.00    -0.308 N 
ATOM      5  N   UNL d   1       1.420   0.264  -0.262  0.00  0.00    -0.330 N 
ATOM      6  C   UNL d   1       0.990  -1.089  -0.049  0.00  0.00     0.160 C 
ATOM      7  O   UNL d   1       1.169   2.474  -0.306  0.00  0.00    -0.247 OA
ATOM      8  C   UNL d   1      -2.684  -0.140   0.818  0.00  0.00     0.069 C 
ATOM      9  C   UNL d   1      -1.513   2.379   0.127  0.00  0.00     0.161 C 
ATOM     10  H   UNL d   1       2.405   0.458  -0.390  0.00  0.00     0.165 HD
ENDROOT
BRANCH   1  11
ATOM     11  C   UNL d   1      -1.083  -2.609   0.026  0.00  0.00     0.256 C 
ATOM     12  N   UNL d   1      -0.410  -3.511  -0.785  0.00  0.00    -0.323 N 
ATOM     13  H   UNL d   1       0.356  -3.184  -1.350  0.00  0.00     0.169 HD
ATOM     14  O   UNL d   1      -2.064  -2.895   0.704  0.00  0.00    -0.267 OA
BRANCH  12  15
ATOM     15  C   UNL d   1      -0.628  -4.910  -0.857  0.00  0.00     0.035 A 
ATOM     16  C   UNL d   1      -1.718  -5.562  -0.280  0.00  0.00     0.029 A 
ATOM     17  C   UNL d   1      -1.833  -6.956  -0.344  0.00  0.00     0.002 A 
ATOM     18  C   UNL d   1      -0.855  -7.711  -0.987  0.00  0.00     0.000 A 
ATOM     19  C   UNL d   1       0.224  -7.071  -1.586  0.00  0.00     0.002 A 
ATOM     20  C   UNL d   1       0.334  -5.676  -1.533  0.00  0.00     0.029 A 
ENDBRANCH  12  15
ENDBRANCH   1  11
BRANCH   6  21
ATOM     21  C   UNL d   1       1.639  -1.670   1.202  0.00  0.00    -0.030 A 
ATOM     22  C   UNL d   1       1.433  -1.077   2.459  0.00  0.00     0.012 A 
ATOM     23  C   UNL d   1       1.883  -1.695   3.629  0.00  0.00     0.037 A 
ATOM     24  C   UNL d   1       2.555  -2.913   3.560  0.00  0.00     0.068 A 
ATOM     25  C   UNL d   1       2.783  -3.499   2.314  0.00  0.00     0.037 A 
ATOM     26  C   UNL d   1       2.341  -2.881   1.141  0.00  0.00     0.012 A 
BRANCH  24  27
ATOM     27  O   UNL d   1       2.996  -3.643   4.629  0.00  0.00    -0.356 OA
ATOM     28  C   UNL d   1       3.159  -2.933   5.850  0.00  0.00     0.210 C 
ENDBRANCH  24  27
ENDBRANCH   6  21
TORSDOF 4
