REMARK  4 active torsions:
REMARK  status: ('A' for Active; 'I' for Inactive)
REMARK    1  A    between atoms: C_7  and  N_1 
REMARK    2  A    between atoms: S_10  and  C_2 
REMARK    3  A    between atoms: C_9  and  C_12 
REMARK    4  A    between atoms: C_12  and  S_10 
ROOT
ATOM      1  N   UNL d   1       2.431  -0.710  -0.032  0.00  0.00    -0.258 N 
ATOM      2  C   UNL d   1       2.368   0.691  -0.058  0.00  0.00     0.155 A 
ATOM      3  C   UNL d   1       1.251  -1.462   0.044  0.00  0.00     0.266 A 
ATOM      4  N   UNL d   1       1.264   1.363  -0.006  0.00  0.00    -0.335 N 
ATOM      5  HN  UNL d   1       1.279   2.383   0.001  1.00  0.00     0.168 HD
ATOM      6  C   UNL d   1      -0.016  -0.713   0.050  0.00  0.00     0.059 A 
ATOM      7  C   UNL d   1       0.051   0.672   0.041  0.00  0.00     0.049 A 
ATOM      8  O   UNL d   1       1.192  -2.689   0.130  0.00  0.00    -0.267 OA
ATOM      9  C   UNL d   1      -1.246  -1.386   0.045  0.00  0.00     0.019 A 
ATOM     10  C   UNL d   1      -1.144   1.397   0.022  0.00  0.00     0.030 A 
ATOM     11  C   UNL d   1      -2.430  -0.653   0.018  0.00  0.00     0.001 A 
ATOM     12  C   UNL d   1      -2.379   0.740   0.004  0.00  0.00     0.002 A 
ENDROOT
BRANCH   2  13
ATOM     13  S   UNL d   1       3.846   1.602  -0.337  0.00  0.00    -0.088 SA
BRANCH  13  14
ATOM     14  C   UNL d   1       3.516   3.189   0.487  0.00  0.00     0.126 C 
BRANCH  14  15
ATOM     15  C   UNL d   1       3.278   3.118   1.974  0.00  0.00     0.012 A 
ATOM     16  C   UNL d   1       2.087   3.652   2.488  0.00  0.00     0.125 A 
ATOM     17  F   UNL d   1       1.229   4.282   1.672  0.00  0.00    -0.205 F 
ATOM     18  C   UNL d   1       1.764   3.577   3.842  0.00  0.00     0.043 A 
ATOM     19  C   UNL d   1       2.637   2.956   4.726  0.00  0.00     0.005 A 
ATOM     20  C   UNL d   1       3.857   2.475   4.255  0.00  0.00     0.024 A 
ATOM     21  C   UNL d   1       4.191   2.587   2.899  0.00  0.00     0.044 A 
ATOM     22 CL   UNL d   1       5.789   2.105   2.450  0.00  0.00    -0.084 Cl
ENDBRANCH  14  15
ENDBRANCH  13  14
ENDBRANCH   2  13
BRANCH   1  23
ATOM     23  C   UNL d   1       3.659  -1.454  -0.076  0.00  0.00     0.046 A 
ATOM     24  C   UNL d   1       4.674  -1.250   0.864  0.00  0.00     0.055 A 
ATOM     25  C   UNL d   1       5.845  -2.013   0.823  0.00  0.00     0.058 A 
ATOM     26 CL   UNL d   1       7.051  -1.703   2.022  0.00  0.00    -0.082 Cl
ATOM     27  C   UNL d   1       6.006  -3.004  -0.154  0.00  0.00     0.055 A 
ATOM     28  C   UNL d   1       4.986  -3.229  -1.081  0.00  0.00     0.028 A 
ATOM     29 CL   UNL d   1       7.422  -3.986  -0.263  0.00  0.00    -0.083 Cl
ATOM     30  C   UNL d   1       3.818  -2.466  -1.036  0.00  0.00     0.032 A 
ENDBRANCH   1  23
TORSDOF 4
