REMARK  5 active torsions:
REMARK  status: ('A' for Active; 'I' for Inactive)
REMARK    1  A    between atoms: N_3  and  C_1 
REMARK       I    between atoms: C_4  and  N_3 
REMARK    2  A    between atoms: C_10  and  C_4 
REMARK    3  A    between atoms: C_17  and  C_16 
REMARK    4  A    between atoms: C_18  and  C_17 
REMARK    5  A    between atoms: C_19  and  C_18 
ROOT
ATOM      1  C   UNL d   1       0.921   3.112   0.045  0.00  0.00     0.097 A 
ATOM      2  C   UNL d   1       2.208   2.625  -0.098  0.00  0.00     0.079 A 
ATOM      3  C   UNL d   1       2.522   1.241  -0.295  0.00  0.00     0.102 C 
ATOM      4  S   UNL d   1       0.925   4.807   0.255  0.00  0.00    -0.083 SA
ATOM      5  N   UNL d   1       2.755   0.117  -0.452  0.00  0.00    -0.191 NA
ATOM      6  C   UNL d   1       3.192   3.663  -0.050  0.00  0.00     0.033 A 
ATOM      7  C   UNL d   1       2.623   4.902   0.134  0.00  0.00     0.053 A 
ENDROOT
BRANCH   1   8
ATOM      8  N   UNL d   1      -0.269   2.393   0.089  0.00  0.00    -0.316 N 
ATOM      9  C   UNL d   1      -1.541   2.931  -0.029  0.00  0.00     0.256 C 
ATOM     10  O   UNL d   1      -1.840   4.083  -0.321  0.00  0.00    -0.267 OA
ATOM     11  H   UNL d   1      -0.194   1.381   0.081  0.00  0.00     0.169 HD
BRANCH   9  12
ATOM     12  C   UNL d   1      -2.648   1.952   0.134  0.00  0.00     0.032 A 
ATOM     13  C   UNL d   1      -2.611   0.951   1.111  0.00  0.00     0.017 A 
ATOM     14  C   UNL d   1      -3.650   0.020   1.189  0.00  0.00     0.008 A 
ATOM     15  C   UNL d   1      -4.727   0.078   0.292  0.00  0.00    -0.058 A 
ATOM     16  C   UNL d   1      -4.789   1.129  -0.633  0.00  0.00     0.008 A 
ATOM     17  C   UNL d   1      -3.755   2.059  -0.714  0.00  0.00     0.017 A 
BRANCH  15  18
ATOM     18  C   UNL d   1      -5.773  -1.012   0.278  0.00  0.00     0.038 C 
BRANCH  18  19
ATOM     19  C   UNL d   1      -5.804  -1.791  -1.047  0.00  0.00     0.004 C 
BRANCH  19  20
ATOM     20  C   UNL d   1      -4.471  -2.472  -1.377  0.00  0.00    -0.004 C 
ATOM     21  C   UNL d   1      -4.534  -3.208  -2.706  0.00  0.00     0.005 C 
ENDBRANCH  19  20
ENDBRANCH  18  19
ENDBRANCH  15  18
ENDBRANCH   9  12
ENDBRANCH   1   8
TORSDOF 5
