REMARK  2 active torsions:
REMARK  status: ('A' for Active; 'I' for Inactive)
REMARK    1  A    between atoms: N_8  and  C_1 
REMARK       I    between atoms: C_9  and  N_8 
REMARK    2  A    between atoms: C_11  and  C_9 
ROOT
ATOM      1  C   UNL d   1       2.367  -0.588  -0.287  0.00  0.00     0.155 C 
ATOM      2  S   UNL d   1       2.365   0.943  -1.093  0.00  0.00    -0.011 SA
ATOM      3  C   UNL d   1      -0.153   0.752  -0.074  0.00  0.00     0.051 A 
ATOM      4  C   UNL d   1       1.020   1.616  -0.230  0.00  0.00     0.229 C 
ATOM      5  N   UNL d   1       1.315  -1.211   0.125  0.00  0.00    -0.334 N 
ATOM      6  HN  UNL d   1       1.412  -2.138   0.541  1.00  0.00     0.168 HD
ATOM      7  C   UNL d   1       0.028  -0.634   0.011  0.00  0.00     0.066 A 
ATOM      8  C   UNL d   1      -1.130  -1.427   0.074  0.00  0.00     0.040 A 
ATOM      9  C   UNL d   1      -2.409  -0.852   0.073  0.00  0.00     0.040 A 
ATOM     10  C   UNL d   1      -1.422   1.344  -0.041  0.00  0.00     0.037 A 
ATOM     11  O   UNL d   1       1.002   2.782   0.138  0.00  0.00    -0.279 OA
ATOM     12  C   UNL d   1      -2.545   0.533   0.030  0.00  0.00     0.013 A 
ATOM     13 BR   UNL d   1      -1.020  -3.323   0.158  0.00  0.00    -0.049 Br
ATOM     14 BR   UNL d   1      -4.263   1.318   0.053  0.00  0.00    -0.051 Br
ENDROOT
BRANCH   1  15
ATOM     15  N   UNL d   1       3.574  -1.216  -0.058  0.00  0.00    -0.302 N 
ATOM     16  C   UNL d   1       4.885  -0.817  -0.314  0.00  0.00     0.264 C 
ATOM     17  O   UNL d   1       5.181   0.224  -0.891  0.00  0.00    -0.267 OA
ATOM     18  H   UNL d   1       3.467  -2.097   0.428  0.00  0.00     0.171 HD
BRANCH  16  19
ATOM     19  C   UNL d   1       5.926  -1.739   0.135  0.00  0.00     0.072 A 
ATOM     20  S   UNL d   1       5.591  -3.174   1.006  0.00  0.00    -0.097 SA
ATOM     21  C   UNL d   1       7.245  -3.609   1.057  0.00  0.00     0.050 A 
ATOM     22  C   UNL d   1       8.046  -2.673   0.444  0.00  0.00     0.009 A 
ATOM     23  C   UNL d   1       7.286  -1.588  -0.073  0.00  0.00     0.025 A 
ENDBRANCH  16  19
ENDBRANCH   1  15
TORSDOF 2
