REMARK  6 active torsions:
REMARK  status: ('A' for Active; 'I' for Inactive)
REMARK    1  A    between atoms: C_3  and  C_1 
REMARK    2  A    between atoms: C_4  and  C_1 
REMARK    3  A    between atoms: N_2  and  C_5 
REMARK    4  A    between atoms: C_6  and  C_4 
REMARK    5  A    between atoms: C_7  and  C_4 
REMARK    6  A    between atoms: O_13  and  C_6 
ROOT
ATOM      1  C   UNL d   1       0.900  -0.355  -0.135  0.00  0.00     0.182 C 
ATOM      2  O   UNL d   1       2.098  -0.209   0.116  0.00  0.00    -0.291 OA
ENDROOT
BRANCH   1   3
ATOM      3  C   UNL d   1       0.177  -1.437   0.593  0.00  0.00     0.044 A 
ATOM      4  C   UNL d   1       0.485  -1.749   1.925  0.00  0.00     0.116 A 
ATOM      5  C   UNL d   1      -0.170  -2.780   2.614  0.00  0.00     0.037 A 
ATOM      6  C   UNL d   1      -1.153  -3.519   1.961  0.00  0.00     0.002 A 
ATOM      7  C   UNL d   1      -1.460  -3.239   0.630  0.00  0.00     0.001 A 
ATOM      8  C   UNL d   1      -0.795  -2.215  -0.054  0.00  0.00     0.018 A 
BRANCH   4   9
ATOM      9  N   UNL d   1       1.465  -0.984   2.671  0.00  0.00    -0.115 N 
ATOM     10  O   UNL d   1       1.198   0.205   2.897  0.00  0.00    -0.532 OA
ATOM     11  O   UNL d   1       2.445  -1.605   3.106  0.00  0.00    -0.532 OA
ENDBRANCH   4   9
ENDBRANCH   1   3
BRANCH   1  12
ATOM     12  C   UNL d   1       0.240   0.449  -1.240  0.00  0.00     0.229 C 
BRANCH  12  13
ATOM     13  C   UNL d   1       0.429  -0.241  -2.563  0.00  0.00     0.277 C 
ATOM     14  O   UNL d   1      -0.475  -0.725  -3.231  0.00  0.00    -0.264 OA
BRANCH  13  15
ATOM     15  O   UNL d   1       1.746  -0.284  -2.899  0.00  0.00    -0.326 OA
ATOM     16  C   UNL d   1       2.058  -1.025  -4.080  0.00  0.00     0.213 C 
ENDBRANCH  13  15
ENDBRANCH  12  13
BRANCH  12  17
ATOM     17  C   UNL d   1      -1.186   0.885  -0.969  0.00  0.00     0.144 C 
ATOM     18  O   UNL d   1      -1.743   0.683   0.112  0.00  0.00    -0.297 OA
ATOM     19  C   UNL d   1      -1.915   1.648  -2.050  0.00  0.00     0.092 C 
ENDBRANCH  12  17
ENDBRANCH   1  12
TORSDOF 6
