REMARK  6 active torsions:
REMARK  status: ('A' for Active; 'I' for Inactive)
REMARK       I    between atoms: N_2  and  C_1 
REMARK    1  A    between atoms: C_6  and  C_1 
REMARK    2  A    between atoms: C_8  and  N_2 
REMARK    3  A    between atoms: C_3  and  C_7 
REMARK    4  A    between atoms: O_10  and  C_3 
REMARK    5  A    between atoms: C_9  and  C_6 
REMARK    6  A    between atoms: C_7  and  C_9 
ROOT
ATOM      1  C   UNL d   1       0.866  -0.618   0.209  0.00  0.00     0.222 C 
ATOM      2  N   UNL d   1       0.369  -1.425  -0.802  0.00  0.00    -0.327 N 
ATOM      3  O   UNL d   1       0.224  -0.202   1.170  0.00  0.00    -0.273 OA
ATOM      4  H   UNL d   1       1.034  -1.810  -1.463  0.00  0.00     0.169 HD
ENDROOT
BRANCH   1   5
ATOM      5  C   UNL d   1       2.330  -0.229   0.022  0.00  0.00     0.108 C 
BRANCH   5   6
ATOM      6  C   UNL d   1       2.854   0.646   1.188  0.00  0.00    -0.000 C 
ATOM      7  C   UNL d   1       4.194   1.310   0.856  0.00  0.00     0.011 C 
BRANCH   6   8
ATOM      8  C   UNL d   1       2.918  -0.067   2.557  0.00  0.00     0.114 C 
BRANCH   8   9
ATOM      9  C   UNL d   1       3.799  -1.298   2.626  0.00  0.00     0.139 C 
ATOM     10  O   UNL d   1       4.404  -1.796   1.696  0.00  0.00    -0.650 OA
BRANCH   9  11
ATOM     11  O   UNL d   1       3.843  -1.816   3.877  0.00  0.00    -0.776 OA
ATOM     12  H   UNL d   1       3.292  -1.331   4.520  0.00  0.00     0.167 HD
ENDBRANCH   9  11
ENDBRANCH   8   9
ENDBRANCH   6   8
ENDBRANCH   5   6
ENDBRANCH   1   5
BRANCH   2  13
ATOM     13  C   UNL d   1      -0.998  -1.719  -1.036  0.00  0.00     0.034 A 
ATOM     14  C   UNL d   1      -2.040  -1.144  -0.303  0.00  0.00     0.030 A 
ATOM     15  C   UNL d   1      -3.374  -1.344  -0.668  0.00  0.00     0.009 A 
ATOM     16  C   UNL d   1      -3.698  -2.130  -1.774  0.00  0.00    -0.062 A 
ATOM     17  C   UNL d   1      -2.666  -2.773  -2.465  0.00  0.00     0.009 A 
ATOM     18  C   UNL d   1      -5.126  -2.216  -2.224  0.00  0.00     0.048 C 
ATOM     19  C   UNL d   1      -1.326  -2.567  -2.100  0.00  0.00     0.030 A 
ENDBRANCH   2  13
TORSDOF 6
