REMARK  2 active torsions:
REMARK  status: ('A' for Active; 'I' for Inactive)
REMARK    1  A    between atoms: C_6  and  N_1 
REMARK    2  A    between atoms: N_7  and  C_6 
ROOT
ATOM      1  N   UNL d   1      -0.267  -1.776   0.181  0.00  0.00    -0.296 N 
ATOM      2  C   UNL d   1       1.528  -0.165   0.157  0.00  0.00     0.280 A 
ATOM      3  C   UNL d   1       0.175   0.488   0.201  0.00  0.00     0.042 A 
ATOM      4  C   UNL d   1       1.137  -1.696   0.121  0.00  0.00     0.294 A 
ATOM      5  C   UNL d   1      -0.830  -0.484   0.180  0.00  0.00     0.051 A 
ATOM      6  O   UNL d   1       2.199   0.232  -1.048  0.00  0.00    -0.342 OA
ATOM      7  O   UNL d   1       2.298   0.215   1.293  0.00  0.00    -0.342 OA
ATOM      8  C   UNL d   1      -0.132   1.846   0.190  0.00  0.00     0.034 A 
ATOM      9  C   UNL d   1      -2.164  -0.118   0.130  0.00  0.00     0.032 A 
ATOM     10  O   UNL d   1       1.914  -2.640   0.013  0.00  0.00    -0.266 OA
ATOM     11  C   UNL d   1      -1.473   2.215   0.151  0.00  0.00     0.011 A 
ATOM     12  C   UNL d   1      -2.486   1.244   0.122  0.00  0.00     0.021 A 
ATOM     13 BR   UNL d   1      -1.935   4.049   0.117  0.00  0.00    -0.051 Br
ATOM     14  C   UNL d   1       3.602   0.451   0.767  0.00  0.00     0.198 C 
ATOM     15  C   UNL d   1       3.325   0.988  -0.611  0.00  0.00     0.198 C 
ENDROOT
BRANCH   1  16
ATOM     16  C   UNL d   1      -0.989  -2.982  -0.149  0.00  0.00     0.252 C 
BRANCH  16  17
ATOM     17  N   UNL d   1      -1.391  -3.822   0.969  0.00  0.00    -0.392 N 
ATOM     18  C   UNL d   1      -2.229  -3.236   2.013  0.00  0.00     0.145 C 
ATOM     19  C   UNL d   1      -1.443  -2.658   3.196  0.00  0.00     0.187 C 
ATOM     20  O   UNL d   1      -0.558  -3.635   3.754  0.00  0.00    -0.388 OA
ATOM     21  C   UNL d   1       0.374  -4.087   2.762  0.00  0.00     0.187 C 
ATOM     22  C   UNL d   1      -0.349  -4.683   1.542  0.00  0.00     0.145 C 
ENDBRANCH  16  17
ENDBRANCH   1  16
TORSDOF 2
