REMARK  6 active torsions:
REMARK  status: ('A' for Active; 'I' for Inactive)
REMARK    1  A    between atoms: C_10  and  N_1 
REMARK    2  A    between atoms: C_9  and  C_2 
REMARK    3  A    between atoms: C_7  and  C_8 
REMARK    4  A    between atoms: C_14  and  C_7 
REMARK    5  A    between atoms: N_15  and  C_11 
REMARK    6  A    between atoms: C_12  and  N_15 
ROOT
ATOM      1  N   UNL d   1       3.787  -3.240   0.188  0.00  0.00    -0.365 N 
ATOM      2  H   UNL d   1       2.834  -2.885   0.247  0.00  0.00     0.165 HD
ENDROOT
BRANCH   1   3
ATOM      3  C   UNL d   1       3.873  -4.646   0.081  0.00  0.00     0.046 A 
ATOM      4  C   UNL d   1       3.121  -5.372  -0.867  0.00  0.00     0.042 A 
ATOM      5  C   UNL d   1       3.210  -6.777  -0.919  0.00  0.00     0.018 A 
ATOM      6  C   UNL d   1       4.058  -7.471  -0.059  0.00  0.00     0.001 A 
ATOM      7  C   UNL d   1       4.815  -6.769   0.868  0.00  0.00     0.002 A 
ATOM      8  C   UNL d   1       4.722  -5.376   0.935  0.00  0.00     0.030 A 
BRANCH   4   9
ATOM      9  C   UNL d   1       2.154  -4.757  -1.813  0.00  0.00     0.194 C 
ATOM     10  O   UNL d   1       1.071  -5.319  -1.973  0.00  0.00    -0.287 OA
BRANCH   9  11
ATOM     11  C   UNL d   1       2.432  -3.519  -2.590  0.00  0.00     0.015 A 
ATOM     12  C   UNL d   1       1.334  -2.773  -3.042  0.00  0.00     0.015 A 
ATOM     13  C   UNL d   1       1.526  -1.608  -3.785  0.00  0.00     0.001 A 
ATOM     14  C   UNL d   1       2.819  -1.183  -4.086  0.00  0.00     0.000 A 
ATOM     15  C   UNL d   1       3.917  -1.930  -3.657  0.00  0.00     0.001 A 
ATOM     16  C   UNL d   1       3.727  -3.103  -2.921  0.00  0.00     0.015 A 
ENDBRANCH   9  11
ENDBRANCH   4   9
ENDBRANCH   1   3
BRANCH   1  17
ATOM     17  C   UNL d   1       4.776  -2.355   0.561  0.00  0.00     0.092 C 
ATOM     18  C   UNL d   1       6.102  -2.494   0.427  0.00  0.00     0.068 C 
BRANCH  18  19
ATOM     19  C   UNL d   1       7.007  -1.497   0.874  0.00  0.00     0.139 C 
ATOM     20  N   UNL d   1       8.386  -1.600   0.680  0.00  0.00    -0.225 N 
ATOM     21  N   UNL d   1       8.987  -0.705   1.501  0.00  0.00     0.001 NA
ATOM     22  N   UNL d   1       8.015   0.027   2.020  0.00  0.00    -0.007 NA
ATOM     23  N   UNL d   1       6.789  -0.445   1.642  0.00  0.00    -0.270 N 
ATOM     24  HN  UNL d   1       5.881  -0.058   1.902  1.00  0.00     0.185 HD
BRANCH  20  25
ATOM     25  C   UNL d   1       9.158  -2.450  -0.156  0.00  0.00     0.056 A 
ATOM     26  C   UNL d   1       8.650  -2.941  -1.368  0.00  0.00     0.033 A 
ATOM     27  C   UNL d   1       9.400  -3.842  -2.128  0.00  0.00     0.026 A 
ATOM     28  C   UNL d   1      10.660  -4.243  -1.687  0.00  0.00     0.034 A 
ATOM     29  C   UNL d   1      11.195  -3.719  -0.513  0.00  0.00     0.026 A 
ATOM     30 CL   UNL d   1      11.555  -5.395  -2.599  0.00  0.00    -0.084 Cl
ATOM     31  C   UNL d   1      10.455  -2.806   0.245  0.00  0.00     0.033 A 
ENDBRANCH  20  25
ENDBRANCH  18  19
ENDBRANCH   1  17
TORSDOF 6
