REMARK  2 active torsions:
REMARK  status: ('A' for Active; 'I' for Inactive)
REMARK    1  A    between atoms: O_21  and  C_9 
REMARK    2  A    between atoms: C_22  and  C_9 
ROOT
ATOM      1  N   UNL d   1      -3.349   0.934  -0.227  0.00  0.00    -0.307 N 
ATOM      2  C   UNL d   1      -5.657   0.259  -0.046  0.00  0.00     0.044 A 
ATOM      3  C   UNL d   1      -2.941  -0.382  -0.094  0.00  0.00     0.065 A 
ATOM      4  C   UNL d   1      -5.269  -1.023   0.102  0.00  0.00     0.002 A 
ATOM      5  C   UNL d   1      -4.657   1.341  -0.281  0.00  0.00     0.257 A 
ATOM      6  C   UNL d   1      -1.471  -0.389  -0.093  0.00  0.00     0.068 A 
ATOM      7  C   UNL d   1      -3.843  -1.365   0.030  0.00  0.00     0.043 A 
ATOM      8  C   UNL d   1      -1.051   0.932  -0.182  0.00  0.00    -0.010 A 
ATOM      9  C   UNL d   1      -6.309  -2.065   0.463  0.00  0.00     0.173 C 
ATOM     10  N   UNL d   1      -0.659  -1.454  -0.001  0.00  0.00    -0.353 N 
ATOM     11  HN  UNL d   1      -1.017  -2.408   0.054  1.00  0.00     0.166 HD
ATOM     12  C   UNL d   1      -2.219   1.858  -0.291  0.00  0.00     0.173 A 
ATOM     13  C   UNL d   1      -7.414  -1.413   1.331  0.00  0.00     0.298 C 
ATOM     14  C   UNL d   1      -7.072   0.689   0.122  0.00  0.00     0.224 C 
ATOM     15  O   UNL d   1      -7.828  -0.168   1.004  0.00  0.00    -0.314 OA
ATOM     16  C   UNL d   1       0.295   1.222  -0.147  0.00  0.00     0.025 A 
ATOM     17  C   UNL d   1       0.667  -1.178   0.013  0.00  0.00     0.043 A 
ATOM     18  O   UNL d   1      -5.010   2.501  -0.462  0.00  0.00    -0.267 OA
ATOM     19  C   UNL d   1       1.188   0.148  -0.049  0.00  0.00    -0.009 A 
ATOM     20  O   UNL d   1      -7.947  -2.039   2.249  0.00  0.00    -0.261 OA
ATOM     21  C   UNL d   1       1.589  -2.217   0.088  0.00  0.00     0.030 A 
ATOM     22  C   UNL d   1       2.571   0.380  -0.014  0.00  0.00     0.014 A 
ATOM     23  C   UNL d   1       2.970  -1.986   0.112  0.00  0.00     0.002 A 
ATOM     24  C   UNL d   1       3.461  -0.686   0.065  0.00  0.00     0.001 A 
ENDROOT
BRANCH   9  25
ATOM     25  O   UNL d   1      -5.665  -3.056   1.292  0.00  0.00    -0.375 OA
ATOM     26  H   UNL d   1      -6.359  -3.399   1.892  0.00  0.00     0.211 HD
ENDBRANCH   9  25
BRANCH   9  27
ATOM     27  C   UNL d   1      -6.910  -2.827  -0.745  0.00  0.00     0.049 C 
ATOM     28  C   UNL d   1      -8.276  -2.363  -1.243  0.00  0.00     0.009 C 
ENDBRANCH   9  27
TORSDOF 2
