REMARK  3 active torsions:
REMARK  status: ('A' for Active; 'I' for Inactive)
REMARK    1  A    between atoms: C_7  and  C_6 
REMARK    2  A    between atoms: O_17  and  C_9 
REMARK    3  A    between atoms: C_18  and  O_17 
ROOT
ATOM      1  C   UNL d   1      -3.934   0.291   0.132  0.00  0.00     0.001 A 
ATOM      2  C   UNL d   1      -5.464  -1.292   1.140  0.00  0.00     0.046 A 
ATOM      3  C   UNL d   1      -4.249  -0.586   1.202  0.00  0.00     0.096 A 
ATOM      4  C   UNL d   1      -6.311  -1.149   0.027  0.00  0.00     0.041 A 
ATOM      5  C   UNL d   1      -4.799   0.444  -0.961  0.00  0.00     0.033 A 
ATOM      6  C   UNL d   1      -5.978  -0.285  -1.010  0.00  0.00     0.013 A 
ATOM      7 BR   UNL d   1      -6.165  -2.424   2.502  0.00  0.00    -0.048 Br
ATOM      8 BR   UNL d   1      -7.140  -0.094  -2.487  0.00  0.00    -0.051 Br
ENDROOT
BRANCH   1   9
ATOM      9  C   UNL d   1      -2.666   1.036   0.094  0.00  0.00     0.039 C 
ATOM     10  C   UNL d   1      -1.544   0.568  -0.469  0.00  0.00     0.076 A 
ATOM     11  C   UNL d   1      -1.359  -0.741  -1.164  0.00  0.00     0.264 A 
ATOM     12  S   UNL d   1      -0.041   1.431  -0.450  0.00  0.00    -0.055 SA
ATOM     13  N   UNL d   1      -0.038  -0.904  -1.481  0.00  0.00    -0.307 N 
ATOM     14  O   UNL d   1      -2.227  -1.546  -1.448  0.00  0.00    -0.267 OA
ATOM     15  C   UNL d   1       0.823   0.113  -1.208  0.00  0.00     0.146 A 
ATOM     16  H   UNL d   1       0.264  -1.743  -1.951  0.00  0.00     0.170 HD
ATOM     17  S   UNL d   1       2.439   0.067  -1.562  0.00  0.00    -0.052 SA
ENDBRANCH   1   9
BRANCH   3  18
ATOM     18  O   UNL d   1      -3.322  -0.575   2.215  0.00  0.00    -0.349 OA
BRANCH  18  19
ATOM     19  C   UNL d   1      -3.114  -1.750   2.992  0.00  0.00     0.171 C 
ATOM     20  C   UNL d   1      -1.671  -1.779   3.468  0.00  0.00     0.034 C 
ENDBRANCH  18  19
ENDBRANCH   3  18
TORSDOF 3
