REMARK  4 active torsions:
REMARK  status: ('A' for Active; 'I' for Inactive)
REMARK    1  A    between atoms: C_12  and  C_1 
REMARK    2  A    between atoms: C_3  and  C_12 
REMARK       I    between atoms: N_11  and  C_3 
REMARK    3  A    between atoms: C_23  and  N_11 
REMARK    4  A    between atoms: C_22  and  C_23 
ROOT
ATOM      1  C   UNL d   1       1.004   1.401   3.720  0.00  0.00     0.218 C 
ATOM      2  N   UNL d   1       1.581   0.444   4.513  0.00  0.00    -0.357 N 
ATOM      3  O   UNL d   1       0.175   2.211   4.134  0.00  0.00    -0.274 OA
ATOM      4  H   UNL d   1       2.224  -0.225   4.109  0.00  0.00     0.162 HD
ENDROOT
BRANCH   1   5
ATOM      5  C   UNL d   1       1.502   1.434   2.285  0.00  0.00     0.112 C 
BRANCH   5   6
ATOM      6  C   UNL d   1       0.816   0.500   1.264  0.00  0.00    -0.031 C 
ATOM      7  C   UNL d   1      -0.722   0.684   1.279  0.00  0.00     0.014 C 
ATOM      8  C   UNL d   1      -1.385  -0.142   0.163  0.00  0.00    -0.013 C 
ATOM      9  C   UNL d   1      -0.824   0.300  -1.198  0.00  0.00     0.009 C 
ATOM     10  C   UNL d   1      -1.072  -1.631   0.386  0.00  0.00     0.009 C 
ATOM     11  C   UNL d   1       0.692   0.054  -1.247  0.00  0.00    -0.013 C 
ATOM     12  C   UNL d   1       1.362   0.882  -0.143  0.00  0.00     0.014 C 
ATOM     13  C   UNL d   1       0.986  -1.434  -1.007  0.00  0.00     0.009 C 
ATOM     14  C   UNL d   1       0.449  -1.856   0.371  0.00  0.00    -0.013 C 
ATOM     15  C   UNL d   1       1.116  -1.004   1.480  0.00  0.00     0.014 C 
ENDBRANCH   5   6
ENDBRANCH   1   5
BRANCH   2  16
ATOM     16  C   UNL d   1       1.308   0.356   5.933  0.00  0.00     0.161 C 
BRANCH  16  17
ATOM     17  C   UNL d   1       2.593   0.196   6.710  0.00  0.00    -0.038 A 
ATOM     18  C   UNL d   1       3.519   1.254   6.761  0.00  0.00     0.048 A 
ATOM     19  C   UNL d   1       4.712   1.047   7.423  0.00  0.00     0.105 A 
ATOM     20  O   UNL d   1       5.728   1.945   7.532  0.00  0.00    -0.323 OA
ATOM     21  C   UNL d   1       4.998  -0.145   8.043  0.00  0.00     0.105 A 
ATOM     22  C   UNL d   1       6.709   1.158   8.239  0.00  0.00     0.352 A 
ATOM     23  O   UNL d   1       6.231  -0.151   8.614  0.00  0.00    -0.323 OA
ATOM     24  C   UNL d   1       4.103  -1.193   8.047  0.00  0.00     0.040 A 
ATOM     25  C   UNL d   1       2.891  -1.018   7.371  0.00  0.00     0.012 A 
ENDBRANCH  16  17
ENDBRANCH   2  16
TORSDOF 4
