REMARK  4 active torsions:
REMARK  status: ('A' for Active; 'I' for Inactive)
REMARK    1  A    between atoms: O_10  and  C_3 
REMARK    2  A    between atoms: S_9  and  C_4 
REMARK    3  A    between atoms: C_12  and  C_8 
REMARK    4  A    between atoms: C_14  and  C_12 
ROOT
ATOM      1  N   UNL d   1      -0.626   1.269  -0.040  0.00  0.00    -0.317 N 
ATOM      2  HN  UNL d   1      -1.073   2.186  -0.051  1.00  0.00     0.170 HD
ATOM      3  C   UNL d   1      -1.325   0.132  -0.042  0.00  0.00     0.149 A 
ATOM      4  C   UNL d   1       0.703   1.117  -0.021  0.00  0.00     0.146 A 
ATOM      5  C   UNL d   1      -0.806  -1.145  -0.034  0.00  0.00     0.011 A 
ATOM      6  N   UNL d   1       1.333  -0.067  -0.005  0.00  0.00    -0.340 N 
ATOM      7  HN  UNL d   1       2.351  -0.119   0.011  1.00  0.00     0.168 HD
ATOM      8  C   UNL d   1       0.579  -1.191  -0.009  0.00  0.00     0.021 A 
ATOM      9  C   UNL d   1      -1.673  -2.362  -0.028  0.00  0.00     0.055 C 
ENDROOT
BRANCH   8  10
ATOM     10  C   UNL d   1       1.366  -2.478   0.022  0.00  0.00     0.057 C 
BRANCH  10  11
ATOM     11  C   UNL d   1       1.714  -3.041  -1.359  0.00  0.00     0.002 C 
ATOM     12  C   UNL d   1       2.593  -2.125  -2.200  0.00  0.00     0.005 C 
ENDBRANCH  10  11
ENDBRANCH   8  10
BRANCH   4  13
ATOM     13  S   UNL d   1       1.674   2.603  -0.015  0.00  0.00    -0.098 SA
ATOM     14  C   UNL d   1       3.339   1.892   0.011  0.00  0.00     0.099 C 
ENDBRANCH   4  13
BRANCH   3  15
ATOM     15  O   UNL d   1      -2.667   0.347  -0.047  0.00  0.00    -0.346 OA
ATOM     16  H   UNL d   1      -2.687   1.322  -0.038  0.00  0.00     0.219 HD
ENDBRANCH   3  15
TORSDOF 4
