REMARK  4 active torsions:
REMARK  status: ('A' for Active; 'I' for Inactive)
REMARK    1  A    between atoms: C_2  and  C_1 
REMARK       I    between atoms: N_8  and  C_2 
REMARK    2  A    between atoms: C_20  and  C_5 
REMARK    3  A    between atoms: C_7  and  C_10 
REMARK    4  A    between atoms: C_11  and  N_9 
ROOT
ATOM      1  C   UNL d   1       0.069  -2.660   0.125  0.00  0.00     0.256 C 
ATOM      2  N   UNL d   1      -0.964  -3.581  -0.028  0.00  0.00    -0.345 N 
ATOM      3  N   UNL d   1      -3.377  -5.052  -0.006  0.00  0.00    -0.364 N 
ATOM      4  O   UNL d   1       0.909  -2.776   1.020  0.00  0.00    -0.267 OA
ATOM      5  C   UNL d   1      -1.750  -3.791  -1.254  0.00  0.00     0.146 C 
ATOM      6  C   UNL d   1      -1.157  -4.639   0.983  0.00  0.00     0.146 C 
ATOM      7  C   UNL d   1      -3.237  -3.895  -0.895  0.00  0.00     0.144 C 
ATOM      8  C   UNL d   1      -2.660  -4.916   1.273  0.00  0.00     0.144 C 
ENDROOT
BRANCH   1   9
ATOM      9  C   UNL d   1       0.114  -1.529  -0.796  0.00  0.00     0.064 C 
ATOM     10  C   UNL d   1      -0.968  -0.795  -1.368  0.00  0.00     0.057 C 
ATOM     11  C   UNL d   1      -0.431   0.124  -2.240  0.00  0.00     0.087 C 
ATOM     12  O   UNL d   1       0.928   0.098  -2.142  0.00  0.00    -0.314 OA
ATOM     13  C   UNL d   1       1.255  -0.881  -1.244  0.00  0.00     0.065 C 
ATOM     14  C   UNL d   1       2.701  -1.034  -0.975  0.00  0.00     0.077 C 
BRANCH  11  15
ATOM     15  C   UNL d   1      -1.022   1.058  -3.189  0.00  0.00    -0.002 A 
ATOM     16  C   UNL d   1      -0.382   2.253  -3.537  0.00  0.00     0.014 A 
ATOM     17  C   UNL d   1      -0.996   3.161  -4.402  0.00  0.00     0.001 A 
ATOM     18  C   UNL d   1      -2.250   2.879  -4.941  0.00  0.00     0.000 A 
ATOM     19  C   UNL d   1      -2.889   1.684  -4.625  0.00  0.00     0.001 A 
ATOM     20  C   UNL d   1      -2.278   0.779  -3.754  0.00  0.00     0.014 A 
ENDBRANCH  11  15
ENDBRANCH   1   9
BRANCH   3  21
ATOM     21  C   UNL d   1      -4.511  -5.833  -0.093  0.00  0.00     0.103 A 
ATOM     22  N   UNL d   1      -5.152  -6.223   1.027  0.00  0.00    -0.352 N 
ATOM     23  C   UNL d   1      -6.240  -7.029   0.904  0.00  0.00     0.106 A 
ATOM     24  HN  UNL d   1      -4.828  -5.921   1.946  1.00  0.00     0.166 HD
ATOM     25  C   UNL d   1      -6.726  -7.502  -0.302  0.00  0.00     0.063 A 
ATOM     26  C   UNL d   1      -6.051  -7.111  -1.454  0.00  0.00     0.021 A 
ATOM     27  C   UNL d   1      -4.946  -6.274  -1.344  0.00  0.00     0.049 A 
BRANCH  25  28
ATOM     28  C   UNL d   1      -7.911  -8.411  -0.380  0.00  0.00     0.418 C 
ATOM     29  F   UNL d   1      -8.493  -8.654   0.825  0.00  0.00    -0.166 F 
ATOM     30  F   UNL d   1      -8.895  -7.915  -1.178  0.00  0.00    -0.166 F 
ATOM     31  F   UNL d   1      -7.593  -9.630  -0.898  0.00  0.00    -0.166 F 
ENDBRANCH  25  28
ENDBRANCH   3  21
TORSDOF 4
