REMARK  0 active torsions:
REMARK  status: ('A' for Active; 'I' for Inactive)
ROOT
ATOM      1  C   UNL d   1       1.093  -0.387   0.007  0.00  0.00     0.016 A 
ATOM      2  C   UNL d   1       0.555   0.895   0.007  0.00  0.00    -0.042 A 
ATOM      3  C   UNL d   1       2.545  -0.276   0.002  0.00  0.00     0.160 A 
ATOM      4  C   UNL d   1       0.315  -1.531   0.005  0.00  0.00     0.017 A 
ATOM      5  C   UNL d   1      -0.822   1.064   0.003  0.00  0.00     0.032 A 
ATOM      6  C   UNL d   1       1.609   1.956   0.031  0.00  0.00     0.047 A 
ATOM      7  C   UNL d   1       2.936   1.180  -0.032  0.00  0.00     0.088 A 
ATOM      8  O   UNL d   1       3.302  -1.230   0.010  0.00  0.00    -0.292 OA
ATOM      9  C   UNL d   1      -1.631  -0.078  -0.001  0.00  0.00     0.034 A 
ATOM     10  C   UNL d   1      -1.072  -1.367   0.002  0.00  0.00     0.025 A 
ATOM     11 CL   UNL d   1      -3.344   0.100  -0.004  0.00  0.00    -0.084 Cl
ENDROOT
TORSDOF 0
