REMARK  6 active torsions:
REMARK  status: ('A' for Active; 'I' for Inactive)
REMARK    1  A    between atoms: S_11  and  C_3 
REMARK    2  A    between atoms: S_12  and  C_4 
REMARK    3  A    between atoms: C_13  and  S_11 
REMARK    4  A    between atoms: C_14  and  S_12 
REMARK    5  A    between atoms: C_17  and  C_13 
REMARK    6  A    between atoms: C_18  and  C_14 
ROOT
ATOM      1  N   UNL d   1       0.031   0.654  -0.143  0.00  0.00    -0.241 N 
ATOM      2  N   UNL d   1       0.003  -0.669  -0.118  0.00  0.00    -0.241 N 
ATOM      3  C   UNL d   1       1.305   1.096  -0.035  0.00  0.00     0.161 A 
ATOM      4  C   UNL d   1      -1.278  -1.106  -0.087  0.00  0.00     0.161 A 
ATOM      5  N   UNL d   1       2.225   0.146  -0.011  0.00  0.00    -0.347 N 
ATOM      6  HN  UNL d   1       3.241   0.233   0.024  1.00  0.00     0.163 HD
ATOM      7  N   UNL d   1      -2.194  -0.154  -0.079  0.00  0.00    -0.347 N 
ATOM      8  HN  UNL d   1      -3.211  -0.237  -0.080  1.00  0.00     0.163 HD
ATOM      9  C   UNL d   1      -1.324   1.110  -0.068  0.00  0.00     0.206 A 
ATOM     10  C   UNL d   1       1.360  -1.121  -0.050  0.00  0.00     0.206 A 
ATOM     11  C   UNL d   1      -1.686   1.959  -1.275  0.00  0.00     0.057 C 
ATOM     12  C   UNL d   1       1.653  -1.923   1.208  0.00  0.00     0.057 C 
ENDROOT
BRANCH   3  13
ATOM     13  S   UNL d   1       1.677   2.782   0.082  0.00  0.00    -0.088 SA
BRANCH  13  14
ATOM     14  C   UNL d   1       3.296   2.818  -0.736  0.00  0.00     0.121 C 
BRANCH  14  15
ATOM     15  C   UNL d   1       3.834   4.231  -0.821  0.00  0.00    -0.048 A 
ATOM     16  C   UNL d   1       4.662   4.738   0.193  0.00  0.00     0.009 A 
ATOM     17  C   UNL d   1       5.144   6.049   0.129  0.00  0.00     0.024 A 
ATOM     18  C   UNL d   1       4.797   6.862  -0.946  0.00  0.00     0.034 A 
ATOM     19  C   UNL d   1       3.971   6.379  -1.958  0.00  0.00     0.024 A 
ATOM     20 CL   UNL d   1       5.388   8.478  -1.022  0.00  0.00    -0.084 Cl
ATOM     21  C   UNL d   1       3.489   5.068  -1.895  0.00  0.00     0.009 A 
ENDBRANCH  14  15
ENDBRANCH  13  14
ENDBRANCH   3  13
BRANCH   4  22
ATOM     22  S   UNL d   1      -1.656  -2.796  -0.062  0.00  0.00    -0.088 SA
BRANCH  22  23
ATOM     23  C   UNL d   1      -3.301  -2.792  -0.825  0.00  0.00     0.121 C 
BRANCH  23  24
ATOM     24  C   UNL d   1      -3.840  -4.200  -0.951  0.00  0.00    -0.048 A 
ATOM     25  C   UNL d   1      -4.672  -4.738   0.046  0.00  0.00     0.009 A 
ATOM     26  C   UNL d   1      -5.149  -6.046  -0.055  0.00  0.00     0.024 A 
ATOM     27  C   UNL d   1      -4.796  -6.832  -1.152  0.00  0.00     0.034 A 
ATOM     28  C   UNL d   1      -3.968  -6.316  -2.147  0.00  0.00     0.024 A 
ATOM     29 CL   UNL d   1      -5.379  -8.445  -1.273  0.00  0.00    -0.084 Cl
ATOM     30  C   UNL d   1      -3.491  -5.006  -2.046  0.00  0.00     0.009 A 
ENDBRANCH  23  24
ENDBRANCH  22  23
ENDBRANCH   4  22
TORSDOF 6
