REMARK  6 active torsions:
REMARK  status: ('A' for Active; 'I' for Inactive)
REMARK    1  A    between atoms: C_6  and  S_1 
REMARK    2  A    between atoms: N_7  and  S_1 
REMARK    3  A    between atoms: N_10  and  C_2 
REMARK    4  A    between atoms: C_16  and  N_7 
REMARK       I    between atoms: C_15  and  N_10 
REMARK    5  A    between atoms: O_25  and  C_14 
REMARK    6  A    between atoms: O_26  and  C_19 
ROOT
ATOM      1  C   UNL d   1       3.544  -3.139   5.969  0.00  0.00     0.112 C 
ATOM      2  C   UNL d   1       2.531  -4.229   6.157  0.00  0.00     0.315 C 
ATOM      3  O   UNL d   1       1.592  -4.414   5.149  0.00  0.00    -0.273 OA
ATOM      4  C   UNL d   1       3.360  -2.229   5.003  0.00  0.00     0.050 C 
ATOM      5  C   UNL d   1       2.201  -2.295   4.126  0.00  0.00     0.002 A 
ATOM      6  C   UNL d   1       1.385  -3.419   4.178  0.00  0.00     0.090 A 
ATOM      7  C   UNL d   1       0.752  -1.368   2.429  0.00  0.00     0.043 A 
ATOM      8  C   UNL d   1       1.883  -1.261   3.240  0.00  0.00     0.044 A 
ATOM      9  O   UNL d   1       2.581  -4.959   7.145  0.00  0.00    -0.257 OA
ATOM     10  C   UNL d   1       0.295  -3.567   3.323  0.00  0.00     0.040 A 
ATOM     11  C   UNL d   1      -0.029  -2.526   2.452  0.00  0.00     0.033 A 
ENDROOT
BRANCH   7  12
ATOM     12  N   UNL d   1       0.340  -0.262   1.651  0.00  0.00    -0.281 N 
ATOM     13  H   UNL d   1      -0.506   0.247   1.898  0.00  0.00     0.179 HD
BRANCH  12  14
ATOM     14  S   UNL d   1       0.943   0.022   0.117  0.00  0.00     0.263 S 
ATOM     15  O   UNL d   1       0.210   1.152  -0.405  0.00  0.00    -0.200 OA
ATOM     16  O   UNL d   1       2.391   0.023   0.174  0.00  0.00    -0.200 OA
BRANCH  14  17
ATOM     17  C   UNL d   1       0.433  -1.417  -0.791  0.00  0.00     0.082 A 
ATOM     18  C   UNL d   1       1.287  -2.524  -0.842  0.00  0.00     0.065 A 
ATOM     19  C   UNL d   1       0.903  -3.689  -1.517  0.00  0.00     0.102 A 
ATOM     20  C   UNL d   1      -0.337  -3.710  -2.183  0.00  0.00     0.101 A 
ATOM     21  C   UNL d   1      -1.174  -2.583  -2.139  0.00  0.00     0.041 A 
ATOM     22  C   UNL d   1      -0.793  -1.431  -1.453  0.00  0.00     0.028 A 
BRANCH  19  23
ATOM     23  O   UNL d   1       1.665  -4.827  -1.528  0.00  0.00    -0.353 OA
ATOM     24  C   UNL d   1       2.892  -4.816  -0.807  0.00  0.00     0.210 C 
ENDBRANCH  19  23
BRANCH  20  25
ATOM     25  O   UNL d   1      -0.896  -4.764  -2.861  0.00  0.00    -0.353 OA
ATOM     26  C   UNL d   1      -0.005  -5.651  -3.526  0.00  0.00     0.210 C 
ENDBRANCH  20  25
ENDBRANCH  14  17
ENDBRANCH  12  14
ENDBRANCH   7  12
BRANCH   1  27
ATOM     27  N   UNL d   1       4.619  -3.167   6.848  0.00  0.00    -0.322 N 
ATOM     28  C   UNL d   1       5.730  -2.347   6.856  0.00  0.00     0.218 C 
ATOM     29  O   UNL d   1       5.947  -1.426   6.074  0.00  0.00    -0.274 OA
ATOM     30  C   UNL d   1       6.738  -2.686   7.922  0.00  0.00     0.117 C 
ATOM     31  H   UNL d   1       4.566  -3.913   7.540  0.00  0.00     0.169 HD
ENDBRANCH   1  27
TORSDOF 6
