REMARK  3 active torsions:
REMARK  status: ('A' for Active; 'I' for Inactive)
REMARK    1  A    between atoms: C_2  and  C_1 
REMARK    2  A    between atoms: C_6  and  C_1 
REMARK    3  A    between atoms: C_14  and  C_5 
ROOT
ATOM      1  C   UNL d   1       0.026   1.865   1.214  0.00  0.00     0.064 A 
ATOM      2  N   UNL d   1      -1.114   2.207   1.775  0.00  0.00    -0.352 N 
ATOM      3  HN  UNL d   1      -2.038   2.013   1.390  1.00  0.00     0.166 HD
ATOM      4  C   UNL d   1      -0.871   2.873   2.970  0.00  0.00     0.049 A 
ATOM      5  S   UNL d   1       1.444   2.349   2.043  0.00  0.00    -0.085 SA
ATOM      6  C   UNL d   1       0.468   3.034   3.276  0.00  0.00     0.081 A 
ENDROOT
BRANCH   1   7
ATOM      7  C   UNL d   1       0.052   0.943  -0.025  0.00  0.00     0.038 A 
ATOM      8  C   UNL d   1       0.796  -0.376   0.051  0.00  0.00     0.023 A 
ATOM      9  C   UNL d   1      -0.706  -0.372   0.116  0.00  0.00     0.023 A 
BRANCH   7  10
ATOM     10  C   UNL d   1      -0.052   1.671  -1.366  0.00  0.00    -0.021 A 
ATOM     11  C   UNL d   1       1.066   2.084  -2.124  0.00  0.00     0.043 A 
ATOM     12  C   UNL d   1       0.926   2.668  -3.389  0.00  0.00     0.048 A 
ATOM     13 CL   UNL d   1       2.680   1.878  -1.534  0.00  0.00    -0.084 Cl
ATOM     14  C   UNL d   1      -0.343   2.868  -3.920  0.00  0.00     0.035 A 
ATOM     15  C   UNL d   1      -1.471   2.512  -3.190  0.00  0.00     0.024 A 
ATOM     16 CL   UNL d   1      -0.518   3.552  -5.488  0.00  0.00    -0.084 Cl
ATOM     17  C   UNL d   1      -1.322   1.930  -1.927  0.00  0.00     0.012 A 
ENDBRANCH   7  10
ENDBRANCH   1   7
BRANCH   4  18
ATOM     18  C   UNL d   1      -1.971   3.286   3.842  0.00  0.00    -0.009 A 
ATOM     19  C   UNL d   1      -3.230   2.677   3.690  0.00  0.00     0.017 A 
ATOM     20  C   UNL d   1      -4.294   3.018   4.529  0.00  0.00     0.043 A 
ATOM     21  C   UNL d   1      -4.108   3.974   5.516  0.00  0.00     0.116 A 
ATOM     22  C   UNL d   1      -2.879   4.601   5.677  0.00  0.00     0.043 A 
ATOM     23  F   UNL d   1      -5.125   4.297   6.326  0.00  0.00    -0.206 F 
ATOM     24  C   UNL d   1      -1.813   4.260   4.840  0.00  0.00     0.017 A 
ENDBRANCH   4  18
TORSDOF 3
