REMARK  4 active torsions:
REMARK  status: ('A' for Active; 'I' for Inactive)
REMARK    1  A    between atoms: N_10  and  C_1 
REMARK    2  A    between atoms: C_5  and  C_12 
REMARK    3  A    between atoms: C_6  and  C_11 
REMARK       I    between atoms: C_8  and  N_10 
REMARK       I    between atoms: N_15  and  C_8 
REMARK    4  A    between atoms: C_14  and  N_15 
ROOT
ATOM      1  C   UNL d   1       2.348  -1.121  -0.670  0.00  0.00     0.050 A 
ATOM      2  C   UNL d   1       4.461  -0.439   0.336  0.00  0.00     0.050 A 
ATOM      3  C   UNL d   1       3.619  -1.439  -0.174  0.00  0.00     0.032 A 
ATOM      4  C   UNL d   1       2.736   1.227  -0.125  0.00  0.00     0.037 A 
ATOM      5  C   UNL d   1       1.923   0.218  -0.644  0.00  0.00     0.045 A 
ATOM      6  C   UNL d   1       4.018   0.897   0.326  0.00  0.00     0.045 A 
ENDROOT
BRANCH   4   7
ATOM      7  N   UNL d   1       2.317   2.564   0.032  0.00  0.00    -0.309 N 
ATOM      8  C   UNL d   1       1.011   3.031  -0.034  0.00  0.00     0.325 C 
ATOM      9  N   UNL d   1       0.929   4.333   0.427  0.00  0.00    -0.305 N 
ATOM     10  O   UNL d   1       0.045   2.360  -0.380  0.00  0.00    -0.247 OA
ATOM     11  H   UNL d   1       1.683   4.643   1.018  0.00  0.00     0.171 HD
ATOM     12  H   UNL d   1       3.020   3.224   0.330  0.00  0.00     0.170 HD
BRANCH   9  13
ATOM     13  C   UNL d   1      -0.251   5.062   0.536  0.00  0.00     0.092 A 
ATOM     14  C   UNL d   1      -1.438   4.975  -0.163  0.00  0.00     0.101 A 
ATOM     15  O   UNL d   1      -2.310   5.902   0.330  0.00  0.00    -0.240 OA
ATOM     16  C   UNL d   1      -1.974   4.192  -1.294  0.00  0.00     0.081 C 
ATOM     17  N   UNL d   1      -1.710   6.628   1.336  0.00  0.00    -0.263 N 
ATOM     18  C   UNL d   1      -0.474   6.133   1.448  0.00  0.00     0.058 A 
ATOM     19  HN  UNL d   1      -2.123   7.384   1.881  1.00  0.00     0.194 HD
ATOM     20  C   UNL d   1       0.439   6.679   2.479  0.00  0.00     0.072 C 
ENDBRANCH   9  13
ENDBRANCH   4   7
BRANCH   1  21
ATOM     21  C   UNL d   1       1.421  -2.180  -1.216  0.00  0.00     0.417 C 
ATOM     22  F   UNL d   1       1.888  -3.447  -1.033  0.00  0.00    -0.166 F 
ATOM     23  F   UNL d   1       0.190  -2.152  -0.637  0.00  0.00    -0.166 F 
ATOM     24  F   UNL d   1       1.213  -2.050  -2.555  0.00  0.00    -0.166 F 
ENDBRANCH   1  21
BRANCH   2  25
ATOM     25  C   UNL d   1       5.817  -0.778   0.904  0.00  0.00     0.417 C 
ATOM     26  F   UNL d   1       5.957  -2.095   1.221  0.00  0.00    -0.166 F 
ATOM     27  F   UNL d   1       6.828  -0.486   0.043  0.00  0.00    -0.166 F 
ATOM     28  F   UNL d   1       6.089  -0.090   2.049  0.00  0.00    -0.166 F 
ENDBRANCH   2  25
TORSDOF 4
