REMARK  8 active torsions:
REMARK  status: ('A' for Active; 'I' for Inactive)
REMARK       I    between atoms: C_3  and  N_1 
REMARK    1  A    between atoms: C_4  and  N_2 
REMARK    2  A    between atoms: C_16  and  C_3 
REMARK    3  A    between atoms: C_12  and  C_4 
REMARK    4  A    between atoms: C_13  and  C_4 
REMARK    5  A    between atoms: C_5  and  C_17 
REMARK    6  A    between atoms: O_15  and  C_5 
REMARK    7  A    between atoms: O_14  and  C_16 
REMARK    8  A    between atoms: C_17  and  O_14 
ROOT
ATOM      1  N   UNL d   1      -1.503   0.079   0.260  0.00  0.00    -0.347 N 
ATOM      2  N   UNL d   1       1.411  -0.070  -0.196  0.00  0.00     0.105 N 
ATOM      3  C   UNL d   1      -2.639   0.180   1.047  0.00  0.00     0.243 C 
ATOM      4  C   UNL d   1      -0.878  -1.168  -0.175  0.00  0.00     0.156 C 
ATOM      5  C   UNL d   1      -0.772   1.288  -0.127  0.00  0.00     0.156 C 
ATOM      6  C   UNL d   1       0.589  -1.212   0.281  0.00  0.00     0.293 C 
ATOM      7  C   UNL d   1       0.726   1.181   0.252  0.00  0.00     0.293 C 
ATOM      8  O   UNL d   1      -3.139   1.269   1.338  0.00  0.00    -0.271 OA
ENDROOT
BRANCH   2   9
ATOM      9  C   UNL d   1       1.626  -0.082  -1.676  0.00  0.00     0.289 C 
BRANCH   9  10
ATOM     10  C   UNL d   1       2.502   1.085  -2.148  0.00  0.00    -0.021 A 
ATOM     11  C   UNL d   1       3.804   1.265  -1.657  0.00  0.00     0.010 A 
ATOM     12  C   UNL d   1       4.598   2.320  -2.111  0.00  0.00     0.001 A 
ATOM     13  C   UNL d   1       4.096   3.213  -3.055  0.00  0.00     0.000 A 
ATOM     14  C   UNL d   1       2.802   3.054  -3.546  0.00  0.00     0.001 A 
ATOM     15  C   UNL d   1       2.009   1.996  -3.099  0.00  0.00     0.010 A 
ENDBRANCH   9  10
BRANCH   9  16
ATOM     16  C   UNL d   1       2.183  -1.400  -2.237  0.00  0.00    -0.021 A 
ATOM     17  C   UNL d   1       1.756  -1.844  -3.502  0.00  0.00     0.010 A 
ATOM     18  C   UNL d   1       2.253  -3.027  -4.051  0.00  0.00     0.001 A 
ATOM     19  C   UNL d   1       3.184  -3.786  -3.346  0.00  0.00     0.000 A 
ATOM     20  C   UNL d   1       3.631  -3.355  -2.099  0.00  0.00     0.001 A 
ATOM     21  C   UNL d   1       3.145  -2.165  -1.555  0.00  0.00     0.010 A 
ENDBRANCH   9  16
ENDBRANCH   2   9
BRANCH   3  22
ATOM     22  C   UNL d   1      -3.305  -1.119   1.530  0.00  0.00     0.271 C 
BRANCH  22  23
ATOM     23  O   UNL d   1      -2.433  -1.944   2.310  0.00  0.00    -0.372 OA
BRANCH  23  24
ATOM     24  C   UNL d   1      -3.124  -3.059   2.868  0.00  0.00     0.277 C 
BRANCH  24  25
ATOM     25  C   UNL d   1      -3.416  -4.134   1.831  0.00  0.00     0.164 C 
ATOM     26  O   UNL d   1      -4.508  -4.660   1.663  0.00  0.00    -0.648 OA
BRANCH  25  27
ATOM     27  O   UNL d   1      -2.326  -4.449   1.090  0.00  0.00    -0.775 OA
ATOM     28  H   UNL d   1      -1.551  -3.920   1.373  0.00  0.00     0.167 HD
ENDBRANCH  25  27
ENDBRANCH  24  25
ENDBRANCH  23  24
ENDBRANCH  22  23
ENDBRANCH   3  22
TORSDOF 8
