REMARK  4 active torsions:
REMARK  status: ('A' for Active; 'I' for Inactive)
REMARK    1  A    between atoms: C_4  and  C_1 
REMARK    2  A    between atoms: N_6  and  C_2 
REMARK    3  A    between atoms: N_3  and  C_9 
REMARK       I    between atoms: C_5  and  N_7 
REMARK    4  A    between atoms: C_8  and  C_5 
ROOT
ATOM      1  C   UNL d   1      -3.799   5.792   0.763  0.00  0.00     0.254 C 
ATOM      2  N   UNL d   1      -1.344   2.439   0.288  0.00  0.00    -0.363 N 
ATOM      3  N   UNL d   1      -2.822   4.806   0.785  0.00  0.00    -0.345 N 
ATOM      4  C   UNL d   1      -1.519   3.391  -0.833  0.00  0.00     0.144 C 
ATOM      5  C   UNL d   1      -2.533   2.401   1.160  0.00  0.00     0.144 C 
ATOM      6  C   UNL d   1      -2.621   3.784   1.826  0.00  0.00     0.146 C 
ATOM      7  C   UNL d   1      -1.749   4.809  -0.235  0.00  0.00     0.146 C 
ATOM      8  O   UNL d   1      -3.767   6.740  -0.019  0.00  0.00    -0.267 OA
ENDROOT
BRANCH   2   9
ATOM      9  C   UNL d   1      -0.747   1.215   0.043  0.00  0.00     0.118 A 
ATOM     10  C   UNL d   1      -0.072   0.530   1.056  0.00  0.00     0.091 A 
ATOM     11  C   UNL d   1       0.511  -0.723   0.749  0.00  0.00     0.021 A 
ATOM     12  C   UNL d   1       0.439  -1.232  -0.533  0.00  0.00     0.018 A 
ATOM     13  C   UNL d   1      -0.218  -0.472  -1.477  0.00  0.00     0.089 A 
ATOM     14  N   UNL d   1      -0.795   0.727  -1.217  0.00  0.00    -0.352 N 
ATOM     15  HN  UNL d   1      -1.258   1.252  -1.959  1.00  0.00     0.166 HD
BRANCH  10  16
ATOM     16  C   UNL d   1       0.118   1.029   2.459  0.00  0.00     0.421 C 
ATOM     17  F   UNL d   1      -0.345   2.272   2.755  0.00  0.00    -0.166 F 
ATOM     18  F   UNL d   1      -0.488   0.205   3.367  0.00  0.00    -0.166 F 
ATOM     19  F   UNL d   1       1.435   1.052   2.825  0.00  0.00    -0.166 F 
ENDBRANCH  10  16
ENDBRANCH   2   9
BRANCH   1  20
ATOM     20  C   UNL d   1      -4.947   5.729   1.710  0.00  0.00     0.034 A 
ATOM     21  C   UNL d   1      -5.576   4.523   2.035  0.00  0.00     0.053 A 
ATOM     22  C   UNL d   1      -6.573   4.503   3.017  0.00  0.00     0.103 A 
ATOM     23  C   UNL d   1      -7.042   5.693   3.584  0.00  0.00     0.036 A 
ATOM     24  C   UNL d   1      -6.486   6.907   3.178  0.00  0.00     0.003 A 
ATOM     25  C   UNL d   1      -5.433   6.924   2.258  0.00  0.00     0.017 A 
BRANCH  22  26
ATOM     26  N   UNL d   1      -7.081   3.210   3.493  0.00  0.00    -0.116 N 
ATOM     27  O   UNL d   1      -6.505   2.188   3.090  0.00  0.00    -0.532 OA
ATOM     28  O   UNL d   1      -8.028   3.219   4.289  0.00  0.00    -0.532 OA
ENDBRANCH  22  26
ENDBRANCH   1  20
TORSDOF 4
