REMARK  7 active torsions:
REMARK  status: ('A' for Active; 'I' for Inactive)
REMARK    1  A    between atoms: N_2  and  S_1 
REMARK    2  A    between atoms: C_3  and  S_1 
REMARK    3  A    between atoms: C_4  and  N_2 
REMARK    4  A    between atoms: O_6  and  C_8 
REMARK    5  A    between atoms: C_7  and  O_6 
REMARK    6  A    between atoms: O_21  and  C_12 
REMARK    7  A    between atoms: O_23  and  C_14 
ROOT
ATOM      1  C   UNL d   1       0.845   1.593  -1.997  0.00  0.00     0.056 A 
ATOM      2  C   UNL d   1       0.013   2.502  -2.669  0.00  0.00     0.098 A 
ATOM      3  C   UNL d   1       2.187   1.919  -1.775  0.00  0.00     0.027 A 
ATOM      4  C   UNL d   1       0.570   3.684  -3.185  0.00  0.00     0.039 A 
ATOM      5  C   UNL d   1       2.700   3.145  -2.195  0.00  0.00     0.002 A 
ATOM      6  C   UNL d   1       1.895   4.024  -2.909  0.00  0.00     0.003 A 
ENDROOT
BRANCH   1   7
ATOM      7  N   UNL d   1       0.362   0.362  -1.445  0.00  0.00    -0.179 NA
ATOM      8  H   UNL d   1      -0.354  -0.098  -2.012  0.00  0.00     0.146 HD
BRANCH   7   9
ATOM      9  S   UNL d   1      -0.162   0.380   0.170  0.00  0.00     0.246 S 
ATOM     10  O   UNL d   1      -0.575  -0.971   0.483  0.00  0.00    -0.206 OA
ATOM     11  O   UNL d   1      -1.073   1.495   0.346  0.00  0.00    -0.206 OA
BRANCH   9  12
ATOM     12  C   UNL d   1       1.307   0.727   1.112  0.00  0.00     0.077 A 
ATOM     13  C   UNL d   1       1.576   2.048   1.500  0.00  0.00     0.064 A 
ATOM     14  C   UNL d   1       2.729   2.361   2.235  0.00  0.00     0.102 A 
ATOM     15  C   UNL d   1       3.612   1.324   2.589  0.00  0.00     0.101 A 
ATOM     16  C   UNL d   1       3.307   0.001   2.220  0.00  0.00     0.041 A 
ATOM     17  C   UNL d   1       2.160  -0.307   1.491  0.00  0.00     0.028 A 
BRANCH  14  18
ATOM     18  O   UNL d   1       3.050   3.642   2.594  0.00  0.00    -0.353 OA
ATOM     19  C   UNL d   1       2.037   4.637   2.524  0.00  0.00     0.210 C 
ENDBRANCH  14  18
BRANCH  15  20
ATOM     20  O   UNL d   1       4.790   1.406   3.285  0.00  0.00    -0.353 OA
ATOM     21  C   UNL d   1       5.243   2.674   3.738  0.00  0.00     0.210 C 
ENDBRANCH  15  20
ENDBRANCH   9  12
ENDBRANCH   7   9
ENDBRANCH   1   7
BRANCH   2  22
ATOM     22  O   UNL d   1      -1.329   2.197  -2.822  0.00  0.00    -0.307 OA
BRANCH  22  23
ATOM     23  C   UNL d   1      -2.228   3.252  -2.804  0.00  0.00     0.098 A 
ATOM     24  C   UNL d   1      -3.276   3.282  -3.734  0.00  0.00     0.069 A 
ATOM     25  C   UNL d   1      -4.145   4.377  -3.783  0.00  0.00     0.050 A 
ATOM     26 CL   UNL d   1      -3.510   2.000  -4.866  0.00  0.00    -0.081 Cl
ATOM     27  C   UNL d   1      -3.965   5.441  -2.901  0.00  0.00     0.035 A 
ATOM     28  C   UNL d   1      -2.956   5.402  -1.942  0.00  0.00     0.026 A 
ATOM     29 CL   UNL d   1      -4.991   6.819  -2.995  0.00  0.00    -0.084 Cl
ATOM     30  C   UNL d   1      -2.112   4.293  -1.870  0.00  0.00     0.041 A 
ENDBRANCH  22  23
ENDBRANCH   2  22
TORSDOF 7
