REMARK  2 active torsions:
REMARK  status: ('A' for Active; 'I' for Inactive)
REMARK    1  A    between atoms: C_7  and  CA_1 
REMARK    2  A    between atoms: OXT_11  and  C_7 
ROOT
ATOM      1  CA  UNL d   1       0.031  -1.810  -0.001  0.00  0.00     0.115 A 
ATOM      2  N   UNL d   1       0.033   0.921  -0.002  0.00  0.00    -0.275 N 
ATOM      3  C   UNL d   1      -1.177   0.292   0.011  0.00  0.00     0.327 A 
ATOM      4  C   UNL d   1       1.215  -1.187  -0.014  0.00  0.00     0.111 A 
ATOM      5  N   UNL d   1      -1.129  -1.069   0.012  0.00  0.00    -0.303 N 
ATOM      6  C   UNL d   1       1.240   0.290  -0.011  0.00  0.00     0.251 A 
ATOM      7  O   UNL d   1      -2.234   0.912   0.021  0.00  0.00    -0.247 OA
ATOM      8  O   UNL d   1       2.310   0.886  -0.014  0.00  0.00    -0.268 OA
ATOM      9  H   UNL d   1       0.027   1.929   0.001  0.00  0.00     0.173 HD
ATOM     10  H   UNL d   1      -2.018  -1.567   0.022  0.00  0.00     0.171 HD
ENDROOT
BRANCH   1  11
ATOM     11  C   UNL d   1      -0.158  -3.291   0.000  0.00  0.00     0.193 C 
ATOM     12  O   UNL d   1      -1.283  -3.776   0.013  0.00  0.00    -0.645 OA
BRANCH  11  13
ATOM     13  OXT UNL d   1       0.947  -4.056  -0.014  0.00  0.00    -0.772 OA
ATOM     14  HXT UNL d   1       1.814  -3.619  -0.023  0.00  0.00     0.167 HD
ENDBRANCH  11  13
ENDBRANCH   1  11
TORSDOF 2
