REMARK  6 active torsions:
REMARK  status: ('A' for Active; 'I' for Inactive)
REMARK    1  A    between atoms: C_5  and  C_1 
REMARK    2  A    between atoms: C_7  and  C_2 
REMARK    3  A    between atoms: O_14  and  C_7 
REMARK    4  A    between atoms: N_9  and  O_14 
REMARK    5  A    between atoms: C_12  and  C_11 
REMARK    6  A    between atoms: N_24  and  C_11 
ROOT
ATOM      1  C   UNL d   1      -1.550  -1.143   0.159  0.00  0.00     0.320 C 
ATOM      2  O   UNL d   1      -1.941   0.011   0.301  0.00  0.00    -0.257 OA
ENDROOT
BRANCH   1   3
ATOM      3  C   UNL d   1      -0.141  -1.506   0.187  0.00  0.00     0.102 A 
ATOM      4  C   UNL d   1       0.975  -0.758   0.709  0.00  0.00     0.085 A 
ATOM      5  N   UNL d   1       2.105  -1.472   0.580  0.00  0.00    -0.259 N 
ATOM      6  O   UNL d   1       1.774  -2.637  -0.047  0.00  0.00    -0.241 OA
ATOM      7  HN  UNL d   1       3.036  -1.195   0.892  1.00  0.00     0.195 HD
ATOM      8  C   UNL d   1       0.440  -2.676  -0.272  0.00  0.00     0.091 A 
ATOM      9  C   UNL d   1      -0.004  -3.920  -0.934  0.00  0.00     0.080 C 
BRANCH   4  10
ATOM     10  C   UNL d   1       1.028   0.532   1.412  0.00  0.00     0.015 A 
ATOM     11  C   UNL d   1       2.042   1.486   1.188  0.00  0.00     0.046 A 
ATOM     12 CL   UNL d   1       3.233   1.338  -0.063  0.00  0.00    -0.083 Cl
ATOM     13  C   UNL d   1       2.117   2.645   1.974  0.00  0.00     0.025 A 
ATOM     14  C   UNL d   1       1.177   2.883   2.974  0.00  0.00     0.002 A 
ATOM     15  C   UNL d   1       0.156   1.964   3.190  0.00  0.00     0.001 A 
ATOM     16  C   UNL d   1       0.088   0.796   2.425  0.00  0.00     0.015 A 
ENDBRANCH   4  10
ENDBRANCH   1   3
BRANCH   1  17
ATOM     17  O   UNL d   1      -2.369  -2.242   0.000  0.00  0.00    -0.193 OA
BRANCH  17  18
ATOM     18  N   UNL d   1      -3.725  -1.912   0.233  0.00  0.00    -0.246 N 
ATOM     19  C   UNL d   1      -4.468  -2.981   0.258  0.00  0.00     0.109 C 
ATOM     20  HN  UNL d   1      -4.074  -0.962   0.364  1.00  0.00     0.196 HD
BRANCH  19  21
ATOM     21  C   UNL d   1      -5.923  -2.837   0.584  0.00  0.00     0.006 A 
ATOM     22  C   UNL d   1      -6.598  -3.906   1.193  0.00  0.00     0.054 A 
ATOM     23  C   UNL d   1      -7.927  -3.730   1.510  0.00  0.00     0.105 A 
ATOM     24  O   UNL d   1      -8.722  -4.645   2.125  0.00  0.00    -0.323 OA
ATOM     25  C   UNL d   1      -8.591  -2.557   1.235  0.00  0.00     0.105 A 
ATOM     26  C   UNL d   1      -9.939  -3.885   2.280  0.00  0.00     0.352 A 
ATOM     27  O   UNL d   1      -9.888  -2.591   1.643  0.00  0.00    -0.323 OA
ATOM     28  C   UNL d   1      -7.960  -1.493   0.626  0.00  0.00     0.040 A 
ATOM     29  C   UNL d   1      -6.604  -1.633   0.305  0.00  0.00     0.018 A 
ENDBRANCH  19  21
BRANCH  19  30
ATOM     30  N   UNL d   1      -3.989  -4.246   0.002  0.00  0.00    -0.286 NA
ATOM     31  H   UNL d   1      -3.098  -4.237  -0.475  0.00  0.00     0.125 HD
ATOM     32  H   UNL d   1      -4.647  -4.884  -0.436  0.00  0.00     0.125 HD
ENDBRANCH  19  30
ENDBRANCH  17  18
ENDBRANCH   1  17
TORSDOF 6
