REMARK  5 active torsions:
REMARK  status: ('A' for Active; 'I' for Inactive)
REMARK    1  A    between atoms: C_2  and  C_1 
REMARK       I    between atoms: N_4  and  C_2 
REMARK    2  A    between atoms: C_3  and  C_6 
REMARK    3  A    between atoms: C_5  and  N_4 
REMARK    4  A    between atoms: O_11  and  C_7 
REMARK    5  A    between atoms: C_22  and  O_11 
ROOT
ATOM      1  N   UNL d   1      -6.414   5.004   0.776  0.00  0.00    -0.191 NA
ATOM      2  C   UNL d   1      -5.563   4.212   0.805  0.00  0.00     0.099 C 
ATOM      3  C   UNL d   1      -4.517   3.232   0.838  0.00  0.00     0.044 A 
ATOM      4  C   UNL d   1      -2.471   1.310   0.894  0.00  0.00     0.076 A 
ATOM      5  C   UNL d   1      -4.811   1.896   1.133  0.00  0.00     0.025 A 
ATOM      6  C   UNL d   1      -2.182   2.641   0.583  0.00  0.00     0.039 A 
ATOM      7  C   UNL d   1      -3.795   0.933   1.140  0.00  0.00     0.039 A 
ATOM      8  C   UNL d   1      -3.198   3.601   0.557  0.00  0.00     0.025 A 
ENDROOT
BRANCH   4   9
ATOM      9  O   UNL d   1      -1.397   0.450   0.850  0.00  0.00    -0.309 OA
BRANCH   9  10
ATOM     10  C   UNL d   1      -1.344  -0.665   1.654  0.00  0.00     0.102 C 
ATOM     11  C   UNL d   1      -0.760  -1.841   1.148  0.00  0.00     0.070 C 
ATOM     12  C   UNL d   1      -0.896  -3.033   1.880  0.00  0.00     0.048 C 
ATOM     13  C   UNL d   1      -1.484  -3.041   3.156  0.00  0.00     0.050 C 
ATOM     14  C   UNL d   1      -1.927  -1.831   3.703  0.00  0.00     0.019 C 
ATOM     15  C   UNL d   1      -1.852  -0.653   2.960  0.00  0.00     0.040 C 
BRANCH  11  16
ATOM     16  N   UNL d   1      -0.026  -1.935  -0.061  0.00  0.00    -0.317 N 
ATOM     17  C   UNL d   1       0.780  -0.930  -0.616  0.00  0.00     0.330 C 
ATOM     18  O   UNL d   1       0.966   0.185  -0.130  0.00  0.00    -0.263 OA
ATOM     19  H   UNL d   1       0.173  -2.873  -0.403  0.00  0.00     0.169 HD
BRANCH  17  20
ATOM     20  C   UNL d   1       1.503  -1.388  -1.900  0.00  0.00     0.472 C 
ATOM     21  F   UNL d   1       1.315  -2.722  -2.134  0.00  0.00    -0.162 F 
ATOM     22  F   UNL d   1       2.850  -1.205  -1.836  0.00  0.00    -0.162 F 
ATOM     23  F   UNL d   1       1.067  -0.740  -3.013  0.00  0.00    -0.162 F 
ENDBRANCH  17  20
ENDBRANCH  11  16
BRANCH  13  24
ATOM     24  C   UNL d   1      -1.619  -4.315   3.955  0.00  0.00     0.417 C 
ATOM     25  F   UNL d   1      -1.172  -5.419   3.295  0.00  0.00    -0.166 F 
ATOM     26  F   UNL d   1      -0.926  -4.271   5.126  0.00  0.00    -0.166 F 
ATOM     27  F   UNL d   1      -2.911  -4.579   4.292  0.00  0.00    -0.166 F 
ENDBRANCH  13  24
ENDBRANCH   9  10
ENDBRANCH   4   9
TORSDOF 5
