REMARK  3 active torsions:
REMARK  status: ('A' for Active; 'I' for Inactive)
REMARK    1  A    between atoms: C_6  and  C_1 
REMARK       I    between atoms: N_10  and  C_1 
REMARK    2  A    between atoms: O_2  and  C_6 
REMARK    3  A    between atoms: C_3  and  O_2 
ROOT
ATOM      1  C   UNL d   1      -1.342   0.920   1.234  0.00  0.00     0.091 A 
ATOM      2  C   UNL d   1      -1.498   0.809   2.626  0.00  0.00     0.069 A 
ATOM      3  C   UNL d   1      -2.599   0.139   3.174  0.00  0.00     0.050 A 
ATOM      4  C   UNL d   1      -2.331   0.387   0.402  0.00  0.00     0.040 A 
ATOM      5  C   UNL d   1      -3.557  -0.410   2.328  0.00  0.00     0.035 A 
ATOM      6 CL   UNL d   1      -0.329   1.470   3.715  0.00  0.00    -0.081 Cl
ATOM      7  C   UNL d   1      -3.432  -0.281   0.947  0.00  0.00     0.026 A 
ATOM      8 CL   UNL d   1      -4.901  -1.254   2.987  0.00  0.00    -0.084 Cl
ENDROOT
BRANCH   1   9
ATOM      9  O   UNL d   1      -0.230   1.579   0.774  0.00  0.00    -0.335 OA
BRANCH   9  10
ATOM     10  C   UNL d   1       0.280   1.195  -0.504  0.00  0.00     0.216 C 
ATOM     11  C   UNL d   1       1.407   2.162  -0.861  0.00  0.00     0.050 C 
BRANCH  10  12
ATOM     12  C   UNL d   1       0.807  -0.251  -0.524  0.00  0.00     0.244 C 
ATOM     13  O   UNL d   1       0.343  -1.119  -1.258  0.00  0.00    -0.271 OA
ATOM     14  N   UNL d   1       1.835  -0.531   0.328  0.00  0.00    -0.368 N 
ATOM     15  H   UNL d   1       2.073   0.093   1.089  0.00  0.00     0.159 HD
ATOM     16  H   UNL d   1       2.134  -1.497   0.391  0.00  0.00     0.159 HD
ENDBRANCH  10  12
ENDBRANCH   9  10
ENDBRANCH   1   9
TORSDOF 3
