REMARK  5 active torsions:
REMARK  status: ('A' for Active; 'I' for Inactive)
REMARK    1  A    between atoms: N_2  and  C_1 
REMARK    2  A    between atoms: N_7  and  C_1 
REMARK    3  A    between atoms: C_9  and  N_2 
REMARK    4  A    between atoms: N_3  and  N_7 
REMARK    5  A    between atoms: C_15  and  C_13 
ROOT
ATOM      1  C   UNL d   1       1.252  -0.096   0.171  0.00  0.00     0.191 C 
ATOM      2  S   UNL d   1       0.553  -1.562   0.579  0.00  0.00    -0.039 SA
ENDROOT
BRANCH   1   3
ATOM      3  N   UNL d   1       0.625   1.098  -0.112  0.00  0.00    -0.332 N 
ATOM      4  H   UNL d   1       1.151   1.669  -0.762  0.00  0.00     0.168 HD
BRANCH   3   5
ATOM      5  C   UNL d   1      -0.681   1.492   0.230  0.00  0.00     0.034 A 
ATOM      6  C   UNL d   1      -1.244   1.152   1.464  0.00  0.00     0.037 A 
ATOM      7  C   UNL d   1      -2.538   1.565   1.821  0.00  0.00    -0.043 A 
ATOM      8  C   UNL d   1      -3.065   1.194   3.178  0.00  0.00     0.049 C 
ATOM      9  C   UNL d   1      -3.270   2.324   0.899  0.00  0.00     0.017 A 
ATOM     10  C   UNL d   1      -2.702   2.696  -0.324  0.00  0.00     0.022 A 
ATOM     11 BR   UNL d   1      -5.046   2.893   1.258  0.00  0.00    -0.051 Br
ATOM     12  C   UNL d   1      -1.397   2.304  -0.647  0.00  0.00     0.031 A 
ENDBRANCH   3   5
ENDBRANCH   1   3
BRANCH   1  13
ATOM     13  N   UNL d   1       2.623  -0.059   0.061  0.00  0.00    -0.276 N 
ATOM     14  H   UNL d   1       3.110  -0.919   0.294  0.00  0.00     0.189 HD
BRANCH  13  15
ATOM     15  N   UNL d   1       3.316   1.111  -0.066  0.00  0.00    -0.309 N 
ATOM     16  C   UNL d   1       4.594   0.978   0.110  0.00  0.00     0.120 C 
ATOM     17  HN  UNL d   1       2.870   2.003  -0.278  1.00  0.00     0.186 HD
BRANCH  16  18
ATOM     18  C   UNL d   1       5.520   2.117   0.060  0.00  0.00    -0.004 A 
ATOM     19  C   UNL d   1       6.884   1.885   0.176  0.00  0.00     0.100 A 
ATOM     20  N   UNL d   1       7.817   2.865   0.140  0.00  0.00    -0.374 N 
ATOM     21  C   UNL d   1       7.362   4.129  -0.013  0.00  0.00     0.087 A 
ATOM     22  HN  UNL d   1       8.813   2.660   0.225  1.00  0.00     0.164 HD
ATOM     23  C   UNL d   1       6.018   4.457  -0.127  0.00  0.00     0.018 A 
ATOM     24  C   UNL d   1       5.079   3.429  -0.088  0.00  0.00     0.015 A 
ENDBRANCH  16  18
ENDBRANCH  13  15
ENDBRANCH   1  13
TORSDOF 5
