REMARK  1 active torsions:
REMARK  status: ('A' for Active; 'I' for Inactive)
REMARK    1  A    between atoms: C_6  and  N_1 
ROOT
ATOM      1  N   UNL d   1       2.451  -0.606  -0.073  0.00  0.00    -0.252 N 
ATOM      2  C   UNL d   1       2.412   0.793  -0.112  0.00  0.00     0.186 A 
ATOM      3  C   UNL d   1       1.298  -1.418   0.032  0.00  0.00     0.267 A 
ATOM      4  C   UNL d   1      -0.001  -0.718   0.059  0.00  0.00     0.060 A 
ATOM      5  N   UNL d   1       1.179   1.378   0.011  0.00  0.00    -0.332 N 
ATOM      6  C   UNL d   1      -0.017   0.668   0.043  0.00  0.00     0.050 A 
ATOM      7  S   UNL d   1       3.693   1.855  -0.370  0.00  0.00    -0.040 SA
ATOM      8  O   UNL d   1       1.301  -2.641   0.117  0.00  0.00    -0.267 OA
ATOM      9  C   UNL d   1      -1.205  -1.434   0.077  0.00  0.00     0.026 A 
ATOM     10  C   UNL d   1      -1.227   1.360   0.015  0.00  0.00     0.031 A 
ATOM     11  C   UNL d   1      -2.428  -0.752   0.042  0.00  0.00    -0.061 A 
ATOM     12  C   UNL d   1      -2.428   0.648  -0.007  0.00  0.00     0.009 A 
ATOM     13  C   UNL d   1      -3.726  -1.504   0.025  0.00  0.00     0.048 C 
ATOM     14  H   UNL d   1       1.159   2.391  -0.032  0.00  0.00     0.168 HD
ENDROOT
BRANCH   1  15
ATOM     15  C   UNL d   1       3.699  -1.306  -0.150  0.00  0.00     0.067 A 
ATOM     16  C   UNL d   1       3.981  -2.191  -1.207  0.00  0.00     0.062 A 
ATOM     17  C   UNL d   1       5.152  -2.951  -1.200  0.00  0.00     0.045 A 
ATOM     18 CL   UNL d   1       2.967  -2.299  -2.609  0.00  0.00    -0.082 Cl
ATOM     19  C   UNL d   1       6.050  -2.822  -0.143  0.00  0.00     0.012 A 
ATOM     20  C   UNL d   1       5.814  -1.911   0.884  0.00  0.00     0.021 A 
ATOM     21 BR   UNL d   1       7.601  -3.902  -0.097  0.00  0.00    -0.051 Br
ATOM     22  C   UNL d   1       4.641  -1.153   0.881  0.00  0.00     0.033 A 
ENDBRANCH   1  15
TORSDOF 1
