REMARK  8 active torsions:
REMARK  status: ('A' for Active; 'I' for Inactive)
REMARK    1  A    between atoms: N_4  and  C_1 
REMARK    2  A    between atoms: N_5  and  C_1 
REMARK    3  A    between atoms: C_2  and  O_8 
REMARK    4  A    between atoms: C_3  and  O_7 
REMARK    5  A    between atoms: C_15  and  N_4 
REMARK    6  A    between atoms: C_16  and  N_5 
REMARK    7  A    between atoms: O_7  and  C_17 
REMARK    8  A    between atoms: O_8  and  C_18 
ROOT
ATOM      1  C   UNL d   1       1.164   0.108   0.059  0.00  0.00     0.176 C 
ATOM      2  S   UNL d   1       2.794   0.198   0.442  0.00  0.00    -0.041 SA
ENDROOT
BRANCH   1   3
ATOM      3  N   UNL d   1       0.644  -0.216  -1.163  0.00  0.00    -0.333 N 
ATOM      4  H   UNL d   1      -0.102   0.401  -1.464  0.00  0.00     0.168 HD
BRANCH   3   5
ATOM      5  C   UNL d   1       1.125  -1.136  -2.116  0.00  0.00     0.034 A 
ATOM      6  C   UNL d   1       1.894  -2.250  -1.772  0.00  0.00     0.032 A 
ATOM      7  C   UNL d   1       2.268  -3.194  -2.740  0.00  0.00     0.039 A 
ATOM      8  C   UNL d   1       1.853  -3.040  -4.060  0.00  0.00     0.078 A 
ATOM      9  C   UNL d   1       1.105  -1.910  -4.408  0.00  0.00     0.039 A 
ATOM     10  C   UNL d   1       0.724  -0.975  -3.441  0.00  0.00     0.032 A 
BRANCH   8  11
ATOM     11  O   UNL d   1       2.090  -3.889  -5.097  0.00  0.00    -0.255 OA
BRANCH  11  12
ATOM     12  C   UNL d   1       2.515  -5.213  -4.818  0.00  0.00     0.530 C 
ATOM     13  F   UNL d   1       1.941  -5.724  -3.709  0.00  0.00    -0.144 F 
ATOM     14  F   UNL d   1       2.162  -5.999  -5.861  0.00  0.00    -0.144 F 
ATOM     15  F   UNL d   1       3.858  -5.257  -4.691  0.00  0.00    -0.144 F 
ENDBRANCH  11  12
ENDBRANCH   8  11
ENDBRANCH   3   5
ENDBRANCH   1   3
BRANCH   1  16
ATOM     16  N   UNL d   1       0.281   0.521   1.020  0.00  0.00    -0.333 N 
ATOM     17  H   UNL d   1       0.750   0.952   1.808  0.00  0.00     0.168 HD
BRANCH  16  18
ATOM     18  C   UNL d   1      -1.092   0.242   1.201  0.00  0.00     0.034 A 
ATOM     19  C   UNL d   1      -1.839  -0.644   0.419  0.00  0.00     0.032 A 
ATOM     20  C   UNL d   1      -3.178  -0.933   0.732  0.00  0.00     0.039 A 
ATOM     21  C   UNL d   1      -3.772  -0.371   1.859  0.00  0.00     0.078 A 
ATOM     22  C   UNL d   1      -3.039   0.542   2.620  0.00  0.00     0.039 A 
ATOM     23  C   UNL d   1      -1.714   0.841   2.296  0.00  0.00     0.032 A 
BRANCH  21  24
ATOM     24  O   UNL d   1      -5.021  -0.624   2.337  0.00  0.00    -0.255 OA
BRANCH  24  25
ATOM     25  C   UNL d   1      -5.715  -1.774   1.883  0.00  0.00     0.530 C 
ATOM     26  F   UNL d   1      -4.898  -2.821   1.635  0.00  0.00    -0.144 F 
ATOM     27  F   UNL d   1      -6.584  -2.155   2.848  0.00  0.00    -0.144 F 
ATOM     28  F   UNL d   1      -6.419  -1.482   0.770  0.00  0.00    -0.144 F 
ENDBRANCH  24  25
ENDBRANCH  21  24
ENDBRANCH  16  18
ENDBRANCH   1  16
TORSDOF 8
