REMARK  3 active torsions:
REMARK  status: ('A' for Active; 'I' for Inactive)
REMARK    1  A    between atoms: N_14  and  C_3 
REMARK    2  A    between atoms: C_7  and  C_4 
REMARK    3  A    between atoms: C_8  and  C_9 
ROOT
ATOM      1  C   UNL d   1      -2.008  -2.356   0.018  0.00  0.00    -0.009 A 
ATOM      2  C   UNL d   1      -3.727  -4.635   0.039  0.00  0.00    -0.051 A 
ATOM      3  C   UNL d   1      -1.901  -3.323   1.021  0.00  0.00     0.014 A 
ATOM      4  C   UNL d   1      -2.968  -2.545  -0.982  0.00  0.00     0.014 A 
ATOM      5  C   UNL d   1      -3.812  -3.663  -0.969  0.00  0.00     0.009 A 
ATOM      6  C   UNL d   1      -2.750  -4.439   1.034  0.00  0.00     0.009 A 
ENDROOT
BRANCH   1   7
ATOM      7  C   UNL d   1      -1.133  -1.188   0.029  0.00  0.00     0.051 A 
ATOM      8  N   UNL d   1       0.132  -1.232   0.596  0.00  0.00    -0.336 N 
ATOM      9  C   UNL d   1       0.719  -0.066   0.487  0.00  0.00     0.142 A 
ATOM     10  HN  UNL d   1       0.547  -2.055   1.036  1.00  0.00     0.168 HD
ATOM     11  S   UNL d   1      -0.201   1.155  -0.291  0.00  0.00    -0.064 SA
ATOM     12  C   UNL d   1      -1.488   0.043  -0.492  0.00  0.00     0.083 A 
BRANCH   9  13
ATOM     13  N   UNL d   1       1.963   0.178   0.929  0.00  0.00    -0.380 N 
ATOM     14  H   UNL d   1       2.533  -0.642   1.102  0.00  0.00     0.158 HD
ATOM     15  H   UNL d   1       2.465   0.957   0.519  0.00  0.00     0.158 HD
ENDBRANCH   9  13
ENDBRANCH   1   7
BRANCH   2  16
ATOM     16  C   UNL d   1      -4.641  -5.873   0.072  0.00  0.00    -0.024 C 
ATOM     17  C   UNL d   1      -5.642  -5.937  -1.104  0.00  0.00     0.019 C 
ATOM     18  C   UNL d   1      -3.783  -7.155   0.009  0.00  0.00     0.019 C 
ATOM     19  C   UNL d   1      -5.469  -5.882   1.375  0.00  0.00     0.019 C 
ENDBRANCH   2  16
TORSDOF 3
