REMARK  3 active torsions:
REMARK  status: ('A' for Active; 'I' for Inactive)
REMARK    1  A    between atoms: N_5  and  C_1 
REMARK    2  A    between atoms: O_15  and  C_4 
REMARK       I    between atoms: C_9  and  N_5 
REMARK    3  A    between atoms: C_11  and  C_9 
ROOT
ATOM      1  C   UNL d   1       2.276   0.542  -0.097  0.00  0.00     0.687 A 
ATOM      2  N   UNL d   1       2.238  -0.785  -0.001  0.00  0.00    -0.169 N 
ATOM      3  HN  UNL d   1       3.089  -1.346   0.012  1.00  0.00     0.186 HD
ATOM      4  C   UNL d   1       1.034  -1.338   0.076  0.00  0.00     0.167 A 
ATOM      5  C   UNL d   1      -0.158  -0.652   0.071  0.00  0.00     0.043 A 
ATOM      6  N   UNL d   1       1.192   1.336  -0.058  0.00  0.00    -0.191 N 
ATOM      7  HN  UNL d   1       1.279   2.352  -0.078  1.00  0.00     0.184 HD
ATOM      8  C   UNL d   1      -0.019   0.736   0.008  0.00  0.00     0.063 A 
ATOM      9  C   UNL d   1      -1.423  -1.278   0.108  0.00  0.00     0.025 A 
ATOM     10  C   UNL d   1      -1.198   1.479  -0.004  0.00  0.00     0.031 A 
ATOM     11  C   UNL d   1      -2.589  -0.516   0.078  0.00  0.00    -0.061 A 
ATOM     12  C   UNL d   1      -2.467   0.874   0.023  0.00  0.00     0.009 A 
ATOM     13  C   UNL d   1      -3.933  -1.181   0.059  0.00  0.00     0.048 C 
ENDROOT
BRANCH   1  14
ATOM     14  N   UNL d   1       3.512   1.177  -0.238  0.00  0.00    -0.159 N 
ATOM     15  C   UNL d   1       4.676   0.505  -0.552  0.00  0.00     0.243 C 
ATOM     16  O   UNL d   1       4.734  -0.694  -0.825  0.00  0.00    -0.272 OA
ATOM     17  H   UNL d   1       3.466   2.182  -0.215  0.00  0.00     0.187 HD
BRANCH  15  18
ATOM     18  C   UNL d   1       5.968   1.350  -0.533  0.00  0.00     0.031 C 
ATOM     19  C   UNL d   1       6.254   1.825   0.898  0.00  0.00     0.025 C 
ATOM     20  C   UNL d   1       7.140   0.459  -0.998  0.00  0.00     0.025 C 
ATOM     21  C   UNL d   1       5.872   2.552  -1.481  0.00  0.00     0.025 C 
ENDBRANCH  15  18
ENDBRANCH   1  14
BRANCH   4  22
ATOM     22  O   UNL d   1       1.093  -2.694   0.142  0.00  0.00    -0.345 OA
ATOM     23  H   UNL d   1       2.061  -2.815   0.083  0.00  0.00     0.219 HD
ENDBRANCH   4  22
TORSDOF 3
