REMARK  4 active torsions:
REMARK  status: ('A' for Active; 'I' for Inactive)
REMARK    1  A    between atoms: C_2  and  S_1 
REMARK    2  A    between atoms: C_11  and  S_1 
REMARK    3  A    between atoms: C_4  and  C_3 
REMARK    4  A    between atoms: C_8  and  N_5 
ROOT
ATOM      1  C   UNL d   1       0.610  -0.774  -1.495  0.00  0.00     0.146 C 
ATOM      2  C   UNL d   1      -0.321  -1.737  -1.350  0.00  0.00     0.065 C 
ATOM      3  C   UNL d   1       1.326  -0.156  -0.444  0.00  0.00     0.112 C 
ATOM      4  N   UNL d   1       1.934   0.352   0.406  0.00  0.00    -0.191 NA
ENDROOT
BRANCH   1   5
ATOM      5  S   UNL d   1       0.882  -0.163  -3.100  0.00  0.00     0.216 S 
ATOM      6  O   UNL d   1       0.514   1.241  -3.146  0.00  0.00    -0.216 OA
ATOM      7  O   UNL d   1       0.309  -1.073  -4.081  0.00  0.00    -0.216 OA
BRANCH   5   8
ATOM      8  C   UNL d   1       2.648  -0.253  -3.336  0.00  0.00     0.065 A 
ATOM      9  C   UNL d   1       3.217  -1.442  -3.808  0.00  0.00     0.024 A 
ATOM     10  C   UNL d   1       4.580  -1.480  -4.106  0.00  0.00     0.002 A 
ATOM     11  C   UNL d   1       5.364  -0.338  -3.942  0.00  0.00     0.000 A 
ATOM     12  C   UNL d   1       4.792   0.847  -3.476  0.00  0.00     0.002 A 
ATOM     13  C   UNL d   1       3.430   0.896  -3.176  0.00  0.00     0.024 A 
ENDBRANCH   5   8
ENDBRANCH   1   5
BRANCH   2  14
ATOM     14  C   UNL d   1      -0.709  -2.311  -0.112  0.00  0.00     0.041 A 
ATOM     15  N   UNL d   1      -1.750  -1.800   0.675  0.00  0.00    -0.322 N 
ATOM     16  C   UNL d   1      -1.815  -2.578   1.820  0.00  0.00     0.097 A 
ATOM     17  C   UNL d   1      -0.899  -3.600   1.735  0.00  0.00     0.020 A 
ATOM     18  C   UNL d   1      -0.199  -3.429   0.526  0.00  0.00     0.031 A 
BRANCH  15  19
ATOM     19  C   UNL d   1      -2.603  -0.682   0.417  0.00  0.00     0.039 A 
ATOM     20  C   UNL d   1      -2.983  -0.347  -0.888  0.00  0.00     0.031 A 
ATOM     21  C   UNL d   1      -3.735   0.805  -1.132  0.00  0.00     0.026 A 
ATOM     22  C   UNL d   1      -4.122   1.617  -0.070  0.00  0.00     0.034 A 
ATOM     23  C   UNL d   1      -3.802   1.263   1.238  0.00  0.00     0.026 A 
ATOM     24 CL   UNL d   1      -4.995   3.066  -0.379  0.00  0.00    -0.084 Cl
ATOM     25  C   UNL d   1      -3.056   0.106   1.487  0.00  0.00     0.031 A 
ENDBRANCH  15  19
ENDBRANCH   2  14
TORSDOF 4
