REMARK  2 active torsions:
REMARK  status: ('A' for Active; 'I' for Inactive)
REMARK    1  A    between atoms: C_2  and  S_1 
REMARK    2  A    between atoms: N_3  and  S_1 
ROOT
ATOM      1  S   UNL d   1       1.045   0.157   0.108  0.00  0.00     0.248 S 
ATOM      2  O   UNL d   1       1.724  -0.837   0.911  0.00  0.00    -0.206 OA
ATOM      3  O   UNL d   1       1.616   1.463  -0.118  0.00  0.00    -0.206 OA
ENDROOT
BRANCH   1   4
ATOM      4  C   UNL d   1      -0.403   0.491   0.941  0.00  0.00     0.130 A 
ATOM      5  C   UNL d   1      -1.363   1.400   0.562  0.00  0.00     0.097 A 
ATOM      6  O   UNL d   1      -2.354   1.403   1.493  0.00  0.00    -0.241 OA
ATOM      7  C   UNL d   1      -1.534   2.332  -0.567  0.00  0.00     0.081 C 
ATOM      8  N   UNL d   1      -2.055   0.493   2.490  0.00  0.00    -0.264 N 
ATOM      9  C   UNL d   1      -0.876  -0.050   2.156  0.00  0.00     0.054 A 
ATOM     10  HN  UNL d   1      -2.618   0.279   3.314  1.00  0.00     0.194 HD
ATOM     11  C   UNL d   1      -0.269  -1.071   3.043  0.00  0.00     0.072 C 
ENDBRANCH   1   4
BRANCH   1  12
ATOM     12  N   UNL d   1       0.635  -0.526  -1.399  0.00  0.00    -0.202 NA
ATOM     13  C   UNL d   1       0.404  -2.007  -1.413  0.00  0.00     0.139 C 
ATOM     14  C   UNL d   1       1.749  -2.771  -1.432  0.00  0.00     0.132 C 
ATOM     15  C   UNL d   1       1.528  -4.274  -1.513  0.00  0.00     0.041 C 
ATOM     16  O   UNL d   1       2.547  -2.364  -2.560  0.00  0.00    -0.379 OA
ATOM     17  C   UNL d   1       2.831  -0.950  -2.506  0.00  0.00     0.132 C 
ATOM     18  C   UNL d   1       1.520  -0.148  -2.547  0.00  0.00     0.139 C 
ATOM     19  C   UNL d   1       3.715  -0.604  -3.696  0.00  0.00     0.041 C 
ENDBRANCH   1  12
TORSDOF 2
