REMARK  7 active torsions:
REMARK  status: ('A' for Active; 'I' for Inactive)
REMARK    1  A    between atoms: N_2  and  S_1 
REMARK    2  A    between atoms: C_4  and  S_1 
REMARK    3  A    between atoms: C_6  and  N_2 
REMARK    4  A    between atoms: N_3  and  C_13 
REMARK    5  A    between atoms: O_14  and  C_5 
REMARK    6  A    between atoms: C_19  and  C_6 
REMARK    7  A    between atoms: C_24  and  O_14 
ROOT
ATOM      1  C   UNL d   1       0.434  -0.776   1.363  0.00  0.00     0.083 A 
ATOM      2  C   UNL d   1      -0.259  -2.028   3.785  0.00  0.00     0.119 A 
ATOM      3  C   UNL d   1       0.273  -2.776   2.722  0.00  0.00     0.071 A 
ATOM      4  C   UNL d   1      -0.397  -0.636   3.620  0.00  0.00     0.071 A 
ATOM      5  C   UNL d   1       0.579  -2.158   1.503  0.00  0.00     0.052 A 
ATOM      6  C   UNL d   1      -0.047  -0.007   2.421  0.00  0.00     0.052 A 
ATOM      7 CL   UNL d   1       0.705  -4.446   2.849  0.00  0.00    -0.081 Cl
ATOM      8 CL   UNL d   1      -0.952   0.369   4.916  0.00  0.00    -0.081 Cl
ENDROOT
BRANCH   1   9
ATOM      9  S   UNL d   1       1.032   0.010  -0.114  0.00  0.00     0.264 S 
ATOM     10  O   UNL d   1       2.043   0.957   0.305  0.00  0.00    -0.200 OA
ATOM     11  O   UNL d   1       1.294  -1.021  -1.088  0.00  0.00    -0.200 OA
BRANCH   9  12
ATOM     12  N   UNL d   1      -0.299   0.840  -0.685  0.00  0.00    -0.265 N 
ATOM     13  H   UNL d   1      -0.692   0.350  -1.482  0.00  0.00     0.180 HD
BRANCH  12  14
ATOM     14  C   UNL d   1      -0.634   2.179  -0.438  0.00  0.00     0.118 C 
ATOM     15  N   UNL d   1       0.080   2.931   0.323  0.00  0.00    -0.384 N 
ATOM     16  H   UNL d   1       0.944   2.452   0.615  0.00  0.00     0.157 HD
ATOM     17  HN  UNL d   1      -0.176   3.878   0.602  1.00  0.00     0.157 HD
BRANCH  14  18
ATOM     18  C   UNL d   1      -1.871   2.719  -1.077  0.00  0.00     0.011 A 
ATOM     19  C   UNL d   1      -2.660   2.006  -1.982  0.00  0.00     0.032 A 
ATOM     20  C   UNL d   1      -3.781   2.635  -2.504  0.00  0.00     0.088 A 
ATOM     21  N   UNL d   1      -4.160   3.890  -2.186  0.00  0.00    -0.375 N 
ATOM     22  C   UNL d   1      -3.384   4.560  -1.312  0.00  0.00     0.088 A 
ATOM     23  HN  UNL d   1      -4.996   4.313  -2.590  1.00  0.00     0.164 HD
ATOM     24  C   UNL d   1      -2.246   4.025  -0.741  0.00  0.00     0.032 A 
ENDBRANCH  14  18
ENDBRANCH  12  14
ENDBRANCH   9  12
ENDBRANCH   1   9
BRANCH   2  25
ATOM     25  O   UNL d   1      -0.490  -2.508   5.055  0.00  0.00    -0.307 OA
BRANCH  25  26
ATOM     26  C   UNL d   1      -1.212  -3.653   5.292  0.00  0.00     0.076 A 
ATOM     27  C   UNL d   1      -0.996  -4.217   6.556  0.00  0.00     0.040 A 
ATOM     28  C   UNL d   1      -1.630  -5.404   6.927  0.00  0.00     0.039 A 
ATOM     29  C   UNL d   1      -2.487  -6.033   6.018  0.00  0.00     0.103 A 
ATOM     30  C   UNL d   1      -2.734  -5.460   4.762  0.00  0.00     0.039 A 
ATOM     31  C   UNL d   1      -2.119  -4.251   4.415  0.00  0.00     0.040 A 
BRANCH  29  32
ATOM     32  N   UNL d   1      -3.137  -7.297   6.386  0.00  0.00    -0.116 N 
ATOM     33  O   UNL d   1      -3.867  -7.836   5.542  0.00  0.00    -0.532 OA
ATOM     34  O   UNL d   1      -2.920  -7.750   7.519  0.00  0.00    -0.532 OA
ENDBRANCH  29  32
ENDBRANCH  25  26
ENDBRANCH   2  25
TORSDOF 7
