REMARK  5 active torsions:
REMARK  status: ('A' for Active; 'I' for Inactive)
REMARK    1  A    between atoms: C_2  and  C_1 
REMARK       I    between atoms: N_7  and  C_2 
REMARK    2  A    between atoms: N_8  and  C_3 
REMARK    3  A    between atoms: C_10  and  N_7 
REMARK    4  A    between atoms: C_15  and  C_10 
REMARK    5  A    between atoms: C_11  and  C_15 
ROOT
ATOM      1  C   UNL d   1       1.019   2.541   0.131  0.00  0.00     0.253 C 
ATOM      2  O   UNL d   1       0.369   3.562   0.339  0.00  0.00    -0.268 OA
ATOM      3  N   UNL d   1       2.379   2.554  -0.103  0.00  0.00    -0.357 N 
ATOM      4  H   UNL d   1       2.792   1.701  -0.473  0.00  0.00     0.162 HD
ENDROOT
BRANCH   1   5
ATOM      5  C   UNL d   1       0.339   1.213   0.092  0.00  0.00     0.052 A 
ATOM      6  C   UNL d   1       0.954   0.007   0.490  0.00  0.00     0.021 A 
ATOM      7  C   UNL d   1       0.229  -1.188   0.347  0.00  0.00     0.024 A 
ATOM      8  C   UNL d   1      -1.106  -1.180  -0.067  0.00  0.00     0.002 A 
ATOM      9  C   UNL d   1      -1.726   0.020  -0.396  0.00  0.00     0.001 A 
ATOM     10  C   UNL d   1      -1.004   1.211  -0.324  0.00  0.00     0.019 A 
BRANCH   6  11
ATOM     11  N   UNL d   1       2.318  -0.082   0.848  0.00  0.00    -0.302 NA
ATOM     12  H   UNL d   1       2.620   0.745   1.365  0.00  0.00     0.124 HD
ATOM     13  H   UNL d   1       2.532  -0.929   1.369  0.00  0.00     0.124 HD
ENDBRANCH   6  11
ENDBRANCH   1   5
BRANCH   3  14
ATOM     14  C   UNL d   1       3.102   3.812  -0.174  0.00  0.00     0.127 C 
BRANCH  14  15
ATOM     15  C   UNL d   1       4.604   3.614  -0.370  0.00  0.00     0.058 C 
BRANCH  15  16
ATOM     16  C   UNL d   1       5.367   4.914  -0.345  0.00  0.00    -0.054 A 
ATOM     17  C   UNL d   1       5.870   5.425   0.855  0.00  0.00     0.024 A 
ATOM     18  C   UNL d   1       6.565   6.624   0.831  0.00  0.00     0.088 A 
ATOM     19  N   UNL d   1       6.787   7.343  -0.290  0.00  0.00    -0.375 N 
ATOM     20  C   UNL d   1       6.284   6.840  -1.438  0.00  0.00     0.088 A 
ATOM     21  HN  UNL d   1       7.307   8.220  -0.271  1.00  0.00     0.164 HD
ATOM     22  C   UNL d   1       5.575   5.650  -1.515  0.00  0.00     0.024 A 
ENDBRANCH  15  16
ENDBRANCH  14  15
ENDBRANCH   3  14
TORSDOF 5
