REMARK  0 active torsions:
REMARK  status: ('A' for Active; 'I' for Inactive)
ROOT
ATOM      1  C   UNL d   1       2.934   0.289   0.926  0.00  0.00     0.079 A 
ATOM      2  C   UNL d   1       4.353   0.480   0.719  0.00  0.00     0.171 C 
ATOM      3  S   UNL d   1       2.361  -1.306   1.185  0.00  0.00    -0.084 SA
ATOM      4  C   UNL d   1       1.891   1.171   0.764  0.00  0.00     0.067 A 
ATOM      5  N   UNL d   1       5.276  -0.093   1.423  0.00  0.00    -0.335 N 
ATOM      6  HN  UNL d   1       5.146  -0.333   2.406  1.00  0.00     0.168 HD
ATOM      7  O   UNL d   1       4.551   1.215  -0.418  0.00  0.00    -0.256 OA
ATOM      8  C   UNL d   1       5.760   1.121  -1.012  0.00  0.00     0.302 C 
ATOM      9  C   UNL d   1       6.459  -0.103  -0.633  0.00  0.00     0.067 C 
ATOM     10  C   UNL d   1       0.595   0.549   0.872  0.00  0.00     0.004 A 
ATOM     11  C   UNL d   1       6.480  -0.363   0.726  0.00  0.00     0.050 C 
ATOM     12  C   UNL d   1       0.710  -0.827   1.083  0.00  0.00     0.017 A 
ATOM     13  C   UNL d   1       6.544  -1.160  -1.529  0.00  0.00     0.026 C 
ATOM     14  O   UNL d   1       6.173   1.880  -1.863  0.00  0.00    -0.259 OA
ATOM     15 CL   UNL d   1       2.067   2.853   0.449  0.00  0.00    -0.082 Cl
ATOM     16  C   UNL d   1       7.208  -1.464   1.163  0.00  0.00     0.031 C 
ATOM     17  C   UNL d   1       6.854  -2.423  -1.019  0.00  0.00    -0.061 C 
ATOM     18  C   UNL d   1       7.375  -2.527   0.278  0.00  0.00     0.009 C 
ATOM     19  C   UNL d   1      -0.712   1.098   0.789  0.00  0.00     0.014 A 
ATOM     20  C   UNL d   1      -0.428  -1.656   1.192  0.00  0.00     0.020 A 
ATOM     21  C   UNL d   1       6.461  -3.662  -1.768  0.00  0.00     0.048 C 
ATOM     22  C   UNL d   1      -1.841   0.286   0.923  0.00  0.00     0.001 A 
ATOM     23  C   UNL d   1      -1.698  -1.078   1.119  0.00  0.00     0.001 A 
ENDROOT
TORSDOF 0
