REMARK  4 active torsions:
REMARK  status: ('A' for Active; 'I' for Inactive)
REMARK    1  A    between atoms: C_3  and  C_1 
REMARK    2  A    between atoms: C_2  and  C_4 
REMARK       I    between atoms: N_12  and  C_3 
REMARK       I    between atoms: C_4  and  N_11 
REMARK    3  A    between atoms: C_24  and  C_9 
REMARK    4  A    between atoms: C_23  and  C_10 
ROOT
ATOM      1  C   UNL d   1       0.238  -2.589  -0.035  0.00  0.00     0.258 C 
ATOM      2  C   UNL d   1      -3.673  -6.535   0.827  0.00  0.00     0.258 C 
ATOM      3  N   UNL d   1      -2.613  -5.654   0.581  0.00  0.00    -0.345 N 
ATOM      4  N   UNL d   1      -0.584  -3.714   0.012  0.00  0.00    -0.345 N 
ATOM      5  O   UNL d   1      -4.635  -6.598   0.054  0.00  0.00    -0.267 OA
ATOM      6  O   UNL d   1       1.229  -2.505   0.689  0.00  0.00    -0.267 OA
ATOM      7  C   UNL d   1      -2.733  -4.812  -0.616  0.00  0.00     0.146 C 
ATOM      8  C   UNL d   1      -0.411  -4.664   1.112  0.00  0.00     0.146 C 
ATOM      9  C   UNL d   1      -1.791  -5.059   1.651  0.00  0.00     0.146 C 
ATOM     10  C   UNL d   1      -1.384  -4.244  -1.101  0.00  0.00     0.146 C 
ENDROOT
BRANCH   2  11
ATOM     11  C   UNL d   1      -3.615  -7.391   1.991  0.00  0.00     0.092 A 
ATOM     12  C   UNL d   1      -4.675  -7.767   2.884  0.00  0.00     0.083 A 
ATOM     13  N   UNL d   1      -4.214  -8.639   3.798  0.00  0.00    -0.259 N 
ATOM     14  O   UNL d   1      -2.892  -8.863   3.507  0.00  0.00    -0.241 OA
ATOM     15  HN  UNL d   1      -4.746  -9.056   4.563  1.00  0.00     0.195 HD
ATOM     16  C   UNL d   1      -2.533  -8.138   2.420  0.00  0.00     0.090 A 
ATOM     17  C   UNL d   1      -1.143  -8.338   1.956  0.00  0.00     0.080 C 
BRANCH  12  18
ATOM     18  C   UNL d   1      -6.082  -7.342   2.923  0.00  0.00    -0.006 A 
ATOM     19  C   UNL d   1      -6.482  -6.062   2.514  0.00  0.00     0.014 A 
ATOM     20  C   UNL d   1      -7.829  -5.682   2.562  0.00  0.00     0.001 A 
ATOM     21  C   UNL d   1      -8.792  -6.569   3.037  0.00  0.00     0.000 A 
ATOM     22  C   UNL d   1      -8.412  -7.838   3.462  0.00  0.00     0.001 A 
ATOM     23  C   UNL d   1      -7.067  -8.222   3.405  0.00  0.00     0.014 A 
ENDBRANCH  12  18
ENDBRANCH   2  11
BRANCH   1  24
ATOM     24  C   UNL d   1      -0.139  -1.476  -0.891  0.00  0.00     0.092 A 
ATOM     25  C   UNL d   1       0.703  -0.578  -1.629  0.00  0.00     0.083 A 
ATOM     26  N   UNL d   1      -0.044   0.390  -2.191  0.00  0.00    -0.259 N 
ATOM     27  O   UNL d   1      -1.340   0.156  -1.835  0.00  0.00    -0.241 OA
ATOM     28  HN  UNL d   1       0.295   1.156  -2.773  1.00  0.00     0.195 HD
ATOM     29  C   UNL d   1      -1.407  -0.945  -1.051  0.00  0.00     0.090 A 
ATOM     30  C   UNL d   1      -2.766  -1.264  -0.576  0.00  0.00     0.080 C 
BRANCH  25  31
ATOM     31  C   UNL d   1       2.148  -0.585  -1.887  0.00  0.00    -0.006 A 
ATOM     32  C   UNL d   1       2.807   0.626  -2.172  0.00  0.00     0.014 A 
ATOM     33  C   UNL d   1       4.153   0.647  -2.544  0.00  0.00     0.001 A 
ATOM     34  C   UNL d   1       4.865  -0.545  -2.627  0.00  0.00     0.000 A 
ATOM     35  C   UNL d   1       4.236  -1.751  -2.325  0.00  0.00     0.001 A 
ATOM     36  C   UNL d   1       2.886  -1.773  -1.957  0.00  0.00     0.014 A 
ENDBRANCH  25  31
ENDBRANCH   1  24
TORSDOF 4
