REMARK  3 active torsions:
REMARK  status: ('A' for Active; 'I' for Inactive)
REMARK    1  A    between atoms: S_13  and  C_5 
REMARK    2  A    between atoms: C_16  and  S_13 
REMARK    3  A    between atoms: C_14  and  C_16 
ROOT
ATOM      1  C   UNL d   1      -0.415   1.033  -0.004  0.00  0.00     0.139 A 
ATOM      2  N   UNL d   1      -1.194  -0.091   0.026  0.00  0.00    -0.320 N 
ATOM      3  N   UNL d   1       0.853   0.668  -0.032  0.00  0.00    -0.282 N 
ATOM      4  HN  UNL d   1       1.656   1.295  -0.073  1.00  0.00     0.188 HD
ATOM      5  C   UNL d   1      -0.336  -1.142   0.043  0.00  0.00     0.161 A 
ATOM      6  N   UNL d   1       0.902  -0.714   0.003  0.00  0.00    -0.278 N 
ATOM      7  HN  UNL d   1       1.743  -1.290  -0.001  1.00  0.00     0.189 HD
ATOM      8  C   UNL d   1      -0.902   2.378   0.009  0.00  0.00     0.050 A 
ATOM      9  S   UNL d   1      -2.573   2.748   0.139  0.00  0.00    -0.098 SA
ATOM     10  C   UNL d   1      -0.143   3.530  -0.067  0.00  0.00     0.023 A 
ATOM     11  C   UNL d   1      -2.276   4.431   0.103  0.00  0.00     0.050 A 
ATOM     12  C   UNL d   1      -0.934   4.715  -0.013  0.00  0.00     0.009 A 
ATOM     13  H   UNL d   1      -2.201  -0.133   0.057  0.00  0.00     0.169 HD
ENDROOT
BRANCH   5  14
ATOM     14  S   UNL d   1      -0.925  -2.754   0.114  0.00  0.00    -0.089 SA
BRANCH  14  15
ATOM     15  C   UNL d   1       0.532  -3.606   0.786  0.00  0.00     0.108 C 
BRANCH  15  16
ATOM     16  C   UNL d   1       0.233  -5.072   0.884  0.00  0.00    -0.026 C 
ATOM     17  C   UNL d   1       0.176  -5.764   2.031  0.00  0.00     0.007 C 
ENDBRANCH  15  16
ENDBRANCH  14  15
ENDBRANCH   5  14
TORSDOF 3
