REMARK  2 active torsions:
REMARK  status: ('A' for Active; 'I' for Inactive)
REMARK    1  A    between atoms: C_7  and  N_1 
REMARK    2  A    between atoms: C_2  and  C_7 
ROOT
ATOM      1  C   UNL d   1       3.892   1.340   0.116  0.00  0.00    -0.027 A 
ATOM      2  C   UNL d   1       5.325   3.607  -0.733  0.00  0.00     0.047 A 
ATOM      3  C   UNL d   1       5.851   2.333  -0.915  0.00  0.00     0.036 A 
ATOM      4  C   UNL d   1       4.086   3.748  -0.109  0.00  0.00     0.036 A 
ATOM      5  C   UNL d   1       3.376   2.628   0.322  0.00  0.00     0.032 A 
ATOM      6  C   UNL d   1       5.149   1.202  -0.494  0.00  0.00     0.032 A 
ATOM      7 CL   UNL d   1       3.417   5.318   0.109  0.00  0.00    -0.084 Cl
ATOM      8 CL   UNL d   1       7.376   2.142  -1.693  0.00  0.00    -0.084 Cl
ENDROOT
BRANCH   1   9
ATOM      9  C   UNL d   1       3.083   0.117   0.492  0.00  0.00     0.311 C 
BRANCH   9  10
ATOM     10  N   UNL d   1       1.785   0.042  -0.214  0.00  0.00     0.094 N 
ATOM     11  C   UNL d   1       1.976  -0.045  -1.680  0.00  0.00     0.283 C 
ATOM     12  C   UNL d   1       0.669  -0.049  -2.482  0.00  0.00     0.104 C 
ATOM     13  S   UNL d   1      -0.344  -1.507  -2.108  0.00  0.00    -0.166 SA
ATOM     14  C   UNL d   1      -0.379  -1.286  -0.306  0.00  0.00     0.104 C 
ATOM     15  C   UNL d   1       1.026  -1.125   0.290  0.00  0.00     0.283 C 
ENDBRANCH   9  10
ENDBRANCH   1   9
TORSDOF 2
