REMARK  2 active torsions:
REMARK  status: ('A' for Active; 'I' for Inactive)
REMARK    1  A    between atoms: C_8  and  N_1 
REMARK    2  A    between atoms: C_15  and  C_14 
ROOT
ATOM      1  N   UNL d   1       0.843  -0.754   0.093  0.00  0.00    -0.213 N 
ATOM      2  C   UNL d   1      -0.466  -1.026  -0.271  0.00  0.00     0.215 A 
ATOM      3  N   UNL d   1       0.895   0.523   0.611  0.00  0.00    -0.219 N 
ATOM      4  HN  UNL d   1       1.729   0.973   0.987  1.00  0.00     0.210 HD
ATOM      5  N   UNL d   1      -0.259   1.051   0.546  0.00  0.00    -0.225 N 
ATOM      6  HN  UNL d   1      -0.498   1.993   0.856  1.00  0.00     0.210 HD
ATOM      7  N   UNL d   1      -1.120   0.159  -0.001  0.00  0.00    -0.259 N 
ATOM      8  S   UNL d   1      -1.243  -2.389  -0.801  0.00  0.00    -0.037 SA
ATOM      9  H   UNL d   1      -2.109   0.345  -0.078  0.00  0.00     0.191 HD
ENDROOT
BRANCH   1  10
ATOM     10  C   UNL d   1       2.037  -1.495  -0.015  0.00  0.00     0.060 A 
ATOM     11  C   UNL d   1       2.209  -2.477  -0.992  0.00  0.00     0.032 A 
ATOM     12  C   UNL d   1       3.406  -3.200  -1.086  0.00  0.00     0.009 A 
ATOM     13  C   UNL d   1       4.452  -2.963  -0.191  0.00  0.00    -0.058 A 
ATOM     14  C   UNL d   1       4.289  -1.981   0.791  0.00  0.00     0.009 A 
ATOM     15  C   UNL d   1       3.102  -1.242   0.865  0.00  0.00     0.032 A 
BRANCH  13  16
ATOM     16  C   UNL d   1       5.721  -3.771  -0.270  0.00  0.00     0.034 C 
ATOM     17  C   UNL d   1       5.609  -5.079   0.499  0.00  0.00     0.010 C 
ENDBRANCH  13  16
ENDBRANCH   1  10
TORSDOF 2
