REMARK  1 active torsions:
REMARK  status: ('A' for Active; 'I' for Inactive)
REMARK    1  A    between atoms: C_2  and  N_1 
ROOT
ATOM      1  N   UNL d   1       0.691   1.072  -0.442  0.00  0.00    -0.251 N 
ATOM      2  C   UNL d   1       0.881   1.007   0.956  0.00  0.00     0.240 C 
ATOM      3  C   UNL d   1      -0.130   0.200  -1.184  0.00  0.00     0.240 C 
ATOM      4  S   UNL d   1      -0.808  -1.197   1.048  0.00  0.00    -0.150 SA
ATOM      5  O   UNL d   1      -0.700   0.513  -2.233  0.00  0.00    -0.272 OA
ATOM      6  O   UNL d   1       1.353   1.927   1.634  0.00  0.00    -0.272 OA
ATOM      7  C   UNL d   1       0.623  -0.310   1.660  0.00  0.00     0.178 C 
ATOM      8  C   UNL d   1      -0.284  -1.210  -0.665  0.00  0.00     0.178 C 
ENDROOT
BRANCH   1   9
ATOM      9  C   UNL d   1       1.158   2.248  -1.146  0.00  0.00     0.052 A 
ATOM     10  C   UNL d   1       0.939   3.533  -0.618  0.00  0.00     0.054 A 
ATOM     11  C   UNL d   1       1.385   4.671  -1.290  0.00  0.00     0.036 A 
ATOM     12 CL   UNL d   1       1.105   6.230  -0.619  0.00  0.00    -0.084 Cl
ATOM     13  C   UNL d   1       2.050   4.559  -2.505  0.00  0.00     0.024 A 
ATOM     14  C   UNL d   1       2.282   3.296  -3.044  0.00  0.00     0.011 A 
ATOM     15  C   UNL d   1       1.866   2.134  -2.371  0.00  0.00    -0.035 A 
ATOM     16  C   UNL d   1       2.220   0.814  -3.011  0.00  0.00     0.050 C 
ENDBRANCH   1   9
TORSDOF 1
