REMARK  5 active torsions:
REMARK  status: ('A' for Active; 'I' for Inactive)
REMARK    1  A    between atoms: C_8  and  N_2 
REMARK    2  A    between atoms: C_11  and  C_6 
REMARK    3  A    between atoms: N_12  and  C_6 
REMARK    4  A    between atoms: C_17  and  N_12 
REMARK    5  A    between atoms: C_18  and  C_17 
ROOT
ATOM      1  C   UNL d   1      -0.815  -1.048  -0.015  0.00  0.00     0.110 A 
ATOM      2  N   UNL d   1      -0.089   0.785   1.210  0.00  0.00    -0.241 N 
ATOM      3  C   UNL d   1      -1.185   0.292   0.511  0.00  0.00     0.271 A 
ATOM      4  C   UNL d   1       0.994  -0.075   1.164  0.00  0.00     0.306 A 
ATOM      5  C   UNL d   1       0.598  -1.266   0.310  0.00  0.00     0.257 A 
ATOM      6  C   UNL d   1      -1.570  -1.963  -0.653  0.00  0.00     0.038 C 
ATOM      7  O   UNL d   1      -2.257   0.844   0.303  0.00  0.00    -0.266 OA
ATOM      8  O   UNL d   1       2.073  -0.039   1.725  0.00  0.00    -0.263 OA
ATOM      9  O   UNL d   1       1.332  -2.174  -0.008  0.00  0.00    -0.281 OA
ENDROOT
BRANCH   6  10
ATOM     10  C   UNL d   1      -3.005  -1.716  -0.911  0.00  0.00    -0.014 A 
ATOM     11  C   UNL d   1      -3.435  -1.109  -2.097  0.00  0.00     0.013 A 
ATOM     12  C   UNL d   1      -4.799  -0.944  -2.347  0.00  0.00     0.001 A 
ATOM     13  C   UNL d   1      -5.740  -1.383  -1.415  0.00  0.00     0.000 A 
ATOM     14  C   UNL d   1      -5.321  -1.983  -0.230  0.00  0.00     0.001 A 
ATOM     15  C   UNL d   1      -3.958  -2.152   0.021  0.00  0.00     0.013 A 
ENDBRANCH   6  10
BRANCH   6  16
ATOM     16  N   UNL d   1      -1.186  -3.260  -0.994  0.00  0.00    -0.291 NA
ATOM     17  H   UNL d   1      -0.589  -3.667  -0.271  0.00  0.00     0.127 HD
BRANCH  16  18
ATOM     18  C   UNL d   1      -0.569  -3.556  -2.290  0.00  0.00     0.092 C 
BRANCH  18  19
ATOM     19  C   UNL d   1      -0.803  -5.023  -2.642  0.00  0.00     0.010 C 
ATOM     20  C   UNL d   1      -2.284  -5.346  -2.777  0.00  0.00     0.006 C 
ENDBRANCH  18  19
ENDBRANCH  16  18
ENDBRANCH   6  16
BRANCH   2  21
ATOM     21  C   UNL d   1      -0.073   2.010   1.944  0.00  0.00     0.046 A 
ATOM     22  C   UNL d   1      -1.263   2.614   2.381  0.00  0.00     0.030 A 
ATOM     23  C   UNL d   1      -1.244   3.783   3.152  0.00  0.00     0.002 A 
ATOM     24  C   UNL d   1      -0.036   4.386   3.480  0.00  0.00     0.000 A 
ATOM     25  C   UNL d   1       1.155   3.822   3.037  0.00  0.00     0.002 A 
ATOM     26  C   UNL d   1       1.134   2.646   2.280  0.00  0.00     0.030 A 
ENDBRANCH   2  21
TORSDOF 5
