REMARK  3 active torsions:
REMARK  status: ('A' for Active; 'I' for Inactive)
REMARK       I    between atoms: C_2  and  N_1 
REMARK    1  A    between atoms: C_10  and  C_2 
REMARK       I    between atoms: C_3  and  N_4 
REMARK    2  A    between atoms: C_9  and  C_3 
REMARK    3  A    between atoms: N_4  and  C_11 
ROOT
ATOM      1  N   UNL d   1       1.379  -0.047   0.199  0.00  0.00    -0.352 N 
ATOM      2  C   UNL d   1       2.455  -0.039   1.093  0.00  0.00     0.224 C 
ATOM      3  C   UNL d   1       0.708  -1.237  -0.309  0.00  0.00     0.127 C 
ATOM      4  C   UNL d   1       0.779   1.220  -0.219  0.00  0.00     0.127 C 
ATOM      5  O   UNL d   1       2.928   1.035   1.489  0.00  0.00    -0.273 OA
ATOM      6  C   UNL d   1      -1.474   0.060  -0.259  0.00  0.00     0.087 C 
ATOM      7  C   UNL d   1      -0.682   1.287   0.218  0.00  0.00     0.045 C 
ATOM      8  C   UNL d   1      -0.757  -1.243   0.126  0.00  0.00     0.045 C 
ENDROOT
BRANCH   6   9
ATOM      9  N   UNL d   1      -1.734   0.099  -1.697  0.00  0.00    -0.352 N 
ATOM     10  C   UNL d   1      -2.814   0.779  -2.224  0.00  0.00     0.252 C 
ATOM     11  O   UNL d   1      -3.623   1.394  -1.535  0.00  0.00    -0.268 OA
ATOM     12  H   UNL d   1      -0.989  -0.157  -2.328  0.00  0.00     0.163 HD
BRANCH  10  13
ATOM     13  C   UNL d   1      -2.955   0.760  -3.710  0.00  0.00     0.032 A 
ATOM     14  C   UNL d   1      -2.417  -0.267  -4.499  0.00  0.00     0.017 A 
ATOM     15  C   UNL d   1      -2.610  -0.264  -5.883  0.00  0.00     0.001 A 
ATOM     16  C   UNL d   1      -3.344   0.758  -6.486  0.00  0.00     0.000 A 
ATOM     17  C   UNL d   1      -3.888   1.779  -5.706  0.00  0.00     0.001 A 
ATOM     18  C   UNL d   1      -3.696   1.779  -4.323  0.00  0.00     0.017 A 
ENDBRANCH  10  13
ENDBRANCH   6   9
BRANCH   2  19
ATOM     19  C   UNL d   1       3.040  -1.403   1.560  0.00  0.00     0.078 C 
ATOM     20  C   UNL d   1       2.175  -2.315   2.474  0.00  0.00     0.014 C 
ATOM     21  C   UNL d   1       3.437  -2.642   3.285  0.00  0.00     0.002 C 
ATOM     22  C   UNL d   1       4.059  -1.350   2.740  0.00  0.00     0.014 C 
ENDBRANCH   2  19
TORSDOF 3
