REMARK  4 active torsions:
REMARK  status: ('A' for Active; 'I' for Inactive)
REMARK    1  A    between atoms: C_11  and  C_1 
REMARK    2  A    between atoms: N_6  and  C_11 
REMARK    3  A    between atoms: C_8  and  C_10 
REMARK    4  A    between atoms: O_12  and  C_9 
ROOT
ATOM      1  N   UNL d   1      -0.345  -3.715  -0.406  0.00  0.00    -0.394 N 
ATOM      2  HN  UNL d   1      -0.856  -3.443  -1.246  1.00  0.00     0.159 HD
ATOM      3  C   UNL d   1      -0.842  -4.512   0.477  0.00  0.00     0.097 C 
ENDROOT
BRANCH   1   4
ATOM      4  C   UNL d   1       1.008  -3.228  -0.120  0.00  0.00     0.159 C 
BRANCH   4   5
ATOM      5  C   UNL d   1       0.952  -1.733   0.005  0.00  0.00    -0.022 A 
ATOM      6  C   UNL d   1       0.678  -1.076   1.190  0.00  0.00     0.060 A 
ATOM      7  S   UNL d   1       0.695   0.617   1.032  0.00  0.00    -0.101 SA
ATOM      8  C   UNL d   1       1.058   0.529  -0.647  0.00  0.00     0.015 A 
ATOM      9  C   UNL d   1       1.158  -0.796  -1.081  0.00  0.00    -0.011 A 
ATOM     10  C   UNL d   1       1.238   1.616  -1.527  0.00  0.00     0.019 A 
ATOM     11  C   UNL d   1       1.433  -1.016  -2.457  0.00  0.00     0.013 A 
ATOM     12  C   UNL d   1       1.611   0.059  -3.334  0.00  0.00     0.001 A 
ATOM     13  C   UNL d   1       1.518   1.363  -2.870  0.00  0.00     0.001 A 
ENDBRANCH   4   5
ENDBRANCH   1   4
BRANCH   3  14
ATOM     14  C   UNL d   1      -2.229  -5.008   0.353  0.00  0.00     0.012 A 
ATOM     15  C   UNL d   1      -3.051  -4.634  -0.718  0.00  0.00     0.077 A 
ATOM     16  C   UNL d   1      -4.369  -5.078  -0.780  0.00  0.00     0.037 A 
ATOM     17  C   UNL d   1      -4.874  -5.896   0.232  0.00  0.00     0.003 A 
ATOM     18  C   UNL d   1      -4.058  -6.278   1.298  0.00  0.00     0.001 A 
ATOM     19  C   UNL d   1      -2.733  -5.837   1.360  0.00  0.00     0.015 A 
BRANCH  15  20
ATOM     20  O   UNL d   1      -2.624  -3.823  -1.734  0.00  0.00    -0.360 OA
ATOM     21  H   UNL d   1      -1.704  -3.549  -1.514  0.00  0.00     0.217 HD
ENDBRANCH  15  20
ENDBRANCH   3  14
TORSDOF 4
