REMARK  4 active torsions:
REMARK  status: ('A' for Active; 'I' for Inactive)
REMARK       I    between atoms: N_2  and  C_1 
REMARK    1  A    between atoms: C_9  and  C_1 
REMARK    2  A    between atoms: C_5  and  N_2 
REMARK    3  A    between atoms: O_3  and  C_7 
REMARK    4  A    between atoms: C_4  and  O_3 
ROOT
ATOM      1  C   UNL d   1       1.169  -0.779  -2.443  0.00  0.00     0.069 A 
ATOM      2  C   UNL d   1       2.080  -1.834  -2.272  0.00  0.00     0.102 A 
ATOM      3  C   UNL d   1       0.768  -0.448  -3.743  0.00  0.00     0.032 A 
ATOM      4  C   UNL d   1       2.535  -2.566  -3.381  0.00  0.00     0.039 A 
ATOM      5  C   UNL d   1       1.261  -1.146  -4.849  0.00  0.00     0.002 A 
ATOM      6  C   UNL d   1       2.140  -2.207  -4.668  0.00  0.00     0.003 A 
ENDROOT
BRANCH   1   7
ATOM      7  N   UNL d   1       0.656  -0.110  -1.300  0.00  0.00    -0.321 N 
ATOM      8  C   UNL d   1       0.050   1.133  -1.323  0.00  0.00     0.256 C 
ATOM      9  O   UNL d   1       0.105   1.909  -2.277  0.00  0.00    -0.267 OA
ATOM     10  H   UNL d   1       0.830  -0.576  -0.420  0.00  0.00     0.169 HD
BRANCH   8  11
ATOM     11  C   UNL d   1      -0.718   1.581  -0.118  0.00  0.00     0.032 A 
ATOM     12  C   UNL d   1      -0.787   0.872   1.089  0.00  0.00     0.020 A 
ATOM     13  C   UNL d   1      -1.583   1.354   2.137  0.00  0.00     0.043 A 
ATOM     14  C   UNL d   1      -2.307   2.531   1.981  0.00  0.00     0.116 A 
ATOM     15  C   UNL d   1      -2.249   3.250   0.797  0.00  0.00     0.043 A 
ATOM     16  F   UNL d   1      -3.077   2.975   2.984  0.00  0.00    -0.206 F 
ATOM     17  C   UNL d   1      -1.454   2.776  -0.247  0.00  0.00     0.020 A 
ENDBRANCH   8  11
ENDBRANCH   1   7
BRANCH   2  18
ATOM     18  O   UNL d   1       2.515  -2.116  -0.988  0.00  0.00    -0.307 OA
BRANCH  18  19
ATOM     19  C   UNL d   1       3.861  -2.389  -0.827  0.00  0.00     0.098 A 
ATOM     20  C   UNL d   1       4.239  -3.457  -0.004  0.00  0.00     0.069 A 
ATOM     21  C   UNL d   1       5.588  -3.788   0.145  0.00  0.00     0.050 A 
ATOM     22 CL   UNL d   1       3.062  -4.405   0.830  0.00  0.00    -0.081 Cl
ATOM     23  C   UNL d   1       6.558  -3.040  -0.520  0.00  0.00     0.035 A 
ATOM     24  C   UNL d   1       6.196  -1.947  -1.306  0.00  0.00     0.026 A 
ATOM     25 CL   UNL d   1       8.217  -3.468  -0.371  0.00  0.00    -0.084 Cl
ATOM     26  C   UNL d   1       4.849  -1.609  -1.445  0.00  0.00     0.041 A 
ENDBRANCH  18  19
ENDBRANCH   2  18
TORSDOF 4
