REMARK  6 active torsions:
REMARK  status: ('A' for Active; 'I' for Inactive)
REMARK    1  A    between atoms: C_2  and  S_1 
REMARK    2  A    between atoms: N_6  and  S_1 
REMARK    3  A    between atoms: S_3  and  C_11 
REMARK    4  A    between atoms: N_16  and  S_3 
REMARK    5  A    between atoms: C_7  and  C_5 
REMARK       I    between atoms: N_10  and  C_7 
REMARK    6  A    between atoms: C_21  and  N_10 
ROOT
ATOM      1  C   UNL d   1      -0.235   2.509   4.568  0.00  0.00     0.280 C 
ATOM      2  N   UNL d   1       0.402   3.692   4.227  0.00  0.00    -0.321 N 
ATOM      3  O   UNL d   1      -0.923   2.378   5.582  0.00  0.00    -0.265 OA
ATOM      4  H   UNL d   1       0.948   3.683   3.374  0.00  0.00     0.169 HD
ENDROOT
BRANCH   1   5
ATOM      5  C   UNL d   1      -0.073   1.352   3.698  0.00  0.00     0.144 A 
ATOM      6  O   UNL d   1       0.583   1.375   2.493  0.00  0.00    -0.292 OA
ATOM      7  C   UNL d   1       0.524   0.081   1.964  0.00  0.00     0.185 A 
ATOM      8  C   UNL d   1      -0.183  -0.718   2.853  0.00  0.00     0.054 A 
ATOM      9  C   UNL d   1      -0.547   0.079   3.945  0.00  0.00     0.046 A 
BRANCH   7  10
ATOM     10  S   UNL d   1       1.283  -0.422   0.406  0.00  0.00     0.266 S 
ATOM     11  O   UNL d   1       1.388  -1.861   0.515  0.00  0.00    -0.204 OA
ATOM     12  O   UNL d   1       2.458   0.409   0.270  0.00  0.00    -0.204 OA
BRANCH  10  13
ATOM     13  N   UNL d   1       0.190  -0.072  -0.853  0.00  0.00    -0.201 NA
ATOM     14  C   UNL d   1       0.061   1.369  -1.228  0.00  0.00     0.134 C 
ATOM     15  C   UNL d   1       1.204   1.817  -2.154  0.00  0.00     0.183 C 
ATOM     16  O   UNL d   1       1.318   0.972  -3.309  0.00  0.00    -0.389 OA
ATOM     17  C   UNL d   1       1.530  -0.397  -2.930  0.00  0.00     0.183 C 
ATOM     18  C   UNL d   1       0.354  -0.901  -2.092  0.00  0.00     0.134 C 
ENDBRANCH  10  13
ENDBRANCH   7  10
ENDBRANCH   1   5
BRANCH   2  19
ATOM     19  C   UNL d   1       0.437   4.870   5.030  0.00  0.00     0.035 A 
ATOM     20  C   UNL d   1      -0.204   4.976   6.276  0.00  0.00     0.031 A 
ATOM     21  C   UNL d   1      -0.043   6.097   7.093  0.00  0.00     0.027 A 
ATOM     22  C   UNL d   1       0.770   7.141   6.667  0.00  0.00     0.074 A 
ATOM     23  C   UNL d   1       1.349   7.109   5.398  0.00  0.00     0.027 A 
ATOM     24  C   UNL d   1       1.182   5.973   4.584  0.00  0.00     0.031 A 
BRANCH  22  25
ATOM     25  S   UNL d   1       1.118   8.452   7.809  0.00  0.00     0.239 S 
ATOM     26  O   UNL d   1       1.972   9.418   7.162  0.00  0.00    -0.206 OA
ATOM     27  O   UNL d   1      -0.111   8.810   8.478  0.00  0.00    -0.206 OA
BRANCH  25  28
ATOM     28  N   UNL d   1       2.055   7.637   8.954  0.00  0.00    -0.225 NA
ATOM     29  H   UNL d   1       2.394   6.733   8.624  0.00  0.00     0.136 HD
ATOM     30  H   UNL d   1       1.530   7.557   9.827  0.00  0.00     0.136 HD
ENDBRANCH  25  28
ENDBRANCH  22  25
ENDBRANCH   2  19
TORSDOF 6
