REMARK  4 active torsions:
REMARK  status: ('A' for Active; 'I' for Inactive)
REMARK    1  A    between atoms: C_10  and  N_6 
REMARK    2  A    between atoms: C_11  and  C_10 
REMARK       I    between atoms: N_15  and  C_11 
REMARK    3  A    between atoms: N_12  and  N_15 
REMARK    4  A    between atoms: C_14  and  C_18 
ROOT
ATOM      1  C   UNL d   1       1.896   0.847   0.178  0.00  0.00     0.276 C 
ENDROOT
BRANCH   1   2
ATOM      2  N   UNL d   1       0.846  -0.121   0.422  0.00  0.00    -0.196 N 
ATOM      3  N   UNL d   1       0.809  -1.355  -0.147  0.00  0.00    -0.113 N 
ATOM      4  C   UNL d   1      -0.503  -1.625  -0.058  0.00  0.00     0.712 A 
ATOM      5  HN  UNL d   1       1.567  -1.918  -0.533  1.00  0.00     0.207 HD
ATOM      6  N   UNL d   1      -1.204  -0.611   0.557  0.00  0.00    -0.115 N 
ATOM      7  N   UNL d   1      -1.168  -2.719  -0.529  0.00  0.00    -0.215 N 
ATOM      8  N   UNL d   1      -0.336   0.331   0.872  0.00  0.00    -0.211 N 
ATOM      9  HN  UNL d   1      -2.208  -0.592   0.735  1.00  0.00     0.207 HD
ATOM     10  HN  UNL d   1      -0.522   1.211   1.352  1.00  0.00     0.210 HD
ATOM     11  C   UNL d   1      -0.692  -4.023  -0.047  0.00  0.00     0.141 C 
ATOM     12  C   UNL d   1      -2.635  -2.596  -0.572  0.00  0.00     0.141 C 
ATOM     13  C   UNL d   1      -1.302  -5.170  -0.855  0.00  0.00     0.020 C 
ATOM     14  C   UNL d   1      -2.822  -5.076  -0.966  0.00  0.00     0.003 C 
ATOM     15  C   UNL d   1      -3.254  -3.693  -1.430  0.00  0.00     0.020 C 
ENDBRANCH   1   2
BRANCH   1  16
ATOM     16  C   UNL d   1       3.317   0.369   0.266  0.00  0.00     0.257 C 
ATOM     17  N   UNL d   1       3.579  -0.894  -0.230  0.00  0.00    -0.269 N 
ATOM     18  H   UNL d   1       2.815  -1.523  -0.493  0.00  0.00     0.190 HD
ATOM     19  O   UNL d   1       4.193   1.150   0.650  0.00  0.00    -0.270 OA
BRANCH  17  20
ATOM     20  N   UNL d   1       4.877  -1.272  -0.410  0.00  0.00    -0.308 N 
ATOM     21  C   UNL d   1       5.066  -2.460  -0.890  0.00  0.00     0.120 C 
ATOM     22  HN  UNL d   1       5.655  -0.654  -0.180  1.00  0.00     0.186 HD
BRANCH  21  23
ATOM     23  C   UNL d   1       6.431  -2.965  -1.172  0.00  0.00     0.002 A 
ATOM     24  C   UNL d   1       6.648  -4.256  -1.669  0.00  0.00     0.045 A 
ATOM     25 CL   UNL d   1       5.363  -5.367  -1.991  0.00  0.00    -0.083 Cl
ATOM     26  C   UNL d   1       7.951  -4.695  -1.926  0.00  0.00     0.024 A 
ATOM     27  C   UNL d   1       9.040  -3.853  -1.694  0.00  0.00     0.002 A 
ATOM     28  C   UNL d   1       8.830  -2.565  -1.208  0.00  0.00     0.001 A 
ATOM     29  C   UNL d   1       7.532  -2.119  -0.947  0.00  0.00     0.014 A 
ENDBRANCH  21  23
ENDBRANCH  17  20
ENDBRANCH   1  16
TORSDOF 4
