REMARK  5 active torsions:
REMARK  status: ('A' for Active; 'I' for Inactive)
REMARK    1  A    between atoms: N_4  and  C_1 
REMARK    2  A    between atoms: C_6  and  C_2 
REMARK       I    between atoms: C_8  and  N_4 
REMARK    3  A    between atoms: O_14  and  C_6 
REMARK    4  A    between atoms: C_11  and  C_8 
REMARK    5  A    between atoms: C_16  and  O_14 
ROOT
ATOM      1  N   UNL d   1       3.470  -5.383   1.032  0.00  0.00    -0.197 NA
ATOM      2  C   UNL d   1       2.672  -4.834   0.389  0.00  0.00     0.068 C 
ATOM      3  C   UNL d   1       1.644  -4.166  -0.393  0.00  0.00     0.226 C 
ENDROOT
BRANCH   3   4
ATOM      4  C   UNL d   1       1.629  -2.700  -0.043  0.00  0.00     0.235 C 
ATOM      5  N   UNL d   1       0.864  -2.406   1.083  0.00  0.00    -0.320 N 
ATOM      6  H   UNL d   1       0.062  -2.999   1.261  0.00  0.00     0.169 HD
ATOM      7  O   UNL d   1       2.216  -1.876  -0.742  0.00  0.00    -0.272 OA
BRANCH   5   8
ATOM      8  C   UNL d   1       0.685  -1.079   1.406  0.00  0.00     0.093 C 
ATOM      9  C   UNL d   1       1.549  -0.014   1.600  0.00  0.00     0.079 C 
ATOM     10  C   UNL d   1       0.778   1.225   1.504  0.00  0.00    -0.036 C 
ATOM     11  C   UNL d   1       1.320   2.615   1.404  0.00  0.00     0.050 C 
ATOM     12  C   UNL d   1      -0.586   0.977   1.496  0.00  0.00     0.059 C 
ATOM     13  S   UNL d   1      -0.954  -0.681   1.581  0.00  0.00    -0.083 SA
BRANCH   9  14
ATOM     14  C   UNL d   1       2.996  -0.130   1.875  0.00  0.00     0.296 C 
ATOM     15  O   UNL d   1       3.686   0.823   2.224  0.00  0.00    -0.259 OA
BRANCH  14  16
ATOM     16  O   UNL d   1       3.464  -1.415   1.834  0.00  0.00    -0.318 OA
BRANCH  16  17
ATOM     17  C   UNL d   1       4.798  -1.657   2.311  0.00  0.00     0.174 C 
ATOM     18  C   UNL d   1       5.804  -1.702   1.173  0.00  0.00     0.034 C 
ENDBRANCH  16  17
ENDBRANCH  14  16
ENDBRANCH   9  14
ENDBRANCH   5   8
ENDBRANCH   3   4
TORSDOF 5
