REMARK  9 active torsions:
REMARK  status: ('A' for Active; 'I' for Inactive)
REMARK    1  A    between atoms: N_2  and  C_1 
REMARK    2  A    between atoms: N_8  and  C_1 
REMARK    3  A    between atoms: C_11  and  N_2 
REMARK    4  A    between atoms: N_3  and  N_8 
REMARK    5  A    between atoms: O_17  and  C_5 
REMARK    6  A    between atoms: O_9  and  C_7 
REMARK    7  A    between atoms: C_15  and  O_9 
REMARK    8  A    between atoms: C_14  and  C_13 
REMARK    9  A    between atoms: C_18  and  C_15 
ROOT
ATOM      1  C   UNL d   1       5.470  -2.733   3.909  0.00  0.00     0.102 A 
ATOM      2  C   UNL d   1       6.494  -2.030   4.576  0.00  0.00     0.102 A 
ATOM      3  C   UNL d   1       4.881  -2.184   2.757  0.00  0.00     0.052 A 
ATOM      4  C   UNL d   1       6.831  -0.741   4.153  0.00  0.00     0.040 A 
ATOM      5  C   UNL d   1       5.292  -0.924   2.304  0.00  0.00    -0.017 A 
ATOM      6  C   UNL d   1       6.244  -0.194   3.018  0.00  0.00     0.016 A 
ENDROOT
BRANCH   5   7
ATOM      7  C   UNL d   1       4.772  -0.365   1.036  0.00  0.00     0.118 C 
ATOM      8  N   UNL d   1       5.205   0.776   0.596  0.00  0.00    -0.309 N 
ATOM      9  HN  UNL d   1       5.879   1.337   1.116  1.00  0.00     0.186 HD
BRANCH   8  10
ATOM     10  N   UNL d   1       4.703   1.180  -0.605  0.00  0.00    -0.277 N 
ATOM     11  H   UNL d   1       4.050   0.594  -1.120  0.00  0.00     0.189 HD
BRANCH  10  12
ATOM     12  C   UNL d   1       5.008   2.421  -1.133  0.00  0.00     0.187 C 
ATOM     13  S   UNL d   1       4.311   2.861  -2.580  0.00  0.00    -0.040 SA
BRANCH  12  14
ATOM     14  N   UNL d   1       5.856   3.147  -0.335  0.00  0.00    -0.358 N 
ATOM     15  H   UNL d   1       6.104   2.590   0.479  0.00  0.00     0.162 HD
BRANCH  14  16
ATOM     16  C   UNL d   1       6.202   4.584  -0.309  0.00  0.00     0.021 C 
ATOM     17  C   UNL d   1       4.934   5.447  -0.197  0.00  0.00     0.037 C 
ATOM     18  C   UNL d   1       7.059   4.840   0.950  0.00  0.00     0.037 C 
ATOM     19  C   UNL d   1       7.035   5.008  -1.528  0.00  0.00     0.037 C 
ENDBRANCH  14  16
ENDBRANCH  12  14
ENDBRANCH  10  12
ENDBRANCH   8  10
ENDBRANCH   5   7
BRANCH   1  20
ATOM     20  O   UNL d   1       5.168  -3.985   4.385  0.00  0.00    -0.353 OA
ATOM     21  C   UNL d   1       3.807  -4.386   4.255  0.00  0.00     0.210 C 
ENDBRANCH   1  20
BRANCH   2  22
ATOM     22  O   UNL d   1       7.114  -2.660   5.634  0.00  0.00    -0.344 OA
BRANCH  22  23
ATOM     23  C   UNL d   1       8.412  -2.142   5.956  0.00  0.00     0.214 C 
BRANCH  23  24
ATOM     24  C   UNL d   1       9.239  -3.072   6.807  0.00  0.00    -0.034 A 
ATOM     25  C   UNL d   1       9.027  -4.455   6.833  0.00  0.00     0.009 A 
ATOM     26  C   UNL d   1       9.882  -5.285   7.560  0.00  0.00     0.001 A 
ATOM     27  C   UNL d   1      10.962  -4.745   8.258  0.00  0.00     0.000 A 
ATOM     28  C   UNL d   1      11.188  -3.371   8.235  0.00  0.00     0.001 A 
ATOM     29  C   UNL d   1      10.334  -2.541   7.511  0.00  0.00     0.009 A 
ENDBRANCH  23  24
ENDBRANCH  22  23
ENDBRANCH   2  22
TORSDOF 9
