REMARK  6 active torsions:
REMARK  status: ('A' for Active; 'I' for Inactive)
REMARK    1  A    between atoms: C_13  and  C_3 
REMARK    2  A    between atoms: N_10  and  C_6 
REMARK    3  A    between atoms: C_27  and  N_10 
REMARK    4  A    between atoms: C_15  and  C_27 
REMARK    5  A    between atoms: C_28  and  N_16 
REMARK    6  A    between atoms: C_18  and  C_28 
ROOT
ATOM      1  N   UNL d   1      -0.001  -0.788   0.006  0.00  0.00    -0.274 N 
ATOM      2  C   UNL d   1       1.165  -1.525   0.043  0.00  0.00     0.268 C 
ATOM      3  C   UNL d   1       2.436  -0.754   0.037  0.00  0.00     0.086 C 
ATOM      4  N   UNL d   1       1.168   1.251   0.249  0.00  0.00    -0.332 N 
ATOM      5  HN  UNL d   1       1.144   2.263   0.372  1.00  0.00     0.168 HD
ATOM      6  C   UNL d   1       2.371   0.584   0.233  0.00  0.00     0.099 C 
ATOM      7  C   UNL d   1       0.067   0.586   0.107  0.00  0.00     0.115 A 
ATOM      8  C   UNL d   1      -1.222  -1.450  -0.023  0.00  0.00     0.108 A 
ATOM      9  C   UNL d   1      -1.227   1.326   0.043  0.00  0.00     0.050 A 
ATOM     10  C   UNL d   1      -2.392  -0.793  -0.034  0.00  0.00    -0.046 A 
ATOM     11  C   UNL d   1      -2.381   0.653  -0.037  0.00  0.00     0.012 A 
ATOM     12  O   UNL d   1       1.166  -2.755   0.151  0.00  0.00    -0.267 OA
ATOM     13  C   UNL d   1      -3.716  -1.496  -0.029  0.00  0.00     0.049 C 
ENDROOT
BRANCH   3  14
ATOM     14  C   UNL d   1       3.725  -1.481  -0.098  0.00  0.00     0.103 C 
ATOM     15  N   UNL d   1       3.796  -2.582  -0.763  0.00  0.00    -0.392 N 
ATOM     16  HN  UNL d   1       2.968  -2.980  -1.207  1.00  0.00     0.159 HD
BRANCH  15  17
ATOM     17  C   UNL d   1       5.090  -3.241  -0.864  0.00  0.00     0.183 C 
BRANCH  17  18
ATOM     18  C   UNL d   1       5.729  -2.872  -2.151  0.00  0.00     0.070 A 
ATOM     19  O   UNL d   1       6.644  -1.860  -2.114  0.00  0.00    -0.325 OA
ATOM     20  C   UNL d   1       7.064  -1.665  -3.389  0.00  0.00     0.142 A 
ATOM     21  C   UNL d   1       6.434  -2.533  -4.248  0.00  0.00     0.027 A 
ATOM     22  C   UNL d   1       5.575  -3.324  -3.447  0.00  0.00     0.036 A 
ENDBRANCH  17  18
ENDBRANCH  15  17
ENDBRANCH   3  14
BRANCH   6  23
ATOM     23  N   UNL d   1       3.471   1.395   0.485  0.00  0.00    -0.272 NA
ATOM     24  H   UNL d   1       3.065   2.258   0.864  0.00  0.00     0.129 HD
BRANCH  23  25
ATOM     25  C   UNL d   1       4.420   1.834  -0.543  0.00  0.00     0.159 C 
BRANCH  25  26
ATOM     26  C   UNL d   1       5.317   2.919  -0.035  0.00  0.00     0.065 A 
ATOM     27  O   UNL d   1       4.746   4.149   0.143  0.00  0.00    -0.326 OA
ATOM     28  C   UNL d   1       5.699   4.960   0.672  0.00  0.00     0.142 A 
ATOM     29  C   UNL d   1       6.878   4.272   0.838  0.00  0.00     0.027 A 
ATOM     30  C   UNL d   1       6.635   2.955   0.374  0.00  0.00     0.036 A 
ENDBRANCH  25  26
ENDBRANCH  23  25
ENDBRANCH   6  23
TORSDOF 6
