REMARK  6 active torsions:
REMARK  status: ('A' for Active; 'I' for Inactive)
REMARK       I    between atoms: C_4  and  N_1 
REMARK    1  A    between atoms: C_6  and  N_1 
REMARK    2  A    between atoms: C_7  and  N_1 
REMARK    3  A    between atoms: N_2  and  C_8 
REMARK    4  A    between atoms: N_3  and  C_9 
REMARK    5  A    between atoms: C_19  and  C_4 
REMARK    6  A    between atoms: C_13  and  N_11 
ROOT
ATOM      1  N   UNL d   1       0.981   0.034  -0.000  0.00  0.00    -0.278 N 
ATOM      2  C   UNL d   1       0.437  -1.217   0.237  0.00  0.00     0.233 C 
ATOM      3  O   UNL d   1       0.953  -2.016   1.035  0.00  0.00    -0.272 OA
ENDROOT
BRANCH   1   4
ATOM      4  C   UNL d   1       0.112   1.101   0.159  0.00  0.00     0.192 C 
ATOM      5  N   UNL d   1       0.387   2.324  -0.144  0.00  0.00    -0.351 N 
ATOM      6  HN  UNL d   1       1.287   2.556  -0.565  1.00  0.00     0.166 HD
BRANCH   5   7
ATOM      7  C   UNL d   1      -0.555   3.339   0.105  0.00  0.00     0.041 A 
ATOM      8  C   UNL d   1      -0.628   4.418  -0.797  0.00  0.00    -0.002 A 
ATOM      9  C   UNL d   1      -1.508   5.471  -0.484  0.00  0.00     0.111 A 
ATOM     10  C   UNL d   1       0.258   4.418  -2.016  0.00  0.00     0.053 C 
ATOM     11  C   UNL d   1      -2.325   5.455   0.653  0.00  0.00     0.037 A 
ATOM     12  C   UNL d   1      -2.240   4.387   1.534  0.00  0.00     0.005 A 
ATOM     13  C   UNL d   1      -1.344   3.349   1.272  0.00  0.00     0.030 A 
BRANCH   9  14
ATOM     14  N   UNL d   1      -1.581   6.653  -1.324  0.00  0.00    -0.115 N 
ATOM     15  O   UNL d   1      -0.559   7.345  -1.422  0.00  0.00    -0.532 OA
ATOM     16  O   UNL d   1      -2.674   6.896  -1.855  0.00  0.00    -0.532 OA
ENDBRANCH   9  14
ENDBRANCH   5   7
ENDBRANCH   1   4
BRANCH   1  17
ATOM     17  C   UNL d   1       2.435   0.231   0.116  0.00  0.00     0.051 A 
ATOM     18  C   UNL d   1       3.414  -0.686  -0.359  0.00  0.00    -0.002 A 
ATOM     19  C   UNL d   1       4.794  -0.350  -0.167  0.00  0.00     0.111 A 
ATOM     20  C   UNL d   1       3.109  -1.984  -1.065  0.00  0.00     0.053 C 
ATOM     21  C   UNL d   1       5.220   0.828   0.451  0.00  0.00     0.037 A 
ATOM     22  C   UNL d   1       4.268   1.711   0.914  0.00  0.00     0.005 A 
ATOM     23  C   UNL d   1       2.912   1.405   0.758  0.00  0.00     0.031 A 
BRANCH  19  24
ATOM     24  N   UNL d   1       5.866  -1.232  -0.619  0.00  0.00    -0.115 N 
ATOM     25  O   UNL d   1       5.965  -1.429  -1.839  0.00  0.00    -0.532 OA
ATOM     26  O   UNL d   1       6.630  -1.677   0.246  0.00  0.00    -0.532 OA
ENDBRANCH  19  24
ENDBRANCH   1  17
BRANCH   2  27
ATOM     27  C   UNL d   1      -0.873  -1.645  -0.487  0.00  0.00     0.079 C 
ATOM     28  C   UNL d   1      -1.938  -2.100   0.523  0.00  0.00     0.014 C 
ATOM     29  C   UNL d   1      -3.034  -2.903  -0.177  0.00  0.00     0.001 C 
ATOM     30  C   UNL d   1      -3.678  -2.127  -1.323  0.00  0.00     0.000 C 
ATOM     31  C   UNL d   1      -2.651  -1.513  -2.276  0.00  0.00     0.001 C 
ATOM     32  C   UNL d   1      -1.546  -0.745  -1.537  0.00  0.00     0.014 C 
ENDBRANCH   2  27
TORSDOF 6
