REMARK  4 active torsions:
REMARK  status: ('A' for Active; 'I' for Inactive)
REMARK    1  A    between atoms: C_4  and  C_1 
REMARK    2  A    between atoms: C_2  and  C_5 
REMARK       I    between atoms: C_3  and  N_6 
REMARK    3  A    between atoms: C_9  and  C_3 
REMARK    4  A    between atoms: N_6  and  C_7 
ROOT
ATOM      1  C   UNL d   1       0.507  -1.031  -0.802  0.00  0.00     0.050 A 
ATOM      2  C   UNL d   1       1.000  -3.384  -1.203  0.00  0.00     0.050 A 
ATOM      3  C   UNL d   1      -0.853  -2.308  -2.378  0.00  0.00     0.036 A 
ATOM      4  C   UNL d   1       1.270  -2.178  -0.541  0.00  0.00     0.032 A 
ATOM      5  C   UNL d   1      -0.561  -1.115  -1.713  0.00  0.00     0.045 A 
ATOM      6  C   UNL d   1      -0.033  -3.422  -2.158  0.00  0.00     0.045 A 
ENDROOT
BRANCH   3   7
ATOM      7  N   UNL d   1      -1.962  -2.481  -3.235  0.00  0.00    -0.323 N 
ATOM      8  C   UNL d   1      -3.019  -1.599  -3.403  0.00  0.00     0.256 C 
ATOM      9  O   UNL d   1      -3.136  -0.496  -2.891  0.00  0.00    -0.267 OA
ATOM     10  H   UNL d   1      -2.004  -3.358  -3.734  0.00  0.00     0.169 HD
BRANCH   8  11
ATOM     11  C   UNL d   1      -4.104  -2.060  -4.320  0.00  0.00     0.032 A 
ATOM     12  C   UNL d   1      -4.486  -3.405  -4.428  0.00  0.00     0.018 A 
ATOM     13  C   UNL d   1      -5.482  -3.775  -5.338  0.00  0.00     0.025 A 
ATOM     14  C   UNL d   1      -6.102  -2.806  -6.128  0.00  0.00     0.034 A 
ATOM     15  C   UNL d   1      -5.760  -1.462  -5.993  0.00  0.00     0.025 A 
ATOM     16 CL   UNL d   1      -7.293  -3.272  -7.278  0.00  0.00    -0.084 Cl
ATOM     17  C   UNL d   1      -4.768  -1.089  -5.084  0.00  0.00     0.018 A 
ENDBRANCH   8  11
ENDBRANCH   3   7
BRANCH   1  18
ATOM     18  C   UNL d   1       0.802   0.279  -0.111  0.00  0.00     0.417 C 
ATOM     19  F   UNL d   1       1.807   0.187   0.806  0.00  0.00    -0.166 F 
ATOM     20  F   UNL d   1      -0.271   0.773   0.565  0.00  0.00    -0.166 F 
ATOM     21  F   UNL d   1       1.184   1.253  -0.982  0.00  0.00    -0.166 F 
ENDBRANCH   1  18
BRANCH   2  22
ATOM     22  C   UNL d   1       1.762  -4.643  -0.866  0.00  0.00     0.417 C 
ATOM     23  F   UNL d   1       2.561  -4.516   0.229  0.00  0.00    -0.166 F 
ATOM     24  F   UNL d   1       0.931  -5.689  -0.601  0.00  0.00    -0.166 F 
ATOM     25  F   UNL d   1       2.570  -5.055  -1.880  0.00  0.00    -0.166 F 
ENDBRANCH   2  22
TORSDOF 4
