REMARK  6 active torsions:
REMARK  status: ('A' for Active; 'I' for Inactive)
REMARK    1  A    between atoms: C_6  and  C_1 
REMARK    2  A    between atoms: C_3  and  C_2 
REMARK    3  A    between atoms: O_11  and  C_6 
REMARK    4  A    between atoms: N_16  and  C_7 
REMARK    5  A    between atoms: C_17  and  O_11 
REMARK    6  A    between atoms: C_19  and  C_17 
ROOT
ATOM      1  C   UNL d   1       1.734  -0.171  -0.078  0.00  0.00     0.086 A 
ATOM      2  C   UNL d   1       0.784   0.658  -0.655  0.00  0.00     0.136 A 
ATOM      3  N   UNL d   1      -0.544   0.321  -0.664  0.00  0.00    -0.328 N 
ATOM      4  HN  UNL d   1      -1.240   0.954  -1.057  1.00  0.00     0.168 HD
ATOM      5  C   UNL d   1      -0.904  -0.856  -0.146  0.00  0.00     0.155 A 
ATOM      6  N   UNL d   1      -0.053  -1.718   0.401  0.00  0.00    -0.342 N 
ATOM      7  HN  UNL d   1      -0.370  -2.607   0.788  1.00  0.00     0.167 HD
ATOM      8  C   UNL d   1       1.249  -1.363   0.421  0.00  0.00     0.110 A 
ENDROOT
BRANCH   1   9
ATOM      9  C   UNL d   1       3.161   0.177   0.036  0.00  0.00     0.297 C 
ATOM     10  O   UNL d   1       3.560   1.326   0.091  0.00  0.00    -0.259 OA
BRANCH   9  11
ATOM     11  O   UNL d   1       3.927  -0.940   0.005  0.00  0.00    -0.313 OA
BRANCH  11  12
ATOM     12  C   UNL d   1       5.308  -0.737  -0.349  0.00  0.00     0.217 C 
BRANCH  12  13
ATOM     13  C   UNL d   1       6.303  -0.735   0.791  0.00  0.00    -0.034 A 
ATOM     14  C   UNL d   1       5.937  -0.745   2.142  0.00  0.00     0.011 A 
ATOM     15  C   UNL d   1       6.919  -0.719   3.143  0.00  0.00     0.024 A 
ATOM     16  C   UNL d   1       8.269  -0.684   2.800  0.00  0.00     0.034 A 
ATOM     17  C   UNL d   1       8.653  -0.674   1.464  0.00  0.00     0.024 A 
ATOM     18 CL   UNL d   1       9.470  -0.646   4.032  0.00  0.00    -0.084 Cl
ATOM     19  C   UNL d   1       7.674  -0.699   0.467  0.00  0.00     0.011 A 
ENDBRANCH  12  13
ENDBRANCH  11  12
ENDBRANCH   9  11
ENDBRANCH   1   9
BRANCH   2  20
ATOM     20  C   UNL d   1       1.145   1.970  -1.325  0.00  0.00     0.433 C 
ATOM     21  F   UNL d   1       2.322   1.943  -2.011  0.00  0.00    -0.165 F 
ATOM     22  F   UNL d   1       0.222   2.345  -2.264  0.00  0.00    -0.165 F 
ATOM     23  F   UNL d   1       1.213   3.014  -0.453  0.00  0.00    -0.165 F 
ENDBRANCH   2  20
BRANCH   5  24
ATOM     24  N   UNL d   1      -2.243  -1.165  -0.149  0.00  0.00    -0.274 NA
ATOM     25  H   UNL d   1      -2.458  -1.836   0.575  0.00  0.00     0.127 HD
ATOM     26  H   UNL d   1      -2.807  -0.327  -0.188  0.00  0.00     0.127 HD
ENDBRANCH   5  24
TORSDOF 6
