REMARK  6 active torsions:
REMARK  status: ('A' for Active; 'I' for Inactive)
REMARK    1  A    between atoms: C_6  and  C_1 
REMARK    2  A    between atoms: N_5  and  C_2 
REMARK       I    between atoms: C_3  and  N_5 
REMARK       I    between atoms: N_10  and  C_3 
REMARK    3  A    between atoms: O_16  and  C_6 
REMARK    4  A    between atoms: O_17  and  C_8 
REMARK    5  A    between atoms: O_18  and  C_9 
REMARK    6  A    between atoms: C_12  and  N_10 
ROOT
ATOM      1  C   UNL d   1       1.169  -1.002   0.716  0.00  0.00     0.069 C 
ATOM      2  C   UNL d   1       0.489  -1.811  -0.199  0.00  0.00     0.055 C 
ATOM      3  C   UNL d   1       0.575   0.208   1.102  0.00  0.00     0.059 C 
ATOM      4  C   UNL d   1      -0.887  -1.584  -0.385  0.00  0.00     0.070 C 
ATOM      5  C   UNL d   1      -0.727   0.550   0.700  0.00  0.00     0.102 C 
ATOM      6  C   UNL d   1      -1.509  -0.405   0.042  0.00  0.00     0.103 C 
ENDROOT
BRANCH   2   7
ATOM      7  N   UNL d   1       1.210  -2.697  -1.070  0.00  0.00    -0.308 N 
ATOM      8  C   UNL d   1       0.819  -2.845  -2.372  0.00  0.00     0.325 C 
ATOM      9  N   UNL d   1       1.699  -3.130  -3.348  0.00  0.00    -0.309 N 
ATOM     10  O   UNL d   1      -0.315  -2.611  -2.801  0.00  0.00    -0.247 OA
ATOM     11  H   UNL d   1       1.192  -2.973  -4.212  0.00  0.00     0.170 HD
ATOM     12  H   UNL d   1       2.200  -2.783  -0.865  0.00  0.00     0.170 HD
BRANCH   9  13
ATOM     13  C   UNL d   1       3.023  -3.529  -3.531  0.00  0.00     0.037 A 
ATOM     14  C   UNL d   1       3.901  -3.984  -2.560  0.00  0.00     0.053 A 
ATOM     15  C   UNL d   1       5.177  -4.411  -2.946  0.00  0.00     0.036 A 
ATOM     16 CL   UNL d   1       6.274  -5.020  -1.760  0.00  0.00    -0.084 Cl
ATOM     17  C   UNL d   1       5.587  -4.400  -4.286  0.00  0.00     0.024 A 
ATOM     18  C   UNL d   1       4.714  -3.938  -5.255  0.00  0.00     0.004 A 
ATOM     19  C   UNL d   1       3.443  -3.508  -4.877  0.00  0.00     0.029 A 
ENDBRANCH   9  13
ENDBRANCH   2   7
BRANCH   1  20
ATOM     20  C   UNL d   1       2.497  -1.412   1.271  0.00  0.00     0.295 C 
ATOM     21  O   UNL d   1       3.183  -2.302   0.797  0.00  0.00    -0.259 OA
BRANCH  20  22
ATOM     22  O   UNL d   1       2.708  -0.739   2.423  0.00  0.00    -0.322 OA
ATOM     23  C   UNL d   1       3.800  -1.151   3.261  0.00  0.00     0.213 C 
ENDBRANCH  20  22
ENDBRANCH   1  20
BRANCH   6  24
ATOM     24  O   UNL d   1      -2.829  -0.129  -0.185  0.00  0.00    -0.353 OA
ATOM     25  C   UNL d   1      -3.639  -1.135  -0.781  0.00  0.00     0.210 C 
ENDBRANCH   6  24
BRANCH   5  26
ATOM     26  O   UNL d   1      -1.069   1.832   1.046  0.00  0.00    -0.353 OA
ATOM     27  C   UNL d   1      -2.245   2.392   0.477  0.00  0.00     0.210 C 
ENDBRANCH   5  26
TORSDOF 6
