REMARK  0 active torsions:
REMARK  status: ('A' for Active; 'I' for Inactive)
ROOT
ATOM      1  C   UNL d   1      -0.103  -1.443  -0.000  0.00  0.00     0.086 A 
ATOM      2  C   UNL d   1       0.287   0.021   0.001  0.00  0.00     0.072 A 
ATOM      3  C   UNL d   1       0.847  -2.390   0.001  0.00  0.00     0.113 A 
ATOM      4  N   UNL d   1      -0.573   1.001   0.001  0.00  0.00    -0.352 N 
ATOM      5  HN  UNL d   1      -0.260   1.972   0.002  1.00  0.00     0.166 HD
ATOM      6  N   UNL d   1      -1.464  -1.689  -0.002  0.00  0.00    -0.351 N 
ATOM      7  C   UNL d   1       2.296  -2.087   0.002  0.00  0.00     0.207 A 
ATOM      8  C   UNL d   1       1.738   0.341   0.001  0.00  0.00     0.007 A 
ATOM      9  C   UNL d   1       2.695  -0.670   0.001  0.00  0.00     0.028 A 
ATOM     10  C   UNL d   1      -1.949   0.684   0.001  0.00  0.00     0.059 A 
ATOM     11  C   UNL d   1      -2.402  -0.651  -0.001  0.00  0.00     0.059 A 
ATOM     12  O   UNL d   1       3.152  -2.965   0.003  0.00  0.00    -0.286 OA
ATOM     13 CL   UNL d   1       0.413  -4.073   0.001  0.00  0.00    -0.077 Cl
ATOM     14  C   UNL d   1       2.158   1.681   0.001  0.00  0.00     0.015 A 
ATOM     15  C   UNL d   1       4.062  -0.350   0.001  0.00  0.00     0.016 A 
ATOM     16  C   UNL d   1      -2.882   1.723   0.001  0.00  0.00     0.032 A 
ATOM     17  C   UNL d   1      -3.774  -0.923  -0.002  0.00  0.00     0.032 A 
ATOM     18  C   UNL d   1       4.471   0.983   0.000  0.00  0.00     0.001 A 
ATOM     19  C   UNL d   1       3.519   1.998   0.001  0.00  0.00     0.001 A 
ATOM     20  C   UNL d   1      -4.251   1.446   0.000  0.00  0.00     0.002 A 
ATOM     21  C   UNL d   1      -4.696   0.125  -0.002  0.00  0.00     0.002 A 
ATOM     22  H   UNL d   1      -1.780  -2.650  -0.001  0.00  0.00     0.166 HD
ENDROOT
TORSDOF 0
