REMARK  7 active torsions:
REMARK  status: ('A' for Active; 'I' for Inactive)
REMARK    1  A    between atoms: N_2  and  C_1 
REMARK    2  A    between atoms: C_3  and  C_1 
REMARK    3  A    between atoms: C_5  and  C_1 
REMARK    4  A    between atoms: O_10  and  C_1 
REMARK       I    between atoms: C_4  and  N_2 
REMARK    5  A    between atoms: C_6  and  C_4 
REMARK    6  A    between atoms: O_17  and  C_5 
REMARK    7  A    between atoms: C_18  and  O_17 
ROOT
ATOM      1  C   UNL d   1       0.992   0.041   0.134  0.00  0.00     0.325 C 
ENDROOT
BRANCH   1   2
ATOM      2  N   UNL d   1       0.617  -0.816  -0.988  0.00  0.00    -0.308 N 
ATOM      3  C   UNL d   1       0.823  -2.166  -0.967  0.00  0.00     0.278 C 
ATOM      4  O   UNL d   1       1.400  -2.698  -0.018  0.00  0.00    -0.265 OA
ATOM      5  H   UNL d   1       0.125  -0.410  -1.778  0.00  0.00     0.166 HD
BRANCH   3   6
ATOM      6  C   UNL d   1       0.356  -2.873  -2.138  0.00  0.00     0.142 A 
ATOM      7  O   UNL d   1      -0.269  -2.173  -3.138  0.00  0.00    -0.317 OA
ATOM      8  C   UNL d   1      -0.584  -3.063  -4.113  0.00  0.00     0.143 A 
ATOM      9  C   UNL d   1      -0.175  -4.328  -3.763  0.00  0.00     0.027 A 
ATOM     10  C   UNL d   1       0.427  -4.208  -2.487  0.00  0.00     0.045 A 
ENDBRANCH   3   6
ENDBRANCH   1   2
BRANCH   1  11
ATOM     11  C   UNL d   1       0.276  -0.239   1.490  0.00  0.00     0.448 C 
ATOM     12  F   UNL d   1      -0.583  -1.286   1.411  0.00  0.00    -0.166 F 
ATOM     13  F   UNL d   1       1.175  -0.546   2.461  0.00  0.00    -0.166 F 
ATOM     14  F   UNL d   1      -0.446   0.811   1.948  0.00  0.00    -0.166 F 
ENDBRANCH   1  11
BRANCH   1  15
ATOM     15  C   UNL d   1       0.585   1.468  -0.264  0.00  0.00     0.325 C 
ATOM     16  O   UNL d   1      -0.327   1.722  -1.050  0.00  0.00    -0.259 OA
BRANCH  15  17
ATOM     17  O   UNL d   1       1.414   2.398   0.289  0.00  0.00    -0.318 OA
BRANCH  17  18
ATOM     18  C   UNL d   1       1.401   3.689  -0.335  0.00  0.00     0.174 C 
ATOM     19  C   UNL d   1       2.325   3.654  -1.540  0.00  0.00     0.034 C 
ENDBRANCH  17  18
ENDBRANCH  15  17
ENDBRANCH   1  15
BRANCH   1  20
ATOM     20  O   UNL d   1       2.420  -0.064   0.206  0.00  0.00    -0.356 OA
ATOM     21  H   UNL d   1       2.589  -0.976   0.521  0.00  0.00     0.213 HD
ENDBRANCH   1  20
TORSDOF 7
