REMARK  3 active torsions:
REMARK  status: ('A' for Active; 'I' for Inactive)
REMARK    1  A    between atoms: C_2  and  C_1 
REMARK    2  A    between atoms: C_12  and  C_7 
REMARK    3  A    between atoms: C_14  and  C_15 
ROOT
ATOM      1  C   UNL d   1       4.580  -0.057   1.177  0.00  0.00     0.057 A 
ATOM      2  N   UNL d   1       5.846  -0.379   0.723  0.00  0.00    -0.348 N 
ATOM      3  HN  UNL d   1       6.664  -0.488   1.322  1.00  0.00     0.166 HD
ATOM      4  C   UNL d   1       5.854  -0.528  -0.588  0.00  0.00     0.084 A 
ATOM      5  S   UNL d   1       4.316  -0.352  -1.339  0.00  0.00    -0.081 SA
ATOM      6  C   UNL d   1       3.621  -0.003   0.183  0.00  0.00     0.082 A 
ENDROOT
BRANCH   1   7
ATOM      7  C   UNL d   1       4.282   0.207   2.636  0.00  0.00     0.039 A 
ATOM      8  S   UNL d   1       2.682   0.492   3.176  0.00  0.00    -0.087 SA
ATOM      9  C   UNL d   1       3.150   0.659   4.809  0.00  0.00     0.016 A 
ATOM     10  C   UNL d   1       2.300   0.909   5.902  0.00  0.00     0.021 A 
ATOM     11  C   UNL d   1       4.530   0.518   4.955  0.00  0.00    -0.010 A 
ATOM     12  C   UNL d   1       2.855   1.027   7.178  0.00  0.00     0.025 A 
ATOM     13  C   UNL d   1       4.223   0.899   7.353  0.00  0.00     0.035 A 
ATOM     14  C   UNL d   1       5.064   0.647   6.266  0.00  0.00     0.037 A 
ATOM     15 CL   UNL d   1       4.896   1.052   8.930  0.00  0.00    -0.084 Cl
ATOM     16  C   UNL d   1       5.195   0.255   3.683  0.00  0.00    -0.031 A 
ATOM     17  C   UNL d   1       6.684   0.081   3.616  0.00  0.00     0.050 C 
ENDBRANCH   1   7
BRANCH   4  18
ATOM     18  C   UNL d   1       7.058  -0.832  -1.375  0.00  0.00    -0.002 A 
ATOM     19  C   UNL d   1       8.095  -1.572  -0.795  0.00  0.00     0.015 A 
ATOM     20  C   UNL d   1       9.286  -1.812  -1.492  0.00  0.00     0.009 A 
ATOM     21  C   UNL d   1       9.492  -1.302  -2.787  0.00  0.00    -0.051 A 
ATOM     22  C   UNL d   1       8.433  -0.593  -3.372  0.00  0.00     0.009 A 
ATOM     23  C   UNL d   1       7.240  -0.359  -2.679  0.00  0.00     0.015 A 
BRANCH  21  24
ATOM     24  C   UNL d   1      10.850  -1.481  -3.487  0.00  0.00    -0.024 C 
ATOM     25  C   UNL d   1      10.921  -0.803  -4.874  0.00  0.00     0.019 C 
ATOM     26  C   UNL d   1      11.958  -0.847  -2.616  0.00  0.00     0.019 C 
ATOM     27  C   UNL d   1      11.157  -2.978  -3.689  0.00  0.00     0.019 C 
ENDBRANCH  21  24
ENDBRANCH   4  18
TORSDOF 3
