REMARK  5 active torsions:
REMARK  status: ('A' for Active; 'I' for Inactive)
REMARK    1  A    between atoms: C_7  and  C_1 
REMARK    2  A    between atoms: C_8  and  C_2 
REMARK    3  A    between atoms: C_6  and  C_3 
REMARK    4  A    between atoms: O_14  and  C_7 
REMARK    5  A    between atoms: O_15  and  C_8 
ROOT
ATOM      1  C   UNL d   1       1.244   0.688   0.000  0.00  0.00     0.095 A 
ATOM      2  C   UNL d   1       1.097  -0.761   0.001  0.00  0.00     0.079 A 
ATOM      3  C   UNL d   1      -0.062   1.192  -0.011  0.00  0.00     0.176 A 
ATOM      4  O   UNL d   1      -0.955   0.156  -0.016  0.00  0.00    -0.316 OA
ATOM      5  C   UNL d   1      -0.262  -0.996  -0.009  0.00  0.00     0.162 A 
ENDROOT
BRANCH   1   6
ATOM      6  C   UNL d   1       2.435   1.544   0.011  0.00  0.00     0.180 C 
ATOM      7  O   UNL d   1       2.364   2.763   0.013  0.00  0.00    -0.646 OA
BRANCH   6   8
ATOM      8  O   UNL d   1       3.648   0.951   0.019  0.00  0.00    -0.773 OA
ATOM      9  H   UNL d   1       3.684  -0.032   0.018  0.00  0.00     0.167 HD
ENDBRANCH   6   8
ENDBRANCH   1   6
BRANCH   2  10
ATOM     10  C   UNL d   1       2.124  -1.788   0.009  0.00  0.00     0.179 C 
ATOM     11  O   UNL d   1       3.315  -1.504   0.016  0.00  0.00    -0.646 OA
BRANCH  10  12
ATOM     12  O   UNL d   1       1.712  -3.076   0.008  0.00  0.00    -0.773 OA
ATOM     13  H   UNL d   1       0.752  -3.225   0.002  0.00  0.00     0.167 HD
ENDBRANCH  10  12
ENDBRANCH   2  10
BRANCH   3  14
ATOM     14  C   UNL d   1      -0.722   2.536  -0.016  0.00  0.00     0.440 C 
ATOM     15  F   UNL d   1       0.100   3.605  -0.036  0.00  0.00    -0.164 F 
ATOM     16  F   UNL d   1      -1.541   2.663  -1.096  0.00  0.00    -0.164 F 
ATOM     17  F   UNL d   1      -1.517   2.682   1.080  0.00  0.00    -0.164 F 
ENDBRANCH   3  14
TORSDOF 5
