REMARK  6 active torsions:
REMARK  status: ('A' for Active; 'I' for Inactive)
REMARK    1  A    between atoms: C_7  and  C_1 
REMARK    2  A    between atoms: C_8  and  C_7 
REMARK    3  A    between atoms: C_9  and  C_18 
REMARK       I    between atoms: N_16  and  C_9 
REMARK    4  A    between atoms: N_21  and  N_16 
REMARK    5  A    between atoms: O_19  and  C_17 
REMARK    6  A    between atoms: C_18  and  O_19 
ROOT
ATOM      1  C   UNL d   1      -1.739  -0.947   0.022  0.00  0.00     0.029 A 
ATOM      2  C   UNL d   1      -1.961   0.526   0.108  0.00  0.00     0.295 A 
ATOM      3  C   UNL d   1      -0.495  -1.470  -0.071  0.00  0.00    -0.036 A 
ATOM      4  O   UNL d   1      -0.854   1.345  -0.013  0.00  0.00    -0.274 OA
ATOM      5  C   UNL d   1       0.445   0.816  -0.057  0.00  0.00     0.092 A 
ATOM      6  C   UNL d   1       0.665  -0.558  -0.058  0.00  0.00     0.005 A 
ATOM      7  C   UNL d   1       1.485   1.752  -0.072  0.00  0.00     0.075 A 
ATOM      8  C   UNL d   1       1.997  -0.990  -0.041  0.00  0.00     0.017 A 
ATOM      9  O   UNL d   1      -3.081   1.005   0.254  0.00  0.00    -0.259 OA
ATOM     10  C   UNL d   1       2.800   1.303  -0.069  0.00  0.00     0.072 A 
ATOM     11  C   UNL d   1       3.051  -0.069  -0.032  0.00  0.00     0.038 A 
ATOM     12  C   UNL d   1      -0.211  -2.950  -0.139  0.00  0.00     0.050 C 
ENDROOT
BRANCH   1  13
ATOM     13  C   UNL d   1      -3.018  -1.747  -0.004  0.00  0.00     0.087 C 
BRANCH  13  14
ATOM     14  C   UNL d   1      -3.650  -2.267   1.284  0.00  0.00    -0.010 A 
ATOM     15  C   UNL d   1      -3.160  -2.106   2.597  0.00  0.00     0.042 A 
ATOM     16 CL   UNL d   1      -1.699  -1.284   3.021  0.00  0.00    -0.084 Cl
ATOM     17  C   UNL d   1      -3.854  -2.633   3.703  0.00  0.00     0.024 A 
ATOM     18  C   UNL d   1      -5.045  -3.329   3.539  0.00  0.00     0.003 A 
ATOM     19  C   UNL d   1      -5.550  -3.510   2.261  0.00  0.00     0.024 A 
ATOM     20  C   UNL d   1      -4.864  -2.993   1.154  0.00  0.00     0.042 A 
ATOM     21 CL   UNL d   1      -5.591  -3.304  -0.393  0.00  0.00    -0.084 Cl
ENDBRANCH  13  14
ENDBRANCH   1  13
BRANCH  10  22
ATOM     22  O   UNL d   1       3.908   2.099  -0.045  0.00  0.00    -0.342 OA
BRANCH  22  23
ATOM     23  C   UNL d   1       3.770   3.375  -0.672  0.00  0.00     0.279 C 
BRANCH  23  24
ATOM     24  C   UNL d   1       5.116   4.095  -0.727  0.00  0.00     0.255 C 
ATOM     25  O   UNL d   1       5.281   5.149  -1.341  0.00  0.00    -0.270 OA
ATOM     26  N   UNL d   1       6.125   3.473  -0.004  0.00  0.00    -0.292 N 
ATOM     27  H   UNL d   1       5.882   2.671   0.580  0.00  0.00     0.183 HD
BRANCH  26  28
ATOM     28  N   UNL d   1       7.380   4.099   0.142  0.00  0.00    -0.247 NA
ATOM     29  H   UNL d   1       7.265   5.075  -0.164  0.00  0.00     0.143 HD
ATOM     30  H   UNL d   1       8.013   3.697  -0.554  0.00  0.00     0.143 HD
ENDBRANCH  26  28
ENDBRANCH  23  24
ENDBRANCH  22  23
ENDBRANCH  10  22
TORSDOF 6
