REMARK  8 active torsions:
REMARK  status: ('A' for Active; 'I' for Inactive)
REMARK    1  A    between atoms: S_17  and  C_3 
REMARK    2  A    between atoms: S_18  and  C_4 
REMARK    3  A    between atoms: C_24  and  C_9 
REMARK    4  A    between atoms: C_23  and  C_10 
REMARK    5  A    between atoms: C_11  and  C_13 
REMARK    6  A    between atoms: C_12  and  C_14 
REMARK    7  A    between atoms: C_13  and  S_17 
REMARK    8  A    between atoms: C_14  and  S_18 
ROOT
ATOM      1  N   UNL d   1       0.187   0.636  -0.373  0.00  0.00    -0.163 NA
ATOM      2  N   UNL d   1       0.156  -0.746  -0.313  0.00  0.00    -0.163 NA
ATOM      3  C   UNL d   1       1.360   1.066   0.213  0.00  0.00     0.142 A 
ATOM      4  C   UNL d   1      -1.114  -1.121   0.074  0.00  0.00     0.142 A 
ATOM      5  N   UNL d   1       2.204   0.141   0.609  0.00  0.00    -0.356 N 
ATOM      6  HN  UNL d   1       3.125   0.248   1.033  1.00  0.00     0.162 HD
ATOM      7  N   UNL d   1      -1.984  -0.155   0.286  0.00  0.00    -0.356 N 
ATOM      8  HN  UNL d   1      -2.969  -0.219   0.540  1.00  0.00     0.162 HD
ATOM      9  C   UNL d   1      -1.139   1.065   0.056  0.00  0.00     0.177 A 
ATOM     10  C   UNL d   1       1.450  -1.123   0.269  0.00  0.00     0.177 A 
ATOM     11  C   UNL d   1      -1.776   1.925  -1.023  0.00  0.00     0.051 C 
ATOM     12  C   UNL d   1       1.410  -1.990   1.514  0.00  0.00     0.051 C 
ENDROOT
BRANCH   3  13
ATOM     13  S   UNL d   1       1.823   2.740   0.179  0.00  0.00    -0.016 SA
BRANCH  13  14
ATOM     14  C   UNL d   1       1.419   3.240   1.813  0.00  0.00     0.231 C 
ATOM     15  O   UNL d   1       0.955   2.464   2.638  0.00  0.00    -0.279 OA
BRANCH  14  16
ATOM     16  C   UNL d   1       1.550   4.676   2.066  0.00  0.00     0.082 A 
ATOM     17  C   UNL d   1       0.758   5.494   2.959  0.00  0.00     0.085 A 
ATOM     18  N   UNL d   1       1.152   6.774   2.894  0.00  0.00    -0.259 N 
ATOM     19  O   UNL d   1       2.199   6.820   2.016  0.00  0.00    -0.241 OA
ATOM     20  HN  UNL d   1       0.748   7.562   3.402  1.00  0.00     0.195 HD
ATOM     21  C   UNL d   1       2.439   5.585   1.511  0.00  0.00     0.089 A 
ATOM     22  C   UNL d   1       3.543   5.539   0.528  0.00  0.00     0.080 C 
BRANCH  17  23
ATOM     23  C   UNL d   1      -0.392   5.130   3.797  0.00  0.00     0.037 A 
ATOM     24  C   UNL d   1      -0.461   5.466   5.165  0.00  0.00     0.048 A 
ATOM     25 CL   UNL d   1       0.754   6.395   5.981  0.00  0.00    -0.083 Cl
ATOM     26  C   UNL d   1      -1.550   5.059   5.952  0.00  0.00     0.025 A 
ATOM     27  C   UNL d   1      -2.565   4.280   5.406  0.00  0.00     0.003 A 
ATOM     28  C   UNL d   1      -2.539   3.980   4.050  0.00  0.00     0.025 A 
ATOM     29  C   UNL d   1      -1.495   4.452   3.246  0.00  0.00     0.048 A 
ATOM     30 CL   UNL d   1      -1.714   4.285   1.536  0.00  0.00    -0.083 Cl
ENDBRANCH  17  23
ENDBRANCH  14  16
ENDBRANCH  13  14
ENDBRANCH   3  13
BRANCH   4  31
ATOM     31  S   UNL d   1      -1.603  -2.764   0.314  0.00  0.00    -0.016 SA
BRANCH  31  32
ATOM     32  C   UNL d   1      -2.321  -3.066  -1.254  0.00  0.00     0.231 C 
ATOM     33  O   UNL d   1      -1.786  -2.662  -2.285  0.00  0.00    -0.279 OA
BRANCH  32  34
ATOM     34  C   UNL d   1      -3.541  -3.856  -1.262  0.00  0.00     0.082 A 
ATOM     35  C   UNL d   1      -4.573  -3.865  -2.279  0.00  0.00     0.085 A 
ATOM     36  N   UNL d   1      -5.545  -4.724  -1.946  0.00  0.00    -0.259 N 
ATOM     37  O   UNL d   1      -5.175  -5.306  -0.765  0.00  0.00    -0.241 OA
ATOM     38  HN  UNL d   1      -6.398  -4.910  -2.472  1.00  0.00     0.195 HD
ATOM     39  C   UNL d   1      -3.996  -4.793  -0.343  0.00  0.00     0.089 A 
ATOM     40  C   UNL d   1      -3.530  -5.344   0.949  0.00  0.00     0.080 C 
BRANCH  35  41
ATOM     41  C   UNL d   1      -4.709  -3.056  -3.498  0.00  0.00     0.037 A 
ATOM     42  C   UNL d   1      -5.002  -3.647  -4.747  0.00  0.00     0.048 A 
ATOM     43 CL   UNL d   1      -5.189  -5.357  -4.976  0.00  0.00    -0.083 Cl
ATOM     44  C   UNL d   1      -5.155  -2.863  -5.902  0.00  0.00     0.025 A 
ATOM     45  C   UNL d   1      -4.983  -1.485  -5.847  0.00  0.00     0.003 A 
ATOM     46  C   UNL d   1      -4.708  -0.881  -4.626  0.00  0.00     0.025 A 
ATOM     47  C   UNL d   1      -4.614  -1.650  -3.458  0.00  0.00     0.048 A 
ATOM     48 CL   UNL d   1      -4.490  -0.753  -1.980  0.00  0.00    -0.083 Cl
ENDBRANCH  35  41
ENDBRANCH  32  34
ENDBRANCH  31  32
ENDBRANCH   4  31
TORSDOF 8
