REMARK  2 active torsions:
REMARK  status: ('A' for Active; 'I' for Inactive)
REMARK    1  A    between atoms: N_4  and  C_1 
REMARK    2  A    between atoms: C_12  and  C_5 
ROOT
ATOM      1  C   UNL d   1       0.074  -0.455   0.068  0.00  0.00     0.073 A 
ATOM      2  C   UNL d   1      -1.141   0.245   0.195  0.00  0.00     0.040 A 
ATOM      3  C   UNL d   1       1.250   0.300  -0.097  0.00  0.00     0.040 A 
ATOM      4  C   UNL d   1       0.001   2.416   0.002  0.00  0.00    -0.051 A 
ATOM      5  C   UNL d   1       1.202   1.707  -0.127  0.00  0.00     0.029 A 
ATOM      6  C   UNL d   1      -1.167   1.653   0.143  0.00  0.00     0.029 A 
ATOM      7 BR   UNL d   1      -2.825  -0.557   0.608  0.00  0.00    -0.049 Br
ATOM      8 BR   UNL d   1       2.975  -0.428  -0.480  0.00  0.00    -0.049 Br
ENDROOT
BRANCH   4   9
ATOM      9  C   UNL d   1      -0.092   3.942  -0.088  0.00  0.00     0.018 C 
ATOM     10  C   UNL d   1       1.238   4.705  -0.279  0.00  0.00     0.009 C 
ATOM     11  C   UNL d   1       2.084   4.791   0.995  0.00  0.00     0.001 C 
ATOM     12  C   UNL d   1       1.297   5.348   2.175  0.00  0.00     0.000 C 
ATOM     13  C   UNL d   1      -0.033   4.629   2.377  0.00  0.00     0.001 C 
ATOM     14  C   UNL d   1      -0.856   4.586   1.091  0.00  0.00     0.009 C 
ENDBRANCH   4   9
BRANCH   1  15
ATOM     15  N   UNL d   1       0.110  -1.879   0.080  0.00  0.00    -0.330 N 
ATOM     16  C   UNL d   1      -0.734  -2.728  -0.614  0.00  0.00     0.097 A 
ATOM     17  C   UNL d   1      -0.386  -4.034  -0.353  0.00  0.00     0.019 A 
ATOM     18  C   UNL d   1       0.726  -4.004   0.510  0.00  0.00     0.019 A 
ATOM     19  C   UNL d   1       1.000  -2.678   0.771  0.00  0.00     0.097 A 
ENDBRANCH   1  15
TORSDOF 2
