REMARK  7 active torsions:
REMARK  status: ('A' for Active; 'I' for Inactive)
REMARK    1  A    between atoms: C_10  and  N_1 
REMARK    2  A    between atoms: C_9  and  C_4 
REMARK    3  A    between atoms: N_6  and  C_7 
REMARK    4  A    between atoms: S_11  and  C_8 
REMARK    5  A    between atoms: C_17  and  C_9 
REMARK    6  A    between atoms: C_22  and  C_10 
REMARK    7  A    between atoms: C_19  and  S_11 
ROOT
ATOM      1  C   UNL d   1      -5.128  -1.476   1.108  0.00  0.00     0.120 A 
ATOM      2  C   UNL d   1      -6.160  -1.403   0.163  0.00  0.00     0.038 A 
ATOM      3  C   UNL d   1      -4.046  -0.586   1.108  0.00  0.00     0.049 A 
ATOM      4  C   UNL d   1      -3.953   0.367   0.095  0.00  0.00    -0.032 A 
ATOM      5  C   UNL d   1      -6.053  -0.428  -0.839  0.00  0.00     0.022 A 
ATOM      6  C   UNL d   1      -4.952   0.438  -0.884  0.00  0.00     0.013 A 
ENDROOT
BRANCH   4   7
ATOM      7  C   UNL d   1      -2.745   1.182  -0.028  0.00  0.00     0.036 C 
BRANCH   7   8
ATOM      8  C   UNL d   1      -1.653   0.761  -0.679  0.00  0.00     0.076 A 
ATOM      9  C   UNL d   1      -1.470  -0.567  -1.342  0.00  0.00     0.266 A 
ATOM     10  N   UNL d   1      -0.232  -0.637  -1.953  0.00  0.00    -0.294 N 
ATOM     11  O   UNL d   1      -2.297  -1.467  -1.313  0.00  0.00    -0.266 OA
ATOM     12  C   UNL d   1       0.585   0.464  -1.823  0.00  0.00     0.149 A 
ATOM     13  S   UNL d   1      -0.227   1.703  -0.865  0.00  0.00    -0.055 SA
ATOM     14  S   UNL d   1       2.126   0.695  -2.417  0.00  0.00    -0.052 SA
BRANCH  10  15
ATOM     15  C   UNL d   1       0.116  -1.872  -2.655  0.00  0.00     0.172 C 
BRANCH  15  16
ATOM     16  C   UNL d   1      -0.415  -1.892  -4.073  0.00  0.00    -0.040 A 
ATOM     17  C   UNL d   1       0.386  -1.467  -5.141  0.00  0.00     0.009 A 
ATOM     18  C   UNL d   1      -0.124  -1.437  -6.440  0.00  0.00     0.001 A 
ATOM     19  C   UNL d   1      -1.434  -1.835  -6.688  0.00  0.00     0.000 A 
ATOM     20  C   UNL d   1      -2.237  -2.275  -5.638  0.00  0.00     0.001 A 
ATOM     21  C   UNL d   1      -1.729  -2.307  -4.339  0.00  0.00     0.009 A 
ENDBRANCH  15  16
ENDBRANCH  10  15
ENDBRANCH   7   8
ENDBRANCH   4   7
BRANCH   1  22
ATOM     22  N   UNL d   1      -5.083  -2.551   2.075  0.00  0.00    -0.114 N 
ATOM     23  O   UNL d   1      -4.901  -3.695   1.641  0.00  0.00    -0.532 OA
ATOM     24  O   UNL d   1      -5.150  -2.232   3.271  0.00  0.00    -0.532 OA
ENDBRANCH   1  22
BRANCH   2  25
ATOM     25  S   UNL d   1      -7.656  -2.365   0.246  0.00  0.00    -0.088 SA
BRANCH  25  26
ATOM     26  C   UNL d   1      -7.421  -3.728  -0.881  0.00  0.00     0.005 A 
ATOM     27  C   UNL d   1      -6.209  -4.055  -1.499  0.00  0.00     0.020 A 
ATOM     28  C   UNL d   1      -6.118  -5.167  -2.345  0.00  0.00     0.020 A 
ATOM     29  C   UNL d   1      -7.240  -5.958  -2.577  0.00  0.00     0.011 A 
ATOM     30  C   UNL d   1      -8.454  -5.650  -1.972  0.00  0.00     0.020 A 
ATOM     31 BR   UNL d   1      -7.113  -7.464  -3.712  0.00  0.00    -0.051 Br
ATOM     32  C   UNL d   1      -8.540  -4.539  -1.128  0.00  0.00     0.020 A 
ENDBRANCH  25  26
ENDBRANCH   2  25
TORSDOF 7
