REMARK  4 active torsions:
REMARK  status: ('A' for Active; 'I' for Inactive)
REMARK    1  A    between atoms: C_4  and  N_1 
REMARK    2  A    between atoms: S_7  and  C_5 
REMARK    3  A    between atoms: C_9  and  S_7 
REMARK    4  A    between atoms: N_16  and  C_13 
ROOT
ATOM      1  N   UNL d   1       0.037   0.842  -0.118  0.00  0.00    -0.251 N 
ATOM      2  C   UNL d   1      -1.077   0.109   0.204  0.00  0.00     0.232 C 
ATOM      3  C   UNL d   1       1.160   0.054  -0.206  0.00  0.00     0.245 C 
ATOM      4  C   UNL d   1       0.736  -1.396  -0.224  0.00  0.00     0.154 C 
ATOM      5  C   UNL d   1      -0.729  -1.350   0.180  0.00  0.00     0.129 C 
ATOM      6  O   UNL d   1      -2.194   0.519   0.488  0.00  0.00    -0.273 OA
ATOM      7  O   UNL d   1       2.331   0.419  -0.226  0.00  0.00    -0.271 OA
ENDROOT
BRANCH   4   8
ATOM      8  S   UNL d   1       1.035  -2.031  -1.917  0.00  0.00    -0.113 SA
BRANCH   8   9
ATOM      9  C   UNL d   1       0.545  -3.747  -1.733  0.00  0.00     0.022 A 
ATOM     10  C   UNL d   1      -0.455  -4.279  -2.575  0.00  0.00     0.022 A 
ATOM     11  C   UNL d   1      -0.850  -5.609  -2.401  0.00  0.00     0.024 A 
ATOM     12  C   UNL d   1      -0.194  -6.433  -1.486  0.00  0.00     0.002 A 
ATOM     13  C   UNL d   1       0.841  -5.923  -0.705  0.00  0.00     0.001 A 
ATOM     14  C   UNL d   1       1.208  -4.581  -0.824  0.00  0.00     0.020 A 
BRANCH  10  15
ATOM     15  N   UNL d   1      -1.213  -3.446  -3.425  0.00  0.00    -0.302 NA
ATOM     16  H   UNL d   1      -0.681  -2.620  -3.698  0.00  0.00     0.124 HD
ATOM     17  H   UNL d   1      -1.597  -3.935  -4.228  0.00  0.00     0.124 HD
ENDBRANCH  10  15
ENDBRANCH   8   9
ENDBRANCH   4   8
BRANCH   1  18
ATOM     18  C   UNL d   1       0.084   2.258  -0.132  0.00  0.00     0.054 A 
ATOM     19  C   UNL d   1      -0.515   2.973   0.916  0.00  0.00     0.073 A 
ATOM     20  C   UNL d   1      -0.424   4.359   0.962  0.00  0.00     0.118 A 
ATOM     21  F   UNL d   1      -0.966   5.023   1.991  0.00  0.00    -0.206 F 
ATOM     22  C   UNL d   1       0.233   5.068  -0.033  0.00  0.00     0.043 A 
ATOM     23  C   UNL d   1       0.798   4.376  -1.101  0.00  0.00     0.012 A 
ATOM     24  C   UNL d   1       0.722   2.971  -1.173  0.00  0.00    -0.034 A 
ATOM     25  C   UNL d   1       1.278   2.324  -2.415  0.00  0.00     0.050 C 
ENDBRANCH   1  18
TORSDOF 4
