REMARK  6 active torsions:
REMARK  status: ('A' for Active; 'I' for Inactive)
REMARK    1  A    between atoms: N_2  and  S_1 
REMARK    2  A    between atoms: C_6  and  S_1 
REMARK    3  A    between atoms: C_3  and  N_2 
REMARK       I    between atoms: C_4  and  N_7 
REMARK    4  A    between atoms: C_12  and  C_4 
REMARK    5  A    between atoms: O_22  and  C_5 
REMARK    6  A    between atoms: N_7  and  C_20 
ROOT
ATOM      1  C   UNL d   1       0.519   1.587  -0.360  0.00  0.00     0.075 A 
ATOM      2  C   UNL d   1      -0.746   1.723  -0.932  0.00  0.00     0.027 A 
ATOM      3  C   UNL d   1       1.244   2.717   0.020  0.00  0.00     0.027 A 
ATOM      4  C   UNL d   1      -0.537   4.148  -0.805  0.00  0.00     0.035 A 
ATOM      5  C   UNL d   1      -1.266   3.002  -1.159  0.00  0.00     0.031 A 
ATOM      6  C   UNL d   1       0.719   3.992  -0.213  0.00  0.00     0.031 A 
ENDROOT
BRANCH   1   7
ATOM      7  S   UNL d   1       1.187  -0.029  -0.048  0.00  0.00     0.247 S 
ATOM      8  O   UNL d   1       2.103   0.051   1.070  0.00  0.00    -0.205 OA
ATOM      9  O   UNL d   1       0.072  -0.954  -0.020  0.00  0.00    -0.205 OA
BRANCH   7  10
ATOM     10  N   UNL d   1       2.027  -0.375  -1.463  0.00  0.00    -0.163 NA
ATOM     11  H   UNL d   1       1.901  -1.356  -1.702  0.00  0.00     0.147 HD
BRANCH  10  12
ATOM     12  C   UNL d   1       3.370   0.074  -1.471  0.00  0.00     0.146 A 
ATOM     13  C   UNL d   1       4.440  -0.722  -1.036  0.00  0.00     0.182 A 
ATOM     14  N   UNL d   1       5.717  -0.265  -1.020  0.00  0.00    -0.343 N 
ATOM     15  C   UNL d   1       5.870   1.021  -1.411  0.00  0.00     0.107 A 
ATOM     16  HN  UNL d   1       6.504  -0.848  -0.735  1.00  0.00     0.167 HD
ATOM     17  C   UNL d   1       4.803   1.815  -1.804  0.00  0.00     0.106 A 
ATOM     18  N   UNL d   1       3.529   1.361  -1.840  0.00  0.00    -0.351 N 
ATOM     19  HN  UNL d   1       2.746   1.950  -2.125  1.00  0.00     0.166 HD
BRANCH  13  20
ATOM     20  O   UNL d   1       4.181  -2.029  -0.667  0.00  0.00    -0.338 OA
ATOM     21  C   UNL d   1       5.247  -2.594   0.091  0.00  0.00     0.211 C 
ENDBRANCH  13  20
ENDBRANCH  10  12
ENDBRANCH   7  10
ENDBRANCH   1   7
BRANCH   4  22
ATOM     22  N   UNL d   1      -1.127   5.401  -1.078  0.00  0.00    -0.323 N 
ATOM     23  C   UNL d   1      -0.597   6.651  -0.811  0.00  0.00     0.256 C 
ATOM     24  O   UNL d   1       0.485   6.894  -0.287  0.00  0.00    -0.267 OA
ATOM     25  H   UNL d   1      -2.007   5.366  -1.577  0.00  0.00     0.169 HD
BRANCH  23  26
ATOM     26  C   UNL d   1      -1.426   7.807  -1.257  0.00  0.00     0.032 A 
ATOM     27  C   UNL d   1      -2.829   7.777  -1.239  0.00  0.00     0.020 A 
ATOM     28  C   UNL d   1      -3.553   8.880  -1.700  0.00  0.00     0.043 A 
ATOM     29  C   UNL d   1      -2.878  10.006  -2.161  0.00  0.00     0.116 A 
ATOM     30  C   UNL d   1      -1.489  10.061  -2.155  0.00  0.00     0.043 A 
ATOM     31  F   UNL d   1      -3.578  11.054  -2.613  0.00  0.00    -0.206 F 
ATOM     32  C   UNL d   1      -0.761   8.963  -1.697  0.00  0.00     0.020 A 
ENDBRANCH  23  26
ENDBRANCH   4  22
TORSDOF 6
