REMARK  3 active torsions:
REMARK  status: ('A' for Active; 'I' for Inactive)
REMARK    1  A    between atoms: C_5  and  N_1 
REMARK    2  A    between atoms: C_11  and  C_4 
REMARK    3  A    between atoms: O_16  and  C_9 
ROOT
ATOM      1  N   UNL d   1      -0.018   0.880   0.071  0.00  0.00    -0.242 N 
ATOM      2  C   UNL d   1      -1.145   0.117   0.128  0.00  0.00     0.266 C 
ATOM      3  C   UNL d   1       1.086   0.118   0.305  0.00  0.00     0.256 C 
ATOM      4  C   UNL d   1      -0.699  -1.298   0.207  0.00  0.00     0.048 C 
ATOM      5  C   UNL d   1       0.633  -1.276   0.326  0.00  0.00     0.093 C 
ATOM      6  O   UNL d   1      -2.308   0.482   0.091  0.00  0.00    -0.267 OA
ATOM      7  O   UNL d   1       2.237   0.438   0.511  0.00  0.00    -0.268 OA
ENDROOT
BRANCH   1   8
ATOM      8  C   UNL d   1      -0.010   2.281  -0.045  0.00  0.00     0.081 A 
ATOM      9  C   UNL d   1      -0.712   3.026   0.921  0.00  0.00     0.057 A 
ATOM     10  C   UNL d   1      -0.677   4.419   0.901  0.00  0.00     0.036 A 
ATOM     11 CL   UNL d   1      -1.479   5.316   2.132  0.00  0.00    -0.084 Cl
ATOM     12  C   UNL d   1       0.022   5.088  -0.094  0.00  0.00     0.026 A 
ATOM     13  C   UNL d   1       0.700   4.355  -1.069  0.00  0.00     0.041 A 
ATOM     14  C   UNL d   1       0.696   2.952  -1.059  0.00  0.00     0.095 A 
BRANCH  14  15
ATOM     15  O   UNL d   1       1.431   2.413  -2.079  0.00  0.00    -0.354 OA
ATOM     16  C   UNL d   1       0.954   1.240  -2.724  0.00  0.00     0.210 C 
ENDBRANCH  14  15
ENDBRANCH   1   8
BRANCH   4  17
ATOM     17  C   UNL d   1      -1.546  -2.491   0.114  0.00  0.00    -0.020 A 
ATOM     18  C   UNL d   1      -1.161  -3.703   0.708  0.00  0.00     0.012 A 
ATOM     19  C   UNL d   1      -1.978  -4.834   0.627  0.00  0.00     0.001 A 
ATOM     20  C   UNL d   1      -3.195  -4.769  -0.048  0.00  0.00     0.000 A 
ATOM     21  C   UNL d   1      -3.588  -3.580  -0.651  0.00  0.00     0.001 A 
ATOM     22  C   UNL d   1      -2.769  -2.451  -0.574  0.00  0.00     0.012 A 
ENDBRANCH   4  17
TORSDOF 3
