REMARK  7 active torsions:
REMARK  status: ('A' for Active; 'I' for Inactive)
REMARK    1  A    between atoms: C_2  and  N_1 
REMARK    2  A    between atoms: C_3  and  C_2 
REMARK    3  A    between atoms: S_4  and  C_3 
REMARK    4  A    between atoms: C_7  and  C_3 
REMARK    5  A    between atoms: C_10  and  S_4 
REMARK    6  A    between atoms: N_13  and  C_11 
REMARK    7  A    between atoms: O_20  and  C_12 
ROOT
ATOM      1  C   UNL d   1       1.262  -2.325   0.489  0.00  0.00     0.109 C 
ENDROOT
BRANCH   1   2
ATOM      2  C   UNL d   1       0.317  -1.204   0.036  0.00  0.00     0.221 C 
BRANCH   2   3
ATOM      3  N   UNL d   1       1.056   0.077  -0.176  0.00  0.00    -0.154 N 
ATOM      4  O   UNL d   1       0.687   1.056   0.484  0.00  0.00    -0.536 OA
ATOM      5  O   UNL d   1       1.935   0.086  -1.047  0.00  0.00    -0.536 OA
ENDBRANCH   2   3
ENDBRANCH   1   2
BRANCH   1   6
ATOM      6  S   UNL d   1       2.258  -1.847   2.001  0.00  0.00    -0.118 SA
BRANCH   6   7
ATOM      7  C   UNL d   1       1.046  -1.862   3.308  0.00  0.00     0.001 A 
ATOM      8  C   UNL d   1       1.076  -2.879   4.263  0.00  0.00     0.020 A 
ATOM      9  C   UNL d   1       0.165  -2.883   5.325  0.00  0.00     0.024 A 
ATOM     10  C   UNL d   1      -0.805  -1.887   5.433  0.00  0.00     0.005 A 
ATOM     11  C   UNL d   1      -0.770  -0.824   4.530  0.00  0.00     0.024 A 
ATOM     12  C   UNL d   1       0.145  -0.812   3.473  0.00  0.00     0.020 A 
BRANCH  10  13
ATOM     13  N   UNL d   1      -1.628  -1.822   6.562  0.00  0.00    -0.303 NA
ATOM     14  H   UNL d   1      -2.474  -1.278   6.423  0.00  0.00     0.124 HD
ATOM     15  H   UNL d   1      -1.817  -2.726   6.985  0.00  0.00     0.124 HD
ENDBRANCH  10  13
ENDBRANCH   6   7
ENDBRANCH   1   6
BRANCH   1  16
ATOM     16  C   UNL d   1       0.577  -3.701   0.603  0.00  0.00    -0.042 A 
ATOM     17  C   UNL d   1      -0.621  -3.991  -0.077  0.00  0.00     0.011 A 
ATOM     18  C   UNL d   1      -1.242  -5.247   0.015  0.00  0.00     0.037 A 
ATOM     19  C   UNL d   1      -0.679  -6.254   0.790  0.00  0.00     0.068 A 
ATOM     20  C   UNL d   1       0.530  -6.005   1.433  0.00  0.00     0.037 A 
ATOM     21  C   UNL d   1       1.164  -4.761   1.317  0.00  0.00     0.011 A 
BRANCH  19  22
ATOM     22  O   UNL d   1      -1.196  -7.503   0.989  0.00  0.00    -0.356 OA
ATOM     23  C   UNL d   1      -2.409  -7.812   0.311  0.00  0.00     0.210 C 
ENDBRANCH  19  22
ENDBRANCH   1  16
TORSDOF 7
