REMARK  4 active torsions:
REMARK  status: ('A' for Active; 'I' for Inactive)
REMARK    1  A    between atoms: O_14  and  C_5 
REMARK    2  A    between atoms: S_13  and  C_8 
REMARK    3  A    between atoms: C_15  and  S_13 
REMARK    4  A    between atoms: C_17  and  C_15 
ROOT
ATOM      1  N   UNL d   1       0.291   0.701  -0.024  0.00  0.00    -0.061 N 
ATOM      2  C   UNL d   1       0.288  -0.692  -0.060  0.00  0.00     0.708 A 
ATOM      3  N   UNL d   1       1.534  -1.115  -0.101  0.00  0.00    -0.167 N 
ATOM      4  HN  UNL d   1       1.873  -2.076  -0.147  1.00  0.00     0.186 HD
ATOM      5  C   UNL d   1      -0.898   1.433   0.007  0.00  0.00     0.181 A 
ATOM      6  N   UNL d   1       1.560   1.170  -0.025  0.00  0.00    -0.256 N 
ATOM      7  HN  UNL d   1       1.891   2.134   0.002  1.00  0.00     0.190 HD
ATOM      8  C   UNL d   1       2.264   0.037  -0.069  0.00  0.00     0.175 A 
ATOM      9  N   UNL d   1      -0.880  -1.402  -0.053  0.00  0.00    -0.194 N 
ATOM     10  HN  UNL d   1      -0.886  -2.422  -0.076  1.00  0.00     0.184 HD
ATOM     11  C   UNL d   1      -2.069   0.784   0.010  0.00  0.00     0.083 A 
ATOM     12  C   UNL d   1      -1.985  -0.712  -0.016  0.00  0.00     0.027 A 
ATOM     13  C   UNL d   1      -3.291  -1.468   0.004  0.00  0.00     0.069 C 
ENDROOT
BRANCH   8  14
ATOM     14  S   UNL d   1       4.006   0.080  -0.053  0.00  0.00    -0.087 SA
BRANCH  14  15
ATOM     15  C   UNL d   1       4.381  -1.513  -0.832  0.00  0.00     0.121 C 
BRANCH  15  16
ATOM     16  C   UNL d   1       5.872  -1.743  -0.939  0.00  0.00    -0.048 A 
ATOM     17  C   UNL d   1       6.557  -2.452   0.062  0.00  0.00     0.009 A 
ATOM     18  C   UNL d   1       7.935  -2.663  -0.033  0.00  0.00     0.024 A 
ATOM     19  C   UNL d   1       8.640  -2.160  -1.124  0.00  0.00     0.034 A 
ATOM     20  C   UNL d   1       7.979  -1.446  -2.120  0.00  0.00     0.024 A 
ATOM     21 CL   UNL d   1      10.337  -2.423  -1.241  0.00  0.00    -0.084 Cl
ATOM     22  C   UNL d   1       6.600  -1.235  -2.027  0.00  0.00     0.009 A 
ENDBRANCH  15  16
ENDBRANCH  14  15
ENDBRANCH   8  14
BRANCH   5  23
ATOM     23  O   UNL d   1      -0.851   2.817   0.029  0.00  0.00    -0.344 OA
ATOM     24  H   UNL d   1       0.099   3.062   0.021  0.00  0.00     0.219 HD
ENDBRANCH   5  23
TORSDOF 4
