REMARK  7 active torsions:
REMARK  status: ('A' for Active; 'I' for Inactive)
REMARK    1  A    between atoms: O_18  and  C_1 
REMARK    2  A    between atoms: C_3  and  C_8 
REMARK    3  A    between atoms: C_4  and  C_7 
REMARK       I    between atoms: N_11  and  C_4 
REMARK    4  A    between atoms: O_12  and  C_9 
REMARK    5  A    between atoms: O_25  and  C_10 
REMARK    6  A    between atoms: C_17  and  N_11 
REMARK    7  A    between atoms: C_20  and  O_12 
ROOT
ATOM      1  C   UNL d   1      -2.472  -4.124  -0.162  0.00  0.00     0.245 C 
ATOM      2  N   UNL d   1      -1.707  -5.265  -0.088  0.00  0.00    -0.322 N 
ATOM      3  O   UNL d   1      -3.663  -4.069  -0.448  0.00  0.00    -0.268 OA
ATOM      4  H   UNL d   1      -0.775  -5.192   0.298  0.00  0.00     0.169 HD
ENDROOT
BRANCH   2   5
ATOM      5  C   UNL d   1      -2.122  -6.554  -0.498  0.00  0.00     0.050 A 
ATOM      6  C   UNL d   1      -3.302  -6.813  -1.193  0.00  0.00     0.119 A 
ATOM      7  N   UNL d   1      -3.690  -8.038  -1.615  0.00  0.00    -0.344 N 
ATOM      8  C   UNL d   1      -2.885  -9.078  -1.310  0.00  0.00     0.148 A 
ATOM      9  HN  UNL d   1      -4.554  -8.170  -2.140  1.00  0.00     0.167 HD
ATOM     10  C   UNL d   1      -1.678  -8.931  -0.647  0.00  0.00     0.059 A 
ATOM     11  C   UNL d   1      -1.292  -7.650  -0.236  0.00  0.00     0.035 A 
BRANCH   8  12
ATOM     12  O   UNL d   1      -3.253 -10.359  -1.701  0.00  0.00    -0.294 OA
BRANCH  12  13
ATOM     13  C   UNL d   1      -4.603 -10.621  -1.817  0.00  0.00     0.077 A 
ATOM     14  C   UNL d   1      -5.010 -11.405  -2.900  0.00  0.00     0.039 A 
ATOM     15  C   UNL d   1      -6.361 -11.740  -3.048  0.00  0.00     0.026 A 
ATOM     16  C   UNL d   1      -7.293 -11.298  -2.110  0.00  0.00     0.034 A 
ATOM     17  C   UNL d   1      -6.890 -10.529  -1.021  0.00  0.00     0.026 A 
ATOM     18 CL   UNL d   1      -8.954 -11.713  -2.289  0.00  0.00    -0.084 Cl
ATOM     19  C   UNL d   1      -5.541 -10.203  -0.866  0.00  0.00     0.039 A 
ENDBRANCH  12  13
ENDBRANCH   8  12
ENDBRANCH   2   5
BRANCH   1  20
ATOM     20  C   UNL d   1      -1.712  -2.874   0.125  0.00  0.00     0.075 C 
ATOM     21  C   UNL d   1      -2.360  -1.694   0.082  0.00  0.00     0.018 C 
BRANCH  21  22
ATOM     22  C   UNL d   1      -1.724  -0.366   0.230  0.00  0.00    -0.011 A 
ATOM     23  C   UNL d   1      -2.336   0.710   0.928  0.00  0.00     0.080 A 
ATOM     24  C   UNL d   1      -1.722   1.991   0.982  0.00  0.00     0.124 A 
ATOM     25 CL   UNL d   1      -3.806   0.377   1.804  0.00  0.00    -0.080 Cl
ATOM     26  C   UNL d   1      -0.484   2.176   0.336  0.00  0.00     0.103 A 
ATOM     27  C   UNL d   1       0.109   1.106  -0.346  0.00  0.00     0.040 A 
ATOM     28  C   UNL d   1      -0.501  -0.142  -0.408  0.00  0.00     0.016 A 
BRANCH  24  29
ATOM     29  O   UNL d   1      -2.180   3.026   1.762  0.00  0.00    -0.351 OA
ATOM     30  C   UNL d   1      -3.544   3.412   1.618  0.00  0.00     0.210 C 
ENDBRANCH  24  29
BRANCH  26  31
ATOM     31  O   UNL d   1       0.304   3.296   0.269  0.00  0.00    -0.353 OA
ATOM     32  C   UNL d   1      -0.188   4.534   0.753  0.00  0.00     0.210 C 
ENDBRANCH  26  31
ENDBRANCH  21  22
ENDBRANCH   1  20
TORSDOF 7
