REMARK  7 active torsions:
REMARK  status: ('A' for Active; 'I' for Inactive)
REMARK    1  A    between atoms: N_2  and  C_1 
REMARK    2  A    between atoms: C_3  and  C_1 
REMARK    3  A    between atoms: C_5  and  C_1 
REMARK    4  A    between atoms: O_8  and  C_1 
REMARK       I    between atoms: C_4  and  N_2 
REMARK    5  A    between atoms: C_7  and  C_4 
REMARK    6  A    between atoms: O_13  and  C_5 
REMARK    7  A    between atoms: C_17  and  O_13 
ROOT
ATOM      1  C   UNL d   1       1.048   0.012  -0.045  0.00  0.00     0.326 C 
ENDROOT
BRANCH   1   2
ATOM      2  N   UNL d   1       0.530   1.043  -0.975  0.00  0.00    -0.309 N 
ATOM      3  C   UNL d   1       0.690   0.893  -2.334  0.00  0.00     0.254 C 
ATOM      4  O   UNL d   1       1.278  -0.056  -2.838  0.00  0.00    -0.268 OA
ATOM      5  H   UNL d   1      -0.230   1.622  -0.639  0.00  0.00     0.166 HD
BRANCH   3   6
ATOM      6  C   UNL d   1       0.087   1.941  -3.204  0.00  0.00     0.032 A 
ATOM      7  C   UNL d   1      -0.048   3.267  -2.773  0.00  0.00     0.017 A 
ATOM      8  C   UNL d   1      -0.566   4.232  -3.640  0.00  0.00     0.001 A 
ATOM      9  C   UNL d   1      -0.949   3.880  -4.934  0.00  0.00     0.000 A 
ATOM     10  C   UNL d   1      -0.812   2.561  -5.370  0.00  0.00     0.001 A 
ATOM     11  C   UNL d   1      -0.291   1.595  -4.508  0.00  0.00     0.017 A 
ENDBRANCH   3   6
ENDBRANCH   1   2
BRANCH   1  12
ATOM     12  C   UNL d   1       0.453  -1.427  -0.289  0.00  0.00     0.448 C 
ATOM     13  F   UNL d   1      -0.545  -1.413  -1.215  0.00  0.00    -0.166 F 
ATOM     14  F   UNL d   1       1.377  -2.322  -0.709  0.00  0.00    -0.166 F 
ATOM     15  F   UNL d   1      -0.114  -1.964   0.826  0.00  0.00    -0.166 F 
ENDBRANCH   1  12
BRANCH   1  16
ATOM     16  C   UNL d   1       0.597   0.304   1.406  0.00  0.00     0.325 C 
ATOM     17  O   UNL d   1       1.235   0.014   2.412  0.00  0.00    -0.259 OA
BRANCH  16  18
ATOM     18  O   UNL d   1      -0.646   0.882   1.435  0.00  0.00    -0.318 OA
BRANCH  18  19
ATOM     19  C   UNL d   1      -1.201   1.056   2.751  0.00  0.00     0.174 C 
ATOM     20  C   UNL d   1      -1.743  -0.258   3.288  0.00  0.00     0.034 C 
ENDBRANCH  18  19
ENDBRANCH  16  18
ENDBRANCH   1  16
BRANCH   1  21
ATOM     21  O   UNL d   1       2.488  -0.005  -0.128  0.00  0.00    -0.350 OA
ATOM     22  C   UNL d   1       3.138   1.223   0.161  0.00  0.00     0.206 C 
ENDBRANCH   1  21
TORSDOF 7
