REMARK  8 active torsions:
REMARK  status: ('A' for Active; 'I' for Inactive)
REMARK    1  A    between atoms: C_7  and  C_1 
REMARK    2  A    between atoms: C_2  and  C_8 
REMARK    3  A    between atoms: C_3  and  C_5 
REMARK    4  A    between atoms: C_4  and  C_6 
REMARK    5  A    between atoms: N_11  and  C_15 
REMARK    6  A    between atoms: C_16  and  N_13 
REMARK    7  A    between atoms: C_36  and  C_21 
REMARK    8  A    between atoms: C_22  and  C_35 
ROOT
ATOM      1  C   UNL d   1      -5.906  -5.453   4.344  0.00  0.00    -0.021 A 
ATOM      2  C   UNL d   1      -3.659  -4.733   2.861  0.00  0.00    -0.021 A 
ATOM      3  C   UNL d   1      -3.571  -5.766   3.801  0.00  0.00     0.013 A 
ATOM      4  C   UNL d   1      -4.697  -6.128   4.543  0.00  0.00     0.013 A 
ATOM      5  C   UNL d   1      -4.869  -4.062   2.659  0.00  0.00     0.013 A 
ATOM      6  C   UNL d   1      -5.995  -4.421   3.405  0.00  0.00     0.013 A 
ENDROOT
BRANCH   1   7
ATOM      7  C   UNL d   1      -7.074  -5.851   5.152  0.00  0.00     0.099 C 
ATOM      8  N   UNL d   1      -8.166  -5.154   5.178  0.00  0.00    -0.365 N 
ATOM      9  HN  UNL d   1      -8.260  -4.309   4.613  1.00  0.00     0.165 HD
BRANCH   8  10
ATOM     10  C   UNL d   1      -9.217  -5.588   6.002  0.00  0.00     0.033 A 
ATOM     11  C   UNL d   1      -9.017  -6.042   7.309  0.00  0.00     0.045 A 
ATOM     12  C   UNL d   1     -10.092  -6.467   8.110  0.00  0.00     0.050 A 
ATOM     13  C   UNL d   1     -11.393  -6.387   7.591  0.00  0.00     0.032 A 
ATOM     14  C   UNL d   1     -11.623  -5.899   6.296  0.00  0.00     0.050 A 
ATOM     15  C   UNL d   1     -10.523  -5.507   5.513  0.00  0.00     0.045 A 
BRANCH  12  16
ATOM     16  C   UNL d   1      -9.815  -7.011   9.487  0.00  0.00     0.417 C 
ATOM     17  F   UNL d   1     -10.940  -7.349  10.176  0.00  0.00    -0.166 F 
ATOM     18  F   UNL d   1      -9.047  -8.135   9.450  0.00  0.00    -0.166 F 
ATOM     19  F   UNL d   1      -9.144  -6.126  10.274  0.00  0.00    -0.166 F 
ENDBRANCH  12  16
BRANCH  14  20
ATOM     20  C   UNL d   1     -13.020  -5.785   5.736  0.00  0.00     0.417 C 
ATOM     21  F   UNL d   1     -13.983  -6.216   6.597  0.00  0.00    -0.166 F 
ATOM     22  F   UNL d   1     -13.352  -4.506   5.416  0.00  0.00    -0.166 F 
ATOM     23  F   UNL d   1     -13.186  -6.515   4.598  0.00  0.00    -0.166 F 
ENDBRANCH  14  20
ENDBRANCH   8  10
ENDBRANCH   1   7
BRANCH   2  24
ATOM     24  C   UNL d   1      -2.482  -4.345   2.059  0.00  0.00     0.099 C 
ATOM     25  N   UNL d   1      -1.371  -5.007   2.117  0.00  0.00    -0.365 N 
ATOM     26  HN  UNL d   1      -1.275  -5.798   2.753  1.00  0.00     0.165 HD
BRANCH  25  27
ATOM     27  C   UNL d   1      -0.300  -4.624   1.296  0.00  0.00     0.033 A 
ATOM     28  C   UNL d   1       0.992  -4.674   1.824  0.00  0.00     0.045 A 
ATOM     29  C   UNL d   1       2.118  -4.380   1.036  0.00  0.00     0.050 A 
ATOM     30  C   UNL d   1       1.929  -4.019  -0.308  0.00  0.00     0.032 A 
ATOM     31  C   UNL d   1       0.642  -3.973  -0.864  0.00  0.00     0.050 A 
ATOM     32  C   UNL d   1      -0.460  -4.291  -0.053  0.00  0.00     0.045 A 
BRANCH  29  33
ATOM     33  C   UNL d   1       3.500  -4.479   1.635  0.00  0.00     0.417 C 
ATOM     34  F   UNL d   1       4.494  -4.174   0.754  0.00  0.00    -0.166 F 
ATOM     35  F   UNL d   1       3.781  -5.729   2.094  0.00  0.00    -0.166 F 
ATOM     36  F   UNL d   1       3.672  -3.641   2.694  0.00  0.00    -0.166 F 
ENDBRANCH  29  33
BRANCH  31  37
ATOM     37  C   UNL d   1       0.414  -3.601  -2.308  0.00  0.00     0.417 C 
ATOM     38  F   UNL d   1       1.563  -3.383  -3.003  0.00  0.00    -0.166 F 
ATOM     39  F   UNL d   1      -0.263  -4.564  -2.992  0.00  0.00    -0.166 F 
ATOM     40  F   UNL d   1      -0.324  -2.464  -2.435  0.00  0.00    -0.166 F 
ENDBRANCH  31  37
ENDBRANCH  25  27
ENDBRANCH   2  24
TORSDOF 8
