REMARK  7 active torsions:
REMARK  status: ('A' for Active; 'I' for Inactive)
REMARK    1  A    between atoms: C_3  and  C_1 
REMARK       I    between atoms: N_10  and  C_1 
REMARK    2  A    between atoms: C_5  and  N_2 
REMARK    3  A    between atoms: C_12  and  C_5 
REMARK    4  A    between atoms: O_11  and  C_15 
REMARK    5  A    between atoms: C_13  and  O_11 
REMARK    6  A    between atoms: C_15  and  C_12 
REMARK    7  A    between atoms: O_21  and  C_12 
ROOT
ATOM      1  C   UNL d   1       0.293   5.404   0.915  0.00  0.00     0.306 C 
ENDROOT
BRANCH   1   2
ATOM      2  N   UNL d   1      -0.105   4.111   0.323  0.00  0.00     0.091 N 
ATOM      3  C   UNL d   1       0.686   3.887  -0.903  0.00  0.00     0.273 C 
ATOM      4  C   UNL d   1       0.406   2.504  -1.484  0.00  0.00     0.044 C 
ATOM      5  C   UNL d   1      -1.079   2.274  -1.771  0.00  0.00     0.081 C 
ATOM      6  C   UNL d   1      -1.948   2.721  -0.590  0.00  0.00     0.044 C 
ATOM      7  C   UNL d   1      -1.538   4.084  -0.016  0.00  0.00     0.273 C 
BRANCH   5   8
ATOM      8  C   UNL d   1      -1.514   2.931  -3.075  0.00  0.00     0.219 C 
ATOM      9  O   UNL d   1      -0.852   3.756  -3.696  0.00  0.00    -0.273 OA
ATOM     10  N   UNL d   1      -2.729   2.527  -3.547  0.00  0.00    -0.370 N 
ATOM     11  H   UNL d   1      -3.198   1.704  -3.192  0.00  0.00     0.159 HD
ATOM     12  H   UNL d   1      -3.000   2.870  -4.460  0.00  0.00     0.159 HD
ENDBRANCH   5   8
ENDBRANCH   1   2
BRANCH   1  13
ATOM     13  C   UNL d   1      -0.273   5.742   2.312  0.00  0.00     0.170 C 
BRANCH  13  14
ATOM     14  C   UNL d   1       0.063   4.677   3.373  0.00  0.00     0.209 C 
BRANCH  14  15
ATOM     15  O   UNL d   1      -0.496   5.109   4.622  0.00  0.00    -0.349 OA
BRANCH  15  16
ATOM     16  C   UNL d   1      -0.443   4.244   5.679  0.00  0.00     0.069 A 
ATOM     17  C   UNL d   1       0.252   3.034   5.716  0.00  0.00     0.040 A 
ATOM     18  C   UNL d   1       0.210   2.240   6.869  0.00  0.00     0.045 A 
ATOM     19  C   UNL d   1      -0.523   2.659   7.973  0.00  0.00     0.116 A 
ATOM     20  C   UNL d   1      -1.210   3.866   7.956  0.00  0.00     0.045 A 
ATOM     21  F   UNL d   1      -0.566   1.889   9.069  0.00  0.00    -0.206 F 
ATOM     22  C   UNL d   1      -1.166   4.659   6.806  0.00  0.00     0.040 A 
ENDBRANCH  15  16
ENDBRANCH  14  15
ENDBRANCH  13  14
BRANCH  13  23
ATOM     23  O   UNL d   1       0.264   7.025   2.691  0.00  0.00    -0.392 OA
ATOM     24  H   UNL d   1       1.046   6.872   3.248  0.00  0.00     0.210 HD
ENDBRANCH  13  23
ENDBRANCH   1  13
TORSDOF 7
