REMARK  3 active torsions:
REMARK  status: ('A' for Active; 'I' for Inactive)
REMARK    1  A    between atoms: N_2  and  S_1 
REMARK    2  A    between atoms: C_3  and  S_1 
REMARK    3  A    between atoms: C_10  and  N_2 
ROOT
ATOM      1  N   UNL d   1       0.557   1.665   0.376  0.00  0.00    -0.281 N 
ATOM      2  H   UNL d   1      -0.368   1.808  -0.024  0.00  0.00     0.179 HD
ENDROOT
BRANCH   1   3
ATOM      3  S   UNL d   1       1.125   0.101   0.072  0.00  0.00     0.263 S 
ATOM      4  O   UNL d   1       2.548   0.044   0.342  0.00  0.00    -0.200 OA
ATOM      5  O   UNL d   1       0.594  -0.272  -1.222  0.00  0.00    -0.200 OA
BRANCH   3   6
ATOM      6  C   UNL d   1       0.290  -0.895   1.290  0.00  0.00     0.079 A 
ATOM      7  C   UNL d   1      -0.960  -1.450   0.994  0.00  0.00     0.026 A 
ATOM      8  C   UNL d   1      -1.593  -2.264   1.936  0.00  0.00     0.008 A 
ATOM      9  C   UNL d   1      -0.982  -2.535   3.168  0.00  0.00    -0.062 A 
ATOM     10  C   UNL d   1       0.271  -1.974   3.449  0.00  0.00     0.008 A 
ATOM     11  C   UNL d   1      -1.658  -3.437   4.159  0.00  0.00     0.048 C 
ATOM     12  C   UNL d   1       0.912  -1.163   2.511  0.00  0.00     0.026 A 
ENDBRANCH   3   6
ENDBRANCH   1   3
BRANCH   1  13
ATOM     13  C   UNL d   1       0.798   2.241   1.654  0.00  0.00     0.043 A 
ATOM     14  C   UNL d   1      -0.170   2.120   2.655  0.00  0.00     0.043 A 
ATOM     15  C   UNL d   1       0.101   2.642   3.933  0.00  0.00    -0.006 A 
ATOM     16  C   UNL d   1      -0.619   2.668   5.159  0.00  0.00     0.030 A 
ATOM     17  C   UNL d   1       1.318   3.287   4.155  0.00  0.00     0.042 A 
ATOM     18  C   UNL d   1       0.154   3.331   6.084  0.00  0.00     0.089 A 
ATOM     19  N   UNL d   1       1.318   3.708   5.467  0.00  0.00    -0.365 N 
ATOM     20  H   UNL d   1       2.075   4.212   5.908  0.00  0.00     0.165 HD
ATOM     21  C   UNL d   1       2.294   3.424   3.160  0.00  0.00     0.033 A 
ATOM     22  C   UNL d   1       2.017   2.870   1.905  0.00  0.00     0.032 A 
ENDBRANCH   1  13
TORSDOF 3
