REMARK  1 active torsions:
REMARK  status: ('A' for Active; 'I' for Inactive)
REMARK    1  A    between atoms: C_16  and  C_14 
ROOT
ATOM      1  C   UNL d   1      -1.029  -0.907   0.009  0.00  0.00     0.134 A 
ATOM      2  C   UNL d   1      -0.453   0.326   0.022  0.00  0.00     0.113 A 
ATOM      3  C   UNL d   1       1.800  -0.675   0.001  0.00  0.00     0.138 A 
ATOM      4  N   UNL d   1      -2.439  -0.956   0.077  0.00  0.00    -0.288 N 
ATOM      5  C   UNL d   1       0.966   0.412   0.005  0.00  0.00     0.129 A 
ATOM      6  N   UNL d   1      -0.180  -2.070  -0.071  0.00  0.00    -0.302 N 
ATOM      7  N   UNL d   1      -2.620   1.409  -0.007  0.00  0.00    -0.270 N 
ATOM      8  C   UNL d   1      -3.254   0.187  -0.019  0.00  0.00     0.332 C 
ATOM      9  C   UNL d   1      -1.257   1.568   0.067  0.00  0.00     0.268 C 
ATOM     10  C   UNL d   1       1.252  -2.006  -0.010  0.00  0.00     0.278 A 
ATOM     11  N   UNL d   1       3.118  -0.301  -0.028  0.00  0.00    -0.329 N 
ATOM     12  HN  UNL d   1       3.944  -0.899  -0.038  1.00  0.00     0.168 HD
ATOM     13  O   UNL d   1       1.784   1.519  -0.016  0.00  0.00    -0.289 OA
ATOM     14  C   UNL d   1       3.062   1.015  -0.040  0.00  0.00     0.159 A 
ATOM     15  O   UNL d   1      -4.481   0.102  -0.094  0.00  0.00    -0.246 OA
ATOM     16  O   UNL d   1      -0.727   2.674   0.155  0.00  0.00    -0.267 OA
ATOM     17  O   UNL d   1       1.972  -3.002   0.014  0.00  0.00    -0.265 OA
ATOM     18  C   UNL d   1      -3.222  -2.168   0.254  0.00  0.00     0.163 C 
ATOM     19  C   UNL d   1      -3.426   2.621  -0.010  0.00  0.00     0.164 C 
ATOM     20  C   UNL d   1      -0.637  -3.437  -0.242  0.00  0.00     0.161 C 
ENDROOT
BRANCH  14  21
ATOM     21  C   UNL d   1       4.167   1.967  -0.115  0.00  0.00     0.015 A 
ATOM     22  C   UNL d   1       3.986   3.350   0.020  0.00  0.00     0.016 A 
ATOM     23  C   UNL d   1       5.074   4.226  -0.086  0.00  0.00     0.007 A 
ATOM     24  C   UNL d   1       6.364   3.739  -0.333  0.00  0.00    -0.062 A 
ATOM     25  C   UNL d   1       6.554   2.360  -0.452  0.00  0.00     0.007 A 
ATOM     26  C   UNL d   1       7.517   4.689  -0.472  0.00  0.00     0.048 C 
ATOM     27  C   UNL d   1       5.468   1.487  -0.341  0.00  0.00     0.016 A 
ENDBRANCH  14  21
TORSDOF 1
