REMARK  2 active torsions:
REMARK  status: ('A' for Active; 'I' for Inactive)
REMARK    1  A    between atoms: N_11  and  C_3 
REMARK    2  A    between atoms: C_13  and  N_11 
ROOT
ATOM      1  C   UNL d   1       0.761  -0.656  -0.171  0.00  0.00     0.049 A 
ATOM      2  C   UNL d   1       1.223   0.655  -0.222  0.00  0.00     0.089 A 
ATOM      3  C   UNL d   1       1.762  -1.649  -0.010  0.00  0.00     0.116 A 
ATOM      4  S   UNL d   1      -0.015   1.804  -0.426  0.00  0.00    -0.075 SA
ATOM      5  C   UNL d   1      -0.690  -0.674  -0.253  0.00  0.00    -0.028 A 
ATOM      6  C   UNL d   1      -1.211   0.602  -0.385  0.00  0.00    -0.008 A 
ATOM      7  N   UNL d   1       2.495   1.072  -0.126  0.00  0.00    -0.346 N 
ATOM      8  HN  UNL d   1       2.781   2.049  -0.189  1.00  0.00     0.167 HD
ATOM      9  N   UNL d   1       3.037  -1.242   0.125  0.00  0.00    -0.338 N 
ATOM     10  HN  UNL d   1       3.777  -1.928   0.275  1.00  0.00     0.168 HD
ATOM     11  C   UNL d   1       3.338   0.061   0.062  0.00  0.00     0.182 A 
ATOM     12  C   UNL d   1      -1.598  -1.868  -0.130  0.00  0.00     0.041 C 
ATOM     13  C   UNL d   1      -2.663   0.952  -0.493  0.00  0.00     0.047 C 
ATOM     14  C   UNL d   1      -3.043  -1.552  -0.555  0.00  0.00     0.005 C 
ATOM     15  C   UNL d   1      -3.531  -0.210   0.003  0.00  0.00     0.005 C 
ENDROOT
BRANCH   3  16
ATOM     16  N   UNL d   1       1.472  -3.002  -0.001  0.00  0.00    -0.371 N 
ATOM     17  H   UNL d   1       0.798  -3.240  -0.718  0.00  0.00     0.161 HD
BRANCH  16  18
ATOM     18  C   UNL d   1       2.427  -4.074   0.302  0.00  0.00     0.083 C 
ATOM     19  C   UNL d   1       2.800  -4.131   1.788  0.00  0.00     0.025 C 
ATOM     20  C   UNL d   1       4.098  -3.424   2.156  0.00  0.00     0.002 C 
ATOM     21  C   UNL d   1       5.245  -3.836   1.245  0.00  0.00     0.000 C 
ATOM     22  C   UNL d   1       4.936  -3.608  -0.229  0.00  0.00     0.002 C 
ATOM     23  C   UNL d   1       3.603  -4.213  -0.674  0.00  0.00     0.025 C 
ENDBRANCH  16  18
ENDBRANCH   3  16
TORSDOF 2
