REMARK  2 active torsions:
REMARK  status: ('A' for Active; 'I' for Inactive)
REMARK    1  A    between atoms: C_2  and  N_1 
REMARK    2  A    between atoms: C_9  and  C_3 
ROOT
ATOM      1  C   UNL d   1      -3.365   0.932   1.605  0.00  0.00     0.105 A 
ATOM      2  C   UNL d   1      -3.026   2.240   1.349  0.00  0.00     0.105 A 
ATOM      3  O   UNL d   1      -4.326   0.825   2.562  0.00  0.00    -0.323 OA
ATOM      4  C   UNL d   1      -1.766   0.182   0.012  0.00  0.00    -0.031 A 
ATOM      5  O   UNL d   1      -3.724   3.118   2.117  0.00  0.00    -0.323 OA
ATOM      6  C   UNL d   1      -4.525   2.213   2.905  0.00  0.00     0.352 A 
ATOM      7  C   UNL d   1      -2.759  -0.120   0.952  0.00  0.00     0.051 A 
ATOM      8  C   UNL d   1      -2.070   2.572   0.414  0.00  0.00     0.040 A 
ATOM      9  C   UNL d   1      -1.433   1.527  -0.262  0.00  0.00     0.014 A 
ENDROOT
BRANCH   4  10
ATOM     10  C   UNL d   1      -1.030  -0.894  -0.653  0.00  0.00     0.042 C 
ATOM     11  C   UNL d   1       0.106  -1.404  -0.142  0.00  0.00     0.077 C 
ATOM     12  C   UNL d   1       0.784  -1.043   1.140  0.00  0.00     0.075 C 
BRANCH  11  13
ATOM     13  N   UNL d   1       0.777  -2.432  -0.932  0.00  0.00    -0.120 N 
ATOM     14  O   UNL d   1       0.081  -3.151  -1.665  0.00  0.00    -0.532 OA
ATOM     15  O   UNL d   1       2.006  -2.519  -0.821  0.00  0.00    -0.532 OA
ENDBRANCH  11  13
ENDBRANCH   4  10
TORSDOF 2
