REMARK  4 active torsions:
REMARK  status: ('A' for Active; 'I' for Inactive)
REMARK    1  A    between atoms: C_3  and  C_1 
REMARK       I    between atoms: N_2  and  C_3 
REMARK    2  A    between atoms: C_9  and  C_6 
REMARK    3  A    between atoms: C_11  and  C_7 
REMARK    4  A    between atoms: O_17  and  C_9 
ROOT
ATOM      1  C   UNL d   1      -0.388  -1.331   0.168  0.00  0.00     0.064 A 
ATOM      2  C   UNL d   1      -1.647  -0.696   0.362  0.00  0.00     0.057 A 
ATOM      3  C   UNL d   1       0.517  -0.291   0.014  0.00  0.00     0.065 A 
ATOM      4  C   UNL d   1      -1.461   0.661   0.215  0.00  0.00     0.087 A 
ATOM      5  O   UNL d   1      -0.136   0.910   0.006  0.00  0.00    -0.314 OA
ATOM      6  C   UNL d   1       1.986  -0.217  -0.139  0.00  0.00     0.077 C 
ENDROOT
BRANCH   1   7
ATOM      7  C   UNL d   1      -0.067  -2.749   0.226  0.00  0.00     0.257 C 
ATOM      8  N   UNL d   1      -0.920  -3.635  -0.416  0.00  0.00    -0.324 N 
ATOM      9  C   UNL d   1      -0.751  -5.058  -0.169  0.00  0.00     0.249 C 
ATOM     10  C   UNL d   1      -2.050  -3.306  -1.284  0.00  0.00     0.138 C 
ATOM     11  S   UNL d   1      -1.407  -5.869  -1.659  0.00  0.00    -0.132 SA
ATOM     12  C   UNL d   1      -2.596  -4.551  -1.976  0.00  0.00     0.096 C 
ATOM     13  O   UNL d   1       0.927  -3.146   0.830  0.00  0.00    -0.267 OA
BRANCH   9  14
ATOM     14  C   UNL d   1      -1.598  -5.469   1.053  0.00  0.00     0.291 C 
ATOM     15  O   UNL d   1      -2.587  -4.861   1.455  0.00  0.00    -0.262 OA
BRANCH  14  16
ATOM     16  O   UNL d   1      -1.147  -6.644   1.581  0.00  0.00    -0.324 OA
ATOM     17  C   UNL d   1      -1.945  -7.136   2.657  0.00  0.00     0.213 C 
ENDBRANCH  14  16
ENDBRANCH   9  14
ENDBRANCH   1   7
BRANCH   4  18
ATOM     18  C   UNL d   1      -2.367   1.804   0.264  0.00  0.00    -0.002 A 
ATOM     19  C   UNL d   1      -3.754   1.592   0.357  0.00  0.00     0.016 A 
ATOM     20  C   UNL d   1      -4.645   2.666   0.432  0.00  0.00     0.024 A 
ATOM     21  C   UNL d   1      -4.156   3.967   0.412  0.00  0.00     0.034 A 
ATOM     22  C   UNL d   1      -2.787   4.201   0.307  0.00  0.00     0.024 A 
ATOM     23 CL   UNL d   1      -5.250   5.290   0.520  0.00  0.00    -0.084 Cl
ATOM     24  C   UNL d   1      -1.896   3.124   0.231  0.00  0.00     0.016 A 
ENDBRANCH   4  18
TORSDOF 4
