REMARK  5 active torsions:
REMARK  status: ('A' for Active; 'I' for Inactive)
REMARK    1  A    between atoms: N_3  and  C_1 
REMARK    2  A    between atoms: N_5  and  C_1 
REMARK       I    between atoms: C_2  and  N_4 
REMARK    3  A    between atoms: O_7  and  C_2 
REMARK    4  A    between atoms: C_6  and  N_5 
REMARK    5  A    between atoms: C_14  and  O_7 
ROOT
ATOM      1  C   UNL d   1      -2.526   2.105  -3.642  0.00  0.00     0.363 C 
ATOM      2  N   UNL d   1       0.283   0.894  -0.797  0.00  0.00    -0.356 N 
ATOM      3  N   UNL d   1      -2.023   1.237  -2.684  0.00  0.00    -0.326 N 
ATOM      4  O   UNL d   1      -2.599   1.827  -4.829  0.00  0.00    -0.238 OA
ATOM      5  C   UNL d   1      -0.849   1.790  -0.523  0.00  0.00     0.145 C 
ATOM      6  C   UNL d   1      -2.156   1.452  -1.240  0.00  0.00     0.148 C 
ATOM      7  C   UNL d   1       0.061  -0.128  -3.061  0.00  0.00     0.040 C 
ATOM      8  C   UNL d   1       0.785   0.879  -2.171  0.00  0.00     0.127 C 
ATOM      9  C   UNL d   1      -1.466  -0.044  -3.094  0.00  0.00     0.129 C 
ENDROOT
BRANCH   2  10
ATOM     10  C   UNL d   1       0.829   0.076   0.178  0.00  0.00     0.174 C 
ATOM     11  S   UNL d   1      -0.068  -1.006   1.086  0.00  0.00    -0.041 SA
BRANCH  10  12
ATOM     12  N   UNL d   1       2.196   0.070   0.296  0.00  0.00    -0.331 N 
ATOM     13  H   UNL d   1       2.600  -0.770   0.691  0.00  0.00     0.168 HD
BRANCH  12  14
ATOM     14  C   UNL d   1       3.058   1.181   0.128  0.00  0.00     0.073 A 
ATOM     15  C   UNL d   1       2.642   2.513   0.296  0.00  0.00     0.145 A 
ATOM     16  C   UNL d   1       3.494   3.578   0.034  0.00  0.00     0.086 A 
ATOM     17  F   UNL d   1       1.432   2.803   0.794  0.00  0.00    -0.204 F 
ATOM     18  C   UNL d   1       4.789   3.310  -0.379  0.00  0.00     0.119 A 
ATOM     19  C   UNL d   1       5.249   2.001  -0.492  0.00  0.00     0.044 A 
ATOM     20  F   UNL d   1       5.614   4.328  -0.660  0.00  0.00    -0.206 F 
ATOM     21  C   UNL d   1       4.391   0.932  -0.219  0.00  0.00     0.036 A 
ENDBRANCH  12  14
ENDBRANCH  10  12
ENDBRANCH   2  10
BRANCH   1  22
ATOM     22  O   UNL d   1      -2.940   3.285  -3.111  0.00  0.00    -0.294 OA
BRANCH  22  23
ATOM     23  C   UNL d   1      -3.744   4.220  -3.883  0.00  0.00     0.061 C 
ATOM     24  C   UNL d   1      -5.130   3.616  -4.133  0.00  0.00     0.046 C 
ATOM     25  C   UNL d   1      -3.891   5.453  -2.977  0.00  0.00     0.046 C 
ATOM     26  C   UNL d   1      -3.082   4.670  -5.193  0.00  0.00     0.046 C 
ENDBRANCH  22  23
ENDBRANCH   1  22
TORSDOF 5
