REMARK  5 active torsions:
REMARK  status: ('A' for Active; 'I' for Inactive)
REMARK    1  A    between atoms: C_2  and  S_1 
REMARK    2  A    between atoms: C_8  and  S_1 
REMARK    3  A    between atoms: O_11  and  N_3 
REMARK    4  A    between atoms: C_5  and  O_11 
REMARK       I    between atoms: N_12  and  C_5 
REMARK    5  A    between atoms: C_20  and  N_12 
ROOT
ATOM      1  C   UNL d   1       0.210  -1.654  -0.455  0.00  0.00     0.234 C 
ATOM      2  N   UNL d   1      -0.683  -2.236   0.316  0.00  0.00    -0.235 N 
ATOM      3  HN  UNL d   1      -1.175  -3.099   0.085  1.00  0.00     0.196 HD
ATOM      4  C   UNL d   1       0.838  -0.424  -0.045  0.00  0.00     0.132 C 
ATOM      5  N   UNL d   1       1.375   0.562   0.254  0.00  0.00    -0.189 NA
ENDROOT
BRANCH   1   6
ATOM      6  S   UNL d   1       0.671  -2.288  -2.029  0.00  0.00     0.234 S 
ATOM      7  O   UNL d   1      -0.145  -1.583  -3.002  0.00  0.00    -0.215 OA
ATOM      8  O   UNL d   1       0.648  -3.736  -1.940  0.00  0.00    -0.215 OA
BRANCH   6   9
ATOM      9  C   UNL d   1       2.368  -1.808  -2.317  0.00  0.00     0.066 A 
ATOM     10  C   UNL d   1       3.405  -2.646  -1.886  0.00  0.00     0.025 A 
ATOM     11  C   UNL d   1       4.735  -2.274  -2.115  0.00  0.00     0.025 A 
ATOM     12  C   UNL d   1       5.021  -1.082  -2.780  0.00  0.00     0.034 A 
ATOM     13  C   UNL d   1       3.988  -0.268  -3.246  0.00  0.00     0.025 A 
ATOM     14 CL   UNL d   1       6.658  -0.615  -3.031  0.00  0.00    -0.084 Cl
ATOM     15  C   UNL d   1       2.656  -0.635  -3.026  0.00  0.00     0.025 A 
ENDBRANCH   6   9
ENDBRANCH   1   6
BRANCH   2  16
ATOM     16  O   UNL d   1      -0.869  -1.500   1.510  0.00  0.00    -0.179 OA
BRANCH  16  17
ATOM     17  C   UNL d   1      -1.806  -2.028   2.389  0.00  0.00     0.383 C 
ATOM     18  N   UNL d   1      -2.445  -3.164   1.963  0.00  0.00    -0.331 N 
ATOM     19  H   UNL d   1      -2.177  -3.489   1.046  0.00  0.00     0.165 HD
ATOM     20  O   UNL d   1      -2.010  -1.488   3.472  0.00  0.00    -0.236 OA
BRANCH  18  21
ATOM     21  C   UNL d   1      -3.445  -3.891   2.743  0.00  0.00     0.078 C 
ATOM     22  C   UNL d   1      -2.880  -4.423   4.062  0.00  0.00     0.032 C 
ATOM     23  C   UNL d   1      -4.719  -3.080   2.997  0.00  0.00     0.032 C 
ENDBRANCH  18  21
ENDBRANCH  16  17
ENDBRANCH   2  16
TORSDOF 5
