REMARK  5 active torsions:
REMARK  status: ('A' for Active; 'I' for Inactive)
REMARK    1  A    between atoms: C_3  and  C_1 
REMARK    2  A    between atoms: N_6  and  C_2 
REMARK    3  A    between atoms: O_10  and  C_3 
REMARK    4  A    between atoms: C_9  and  N_6 
REMARK    5  A    between atoms: C_11  and  C_9 
ROOT
ATOM      1  C   UNL d   1       0.139   1.258   0.491  0.00  0.00     0.106 A 
ATOM      2  C   UNL d   1       1.362   0.865  -0.042  0.00  0.00     0.052 A 
ATOM      3  S   UNL d   1      -1.094   0.103   0.121  0.00  0.00    -0.094 SA
ATOM      4  C   UNL d   1       1.276  -0.421  -0.664  0.00  0.00     0.038 A 
ATOM      5  C   UNL d   1       0.004  -0.942  -0.650  0.00  0.00     0.053 A 
ENDROOT
BRANCH   2   6
ATOM      6  N   UNL d   1       2.561   1.515  -0.048  0.00  0.00    -0.384 N 
ATOM      7  H   UNL d   1       3.404   1.032  -0.347  0.00  0.00     0.160 HD
BRANCH   6   8
ATOM      8  C   UNL d   1       2.718   2.955   0.033  0.00  0.00     0.158 C 
BRANCH   8   9
ATOM      9  C   UNL d   1       3.902   3.444  -0.773  0.00  0.00    -0.041 A 
ATOM     10  C   UNL d   1       3.998   3.197  -2.151  0.00  0.00     0.009 A 
ATOM     11  C   UNL d   1       5.037   3.755  -2.900  0.00  0.00     0.001 A 
ATOM     12  C   UNL d   1       5.987   4.568  -2.284  0.00  0.00     0.000 A 
ATOM     13  C   UNL d   1       5.912   4.810  -0.915  0.00  0.00     0.001 A 
ATOM     14  C   UNL d   1       4.877   4.250  -0.163  0.00  0.00     0.009 A 
ENDBRANCH   8   9
ENDBRANCH   6   8
ENDBRANCH   2   6
BRANCH   1  15
ATOM     15  C   UNL d   1      -0.288   2.397   1.284  0.00  0.00     0.302 C 
ATOM     16  O   UNL d   1      -1.405   2.902   1.283  0.00  0.00    -0.259 OA
BRANCH  15  17
ATOM     17  O   UNL d   1       0.724   2.824   2.096  0.00  0.00    -0.322 OA
ATOM     18  C   UNL d   1       0.393   3.946   2.914  0.00  0.00     0.213 C 
ENDBRANCH  15  17
ENDBRANCH   1  15
TORSDOF 5
