REMARK  4 active torsions:
REMARK  status: ('A' for Active; 'I' for Inactive)
REMARK    1  A    between atoms: C_9  and  C_4 
REMARK    2  A    between atoms: N_8  and  C_5 
REMARK    3  A    between atoms: C_11  and  N_8 
REMARK    4  A    between atoms: C_10  and  C_11 
ROOT
ATOM      1  S   UNL d   1      -1.600  -0.543  -0.009  0.00  0.00    -0.038 SA
ATOM      2  N   UNL d   1       0.418   1.017  -0.080  0.00  0.00    -0.296 N 
ATOM      3  HN  UNL d   1       0.991   1.859  -0.123  1.00  0.00     0.187 HD
ATOM      4  C   UNL d   1      -0.898   1.024  -0.041  0.00  0.00     0.073 A 
ATOM      5  C   UNL d   1      -0.003  -1.191  -0.010  0.00  0.00     0.161 A 
ATOM      6  N   UNL d   1       0.932  -0.265  -0.056  0.00  0.00    -0.279 N 
ATOM      7  HN  UNL d   1       1.931  -0.473  -0.072  1.00  0.00     0.189 HD
ENDROOT
BRANCH   5   8
ATOM      8  N   UNL d   1       0.184  -2.527   0.042  0.00  0.00    -0.369 N 
ATOM      9  H   UNL d   1      -0.616  -3.139  -0.057  0.00  0.00     0.161 HD
BRANCH   8  10
ATOM     10  C   UNL d   1       1.517  -3.092  -0.027  0.00  0.00     0.130 C 
BRANCH  10  11
ATOM     11  C   UNL d   1       1.500  -4.643   0.038  0.00  0.00    -0.035 C 
ATOM     12  C   UNL d   1       0.777  -5.236  -1.186  0.00  0.00     0.016 C 
ATOM     13  C   UNL d   1       2.955  -5.152   0.032  0.00  0.00     0.016 C 
ATOM     14  C   UNL d   1       0.821  -5.136   1.328  0.00  0.00     0.016 C 
ENDBRANCH  10  11
ENDBRANCH   8  10
ENDBRANCH   5   8
BRANCH   4  15
ATOM     15  C   UNL d   1      -1.755   2.257  -0.013  0.00  0.00     0.036 C 
ATOM     16  C   UNL d   1      -1.408   3.122   1.200  0.00  0.00     0.016 C 
ATOM     17  C   UNL d   1      -1.597   3.056  -1.306  0.00  0.00     0.016 C 
ENDBRANCH   4  15
TORSDOF 4
