REMARK  6 active torsions:
REMARK  status: ('A' for Active; 'I' for Inactive)
REMARK    1  A    between atoms: N_5  and  S_1 
REMARK    2  A    between atoms: C_6  and  S_1 
REMARK    3  A    between atoms: N_2  and  C_3 
REMARK    4  A    between atoms: C_4  and  O_7 
REMARK    5  A    between atoms: C_15  and  N_5 
REMARK    6  A    between atoms: O_7  and  C_16 
ROOT
ATOM      1  C   UNL d   1       0.501   1.192  -1.198  0.00  0.00     0.080 A 
ATOM      2  C   UNL d   1      -0.488   0.861  -2.130  0.00  0.00     0.028 A 
ATOM      3  C   UNL d   1       0.997   2.497  -1.121  0.00  0.00     0.028 A 
ATOM      4  C   UNL d   1      -0.337   3.092  -3.054  0.00  0.00     0.076 A 
ATOM      5  C   UNL d   1      -0.922   1.822  -3.051  0.00  0.00     0.039 A 
ATOM      6  C   UNL d   1       0.574   3.444  -2.053  0.00  0.00     0.039 A 
ENDROOT
BRANCH   1   7
ATOM      7  S   UNL d   1       1.121  -0.043  -0.072  0.00  0.00     0.263 S 
ATOM      8  O   UNL d   1       1.429   0.630   1.171  0.00  0.00    -0.200 OA
ATOM      9  O   UNL d   1       0.228  -1.180  -0.117  0.00  0.00    -0.200 OA
BRANCH   7  10
ATOM     10  N   UNL d   1       2.592  -0.481  -0.748  0.00  0.00    -0.281 N 
ATOM     11  H   UNL d   1       3.419  -0.047  -0.346  0.00  0.00     0.179 HD
BRANCH  10  12
ATOM     12  C   UNL d   1       2.669  -1.099  -2.020  0.00  0.00     0.042 A 
ATOM     13  C   UNL d   1       2.910  -0.331  -3.158  0.00  0.00     0.033 A 
ATOM     14  C   UNL d   1       3.034  -0.956  -4.402  0.00  0.00     0.044 A 
ATOM     15  C   UNL d   1       2.929  -2.340  -4.491  0.00  0.00     0.116 A 
ATOM     16  C   UNL d   1       2.700  -3.111  -3.357  0.00  0.00     0.044 A 
ATOM     17  F   UNL d   1       3.057  -2.935  -5.683  0.00  0.00    -0.206 F 
ATOM     18  C   UNL d   1       2.564  -2.486  -2.115  0.00  0.00     0.033 A 
ENDBRANCH  10  12
ENDBRANCH   7  10
ENDBRANCH   1   7
BRANCH   4  19
ATOM     19  O   UNL d   1      -0.594   4.072  -3.987  0.00  0.00    -0.307 OA
BRANCH  19  20
ATOM     20  C   UNL d   1      -0.840   3.741  -5.301  0.00  0.00     0.130 A 
ATOM     21  C   UNL d   1      -1.822   4.479  -5.979  0.00  0.00     0.138 A 
ATOM     22  C   UNL d   1      -2.180   4.218  -7.311  0.00  0.00     0.039 A 
ATOM     23  C   UNL d   1      -1.534   3.198  -7.999  0.00  0.00     0.004 A 
ATOM     24  C   UNL d   1      -0.505   2.496  -7.374  0.00  0.00     0.027 A 
ATOM     25  C   UNL d   1      -0.130   2.792  -6.053  0.00  0.00     0.070 A 
ATOM     26 CL   UNL d   1       1.303   2.011  -5.489  0.00  0.00    -0.081 Cl
BRANCH  21  27
ATOM     27  N   UNL d   1      -2.468   5.602  -5.325  0.00  0.00    -0.113 N 
ATOM     28  O   UNL d   1      -1.742   6.506  -4.893  0.00  0.00    -0.532 OA
ATOM     29  O   UNL d   1      -3.707   5.600  -5.307  0.00  0.00    -0.532 OA
ENDBRANCH  21  27
ENDBRANCH  19  20
ENDBRANCH   4  19
TORSDOF 6
