REMARK  4 active torsions:
REMARK  status: ('A' for Active; 'I' for Inactive)
REMARK       I    between atoms: N_2  and  C_1 
REMARK    1  A    between atoms: C_5  and  C_1 
REMARK    2  A    between atoms: C_16  and  N_2 
REMARK    3  A    between atoms: C_4  and  C_16 
REMARK    4  A    between atoms: C_6  and  C_7 
ROOT
ATOM      1  C   UNL d   1       0.242   1.107  -0.448  0.00  0.00     0.032 A 
ATOM      2  C   UNL d   1      -1.251   3.290  -1.487  0.00  0.00    -0.051 A 
ATOM      3  C   UNL d   1       0.589   1.682  -1.673  0.00  0.00     0.017 A 
ATOM      4  C   UNL d   1      -0.873   1.592   0.237  0.00  0.00     0.017 A 
ATOM      5  C   UNL d   1      -1.603   2.670  -0.277  0.00  0.00     0.009 A 
ATOM      6  C   UNL d   1      -0.147   2.760  -2.183  0.00  0.00     0.009 A 
ENDROOT
BRANCH   1   7
ATOM      7  C   UNL d   1       1.054  -0.024   0.081  0.00  0.00     0.251 C 
ATOM      8  N   UNL d   1       1.061  -0.191   1.448  0.00  0.00    -0.352 N 
ATOM      9  H   UNL d   1       0.641   0.499   2.054  0.00  0.00     0.163 HD
ATOM     10  O   UNL d   1       1.696  -0.738  -0.685  0.00  0.00    -0.268 OA
BRANCH   8  11
ATOM     11  C   UNL d   1       1.807  -1.270   2.052  0.00  0.00     0.169 C 
BRANCH  11  12
ATOM     12  C   UNL d   1       1.709  -1.154   3.540  0.00  0.00     0.000 A 
ATOM     13  S   UNL d   1       0.458  -1.959   4.393  0.00  0.00    -0.105 SA
ATOM     14  C   UNL d   1       1.029  -1.387   5.900  0.00  0.00     0.050 A 
ATOM     15  C   UNL d   1       2.142  -0.589   5.762  0.00  0.00     0.008 A 
ATOM     16  C   UNL d   1       2.533  -0.452   4.399  0.00  0.00     0.017 A 
ENDBRANCH  11  12
ENDBRANCH   8  11
ENDBRANCH   1   7
BRANCH   2  17
ATOM     17  C   UNL d   1      -2.014   4.510  -2.037  0.00  0.00    -0.024 C 
ATOM     18  C   UNL d   1      -3.179   4.962  -1.126  0.00  0.00     0.019 C 
ATOM     19  C   UNL d   1      -1.048   5.707  -2.170  0.00  0.00     0.019 C 
ATOM     20  C   UNL d   1      -2.616   4.197  -3.423  0.00  0.00     0.019 C 
ENDBRANCH   2  17
TORSDOF 4
