REMARK  7 active torsions:
REMARK  status: ('A' for Active; 'I' for Inactive)
REMARK    1  A    between atoms: C_7  and  C_1 
REMARK    2  A    between atoms: C_2  and  C_11 
REMARK    3  A    between atoms: C_12  and  N_3 
REMARK    4  A    between atoms: O_10  and  C_6 
REMARK    5  A    between atoms: S_9  and  C_17 
REMARK    6  A    between atoms: C_11  and  S_9 
REMARK    7  A    between atoms: C_17  and  C_12 
ROOT
ATOM      1  N   UNL d   1       2.407   2.314  -0.005  0.00  0.00    -0.397 N 
ATOM      2  HN  UNL d   1       2.946   1.449  -0.043  1.00  0.00     0.158 HD
ATOM      3  C   UNL d   1       1.113   2.358  -0.002  0.00  0.00     0.097 C 
ENDROOT
BRANCH   1   4
ATOM      4  C   UNL d   1       3.009   3.655   0.053  0.00  0.00     0.129 C 
BRANCH   4   5
ATOM      5  C   UNL d   1       4.528   3.510   0.155  0.00  0.00     0.093 C 
BRANCH   5   6
ATOM      6  S   UNL d   1       5.386   5.120   0.186  0.00  0.00    -0.163 SA
BRANCH   6   7
ATOM      7  C   UNL d   1       4.745   5.777   1.758  0.00  0.00     0.114 C 
BRANCH   7   8
ATOM      8  C   UNL d   1       5.211   7.189   2.004  0.00  0.00    -0.027 A 
ATOM      9  C   UNL d   1       4.517   8.311   1.520  0.00  0.00     0.041 A 
ATOM     10 CL   UNL d   1       3.063   8.164   0.595  0.00  0.00    -0.084 Cl
ATOM     11  C   UNL d   1       4.985   9.602   1.784  0.00  0.00     0.024 A 
ATOM     12  C   UNL d   1       6.151   9.788   2.525  0.00  0.00     0.002 A 
ATOM     13  C   UNL d   1       6.856   8.685   2.998  0.00  0.00     0.001 A 
ATOM     14  C   UNL d   1       6.394   7.395   2.737  0.00  0.00     0.009 A 
ENDBRANCH   7   8
ENDBRANCH   6   7
ENDBRANCH   5   6
ENDBRANCH   4   5
ENDBRANCH   1   4
BRANCH   3  15
ATOM     15  C   UNL d   1       0.310   1.122  -0.025  0.00  0.00     0.012 A 
ATOM     16  C   UNL d   1       0.910  -0.142  -0.031  0.00  0.00     0.077 A 
ATOM     17  C   UNL d   1       0.126  -1.291  -0.043  0.00  0.00     0.037 A 
ATOM     18  C   UNL d   1      -1.265  -1.179  -0.048  0.00  0.00     0.003 A 
ATOM     19  C   UNL d   1      -1.870   0.080  -0.041  0.00  0.00     0.001 A 
ATOM     20  C   UNL d   1      -1.084   1.234  -0.028  0.00  0.00     0.015 A 
BRANCH  16  21
ATOM     21  O   UNL d   1       2.267  -0.320  -0.025  0.00  0.00    -0.360 OA
ATOM     22  H   UNL d   1       2.668   0.582  -0.032  0.00  0.00     0.217 HD
ENDBRANCH  16  21
ENDBRANCH   3  15
TORSDOF 7
