REMARK  6 active torsions:
REMARK  status: ('A' for Active; 'I' for Inactive)
REMARK       I    between atoms: C_6  and  N_1 
REMARK    1  A    between atoms: C_4  and  S_10 
REMARK    2  A    between atoms: C_17  and  N_5 
REMARK    3  A    between atoms: C_16  and  C_6 
REMARK    4  A    between atoms: C_11  and  C_7 
REMARK    5  A    between atoms: S_10  and  C_16 
REMARK    6  A    between atoms: O_26  and  C_23 
ROOT
ATOM      1  N   UNL d   1      -4.613   3.880   1.972  0.00  0.00    -0.336 N 
ATOM      2  HN  UNL d   1      -4.433   3.043   2.526  1.00  0.00     0.168 HD
ATOM      3  C   UNL d   1      -3.905   4.140   0.860  0.00  0.00     0.145 A 
ATOM      4  C   UNL d   1      -5.571   4.764   2.332  0.00  0.00     0.045 A 
ATOM      5  N   UNL d   1      -4.097   5.205   0.070  0.00  0.00    -0.347 N 
ATOM      6  HN  UNL d   1      -3.541   5.356  -0.772  1.00  0.00     0.167 HD
ATOM      7  C   UNL d   1      -5.830   5.892   1.572  0.00  0.00     0.047 A 
ATOM      8  C   UNL d   1      -5.061   6.061   0.446  0.00  0.00     0.092 A 
ENDROOT
BRANCH   3   9
ATOM      9  S   UNL d   1      -2.633   3.004   0.365  0.00  0.00    -0.085 SA
BRANCH   9  10
ATOM     10  C   UNL d   1      -3.203   1.513   1.233  0.00  0.00     0.185 C 
BRANCH  10  11
ATOM     11  C   UNL d   1      -2.353   0.307   0.851  0.00  0.00     0.229 C 
ATOM     12  N   UNL d   1      -2.703  -0.423  -0.278  0.00  0.00    -0.348 N 
ATOM     13  C   UNL d   1      -1.936  -1.628  -0.641  0.00  0.00     0.145 C 
ATOM     14  C   UNL d   1      -3.564   0.060  -1.365  0.00  0.00     0.145 C 
ATOM     15  C   UNL d   1      -1.129  -1.448  -1.952  0.00  0.00     0.143 C 
ATOM     16  N   UNL d   1      -1.965  -0.856  -3.022  0.00  0.00    -0.378 N 
ATOM     17  C   UNL d   1      -2.719   0.345  -2.619  0.00  0.00     0.143 C 
ATOM     18  O   UNL d   1      -1.411  -0.034   1.572  0.00  0.00    -0.273 OA
BRANCH  16  19
ATOM     19  C   UNL d   1      -2.389  -1.644  -4.082  0.00  0.00     0.030 A 
ATOM     20  C   UNL d   1      -1.460  -2.376  -4.838  0.00  0.00     0.029 A 
ATOM     21  C   UNL d   1      -1.842  -3.108  -5.969  0.00  0.00     0.002 A 
ATOM     22  C   UNL d   1      -3.175  -3.140  -6.361  0.00  0.00     0.000 A 
ATOM     23  C   UNL d   1      -4.121  -2.442  -5.620  0.00  0.00     0.002 A 
ATOM     24  C   UNL d   1      -3.728  -1.702  -4.499  0.00  0.00     0.029 A 
ENDBRANCH  16  19
ENDBRANCH  10  11
ENDBRANCH   9  10
ENDBRANCH   3   9
BRANCH   4  25
ATOM     25  C   UNL d   1      -6.337   4.420   3.553  0.00  0.00    -0.009 A 
ATOM     26  C   UNL d   1      -6.970   5.390   4.356  0.00  0.00     0.016 A 
ATOM     27  C   UNL d   1      -7.713   5.035   5.492  0.00  0.00     0.037 A 
ATOM     28  C   UNL d   1      -7.835   3.698   5.861  0.00  0.00     0.068 A 
ATOM     29  C   UNL d   1      -7.217   2.722   5.084  0.00  0.00     0.037 A 
ATOM     30  C   UNL d   1      -6.470   3.080   3.955  0.00  0.00     0.016 A 
BRANCH  28  31
ATOM     31  O   UNL d   1      -8.550   3.223   6.923  0.00  0.00    -0.356 OA
ATOM     32  C   UNL d   1      -8.732   4.129   8.006  0.00  0.00     0.210 C 
ENDBRANCH  28  31
ENDBRANCH   4  25
TORSDOF 6
