REMARK  6 active torsions:
REMARK  status: ('A' for Active; 'I' for Inactive)
REMARK    1  A    between atoms: C_8  and  C_1 
REMARK    2  A    between atoms: C_7  and  C_2 
REMARK    3  A    between atoms: C_9  and  C_3 
REMARK    4  A    between atoms: O_13  and  C_7 
REMARK    5  A    between atoms: O_14  and  C_8 
REMARK    6  A    between atoms: O_17  and  C_10 
ROOT
ATOM      1  C   UNL d   1      -1.256  -1.074   0.208  0.00  0.00     0.052 C 
ATOM      2  C   UNL d   1       1.308  -1.086   0.167  0.00  0.00     0.052 C 
ATOM      3  C   UNL d   1       0.017  -1.873  -0.136  0.00  0.00     0.103 C 
ATOM      4  C   UNL d   1      -1.197   0.273   0.351  0.00  0.00     0.018 C 
ATOM      5  C   UNL d   1       1.257   0.263   0.317  0.00  0.00     0.018 C 
ATOM      6  N   UNL d   1       0.032   0.912   0.299  0.00  0.00    -0.362 N 
ATOM      7  C   UNL d   1      -2.372   1.204   0.526  0.00  0.00     0.069 C 
ATOM      8  C   UNL d   1       2.462   1.160   0.474  0.00  0.00     0.069 C 
ATOM      9  H   UNL d   1       0.039   1.906   0.518  0.00  0.00     0.165 HD
ENDROOT
BRANCH   3  10
ATOM     10  C   UNL d   1      -0.001  -2.299  -1.618  0.00  0.00    -0.011 A 
ATOM     11  C   UNL d   1      -0.101  -3.647  -2.015  0.00  0.00     0.075 A 
ATOM     12  C   UNL d   1      -0.093  -3.968  -3.381  0.00  0.00     0.037 A 
ATOM     13  C   UNL d   1      -0.033  -2.971  -4.353  0.00  0.00     0.003 A 
ATOM     14  C   UNL d   1       0.035  -1.636  -3.973  0.00  0.00     0.001 A 
ATOM     15  C   UNL d   1       0.053  -1.306  -2.620  0.00  0.00     0.011 A 
BRANCH  11  16
ATOM     16  O   UNL d   1      -0.175  -4.592  -1.025  0.00  0.00    -0.355 OA
ATOM     17  C   UNL d   1      -0.797  -5.822  -1.389  0.00  0.00     0.210 C 
ENDBRANCH  11  16
ENDBRANCH   3  10
BRANCH   2  18
ATOM     18  C   UNL d   1       2.600  -1.823   0.293  0.00  0.00     0.291 C 
ATOM     19  O   UNL d   1       3.690  -1.297   0.473  0.00  0.00    -0.260 OA
BRANCH  18  20
ATOM     20  O   UNL d   1       2.407  -3.162   0.232  0.00  0.00    -0.323 OA
ATOM     21  C   UNL d   1       3.607  -3.926   0.367  0.00  0.00     0.213 C 
ENDBRANCH  18  20
ENDBRANCH   2  18
BRANCH   1  22
ATOM     22  C   UNL d   1      -2.497  -1.883   0.349  0.00  0.00     0.291 C 
ATOM     23  O   UNL d   1      -2.734  -2.902  -0.280  0.00  0.00    -0.260 OA
BRANCH  22  24
ATOM     24  O   UNL d   1      -3.296  -1.379   1.327  0.00  0.00    -0.323 OA
ATOM     25  C   UNL d   1      -4.545  -2.056   1.481  0.00  0.00     0.213 C 
ENDBRANCH  22  24
ENDBRANCH   1  22
TORSDOF 6
