REMARK  5 active torsions:
REMARK  status: ('A' for Active; 'I' for Inactive)
REMARK    1  A    between atoms: N_3  and  C_1 
REMARK    2  A    between atoms: O_5  and  C_2 
REMARK    3  A    between atoms: C_4  and  O_5 
REMARK    4  A    between atoms: C_7  and  C_4 
REMARK    5  A    between atoms: C_6  and  C_9 
ROOT
ATOM      1  C   UNL d   1       2.246  -1.245   0.004  0.00  0.00     0.139 A 
ATOM      2  C   UNL d   1       0.936  -1.130   0.515  0.00  0.00     0.130 A 
ATOM      3  C   UNL d   1       3.033  -0.090  -0.208  0.00  0.00     0.055 A 
ATOM      4  C   UNL d   1       2.531   1.184   0.083  0.00  0.00     0.051 A 
ATOM      5  C   UNL d   1       0.477   0.140   0.900  0.00  0.00     0.048 A 
ATOM      6  C   UNL d   1       1.247   1.284   0.638  0.00  0.00     0.038 A 
ATOM      7 BR   UNL d   1      -1.097   0.399   1.935  0.00  0.00    -0.048 Br
ENDROOT
BRANCH   2   8
ATOM      8  O   UNL d   1       0.147  -2.286   0.703  0.00  0.00    -0.271 OA
BRANCH   8   9
ATOM      9  C   UNL d   1      -1.059  -2.386   0.017  0.00  0.00     0.301 C 
ATOM     10  O   UNL d   1      -1.633  -1.477  -0.568  0.00  0.00    -0.259 OA
BRANCH   9  11
ATOM     11  C   UNL d   1      -1.520  -3.793  -0.083  0.00  0.00     0.078 A 
ATOM     12  C   UNL d   1      -0.996  -4.828   0.693  0.00  0.00     0.132 A 
ATOM     13  F   UNL d   1      -0.154  -4.585   1.704  0.00  0.00    -0.205 F 
ATOM     14  C   UNL d   1      -1.347  -6.156   0.435  0.00  0.00     0.043 A 
ATOM     15  C   UNL d   1      -2.250  -6.460  -0.585  0.00  0.00     0.003 A 
ATOM     16  C   UNL d   1      -2.830  -5.434  -1.322  0.00  0.00     0.001 A 
ATOM     17  C   UNL d   1      -2.474  -4.107  -1.071  0.00  0.00     0.021 A 
ENDBRANCH   9  11
ENDBRANCH   8   9
ENDBRANCH   2   8
BRANCH   1  18
ATOM     18  N   UNL d   1       2.885  -2.544  -0.264  0.00  0.00    -0.113 N 
ATOM     19  O   UNL d   1       2.239  -3.581  -0.055  0.00  0.00    -0.532 OA
ATOM     20  O   UNL d   1       4.042  -2.536  -0.705  0.00  0.00    -0.532 OA
ENDBRANCH   1  18
BRANCH   4  21
ATOM     21  C   UNL d   1       3.354   2.430  -0.155  0.00  0.00     0.417 C 
ATOM     22  F   UNL d   1       4.657   2.168  -0.447  0.00  0.00    -0.166 F 
ATOM     23  F   UNL d   1       2.878   3.174  -1.188  0.00  0.00    -0.166 F 
ATOM     24  F   UNL d   1       3.372   3.253   0.928  0.00  0.00    -0.166 F 
ENDBRANCH   4  21
TORSDOF 5
