REMARK  1 active torsions:
REMARK  status: ('A' for Active; 'I' for Inactive)
REMARK    1  A    between atoms: N_8  and  C_1 
ROOT
ATOM      1  C   UNL d   1       2.459   0.047  -0.090  0.00  0.00     0.143 A 
ATOM      2  N   UNL d   1       1.608   1.040  -0.051  0.00  0.00    -0.336 N 
ATOM      3  HN  UNL d   1       1.862   2.028  -0.044  1.00  0.00     0.168 HD
ATOM      4  S   UNL d   1       1.774  -1.523  -0.050  0.00  0.00    -0.052 SA
ATOM      5  C   UNL d   1       0.196  -0.838  -0.017  0.00  0.00     0.038 A 
ATOM      6  C   UNL d   1       0.312   0.555  -0.021  0.00  0.00     0.051 A 
ATOM      7  C   UNL d   1      -1.052  -1.480   0.009  0.00  0.00     0.063 A 
ATOM      8  C   UNL d   1      -0.864   1.336   0.004  0.00  0.00     0.034 A 
ATOM      9  C   UNL d   1      -2.191  -0.678   0.026  0.00  0.00     0.117 A 
ATOM     10  C   UNL d   1      -2.112   0.708   0.024  0.00  0.00     0.044 A 
ATOM     11  F   UNL d   1      -3.396  -1.262   0.042  0.00  0.00    -0.206 F 
ENDROOT
BRANCH   1  12
ATOM     12  N   UNL d   1       3.788   0.227  -0.146  0.00  0.00    -0.380 N 
ATOM     13  H   UNL d   1       4.121   1.154   0.092  0.00  0.00     0.158 HD
ATOM     14  H   UNL d   1       4.392  -0.530   0.146  0.00  0.00     0.158 HD
ENDBRANCH   1  12
TORSDOF 1
