REMARK  4 active torsions:
REMARK  status: ('A' for Active; 'I' for Inactive)
REMARK    1  A    between atoms: N_2  and  C_1 
REMARK    2  A    between atoms: S_7  and  C_3 
REMARK    3  A    between atoms: C_5  and  C_6 
REMARK    4  A    between atoms: C_14  and  S_7 
ROOT
ATOM      1  C   UNL d   1       1.438  -0.147  -0.095  0.00  0.00     0.120 A 
ATOM      2  C   UNL d   1       0.643  -1.298  -0.055  0.00  0.00     0.038 A 
ATOM      3  C   UNL d   1       0.894   1.143   0.038  0.00  0.00     0.046 A 
ATOM      4  C   UNL d   1      -0.488   1.315   0.210  0.00  0.00    -0.032 A 
ATOM      5  C   UNL d   1      -0.743  -1.114   0.051  0.00  0.00     0.022 A 
ATOM      6  C   UNL d   1      -1.300   0.171   0.177  0.00  0.00     0.011 A 
ENDROOT
BRANCH   2   7
ATOM      7  S   UNL d   1       1.254  -2.975  -0.184  0.00  0.00    -0.088 SA
BRANCH   7   8
ATOM      8  C   UNL d   1       1.394  -3.421   1.542  0.00  0.00     0.005 A 
ATOM      9  C   UNL d   1       0.287  -3.891   2.256  0.00  0.00     0.020 A 
ATOM     10  C   UNL d   1       0.409  -4.239   3.607  0.00  0.00     0.020 A 
ATOM     11  C   UNL d   1       1.643  -4.117   4.245  0.00  0.00     0.011 A 
ATOM     12  C   UNL d   1       2.756  -3.672   3.539  0.00  0.00     0.020 A 
ATOM     13 BR   UNL d   1       1.806  -4.566   6.073  0.00  0.00    -0.051 Br
ATOM     14  C   UNL d   1       2.633  -3.336   2.189  0.00  0.00     0.020 A 
ENDBRANCH   7   8
ENDBRANCH   2   7
BRANCH   1  15
ATOM     15  N   UNL d   1       2.868  -0.220  -0.308  0.00  0.00    -0.114 N 
ATOM     16  O   UNL d   1       3.560  -0.700   0.598  0.00  0.00    -0.532 OA
ATOM     17  O   UNL d   1       3.303   0.283  -1.353  0.00  0.00    -0.532 OA
ENDBRANCH   1  15
BRANCH   4  18
ATOM     18  C   UNL d   1      -1.041   2.705   0.444  0.00  0.00     0.141 C 
ATOM     19  S   UNL d   1      -1.945   2.846   2.012  0.00  0.00    -0.148 SA
ATOM     20  C   UNL d   1      -2.822   4.348   1.537  0.00  0.00     0.085 C 
ATOM     21  C   UNL d   1      -3.353   4.133   0.130  0.00  0.00     0.085 C 
ATOM     22  S   UNL d   1      -2.097   3.312  -0.904  0.00  0.00    -0.148 SA
ENDBRANCH   4  18
TORSDOF 4
