REMARK  2 active torsions:
REMARK  status: ('A' for Active; 'I' for Inactive)
REMARK    1  A    between atoms: C_7  and  C_3 
REMARK    2  A    between atoms: O_12  and  C_7 
ROOT
ATOM      1  C   UNL d   1      -0.787   0.142  -0.058  0.00  0.00     0.023 A 
ATOM      2  S   UNL d   1      -1.945   1.377   0.115  0.00  0.00    -0.082 SA
ATOM      3  C   UNL d   1      -3.255   0.272  -0.001  0.00  0.00     0.079 A 
ATOM      4  C   UNL d   1      -1.382  -1.099  -0.205  0.00  0.00    -0.038 A 
ATOM      5  C   UNL d   1      -2.802  -1.021  -0.183  0.00  0.00     0.034 A 
ATOM      6  C   UNL d   1       0.673   0.324  -0.023  0.00  0.00    -0.012 A 
ATOM      7  C   UNL d   1      -0.538  -2.326  -0.371  0.00  0.00     0.044 C 
ATOM      8  C   UNL d   1       1.459  -0.843   0.167  0.00  0.00    -0.046 A 
ATOM      9  C   UNL d   1       0.782  -2.184   0.406  0.00  0.00     0.044 C 
ATOM     10  C   UNL d   1       1.316   1.553  -0.207  0.00  0.00     0.013 A 
ATOM     11  C   UNL d   1       2.856  -0.751   0.201  0.00  0.00     0.008 A 
ATOM     12  C   UNL d   1       2.712   1.627  -0.194  0.00  0.00     0.001 A 
ATOM     13  C   UNL d   1       3.479   0.481   0.011  0.00  0.00     0.001 A 
ENDROOT
BRANCH   3  14
ATOM     14  C   UNL d   1      -4.646   0.688   0.088  0.00  0.00     0.183 C 
ATOM     15  O   UNL d   1      -5.610  -0.057  -0.001  0.00  0.00    -0.646 OA
BRANCH  14  16
ATOM     16  O   UNL d   1      -4.795   2.023   0.290  0.00  0.00    -0.772 OA
ATOM     17  H   UNL d   1      -3.930   2.474   0.344  0.00  0.00     0.167 HD
ENDBRANCH  14  16
ENDBRANCH   3  14
TORSDOF 2
