REMARK  7 active torsions:
REMARK  status: ('A' for Active; 'I' for Inactive)
REMARK    1  A    between atoms: C_5  and  N_1 
REMARK    2  A    between atoms: C_13  and  C_5 
REMARK    3  A    between atoms: C_6  and  O_12 
REMARK    4  A    between atoms: O_12  and  C_17 
REMARK    5  A    between atoms: C_17  and  C_13 
REMARK    6  A    between atoms: O_19  and  C_13 
REMARK    7  A    between atoms: O_20  and  C_15 
ROOT
ATOM      1  C   UNL d   1       3.573   1.393   0.847  0.00  0.00     0.170 C 
ENDROOT
BRANCH   1   2
ATOM      2  C   UNL d   1       2.797   0.061   0.984  0.00  0.00     0.306 C 
BRANCH   2   3
ATOM      3  N   UNL d   1       1.683  -0.242   0.053  0.00  0.00     0.091 N 
ATOM      4  C   UNL d   1       2.150  -0.316  -1.343  0.00  0.00     0.275 C 
ATOM      5  C   UNL d   1       1.043  -0.752  -2.311  0.00  0.00     0.062 C 
ATOM      6  C   UNL d   1       0.396  -2.068  -1.895  0.00  0.00     0.121 C 
ATOM      7  C   UNL d   1      -0.046  -2.008  -0.440  0.00  0.00     0.062 C 
ATOM      8  C   UNL d   1       1.078  -1.526   0.475  0.00  0.00     0.275 C 
BRANCH   6   9
ATOM      9  O   UNL d   1       1.285  -3.164  -2.111  0.00  0.00    -0.395 OA
ATOM     10  H   UNL d   1       2.095  -3.023  -1.593  0.00  0.00     0.210 HD
ENDBRANCH   6   9
ENDBRANCH   2   3
ENDBRANCH   1   2
BRANCH   1  11
ATOM     11  C   UNL d   1       2.687   2.642   0.992  0.00  0.00     0.209 C 
BRANCH  11  12
ATOM     12  O   UNL d   1       3.518   3.815   0.925  0.00  0.00    -0.349 OA
BRANCH  12  13
ATOM     13  C   UNL d   1       2.911   5.026   0.754  0.00  0.00     0.070 A 
ATOM     14  C   UNL d   1       3.777   6.123   0.665  0.00  0.00     0.062 A 
ATOM     15  C   UNL d   1       3.285   7.408   0.422  0.00  0.00     0.058 A 
ATOM     16 CL   UNL d   1       4.420   8.708   0.318  0.00  0.00    -0.082 Cl
ATOM     17  C   UNL d   1       1.910   7.609   0.265  0.00  0.00     0.056 A 
ATOM     18  C   UNL d   1       1.038   6.522   0.391  0.00  0.00     0.028 A 
ATOM     19 CL   UNL d   1       1.224   9.150  -0.094  0.00  0.00    -0.083 Cl
ATOM     20  C   UNL d   1       1.536   5.238   0.644  0.00  0.00     0.038 A 
ENDBRANCH  12  13
ENDBRANCH  11  12
ENDBRANCH   1  11
BRANCH   1  21
ATOM     21  O   UNL d   1       4.601   1.387   1.858  0.00  0.00    -0.392 OA
ATOM     22  H   UNL d   1       4.183   1.588   2.713  0.00  0.00     0.210 HD
ENDBRANCH   1  21
TORSDOF 7
