REMARK  3 active torsions:
REMARK  status: ('A' for Active; 'I' for Inactive)
REMARK    1  A    between atoms: C_4  and  C_1 
REMARK    2  A    between atoms: C_2  and  C_5 
REMARK       I    between atoms: N_3  and  C_2 
REMARK    3  A    between atoms: C_6  and  N_3 
ROOT
ATOM      1  C   UNL d   1       0.654  -1.246  -0.549  0.00  0.00     0.048 A 
ATOM      2  C   UNL d   1       0.749  -3.688  -0.770  0.00  0.00     0.032 A 
ATOM      3  C   UNL d   1       1.276  -2.477  -0.282  0.00  0.00     0.033 A 
ATOM      4  C   UNL d   1      -0.498  -1.233  -1.346  0.00  0.00     0.016 A 
ATOM      5  C   UNL d   1      -0.423  -3.649  -1.535  0.00  0.00     0.017 A 
ATOM      6  C   UNL d   1      -1.035  -2.426  -1.829  0.00  0.00     0.002 A 
ENDROOT
BRANCH   2   7
ATOM      7  C   UNL d   1       1.486  -4.949  -0.433  0.00  0.00     0.252 C 
ATOM      8  N   UNL d   1       0.997  -6.149  -0.921  0.00  0.00    -0.352 N 
ATOM      9  H   UNL d   1       0.164  -6.180  -1.488  0.00  0.00     0.163 HD
ATOM     10  O   UNL d   1       2.503  -4.881   0.257  0.00  0.00    -0.268 OA
BRANCH   8  11
ATOM     11  C   UNL d   1       1.652  -7.393  -0.644  0.00  0.00     0.084 A 
ATOM     12  C   UNL d   1       1.101  -8.700  -1.145  0.00  0.00     0.027 A 
ATOM     13  C   UNL d   1       1.035  -8.372   0.318  0.00  0.00     0.027 A 
ENDBRANCH   8  11
ENDBRANCH   2   7
BRANCH   1  14
ATOM     14  C   UNL d   1       1.192   0.045   0.020  0.00  0.00     0.417 C 
ATOM     15  F   UNL d   1       2.278  -0.116   0.823  0.00  0.00    -0.166 F 
ATOM     16  F   UNL d   1       0.264   0.699   0.775  0.00  0.00    -0.166 F 
ATOM     17  F   UNL d   1       1.568   0.925  -0.949  0.00  0.00    -0.166 F 
ENDBRANCH   1  14
TORSDOF 3
