REMARK  8 active torsions:
REMARK  status: ('A' for Active; 'I' for Inactive)
REMARK    1  A    between atoms: S_7  and  C_5 
REMARK    2  A    between atoms: O_10  and  C_6 
REMARK    3  A    between atoms: C_11  and  O_10 
REMARK    4  A    between atoms: C_12  and  C_11 
REMARK    5  A    between atoms: C_15  and  C_12 
REMARK    6  A    between atoms: C_13  and  C_14 
REMARK    7  A    between atoms: C_14  and  C_16 
REMARK    8  A    between atoms: C_16  and  C_15 
ROOT
ATOM      1  N   UNL d   1       1.256  -0.647   0.182  0.00  0.00    -0.292 N 
ATOM      2  HN  UNL d   1       2.141  -1.153   0.154  1.00  0.00     0.187 HD
ATOM      3  N   UNL d   1       1.236   0.715  -0.011  0.00  0.00    -0.279 N 
ATOM      4  HN  UNL d   1       2.103   1.223  -0.187  1.00  0.00     0.189 HD
ATOM      5  C   UNL d   1       0.104  -1.314   0.408  0.00  0.00     0.082 A 
ATOM      6  C   UNL d   1       0.058   1.373   0.035  0.00  0.00     0.157 A 
ATOM      7  C   UNL d   1      -1.115  -0.657   0.451  0.00  0.00     0.042 A 
ATOM      8  C   UNL d   1      -1.135   0.721   0.268  0.00  0.00     0.060 A 
ENDROOT
BRANCH   6   9
ATOM      9  O   UNL d   1      -0.012   2.738  -0.151  0.00  0.00    -0.335 OA
BRANCH   9  10
ATOM     10  C   UNL d   1       1.254   3.360  -0.384  0.00  0.00     0.177 C 
BRANCH  10  11
ATOM     11  C   UNL d   1       0.995   4.857  -0.561  0.00  0.00     0.027 C 
BRANCH  11  12
ATOM     12  C   UNL d   1       2.283   5.635  -0.820  0.00  0.00     0.002 C 
BRANCH  12  13
ATOM     13  C   UNL d   1       2.014   7.133  -0.996  0.00  0.00     0.000 C 
BRANCH  13  14
ATOM     14  C   UNL d   1       3.313   7.899  -1.254  0.00  0.00    -0.000 C 
BRANCH  14  15
ATOM     15  C   UNL d   1       3.062   9.396  -1.433  0.00  0.00    -0.005 C 
ATOM     16  C   UNL d   1       4.359  10.148  -1.688  0.00  0.00     0.005 C 
ENDBRANCH  14  15
ENDBRANCH  13  14
ENDBRANCH  12  13
ENDBRANCH  11  12
ENDBRANCH  10  11
ENDBRANCH   9  10
ENDBRANCH   6   9
BRANCH   5  17
ATOM     17  S   UNL d   1       0.193  -3.066   0.653  0.00  0.00    -0.124 SA
ATOM     18  H   UNL d   1       1.527  -3.095   0.772  0.00  0.00     0.108 HD
ENDBRANCH   5  17
TORSDOF 8
