REMARK  5 active torsions:
REMARK  status: ('A' for Active; 'I' for Inactive)
REMARK    1  A    between atoms: C_6  and  C_1 
REMARK    2  A    between atoms: C_11  and  N_2 
REMARK    3  A    between atoms: C_9  and  C_8 
REMARK    4  A    between atoms: O_17  and  C_9 
REMARK    5  A    between atoms: O_19  and  C_15 
ROOT
ATOM      1  C   UNL d   1      -0.199  -1.291  -0.024  0.00  0.00     0.023 A 
ATOM      2  N   UNL d   1       0.993   0.603  -0.172  0.00  0.00    -0.260 N 
ATOM      3  N   UNL d   1      -0.280   0.990   0.059  0.00  0.00    -0.297 N 
ATOM      4  HN  UNL d   1      -0.617   1.946   0.175  1.00  0.00     0.187 HD
ATOM      5  C   UNL d   1       1.100  -0.790  -0.216  0.00  0.00     0.043 A 
ATOM      6  C   UNL d   1      -1.008  -0.126   0.107  0.00  0.00     0.035 A 
ATOM      7  C   UNL d   1       2.412  -1.502  -0.336  0.00  0.00     0.071 C 
ATOM      8  C   UNL d   1      -2.473   0.011   0.331  0.00  0.00     0.070 C 
ENDROOT
BRANCH   1   9
ATOM      9  C   UNL d   1      -0.536  -2.720   0.109  0.00  0.00    -0.005 A 
ATOM     10  C   UNL d   1      -1.640  -3.367  -0.477  0.00  0.00     0.051 A 
ATOM     11  C   UNL d   1      -1.864  -4.749  -0.269  0.00  0.00     0.055 A 
ATOM     12  C   UNL d   1      -0.986  -5.516   0.491  0.00  0.00     0.069 A 
ATOM     13  C   UNL d   1       0.098  -4.885   1.083  0.00  0.00     0.037 A 
ATOM     14  C   UNL d   1       0.287  -3.511   0.936  0.00  0.00     0.016 A 
BRANCH  10  15
ATOM     15  C   UNL d   1      -2.675  -2.720  -1.313  0.00  0.00     0.177 C 
ATOM     16  O   UNL d   1      -3.871  -2.939  -1.157  0.00  0.00    -0.646 OA
BRANCH  15  17
ATOM     17  O   UNL d   1      -2.194  -1.961  -2.315  0.00  0.00    -0.773 OA
ATOM     18  H   UNL d   1      -1.220  -1.857  -2.330  0.00  0.00     0.167 HD
ENDBRANCH  15  17
ENDBRANCH  10  15
BRANCH  12  19
ATOM     19  O   UNL d   1      -1.072  -6.854   0.740  0.00  0.00    -0.356 OA
ATOM     20  C   UNL d   1      -2.283  -7.502   0.372  0.00  0.00     0.210 C 
ENDBRANCH  12  19
ENDBRANCH   1   9
BRANCH   2  21
ATOM     21  C   UNL d   1       2.013   1.599  -0.248  0.00  0.00     0.056 A 
ATOM     22  C   UNL d   1       3.163   1.427  -1.027  0.00  0.00     0.031 A 
ATOM     23  C   UNL d   1       4.208   2.353  -0.956  0.00  0.00     0.002 A 
ATOM     24  C   UNL d   1       4.095   3.474  -0.135  0.00  0.00     0.000 A 
ATOM     25  C   UNL d   1       2.921   3.692   0.582  0.00  0.00     0.002 A 
ATOM     26  C   UNL d   1       1.873   2.768   0.515  0.00  0.00     0.031 A 
ENDBRANCH   2  21
TORSDOF 5
