REMARK  5 active torsions:
REMARK  status: ('A' for Active; 'I' for Inactive)
REMARK    1  A    between atoms: C_2  and  S_1 
REMARK    2  A    between atoms: N_7  and  S_1 
REMARK    3  A    between atoms: C_8  and  C_3 
REMARK    4  A    between atoms: C_15  and  N_7 
REMARK    5  A    between atoms: O_12  and  C_8 
ROOT
ATOM      1  S   UNL d   1       1.148   1.729  -2.817  0.00  0.00     0.245 S 
ATOM      2  O   UNL d   1       1.954   0.565  -2.628  0.00  0.00    -0.206 OA
ATOM      3  O   UNL d   1       0.075   1.726  -3.803  0.00  0.00    -0.206 OA
ENDROOT
BRANCH   1   4
ATOM      4  C   UNL d   1       2.223   2.916  -3.433  0.00  0.00     0.122 C 
ATOM      5  C   UNL d   1       1.851   4.030  -4.243  0.00  0.00     0.094 C 
ATOM      6  C   UNL d   1       3.026   4.423  -4.858  0.00  0.00     0.067 C 
ATOM      7  C   UNL d   1       3.342   5.342  -5.972  0.00  0.00     0.078 C 
ATOM      8  O   UNL d   1       4.086   3.762  -4.332  0.00  0.00    -0.318 OA
ATOM      9  C   UNL d   1       3.599   2.828  -3.469  0.00  0.00     0.073 C 
ATOM     10  C   UNL d   1       4.630   1.918  -2.925  0.00  0.00     0.078 C 
BRANCH   5  11
ATOM     11  C   UNL d   1       0.559   4.621  -4.535  0.00  0.00     0.297 C 
ATOM     12  O   UNL d   1       0.213   4.925  -5.669  0.00  0.00    -0.259 OA
BRANCH  11  13
ATOM     13  O   UNL d   1      -0.094   5.002  -3.397  0.00  0.00    -0.322 OA
ATOM     14  C   UNL d   1      -1.077   6.031  -3.588  0.00  0.00     0.213 C 
ENDBRANCH  11  13
ENDBRANCH   5  11
ENDBRANCH   1   4
BRANCH   1  15
ATOM     15  N   UNL d   1       0.382   2.163  -1.412  0.00  0.00    -0.211 NA
ATOM     16  H   UNL d   1      -0.470   2.621  -1.746  0.00  0.00     0.140 HD
BRANCH  15  17
ATOM     17  C   UNL d   1       0.933   2.861  -0.249  0.00  0.00     0.071 C 
ATOM     18  C   UNL d   1       1.655   2.044   0.841  0.00  0.00     0.020 C 
ATOM     19  C   UNL d   1       2.789   1.075   0.537  0.00  0.00     0.002 C 
ATOM     20  C   UNL d   1       2.515  -0.404   0.206  0.00  0.00     0.000 C 
ATOM     21  C   UNL d   1       1.365  -1.164   0.889  0.00  0.00     0.000 C 
ATOM     22  C   UNL d   1       0.263  -1.746  -0.026  0.00  0.00     0.000 C 
ATOM     23  C   UNL d   1      -1.067  -1.003  -0.258  0.00  0.00     0.000 C 
ATOM     24  C   UNL d   1      -1.801  -0.436   0.964  0.00  0.00     0.000 C 
ATOM     25  C   UNL d   1      -2.875   0.614   0.598  0.00  0.00     0.000 C 
ATOM     26  C   UNL d   1      -2.334   1.946   0.052  0.00  0.00     0.000 C 
ATOM     27  C   UNL d   1      -1.423   2.716   1.027  0.00  0.00     0.002 C 
ATOM     28  C   UNL d   1      -0.293   3.595   0.421  0.00  0.00     0.020 C 
ENDBRANCH  15  17
ENDBRANCH   1  15
TORSDOF 5
