REMARK  8 active torsions:
REMARK  status: ('A' for Active; 'I' for Inactive)
REMARK    1  A    between atoms: N_15  and  C_2 
REMARK    2  A    between atoms: C_6  and  C_3 
REMARK    3  A    between atoms: N_9  and  C_8 
REMARK    4  A    between atoms: C_27  and  N_15 
REMARK    5  A    between atoms: C_17  and  C_26 
REMARK    6  A    between atoms: S_19  and  C_28 
REMARK    7  A    between atoms: C_26  and  S_19 
REMARK    8  A    between atoms: C_28  and  C_27 
ROOT
ATOM      1  C   UNL d   1       0.189  -1.305   0.474  0.00  0.00     0.074 C 
ATOM      2  C   UNL d   1      -1.146  -1.285   0.342  0.00  0.00     0.009 C 
ATOM      3  C   UNL d   1      -1.052   1.188  -0.385  0.00  0.00     0.031 C 
ATOM      4  C   UNL d   1       0.984  -0.055   0.475  0.00  0.00     0.151 C 
ATOM      5  C   UNL d   1      -1.901   0.021   0.145  0.00  0.00     0.066 C 
ATOM      6  C   UNL d   1       0.261   1.273   0.399  0.00  0.00     0.092 C 
ATOM      7  O   UNL d   1       2.204  -0.120   0.582  0.00  0.00    -0.293 OA
ENDROOT
BRANCH   2   8
ATOM      8  N   UNL d   1      -1.973  -2.391   0.383  0.00  0.00    -0.392 N 
ATOM      9  H   UNL d   1      -2.442  -2.558  -0.513  0.00  0.00     0.159 HD
BRANCH   8  10
ATOM     10  C   UNL d   1      -1.746  -3.618   1.136  0.00  0.00     0.130 C 
BRANCH  10  11
ATOM     11  C   UNL d   1      -3.003  -4.499   1.070  0.00  0.00     0.093 C 
BRANCH  11  12
ATOM     12  S   UNL d   1      -3.215  -5.150  -0.623  0.00  0.00    -0.163 SA
BRANCH  12  13
ATOM     13  C   UNL d   1      -4.774  -6.060  -0.400  0.00  0.00     0.112 C 
BRANCH  13  14
ATOM     14  C   UNL d   1      -5.144  -6.768  -1.681  0.00  0.00    -0.049 A 
ATOM     15  C   UNL d   1      -4.665  -8.062  -1.942  0.00  0.00     0.011 A 
ATOM     16  C   UNL d   1      -4.950  -8.691  -3.154  0.00  0.00     0.043 A 
ATOM     17  C   UNL d   1      -5.712  -8.026  -4.108  0.00  0.00     0.116 A 
ATOM     18  C   UNL d   1      -6.195  -6.745  -3.871  0.00  0.00     0.043 A 
ATOM     19  F   UNL d   1      -5.976  -8.626  -5.276  0.00  0.00    -0.206 F 
ATOM     20  C   UNL d   1      -5.911  -6.114  -2.660  0.00  0.00     0.011 A 
ENDBRANCH  13  14
ENDBRANCH  12  13
ENDBRANCH  11  12
ENDBRANCH  10  11
ENDBRANCH   8  10
ENDBRANCH   2   8
BRANCH   3  21
ATOM     21  C   UNL d   1      -0.921   1.138  -1.903  0.00  0.00    -0.053 A 
ATOM     22  C   UNL d   1       0.204   0.645  -2.566  0.00  0.00     0.010 A 
ATOM     23  C   UNL d   1       0.242   0.550  -3.962  0.00  0.00     0.030 A 
ATOM     24  C   UNL d   1      -0.830   0.936  -4.777  0.00  0.00     0.029 A 
ATOM     25  C   UNL d   1      -1.942   1.460  -4.100  0.00  0.00     0.030 A 
ATOM     26  C   UNL d   1      -1.993   1.565  -2.700  0.00  0.00     0.010 A 
BRANCH  24  27
ATOM     27  N   UNL d   1      -0.834   0.735  -6.155  0.00  0.00    -0.390 N 
ATOM     28  C   UNL d   1      -1.481   1.706  -7.035  0.00  0.00     0.149 C 
ATOM     29  C   UNL d   1       0.229  -0.037  -6.798  0.00  0.00     0.149 C 
ENDBRANCH  24  27
ENDBRANCH   3  21
TORSDOF 8
