REMARK  5 active torsions:
REMARK  status: ('A' for Active; 'I' for Inactive)
REMARK    1  A    between atoms: C_8  and  N_1 
REMARK    2  A    between atoms: C_7  and  C_2 
REMARK    3  A    between atoms: C_9  and  C_4 
REMARK    4  A    between atoms: O_15  and  C_7 
REMARK    5  A    between atoms: C_14  and  C_8 
ROOT
ATOM      1  N   UNL d   1      -2.108  -0.244   0.051  0.00  0.00    -0.334 N 
ATOM      2  C   UNL d   1      -0.422  -2.043   0.301  0.00  0.00     0.145 C 
ATOM      3  C   UNL d   1      -1.181   0.751   0.345  0.00  0.00     0.255 C 
ATOM      4  C   UNL d   1      -1.681  -1.556  -0.465  0.00  0.00     0.141 C 
ATOM      5  C   UNL d   1       0.660  -0.976   0.278  0.00  0.00    -0.026 A 
ATOM      6  C   UNL d   1       0.261   0.377   0.291  0.00  0.00     0.039 A 
ATOM      7  O   UNL d   1      -1.493   1.895   0.661  0.00  0.00    -0.267 OA
ATOM      8  C   UNL d   1       2.030  -1.270   0.241  0.00  0.00     0.009 A 
ATOM      9  C   UNL d   1       1.213   1.400   0.196  0.00  0.00     0.017 A 
ATOM     10  C   UNL d   1       2.973  -0.245   0.133  0.00  0.00     0.001 A 
ATOM     11  C   UNL d   1       2.566   1.087   0.097  0.00  0.00     0.001 A 
ENDROOT
BRANCH   1  12
ATOM     12  C   UNL d   1      -3.535   0.081   0.091  0.00  0.00     0.165 C 
BRANCH  12  13
ATOM     13  C   UNL d   1      -4.214  -0.266   1.404  0.00  0.00    -0.040 A 
ATOM     14  C   UNL d   1      -3.772   0.283   2.620  0.00  0.00     0.012 A 
ATOM     15  C   UNL d   1      -4.483   0.072   3.805  0.00  0.00     0.043 A 
ATOM     16  C   UNL d   1      -5.645  -0.686   3.781  0.00  0.00     0.116 A 
ATOM     17  C   UNL d   1      -6.100  -1.251   2.595  0.00  0.00     0.043 A 
ATOM     18  F   UNL d   1      -6.349  -0.859   4.907  0.00  0.00    -0.206 F 
ATOM     19  C   UNL d   1      -5.386  -1.043   1.410  0.00  0.00     0.012 A 
ENDBRANCH  12  13
ENDBRANCH   1  12
BRANCH   4  20
ATOM     20  C   UNL d   1      -1.569  -1.566  -1.990  0.00  0.00    -0.019 A 
ATOM     21  C   UNL d   1      -2.484  -2.298  -2.748  0.00  0.00     0.096 A 
ATOM     22  N   UNL d   1      -2.436  -2.444  -4.093  0.00  0.00    -0.375 N 
ATOM     23  C   UNL d   1      -1.415  -1.843  -4.735  0.00  0.00     0.087 A 
ATOM     24  HN  UNL d   1      -3.140  -2.984  -4.597  1.00  0.00     0.164 HD
ATOM     25  C   UNL d   1      -0.464  -1.072  -4.097  0.00  0.00     0.018 A 
ATOM     26  C   UNL d   1      -0.555  -0.923  -2.714  0.00  0.00     0.012 A 
ENDBRANCH   4  20
BRANCH   2  27
ATOM     27  C   UNL d   1      -0.037  -3.423  -0.211  0.00  0.00     0.150 C 
ATOM     28  O   UNL d   1       0.755  -3.653  -1.108  0.00  0.00    -0.649 OA
BRANCH  27  29
ATOM     29  O   UNL d   1      -0.692  -4.431   0.416  0.00  0.00    -0.776 OA
ATOM     30  H   UNL d   1      -1.269  -4.178   1.163  0.00  0.00     0.167 HD
ENDBRANCH  27  29
ENDBRANCH   2  27
TORSDOF 5
