REMARK  4 active torsions:
REMARK  status: ('A' for Active; 'I' for Inactive)
REMARK    1  A    between atoms: C_2  and  S_1 
REMARK    2  A    between atoms: N_5  and  S_1 
REMARK    3  A    between atoms: C_8  and  C_4 
REMARK    4  A    between atoms: O_12  and  C_8 
ROOT
ATOM      1  C   UNL d   1       0.606   1.663  -0.991  0.00  0.00     0.185 A 
ATOM      2  O   UNL d   1      -0.354   1.616  -1.979  0.00  0.00    -0.291 OA
ATOM      3  C   UNL d   1      -0.538   2.880  -2.468  0.00  0.00     0.152 A 
ATOM      4  C   UNL d   1       1.011   2.985  -0.854  0.00  0.00     0.054 A 
ATOM      5  C   UNL d   1       0.289   3.756  -1.793  0.00  0.00     0.047 A 
ENDROOT
BRANCH   1   6
ATOM      6  S   UNL d   1       1.145   0.190  -0.127  0.00  0.00     0.266 S 
ATOM      7  O   UNL d   1       0.760   0.406   1.253  0.00  0.00    -0.204 OA
ATOM      8  O   UNL d   1       2.533   0.038  -0.506  0.00  0.00    -0.204 OA
BRANCH   6   9
ATOM      9  N   UNL d   1       0.278  -1.153  -0.725  0.00  0.00    -0.205 NA
ATOM     10  C   UNL d   1      -1.178  -1.166  -0.442  0.00  0.00     0.107 C 
ATOM     11  C   UNL d   1      -1.318  -2.091   0.752  0.00  0.00     0.017 C 
ATOM     12  C   UNL d   1      -0.294  -3.173   0.472  0.00  0.00     0.017 C 
ATOM     13  C   UNL d   1       0.825  -2.470  -0.291  0.00  0.00     0.107 C 
ENDBRANCH   6   9
ENDBRANCH   1   6
BRANCH   3  14
ATOM     14  C   UNL d   1      -1.486   3.110  -3.534  0.00  0.00     0.317 C 
ATOM     15  O   UNL d   1      -1.715   4.198  -4.054  0.00  0.00    -0.257 OA
BRANCH  14  16
ATOM     16  O   UNL d   1      -2.099   1.943  -3.879  0.00  0.00    -0.321 OA
ATOM     17  C   UNL d   1      -3.051   2.069  -4.933  0.00  0.00     0.213 C 
ENDBRANCH  14  16
ENDBRANCH   3  14
TORSDOF 4
