REMARK  0 active torsions:
REMARK  status: ('A' for Active; 'I' for Inactive)
ROOT
ATOM      1  C   UNL d   1      -0.978   0.670   0.001  0.00  0.00     0.160 A 
ATOM      2  C   UNL d   1      -0.930  -0.687   0.000  0.00  0.00     0.162 A 
ATOM      3  N   UNL d   1       0.170   1.423   0.001  0.00  0.00    -0.287 N 
ATOM      4  N   UNL d   1       1.412  -0.626   0.020  0.00  0.00    -0.269 N 
ATOM      5  C   UNL d   1       1.413   0.783   0.011  0.00  0.00     0.332 A 
ATOM      6  C   UNL d   1       0.271  -1.435   0.006  0.00  0.00     0.282 A 
ATOM      7  N   UNL d   1      -2.261   1.124   0.009  0.00  0.00    -0.174 N 
ATOM      8  HN  UNL d   1      -2.575   2.094   0.011  1.00  0.00     0.186 HD
ATOM      9  N   UNL d   1      -2.232  -1.093  -0.000  0.00  0.00    -0.182 N 
ATOM     10  C   UNL d   1      -3.010   0.040   0.012  0.00  0.00     0.680 A 
ATOM     11  O   UNL d   1       2.464   1.432   0.017  0.00  0.00    -0.246 OA
ATOM     12  O   UNL d   1       0.287  -2.662   0.004  0.00  0.00    -0.265 OA
ATOM     13  N   UNL d   1      -4.351   0.021   0.030  0.00  0.00    -0.230 N 
ATOM     14  C   UNL d   1       0.133   2.871   0.004  0.00  0.00     0.163 C 
ATOM     15  C   UNL d   1       2.685  -1.317   0.057  0.00  0.00     0.164 C 
ATOM     16  C   UNL d   1      -5.202  -1.139   0.036  0.00  0.00     0.165 C 
ATOM     17  H   UNL d   1      -2.553  -2.049   0.001  0.00  0.00     0.184 HD
ATOM     18  H   UNL d   1      -4.818   0.924   0.069  0.00  0.00     0.177 HD
ENDROOT
TORSDOF 0
