REMARK  3 active torsions:
REMARK  status: ('A' for Active; 'I' for Inactive)
REMARK    1  A    between atoms: C_4  and  N_1 
REMARK    2  A    between atoms: C_3  and  C_2 
REMARK       I    between atoms: N_5  and  C_3 
REMARK    3  A    between atoms: C_6  and  N_5 
ROOT
ATOM      1  C   UNL d   1       1.570   2.897   0.653  0.00  0.00     0.258 C 
ATOM      2  N   UNL d   1       2.533   3.567   1.384  0.00  0.00    -0.321 N 
ATOM      3  O   UNL d   1       1.523   2.934  -0.575  0.00  0.00    -0.267 OA
ATOM      4  H   UNL d   1       2.841   3.184   2.277  0.00  0.00     0.169 HD
ENDROOT
BRANCH   1   5
ATOM      5  C   UNL d   1       0.498   2.100   1.355  0.00  0.00     0.065 A 
ATOM      6  C   UNL d   1       0.263   1.958   2.728  0.00  0.00     0.118 A 
ATOM      7  C   UNL d   1      -0.886   1.310   3.230  0.00  0.00     0.037 A 
ATOM      8  C   UNL d   1      -1.822   0.776   2.351  0.00  0.00     0.002 A 
ATOM      9  C   UNL d   1      -1.606   0.873   0.983  0.00  0.00     0.001 A 
ATOM     10  C   UNL d   1      -0.466   1.522   0.494  0.00  0.00     0.020 A 
BRANCH   6  11
ATOM     11  N   UNL d   1       1.197   2.426   3.723  0.00  0.00    -0.115 N 
ATOM     12  O   UNL d   1       2.366   2.038   3.617  0.00  0.00    -0.532 OA
ATOM     13  O   UNL d   1       0.763   3.168   4.613  0.00  0.00    -0.532 OA
ENDBRANCH   6  11
ENDBRANCH   1   5
BRANCH   2  14
ATOM     14  C   UNL d   1       3.363   4.612   0.890  0.00  0.00     0.057 A 
ATOM     15  C   UNL d   1       4.510   4.988   1.615  0.00  0.00     0.062 A 
ATOM     16  C   UNL d   1       5.341   6.019   1.168  0.00  0.00     0.050 A 
ATOM     17 CL   UNL d   1       4.946   4.184   3.083  0.00  0.00    -0.082 Cl
ATOM     18  C   UNL d   1       5.022   6.698  -0.004  0.00  0.00     0.035 A 
ATOM     19  C   UNL d   1       3.880   6.362  -0.722  0.00  0.00     0.026 A 
ATOM     20 CL   UNL d   1       6.038   7.968  -0.562  0.00  0.00    -0.084 Cl
ATOM     21  C   UNL d   1       3.053   5.326  -0.275  0.00  0.00     0.033 A 
ENDBRANCH   2  14
TORSDOF 3
