REMARK  6 active torsions:
REMARK  status: ('A' for Active; 'I' for Inactive)
REMARK    1  A    between atoms: C_14  and  N_1 
REMARK    2  A    between atoms: C_2  and  C_5 
REMARK    3  A    between atoms: C_20  and  C_14 
REMARK    4  A    between atoms: C_15  and  C_19 
REMARK    5  A    between atoms: S_16  and  C_20 
REMARK    6  A    between atoms: C_19  and  S_16 
ROOT
ATOM      1  C   UNL d   1      -2.964   5.224  -0.356  0.00  0.00     0.112 C 
ENDROOT
BRANCH   1   2
ATOM      2  C   UNL d   1      -3.037   6.730  -0.473  0.00  0.00    -0.048 A 
ATOM      3  C   UNL d   1      -3.012   7.349  -1.734  0.00  0.00     0.024 A 
ATOM      4  C   UNL d   1      -3.018   8.749  -1.855  0.00  0.00     0.048 A 
ATOM      5  C   UNL d   1      -3.056   9.531  -0.692  0.00  0.00     0.016 A 
ATOM      6  C   UNL d   1      -3.079   8.926   0.565  0.00  0.00     0.001 A 
ATOM      7  C   UNL d   1      -3.065   7.536   0.674  0.00  0.00     0.008 A 
BRANCH   4   8
ATOM      8  C   UNL d   1      -2.965   9.417  -3.207  0.00  0.00     0.417 C 
ATOM      9  F   UNL d   1      -2.922   8.540  -4.250  0.00  0.00    -0.166 F 
ATOM     10  F   UNL d   1      -4.045  10.214  -3.438  0.00  0.00    -0.166 F 
ATOM     11  F   UNL d   1      -1.873  10.220  -3.352  0.00  0.00    -0.166 F 
ENDBRANCH   4   8
ENDBRANCH   1   2
BRANCH   1  12
ATOM     12  S   UNL d   1      -1.227   4.678  -0.322  0.00  0.00    -0.163 SA
BRANCH  12  13
ATOM     13  C   UNL d   1      -1.459   2.871  -0.189  0.00  0.00     0.094 C 
BRANCH  13  14
ATOM     14  C   UNL d   1      -0.076   2.214  -0.136  0.00  0.00     0.145 C 
BRANCH  14  15
ATOM     15  N   UNL d   1      -0.126   0.768   0.008  0.00  0.00    -0.288 N 
ATOM     16  C   UNL d   1      -0.145   0.131   1.213  0.00  0.00     0.226 A 
ATOM     17  C   UNL d   1      -0.077  -1.349   0.987  0.00  0.00     0.112 A 
ATOM     18  O   UNL d   1      -0.204   0.657   2.314  0.00  0.00    -0.273 OA
ATOM     19  C   UNL d   1      -0.091  -1.505  -0.523  0.00  0.00     0.112 A 
ATOM     20  C   UNL d   1      -0.129  -0.099  -1.044  0.00  0.00     0.226 A 
ATOM     21  O   UNL d   1      -0.161   0.194  -2.230  0.00  0.00    -0.273 OA
ENDBRANCH  14  15
ENDBRANCH  13  14
ENDBRANCH  12  13
ENDBRANCH   1  12
TORSDOF 6
