REMARK  4 active torsions:
REMARK  status: ('A' for Active; 'I' for Inactive)
REMARK    1  A    between atoms: C_2  and  O_9 
REMARK       I    between atoms: N_10  and  C_2 
REMARK    2  A    between atoms: C_16  and  C_3 
REMARK    3  A    between atoms: O_9  and  C_12 
REMARK    4  A    between atoms: C_19  and  C_16 
ROOT
ATOM      1  C   UNL d   1       0.321   0.371  -0.495  0.00  0.00     0.092 A 
ATOM      2  C   UNL d   1      -0.518  -1.913  -0.083  0.00  0.00    -0.039 C 
ATOM      3  O   UNL d   1      -0.997   0.821  -0.693  0.00  0.00    -0.275 OA
ATOM      4  C   UNL d   1      -2.067   0.002  -0.385  0.00  0.00     0.288 C 
ATOM      5  C   UNL d   1       0.598  -0.956  -0.152  0.00  0.00     0.004 A 
ATOM      6  C   UNL d   1      -1.766  -1.423  -0.172  0.00  0.00     0.090 C 
ATOM      7  C   UNL d   1       1.317   1.340  -0.595  0.00  0.00     0.075 A 
ATOM      8  C   UNL d   1       1.931  -1.286   0.123  0.00  0.00     0.017 A 
ATOM      9  C   UNL d   1       2.627   0.998  -0.273  0.00  0.00     0.083 A 
ATOM     10  O   UNL d   1      -3.220   0.413  -0.343  0.00  0.00    -0.260 OA
ATOM     11  C   UNL d   1       2.942  -0.313   0.073  0.00  0.00     0.038 A 
ENDROOT
BRANCH   9  12
ATOM     12  O   UNL d   1       3.539   2.080  -0.282  0.00  0.00    -0.261 OA
BRANCH  12  13
ATOM     13  C   UNL d   1       4.791   2.107   0.344  0.00  0.00     0.367 C 
ATOM     14  N   UNL d   1       5.356   3.375   0.357  0.00  0.00    -0.336 N 
ATOM     15  C   UNL d   1       6.698   3.546   0.881  0.00  0.00     0.154 C 
ATOM     16  C   UNL d   1       4.741   4.534  -0.267  0.00  0.00     0.154 C 
ATOM     17  O   UNL d   1       5.333   1.125   0.842  0.00  0.00    -0.238 OA
ENDBRANCH  12  13
ENDBRANCH   9  12
BRANCH   2  18
ATOM     18  C   UNL d   1      -0.280  -3.400  -0.001  0.00  0.00     0.039 C 
BRANCH  18  19
ATOM     19  C   UNL d   1      -0.098  -3.934   1.423  0.00  0.00     0.000 C 
ATOM     20  C   UNL d   1       0.128  -5.442   1.406  0.00  0.00     0.005 C 
ENDBRANCH  18  19
ENDBRANCH   2  18
TORSDOF 4
