REMARK  3 active torsions:
REMARK  status: ('A' for Active; 'I' for Inactive)
REMARK    1  A    between atoms: C_7  and  N_1 
REMARK    2  A    between atoms: N_4  and  C_8 
REMARK    3  A    between atoms: C_11  and  C_5 
ROOT
ATOM      1  N   UNL d   1       0.005   0.858  -0.074  0.00  0.00    -0.252 N 
ATOM      2  C   UNL d   1      -1.117   0.070   0.102  0.00  0.00     0.240 C 
ATOM      3  C   UNL d   1       1.145   0.090  -0.169  0.00  0.00     0.232 C 
ATOM      4  C   UNL d   1      -0.715  -1.386   0.025  0.00  0.00     0.120 C 
ATOM      5  C   UNL d   1       0.799  -1.356   0.017  0.00  0.00     0.122 C 
ATOM      6  O   UNL d   1      -2.284   0.416   0.236  0.00  0.00    -0.272 OA
ATOM      7  O   UNL d   1       2.308   0.446  -0.310  0.00  0.00    -0.273 OA
ENDROOT
BRANCH   4   8
ATOM      8  C   UNL d   1      -1.319  -2.087  -1.179  0.00  0.00    -0.044 A 
ATOM      9  C   UNL d   1      -1.008  -1.693  -2.493  0.00  0.00     0.010 A 
ATOM     10  C   UNL d   1      -1.611  -2.319  -3.588  0.00  0.00     0.036 A 
ATOM     11  C   UNL d   1      -2.535  -3.347  -3.373  0.00  0.00     0.102 A 
ATOM     12  C   UNL d   1      -2.845  -3.764  -2.074  0.00  0.00     0.036 A 
ATOM     13  C   UNL d   1      -2.237  -3.133  -0.985  0.00  0.00     0.010 A 
BRANCH  11  14
ATOM     14  N   UNL d   1      -3.198  -3.979  -4.521  0.00  0.00    -0.116 N 
ATOM     15  O   UNL d   1      -2.904  -3.569  -5.653  0.00  0.00    -0.532 OA
ATOM     16  O   UNL d   1      -4.011  -4.885  -4.290  0.00  0.00    -0.532 OA
ENDBRANCH  11  14
ENDBRANCH   4   8
BRANCH   1  17
ATOM     17  C   UNL d   1      -0.014   2.286  -0.151  0.00  0.00     0.045 A 
ATOM     18  C   UNL d   1      -1.087   3.037   0.356  0.00  0.00     0.031 A 
ATOM     19  C   UNL d   1      -1.103   4.437   0.287  0.00  0.00     0.020 A 
ATOM     20  C   UNL d   1      -0.045   5.115  -0.306  0.00  0.00     0.006 A 
ATOM     21  C   UNL d   1       1.028   4.400  -0.826  0.00  0.00     0.020 A 
ATOM     22  I   UNL d   1      -0.065   7.187  -0.416  0.00  0.00    -0.045 I 
ATOM     23  C   UNL d   1       1.042   3.001  -0.743  0.00  0.00     0.031 A 
ENDBRANCH   1  17
TORSDOF 3
