REMARK  6 active torsions:
REMARK  status: ('A' for Active; 'I' for Inactive)
REMARK    1  A    between atoms: C_3  and  N_1 
REMARK    2  A    between atoms: C_2  and  C_6 
REMARK       I    between atoms: N_12  and  C_2 
REMARK    3  A    between atoms: C_21  and  N_12 
REMARK    4  A    between atoms: C_13  and  S_15 
REMARK    5  A    between atoms: S_15  and  C_22 
REMARK    6  A    between atoms: C_22  and  C_21 
ROOT
ATOM      1  C   UNL d   1      -0.436   4.711  -3.387  0.00  0.00     0.251 C 
ATOM      2  O   UNL d   1       0.016   5.841  -3.226  0.00  0.00    -0.268 OA
ATOM      3  N   UNL d   1      -1.559   4.478  -4.148  0.00  0.00    -0.356 N 
ATOM      4  H   UNL d   1      -1.840   3.539  -4.395  0.00  0.00     0.162 HD
ENDROOT
BRANCH   3   5
ATOM      5  C   UNL d   1      -2.237   5.552  -4.855  0.00  0.00     0.133 C 
BRANCH   5   6
ATOM      6  C   UNL d   1      -1.673   5.815  -6.255  0.00  0.00     0.099 C 
BRANCH   6   7
ATOM      7  S   UNL d   1      -1.889   4.344  -7.332  0.00  0.00    -0.128 SA
BRANCH   7   8
ATOM      8  C   UNL d   1      -1.125   4.862  -8.864  0.00  0.00     0.000 A 
ATOM      9  C   UNL d   1      -0.554   3.868  -9.672  0.00  0.00     0.020 A 
ATOM     10  C   UNL d   1       0.037   4.191 -10.898  0.00  0.00     0.025 A 
ATOM     11  C   UNL d   1       0.050   5.514 -11.330  0.00  0.00     0.034 A 
ATOM     12  C   UNL d   1      -0.527   6.511 -10.548  0.00  0.00     0.025 A 
ATOM     13 CL   UNL d   1       0.776   5.919 -12.835  0.00  0.00    -0.084 Cl
ATOM     14  C   UNL d   1      -1.115   6.184  -9.320  0.00  0.00     0.020 A 
ENDBRANCH   7   8
ENDBRANCH   6   7
ENDBRANCH   5   6
ENDBRANCH   3   5
BRANCH   1  15
ATOM     15  C   UNL d   1       0.248   3.541  -2.752  0.00  0.00     0.032 A 
ATOM     16  C   UNL d   1       1.392   3.799  -1.976  0.00  0.00     0.019 A 
ATOM     17  C   UNL d   1       2.101   2.761  -1.362  0.00  0.00     0.037 A 
ATOM     18  C   UNL d   1       1.661   1.443  -1.521  0.00  0.00     0.102 A 
ATOM     19  C   UNL d   1       0.515   1.166  -2.280  0.00  0.00     0.037 A 
ATOM     20  C   UNL d   1      -0.189   2.214  -2.891  0.00  0.00     0.019 A 
BRANCH  18  21
ATOM     21  N   UNL d   1       2.401   0.344  -0.890  0.00  0.00    -0.116 N 
ATOM     22  O   UNL d   1       1.970  -0.807  -1.051  0.00  0.00    -0.532 OA
ATOM     23  O   UNL d   1       3.414   0.630  -0.236  0.00  0.00    -0.532 OA
ENDBRANCH  18  21
ENDBRANCH   1  15
TORSDOF 6
