REMARK  4 active torsions:
REMARK  status: ('A' for Active; 'I' for Inactive)
REMARK    1  A    between atoms: C_4  and  C_1 
REMARK       I    between atoms: N_7  and  C_4 
REMARK    2  A    between atoms: C_10  and  N_7 
REMARK    3  A    between atoms: C_15  and  C_10 
REMARK    4  A    between atoms: C_16  and  C_10 
ROOT
ATOM      1  C   UNL d   1       2.907  -2.604   1.094  0.00  0.00    -0.086 C 
ATOM      2  C   UNL d   1       2.177  -2.669   2.044  0.00  0.00     0.015 C 
ATOM      3  C   UNL d   1       3.924  -2.493   0.008  0.00  0.00     0.095 C 
ENDROOT
BRANCH   3   4
ATOM      4  N   UNL d   1       4.491  -1.150   0.125  0.00  0.00    -0.336 N 
ATOM      5  C   UNL d   1       5.599  -0.669  -0.540  0.00  0.00     0.261 C 
ATOM      6  O   UNL d   1       6.230  -1.376  -1.320  0.00  0.00    -0.267 OA
ATOM      7  H   UNL d   1       3.973  -0.481   0.680  0.00  0.00     0.164 HD
BRANCH   5   8
ATOM      8  C   UNL d   1       5.966   0.714  -0.229  0.00  0.00     0.096 A 
ATOM      9  S   UNL d   1       4.915   1.717   0.683  0.00  0.00    -0.082 SA
ATOM     10  C   UNL d   1       5.986   3.057   0.637  0.00  0.00     0.017 A 
ATOM     11  C   UNL d   1       5.785   4.318   1.236  0.00  0.00     0.020 A 
ATOM     12  C   UNL d   1       7.140   2.763  -0.090  0.00  0.00     0.004 A 
ATOM     13  C   UNL d   1       6.765   5.302   1.094  0.00  0.00     0.001 A 
ATOM     14  C   UNL d   1       7.916   5.046   0.366  0.00  0.00     0.001 A 
ATOM     15  C   UNL d   1       8.111   3.793  -0.224  0.00  0.00     0.014 A 
ATOM     16  C   UNL d   1       7.117   1.401  -0.571  0.00  0.00     0.068 A 
ATOM     17 CL   UNL d   1       8.445   0.752  -1.455  0.00  0.00    -0.082 Cl
ENDBRANCH   5   8
ENDBRANCH   3   4
BRANCH   3  18
ATOM     18  C   UNL d   1       3.279  -2.728  -1.385  0.00  0.00     0.040 C 
ATOM     19  C   UNL d   1       2.217  -1.730  -1.830  0.00  0.00     0.009 C 
ENDBRANCH   3  18
BRANCH   3  20
ATOM     20  C   UNL d   1       4.975  -3.626   0.214  0.00  0.00     0.040 C 
ATOM     21  C   UNL d   1       5.849  -3.506   1.457  0.00  0.00     0.009 C 
ENDBRANCH   3  20
TORSDOF 4
