REMARK  6 active torsions:
REMARK  status: ('A' for Active; 'I' for Inactive)
REMARK    1  A    between atoms: N_4  and  C_1 
REMARK    2  A    between atoms: N_5  and  C_1 
REMARK    3  A    between atoms: C_3  and  C_9 
REMARK    4  A    between atoms: N_7  and  N_4 
REMARK    5  A    between atoms: C_8  and  N_5 
REMARK    6  A    between atoms: C_9  and  C_8 
ROOT
ATOM      1  N   UNL d   1       2.319  -0.010  -0.173  0.00  0.00    -0.366 N 
ATOM      2  H   UNL d   1       2.726   0.891   0.045  0.00  0.00     0.161 HD
ENDROOT
BRANCH   1   3
ATOM      3  C   UNL d   1       0.946  -0.056  -0.125  0.00  0.00     0.182 C 
ATOM      4  S   UNL d   1       0.090   1.356   0.149  0.00  0.00    -0.040 SA
BRANCH   3   5
ATOM      5  N   UNL d   1       0.382  -1.305  -0.301  0.00  0.00    -0.298 N 
ATOM      6  H   UNL d   1       0.990  -2.089  -0.511  0.00  0.00     0.183 HD
BRANCH   5   7
ATOM      7  N   UNL d   1      -0.885  -1.637   0.221  0.00  0.00    -0.243 NA
ATOM      8  C   UNL d   1      -1.786  -2.076  -0.838  0.00  0.00     0.133 C 
ATOM      9  H   UNL d   1      -1.276  -0.798   0.665  0.00  0.00     0.146 HD
ENDBRANCH   5   7
ENDBRANCH   3   5
ENDBRANCH   1   3
BRANCH   1  10
ATOM     10  C   UNL d   1       3.176  -1.184  -0.229  0.00  0.00     0.126 C 
BRANCH  10  11
ATOM     11  C   UNL d   1       4.673  -0.909  -0.143  0.00  0.00     0.053 C 
BRANCH  11  12
ATOM     12  C   UNL d   1       5.486  -2.184  -0.307  0.00  0.00    -0.082 C 
ATOM     13  C   UNL d   1       6.357  -2.333  -1.322  0.00  0.00    -0.024 C 
ATOM     14  C   UNL d   1       7.179  -3.570  -1.551  0.00  0.00     0.027 C 
ATOM     15  C   UNL d   1       6.714  -4.772  -0.730  0.00  0.00     0.004 C 
ATOM     16  C   UNL d   1       6.369  -4.359   0.696  0.00  0.00     0.005 C 
ATOM     17  C   UNL d   1       5.279  -3.282   0.716  0.00  0.00     0.034 C 
ENDBRANCH  11  12
ENDBRANCH  10  11
ENDBRANCH   1  10
TORSDOF 6
