REMARK  4 active torsions:
REMARK  status: ('A' for Active; 'I' for Inactive)
REMARK    1  A    between atoms: C_13  and  N_4 
REMARK    2  A    between atoms: N_11  and  C_14 
REMARK    3  A    between atoms: N_20  and  C_12 
REMARK    4  A    between atoms: C_26  and  N_20 
ROOT
ATOM      1  C   UNL d   1       0.081  -0.746  -0.116  0.00  0.00     0.141 C 
ATOM      2  C   UNL d   1       0.026   0.610  -0.028  0.00  0.00     0.128 C 
ATOM      3  N   UNL d   1       1.365  -1.343  -0.213  0.00  0.00    -0.288 N 
ATOM      4  N   UNL d   1      -1.135  -1.500  -0.080  0.00  0.00    -0.262 N 
ATOM      5  N   UNL d   1       2.457   0.733   0.059  0.00  0.00    -0.270 N 
ATOM      6  C   UNL d   1       2.558  -0.628  -0.060  0.00  0.00     0.332 C 
ATOM      7  C   UNL d   1       1.272   1.414  -0.022  0.00  0.00     0.269 C 
ATOM      8  C   UNL d   1      -2.432   0.507  -0.338  0.00  0.00     0.099 C 
ATOM      9  C   UNL d   1      -2.408  -0.913   0.012  0.00  0.00     0.269 C 
ATOM     10  C   UNL d   1      -1.273   1.336  -0.035  0.00  0.00     0.208 C 
ATOM     11  C   UNL d   1      -3.428   0.988  -1.102  0.00  0.00     0.109 C 
ATOM     12  O   UNL d   1       3.663  -1.185  -0.046  0.00  0.00    -0.246 OA
ATOM     13  O   UNL d   1       1.244   2.640  -0.112  0.00  0.00    -0.267 OA
ATOM     14  O   UNL d   1      -3.461  -1.511   0.238  0.00  0.00    -0.266 OA
ATOM     15  O   UNL d   1      -1.401   2.538   0.156  0.00  0.00    -0.286 OA
ATOM     16  C   UNL d   1       1.590  -2.766  -0.448  0.00  0.00     0.163 C 
ATOM     17  C   UNL d   1       3.674   1.527   0.120  0.00  0.00     0.164 C 
ENDROOT
BRANCH  11  18
ATOM     18  N   UNL d   1      -4.547   0.311  -1.529  0.00  0.00    -0.365 N 
ATOM     19  H   UNL d   1      -4.713  -0.590  -1.069  0.00  0.00     0.165 HD
BRANCH  18  20
ATOM     20  C   UNL d   1      -5.384   0.597  -2.617  0.00  0.00     0.032 A 
ATOM     21  C   UNL d   1      -5.035   1.492  -3.637  0.00  0.00     0.032 A 
ATOM     22  C   UNL d   1      -5.934   1.800  -4.665  0.00  0.00     0.038 A 
ATOM     23  C   UNL d   1      -7.209   1.226  -4.662  0.00  0.00     0.103 A 
ATOM     24  C   UNL d   1      -7.580   0.333  -3.652  0.00  0.00     0.038 A 
ATOM     25  C   UNL d   1      -6.665   0.024  -2.640  0.00  0.00     0.032 A 
BRANCH  23  26
ATOM     26  N   UNL d   1      -8.169   1.574  -5.716  0.00  0.00    -0.116 N 
ATOM     27  O   UNL d   1      -7.794   2.353  -6.603  0.00  0.00    -0.532 OA
ATOM     28  O   UNL d   1      -9.300   1.069  -5.656  0.00  0.00    -0.532 OA
ENDBRANCH  23  26
ENDBRANCH  18  20
ENDBRANCH  11  18
BRANCH   4  29
ATOM     29  C   UNL d   1      -1.247  -2.892  -0.366  0.00  0.00     0.044 A 
ATOM     30  C   UNL d   1      -1.460  -3.280  -1.698  0.00  0.00     0.030 A 
ATOM     31  C   UNL d   1      -1.544  -4.631  -2.022  0.00  0.00     0.002 A 
ATOM     32  C   UNL d   1      -1.455  -5.589  -1.014  0.00  0.00     0.000 A 
ATOM     33  C   UNL d   1      -1.317  -5.198   0.321  0.00  0.00     0.002 A 
ATOM     34  C   UNL d   1      -1.228  -3.845   0.654  0.00  0.00     0.030 A 
ENDBRANCH   4  29
TORSDOF 4
