REMARK  1 active torsions:
REMARK  status: ('A' for Active; 'I' for Inactive)
REMARK    1  A    between atoms: C_6  and  N_1 
ROOT
ATOM      1  N   UNL d   1      -2.307  -0.035  -0.165  0.00  0.00    -0.252 N 
ATOM      2  C   UNL d   1      -1.582  -1.117   0.286  0.00  0.00     0.236 C 
ATOM      3  C   UNL d   1      -1.513   1.090  -0.226  0.00  0.00     0.236 C 
ATOM      4  C   UNL d   1      -0.235  -0.658   0.793  0.00  0.00     0.096 C 
ATOM      5  C   UNL d   1      -0.281   0.848   0.613  0.00  0.00     0.095 C 
ATOM      6  C   UNL d   1       0.964   1.565   0.107  0.00  0.00     0.042 C 
ATOM      7  C   UNL d   1       0.894  -1.448   0.128  0.00  0.00     0.048 C 
ATOM      8  O   UNL d   1      -1.900  -2.301   0.271  0.00  0.00    -0.272 OA
ATOM      9  O   UNL d   1      -1.755   2.172  -0.745  0.00  0.00    -0.272 OA
ATOM     10  C   UNL d   1       2.031   0.693  -0.466  0.00  0.00    -0.023 C 
ATOM     11  C   UNL d   1       2.019  -0.646  -0.459  0.00  0.00    -0.087 C 
ATOM     12  C   UNL d   1       3.173  -1.423  -1.028  0.00  0.00     0.043 C 
ENDROOT
BRANCH   1  13
ATOM     13  C   UNL d   1      -3.698  -0.080  -0.514  0.00  0.00     0.048 A 
ATOM     14  C   UNL d   1      -4.516  -1.133  -0.065  0.00  0.00     0.054 A 
ATOM     15  C   UNL d   1      -5.897  -1.129  -0.287  0.00  0.00     0.037 A 
ATOM     16 CL   UNL d   1      -6.863  -2.409   0.342  0.00  0.00    -0.084 Cl
ATOM     17  C   UNL d   1      -6.503  -0.090  -0.976  0.00  0.00     0.048 A 
ATOM     18  C   UNL d   1      -5.709   0.946  -1.450  0.00  0.00     0.037 A 
ATOM     19  C   UNL d   1      -4.327   0.957  -1.224  0.00  0.00     0.054 A 
ATOM     20 CL   UNL d   1      -6.445   2.246  -2.308  0.00  0.00    -0.084 Cl
ENDBRANCH   1  13
TORSDOF 1
