REMARK  7 active torsions:
REMARK  status: ('A' for Active; 'I' for Inactive)
REMARK    1  A    between atoms: C_2  and  S_1 
REMARK    2  A    between atoms: N_5  and  S_1 
REMARK    3  A    between atoms: C_9  and  C_3 
REMARK    4  A    between atoms: C_4  and  N_5 
REMARK    5  A    between atoms: O_21  and  C_9 
REMARK    6  A    between atoms: O_23  and  C_15 
REMARK    7  A    between atoms: O_24  and  C_16 
ROOT
ATOM      1  C   UNL d   1       2.230  -2.423  -1.548  0.00  0.00     0.069 A 
ATOM      2  C   UNL d   1       0.944  -2.415  -0.979  0.00  0.00     0.061 A 
ATOM      3  C   UNL d   1       2.521  -3.378  -2.539  0.00  0.00     0.059 A 
ATOM      4  C   UNL d   1       0.009  -3.395  -1.375  0.00  0.00     0.070 A 
ATOM      5  C   UNL d   1       1.574  -4.311  -2.972  0.00  0.00     0.102 A 
ATOM      6  C   UNL d   1       0.309  -4.343  -2.371  0.00  0.00     0.103 A 
ENDROOT
BRANCH   2   7
ATOM      7  N   UNL d   1       0.574  -1.506   0.069  0.00  0.00    -0.279 N 
ATOM      8  H   UNL d   1       0.407  -1.933   0.982  0.00  0.00     0.179 HD
BRANCH   7   9
ATOM      9  S   UNL d   1      -0.554  -0.267  -0.166  0.00  0.00     0.266 S 
ATOM     10  O   UNL d   1      -1.545  -0.694  -1.141  0.00  0.00    -0.200 OA
ATOM     11  O   UNL d   1      -0.992   0.012   1.179  0.00  0.00    -0.200 OA
BRANCH   9  12
ATOM     12  C   UNL d   1       0.302   1.148  -0.834  0.00  0.00     0.123 A 
ATOM     13  C   UNL d   1       0.763   1.131  -2.166  0.00  0.00     0.060 A 
ATOM     14  C   UNL d   1       1.401   2.249  -2.732  0.00  0.00     0.049 A 
ATOM     15 CL   UNL d   1       0.533  -0.168  -3.284  0.00  0.00    -0.083 Cl
ATOM     16  C   UNL d   1       1.517   3.426  -2.014  0.00  0.00     0.037 A 
ATOM     17  C   UNL d   1       1.020   3.491  -0.723  0.00  0.00     0.049 A 
ATOM     18 CL   UNL d   1       2.222   4.813  -2.743  0.00  0.00    -0.084 Cl
ATOM     19  C   UNL d   1       0.422   2.362  -0.126  0.00  0.00     0.060 A 
ATOM     20 CL   UNL d   1      -0.163   2.672   1.472  0.00  0.00    -0.083 Cl
ENDBRANCH   9  12
ENDBRANCH   7   9
ENDBRANCH   2   7
BRANCH   1  21
ATOM     21  C   UNL d   1       3.340  -1.476  -1.235  0.00  0.00     0.295 C 
ATOM     22  O   UNL d   1       4.421  -1.523  -1.805  0.00  0.00    -0.259 OA
BRANCH  21  23
ATOM     23  O   UNL d   1       3.006  -0.558  -0.299  0.00  0.00    -0.322 OA
ATOM     24  C   UNL d   1       4.027   0.395   0.016  0.00  0.00     0.213 C 
ENDBRANCH  21  23
ENDBRANCH   1  21
BRANCH   6  25
ATOM     25  O   UNL d   1      -0.545  -5.332  -2.775  0.00  0.00    -0.353 OA
ATOM     26  C   UNL d   1      -1.830  -5.417  -2.178  0.00  0.00     0.210 C 
ENDBRANCH   6  25
BRANCH   5  27
ATOM     27  O   UNL d   1       2.058  -5.163  -3.933  0.00  0.00    -0.353 OA
ATOM     28  C   UNL d   1       1.134  -5.624  -4.913  0.00  0.00     0.210 C 
ENDBRANCH   5  27
TORSDOF 7
