REMARK  4 active torsions:
REMARK  status: ('A' for Active; 'I' for Inactive)
REMARK    1  A    between atoms: C_9  and  C_3 
REMARK    2  A    between atoms: O_14  and  C_4 
REMARK    3  A    between atoms: S_13  and  C_5 
REMARK    4  A    between atoms: C_8  and  C_9 
ROOT
ATOM      1  N   UNL d   1      -0.548   1.305   0.174  0.00  0.00    -0.317 N 
ATOM      2  HN  UNL d   1      -1.020   2.208   0.206  1.00  0.00     0.170 HD
ATOM      3  C   UNL d   1      -0.664  -1.116   0.112  0.00  0.00     0.019 A 
ATOM      4  C   UNL d   1      -1.225   0.151   0.168  0.00  0.00     0.150 A 
ATOM      5  C   UNL d   1       0.781   1.202   0.134  0.00  0.00     0.146 A 
ATOM      6  N   UNL d   1       1.446   0.038   0.108  0.00  0.00    -0.340 N 
ATOM      7  HN  UNL d   1       2.465   0.016   0.102  1.00  0.00     0.167 HD
ATOM      8  C   UNL d   1       0.726  -1.106   0.091  0.00  0.00     0.018 A 
ATOM      9  C   UNL d   1       1.548  -2.355   0.003  0.00  0.00     0.069 C 
ENDROOT
BRANCH   3  10
ATOM     10  C   UNL d   1      -1.492  -2.367  -0.048  0.00  0.00     0.088 C 
BRANCH  10  11
ATOM     11  C   UNL d   1      -1.828  -3.163   1.198  0.00  0.00     0.007 A 
ATOM     12  C   UNL d   1      -1.389  -4.481   1.423  0.00  0.00     0.043 A 
ATOM     13 CL   UNL d   1      -0.328  -5.309   0.339  0.00  0.00    -0.084 Cl
ATOM     14  C   UNL d   1      -1.839  -5.213   2.533  0.00  0.00     0.024 A 
ATOM     15  C   UNL d   1      -2.740  -4.655   3.436  0.00  0.00     0.005 A 
ATOM     16  C   UNL d   1      -3.180  -3.353   3.238  0.00  0.00     0.043 A 
ATOM     17  C   UNL d   1      -2.724  -2.631   2.136  0.00  0.00     0.124 A 
ATOM     18  F   UNL d   1      -3.215  -1.396   1.961  0.00  0.00    -0.205 F 
ENDBRANCH  10  11
ENDBRANCH   3  10
BRANCH   4  19
ATOM     19  O   UNL d   1      -2.580   0.330   0.163  0.00  0.00    -0.346 OA
ATOM     20  H   UNL d   1      -2.931  -0.235   0.875  0.00  0.00     0.219 HD
ENDBRANCH   4  19
BRANCH   5  21
ATOM     21  S   UNL d   1       1.778   2.672   0.086  0.00  0.00    -0.098 SA
ATOM     22  C   UNL d   1       0.495   3.942   0.190  0.00  0.00     0.099 C 
ENDBRANCH   5  21
TORSDOF 4
