REMARK  4 active torsions:
REMARK  status: ('A' for Active; 'I' for Inactive)
REMARK    1  A    between atoms: C_4  and  N_1 
REMARK    2  A    between atoms: C_2  and  C_3 
REMARK       I    between atoms: C_3  and  N_5 
REMARK    3  A    between atoms: N_5  and  N_10 
REMARK    4  A    between atoms: N_10  and  C_9 
ROOT
ATOM      1  C   UNL d   1      -3.876   1.065   5.061  0.00  0.00     0.269 C 
ATOM      2  N   UNL d   1      -3.464   1.739   3.929  0.00  0.00    -0.279 N 
ATOM      3  O   UNL d   1      -3.139   0.787   6.010  0.00  0.00    -0.266 OA
ATOM      4  H   UNL d   1      -4.104   2.046   3.200  0.00  0.00     0.184 HD
ENDROOT
BRANCH   2   5
ATOM      5  N   UNL d   1      -2.140   2.245   3.869  0.00  0.00    -0.182 NA
ATOM      6  C   UNL d   1      -1.953   3.501   4.601  0.00  0.00     0.144 C 
BRANCH   5   7
ATOM      7  C   UNL d   1      -1.621   2.269   2.547  0.00  0.00     0.100 A 
ATOM      8  C   UNL d   1      -1.835   1.173   1.701  0.00  0.00     0.046 A 
ATOM      9  C   UNL d   1      -1.536   1.268   0.341  0.00  0.00     0.041 A 
ATOM     10  C   UNL d   1      -0.996   2.458  -0.137  0.00  0.00     0.118 A 
ATOM     11  C   UNL d   1      -0.697   3.461   0.766  0.00  0.00     0.125 A 
ATOM     12  N   UNL d   1      -0.992   3.379   2.086  0.00  0.00    -0.353 N 
ATOM     13  HN  UNL d   1      -0.746   4.138   2.722  1.00  0.00     0.166 HD
BRANCH  10  14
ATOM     14  N   UNL d   1      -0.819   2.689  -1.562  0.00  0.00    -0.114 N 
ATOM     15  O   UNL d   1      -0.390   3.796  -1.917  0.00  0.00    -0.532 OA
ATOM     16  O   UNL d   1      -1.143   1.779  -2.336  0.00  0.00    -0.532 OA
ENDBRANCH  10  14
ENDBRANCH   5   7
ENDBRANCH   2   5
BRANCH   1  17
ATOM     17  C   UNL d   1      -5.319   0.701   5.140  0.00  0.00     0.072 A 
ATOM     18  C   UNL d   1      -6.202   0.854   4.068  0.00  0.00     0.135 A 
ATOM     19  C   UNL d   1      -7.550   0.527   4.193  0.00  0.00     0.085 A 
ATOM     20  F   UNL d   1      -5.777   1.328   2.886  0.00  0.00    -0.205 F 
ATOM     21  C   UNL d   1      -8.020   0.041   5.405  0.00  0.00     0.119 A 
ATOM     22  C   UNL d   1      -7.165  -0.130   6.488  0.00  0.00     0.043 A 
ATOM     23  F   UNL d   1      -9.317  -0.264   5.536  0.00  0.00    -0.206 F 
ATOM     24  C   UNL d   1      -5.813   0.196   6.356  0.00  0.00     0.023 A 
ENDBRANCH   1  17
TORSDOF 4
