REMARK  7 active torsions:
REMARK  status: ('A' for Active; 'I' for Inactive)
REMARK    1  A    between atoms: C_8  and  S_1 
REMARK    2  A    between atoms: C_2  and  C_11 
REMARK    3  A    between atoms: C_3  and  C_12 
REMARK    4  A    between atoms: C_4  and  C_9 
REMARK    5  A    between atoms: C_5  and  C_10 
REMARK    6  A    between atoms: C_6  and  C_8 
REMARK    7  A    between atoms: C_7  and  C_8 
ROOT
ATOM      1  C   UNL d   1       0.379  -0.768   1.346  0.00  0.00     0.173 C 
ENDROOT
BRANCH   1   2
ATOM      2  C   UNL d   1      -1.145  -0.721   1.466  0.00  0.00    -0.034 A 
ATOM      3  C   UNL d   1      -1.728  -0.047   2.558  0.00  0.00     0.025 A 
ATOM      4  C   UNL d   1      -3.124   0.077   2.692  0.00  0.00     0.049 A 
ATOM      5  C   UNL d   1      -3.955  -0.520   1.732  0.00  0.00     0.032 A 
ATOM      6  C   UNL d   1      -3.409  -1.198   0.635  0.00  0.00     0.049 A 
ATOM      7  C   UNL d   1      -2.012  -1.274   0.507  0.00  0.00     0.025 A 
BRANCH   4   8
ATOM      8  C   UNL d   1      -3.742   0.848   3.838  0.00  0.00     0.417 C 
ATOM      9  F   UNL d   1      -2.827   1.495   4.612  0.00  0.00    -0.166 F 
ATOM     10  F   UNL d   1      -4.615   1.802   3.412  0.00  0.00    -0.166 F 
ATOM     11  F   UNL d   1      -4.446   0.045   4.681  0.00  0.00    -0.166 F 
ENDBRANCH   4   8
BRANCH   6  12
ATOM     12  C   UNL d   1      -4.322  -1.822  -0.398  0.00  0.00     0.417 C 
ATOM     13  F   UNL d   1      -3.658  -2.444  -1.410  0.00  0.00    -0.166 F 
ATOM     14  F   UNL d   1      -5.140  -2.766   0.145  0.00  0.00    -0.166 F 
ATOM     15  F   UNL d   1      -5.142  -0.910  -0.987  0.00  0.00    -0.166 F 
ENDBRANCH   6  12
ENDBRANCH   1   2
BRANCH   1  16
ATOM     16  C   UNL d   1       1.081  -2.119   1.465  0.00  0.00    -0.034 A 
ATOM     17  C   UNL d   1       0.725  -3.239   0.695  0.00  0.00     0.025 A 
ATOM     18  C   UNL d   1       1.494  -4.414   0.694  0.00  0.00     0.049 A 
ATOM     19  C   UNL d   1       2.654  -4.467   1.478  0.00  0.00     0.032 A 
ATOM     20  C   UNL d   1       3.038  -3.373   2.267  0.00  0.00     0.049 A 
ATOM     21  C   UNL d   1       2.228  -2.223   2.278  0.00  0.00     0.025 A 
BRANCH  18  22
ATOM     22  C   UNL d   1       1.115  -5.591  -0.181  0.00  0.00     0.417 C 
ATOM     23  F   UNL d   1      -0.017  -5.388  -0.908  0.00  0.00    -0.166 F 
ATOM     24  F   UNL d   1       2.091  -5.897  -1.079  0.00  0.00    -0.166 F 
ATOM     25  F   UNL d   1       0.900  -6.723   0.542  0.00  0.00    -0.166 F 
ENDBRANCH  18  22
BRANCH  20  26
ATOM     26  C   UNL d   1       4.348  -3.416   3.023  0.00  0.00     0.417 C 
ATOM     27  F   UNL d   1       4.587  -2.287   3.747  0.00  0.00    -0.166 F 
ATOM     28  F   UNL d   1       4.420  -4.453   3.898  0.00  0.00    -0.166 F 
ATOM     29  F   UNL d   1       5.412  -3.550   2.184  0.00  0.00    -0.166 F 
ENDBRANCH  20  26
ENDBRANCH   1  16
BRANCH   1  30
ATOM     30  S   UNL d   1       0.895   0.032  -0.208  0.00  0.00     0.153 S 
ATOM     31  O   UNL d   1       0.445   1.417  -0.174  0.00  0.00    -0.227 OA
ATOM     32  O   UNL d   1       0.559  -0.812  -1.341  0.00  0.00    -0.227 OA
ATOM     33  C   UNL d   1       2.670   0.093  -0.113  0.00  0.00     0.162 C 
ENDBRANCH   1  30
TORSDOF 7
