REMARK  3 active torsions:
REMARK  status: ('A' for Active; 'I' for Inactive)
REMARK    1  A    between atoms: C_11  and  C_5 
REMARK    2  A    between atoms: O_19  and  C_12 
REMARK    3  A    between atoms: O_20  and  C_14 
ROOT
ATOM      1  C   UNL d   1      -2.073   0.325   0.067  0.00  0.00    -0.006 C 
ATOM      2  C   UNL d   1      -1.091  -0.804   0.035  0.00  0.00     0.189 C 
ATOM      3  C   UNL d   1       0.351  -0.420   0.029  0.00  0.00     0.021 A 
ATOM      4  C   UNL d   1       0.739   0.930  -0.022  0.00  0.00    -0.041 A 
ATOM      5  C   UNL d   1      -3.283   0.115  -0.483  0.00  0.00     0.022 C 
ATOM      6  C   UNL d   1       1.325  -1.424   0.038  0.00  0.00     0.019 A 
ATOM      7  C   UNL d   1      -1.560   1.601   0.668  0.00  0.00     0.047 C 
ATOM      8  O   UNL d   1      -1.438  -1.978  -0.006  0.00  0.00    -0.287 OA
ATOM      9  C   UNL d   1       2.104   1.246  -0.096  0.00  0.00     0.044 A 
ATOM     10  C   UNL d   1      -0.287   2.032  -0.050  0.00  0.00     0.044 C 
ATOM     11  C   UNL d   1       3.078   0.243  -0.089  0.00  0.00     0.068 A 
ATOM     12  C   UNL d   1       2.683  -1.093  -0.015  0.00  0.00     0.038 A 
ENDROOT
BRANCH   5  13
ATOM     13  C   UNL d   1      -4.280   1.172  -0.649  0.00  0.00    -0.035 A 
ATOM     14  C   UNL d   1      -4.262   1.953  -1.811  0.00  0.00     0.014 A 
ATOM     15  C   UNL d   1      -5.161   3.013  -1.968  0.00  0.00     0.037 A 
ATOM     16  C   UNL d   1      -6.085   3.302  -0.964  0.00  0.00     0.068 A 
ATOM     17  C   UNL d   1      -6.111   2.510   0.189  0.00  0.00     0.037 A 
ATOM     18  C   UNL d   1      -5.213   1.450   0.350  0.00  0.00     0.014 A 
BRANCH  16  19
ATOM     19  O   UNL d   1      -6.998   4.320  -0.985  0.00  0.00    -0.356 OA
ATOM     20  C   UNL d   1      -6.984   5.170  -2.125  0.00  0.00     0.210 C 
ENDBRANCH  16  19
ENDBRANCH   5  13
BRANCH  11  21
ATOM     21  O   UNL d   1       4.364   0.701  -0.161  0.00  0.00    -0.356 OA
ATOM     22  C   UNL d   1       5.395  -0.278  -0.159  0.00  0.00     0.210 C 
ENDBRANCH  11  21
TORSDOF 3
