REMARK  4 active torsions:
REMARK  status: ('A' for Active; 'I' for Inactive)
REMARK    1  A    between atoms: C_8  and  C_1 
REMARK    2  A    between atoms: N_6  and  C_2 
REMARK    3  A    between atoms: C_10  and  C_4 
REMARK       I    between atoms: C_7  and  N_6 
REMARK    4  A    between atoms: C_9  and  C_7 
REMARK       I    between atoms: N_15  and  C_8 
ROOT
ATOM      1  C   UNL d   1       0.080   1.247  -0.355  0.00  0.00     0.100 A 
ATOM      2  C   UNL d   1       1.373   0.835  -0.042  0.00  0.00     0.059 A 
ATOM      3  S   UNL d   1      -1.009  -0.066  -0.326  0.00  0.00    -0.082 SA
ATOM      4  C   UNL d   1       0.224  -1.227  -0.086  0.00  0.00     0.018 A 
ATOM      5  C   UNL d   1       1.438  -0.590   0.112  0.00  0.00     0.051 A 
ENDROOT
BRANCH   2   6
ATOM      6  N   UNL d   1       2.447   1.720   0.061  0.00  0.00    -0.321 N 
ATOM      7  C   UNL d   1       3.455   1.565   1.004  0.00  0.00     0.256 C 
ATOM      8  O   UNL d   1       3.450   0.709   1.885  0.00  0.00    -0.267 OA
ATOM      9  H   UNL d   1       2.332   2.608  -0.411  0.00  0.00     0.169 HD
BRANCH   7  10
ATOM     10  C   UNL d   1       4.614   2.515   0.935  0.00  0.00     0.032 A 
ATOM     11  C   UNL d   1       4.594   3.720   0.223  0.00  0.00     0.017 A 
ATOM     12  C   UNL d   1       5.757   4.496   0.117  0.00  0.00     0.007 A 
ATOM     13  C   UNL d   1       6.949   4.096   0.734  0.00  0.00    -0.062 A 
ATOM     14  C   UNL d   1       6.955   2.920   1.488  0.00  0.00     0.007 A 
ATOM     15  C   UNL d   1       8.197   4.911   0.560  0.00  0.00     0.048 C 
ATOM     16  C   UNL d   1       5.797   2.142   1.593  0.00  0.00     0.017 A 
ENDBRANCH   7  10
ENDBRANCH   2   6
BRANCH   1  17
ATOM     17  C   UNL d   1      -0.404   2.584  -0.620  0.00  0.00     0.258 C 
ATOM     18  O   UNL d   1       0.339   3.566  -0.701  0.00  0.00    -0.267 OA
ATOM     19  N   UNL d   1      -1.753   2.724  -0.795  0.00  0.00    -0.365 N 
ATOM     20  H   UNL d   1      -2.381   1.935  -0.693  0.00  0.00     0.159 HD
ATOM     21  H   UNL d   1      -2.136   3.645  -0.941  0.00  0.00     0.159 HD
ENDBRANCH   1  17
BRANCH   4  22
ATOM     22  C   UNL d   1      -0.112  -2.665  -0.085  0.00  0.00    -0.019 A 
ATOM     23  C   UNL d   1      -1.252  -3.161  -0.747  0.00  0.00     0.013 A 
ATOM     24  C   UNL d   1      -1.572  -4.521  -0.725  0.00  0.00     0.001 A 
ATOM     25  C   UNL d   1      -0.749  -5.414  -0.052  0.00  0.00     0.000 A 
ATOM     26  C   UNL d   1       0.393  -4.949   0.597  0.00  0.00     0.001 A 
ATOM     27  C   UNL d   1       0.709  -3.586   0.581  0.00  0.00     0.013 A 
ENDBRANCH   4  22
TORSDOF 4
