REMARK  4 active torsions:
REMARK  status: ('A' for Active; 'I' for Inactive)
REMARK    1  A    between atoms: N1_2  and  C1_1 
REMARK    2  A    between atoms: C3_6  and  C2_5 
REMARK    3  A    between atoms: C7_11  and  C4_7 
REMARK    4  A    between atoms: O4_16  and  C7_11 
ROOT
ATOM      1  N2  <1> d   1       0.173  -2.714   1.730  0.00  0.00     0.118 N 
ATOM      2  C3  <1> d   1      -0.211  -2.466   0.326  0.00  0.00     0.323 C 
ATOM      3  C4  <1> d   1       1.525  -3.355   1.674  0.00  0.00     0.328 C 
ATOM      4  S2  <1> d   1       0.503  -3.802  -0.673  0.00  0.00    -0.126 SA
ATOM      5  C8  <1> d   1       1.431  -4.521   0.709  0.00  0.00     0.123 C 
ATOM      6  H1  <1> d   1      -0.483  -3.428   2.062  0.00  0.00     0.319 HD
ENDROOT
BRANCH   2   7
ATOM      7  C2  <1> d   1       0.234  -1.079  -0.056  0.00  0.00     0.028 A 
ATOM      8  S1  <1> d   1      -0.818   0.242   0.308  0.00  0.00    -0.068 SA
ATOM      9  C1  <1> d   1       0.365   1.383  -0.105  0.00  0.00     0.144 A 
ATOM     10  C5  <1> d   1       1.510   0.807  -0.608  0.00  0.00     0.045 A 
ATOM     11  C6  <1> d   1       1.424  -0.620  -0.601  0.00  0.00     0.021 A 
BRANCH   9  12
ATOM     12  N1  <1> d   1       0.128   2.787   0.111  0.00  0.00    -0.108 N 
ATOM     13  O1  <1> d   1       1.103   3.536  -0.047  0.00  0.00    -0.531 OA
ATOM     14  O2  <1> d   1      -1.007   3.148   0.444  0.00  0.00    -0.531 OA
ENDBRANCH   9  12
ENDBRANCH   2   7
BRANCH   3  15
ATOM     15  C7  <1> d   1       1.934  -3.776   3.076  0.00  0.00     0.175 C 
ATOM     16  O3  <1> d   1       2.671  -4.712   3.345  0.00  0.00    -0.648 OA
BRANCH  15  17
ATOM     17  O4  <1> d   1       1.408  -2.942   4.013  0.00  0.00    -0.775 OA
ATOM     18  H8  <1> d   1       0.843  -2.279   3.551  0.00  0.00     0.167 HD
ENDBRANCH  15  17
ENDBRANCH   3  15
TORSDOF 4
