REMARK  6 active torsions:
REMARK  status: ('A' for Active; 'I' for Inactive)
REMARK    1  A    between atoms: N_2  and  C_1 
REMARK    2  A    between atoms: N_5  and  C_3 
REMARK    3  A    between atoms: C_4  and  C_9 
REMARK       I    between atoms: C_8  and  N_7 
REMARK    4  A    between atoms: C_17  and  C_8 
REMARK    5  A    between atoms: S_20  and  C_17 
REMARK    6  A    between atoms: C_24  and  S_20 
ROOT
ATOM      1  N   UNL d   1       0.911  -2.692   0.024  0.00  0.00    -0.376 N 
ATOM      2  N   UNL d   1       2.204  -5.012  -1.049  0.00  0.00    -0.348 N 
ATOM      3  C   UNL d   1       2.169  -6.397  -1.037  0.00  0.00     0.229 C 
ATOM      4  C   UNL d   1       1.843  -3.447   0.899  0.00  0.00     0.143 C 
ATOM      5  C   UNL d   1       0.276  -3.526  -1.018  0.00  0.00     0.143 C 
ATOM      6  C   UNL d   1       1.380  -4.137  -1.885  0.00  0.00     0.145 C 
ATOM      7  C   UNL d   1       2.852  -4.293   0.064  0.00  0.00     0.145 C 
ATOM      8  O   UNL d   1       2.811  -7.035  -0.199  0.00  0.00    -0.273 OA
ENDROOT
BRANCH   1   9
ATOM      9  C   UNL d   1       0.656  -1.333   0.081  0.00  0.00     0.063 A 
ATOM     10  C   UNL d   1       0.614  -0.519   1.232  0.00  0.00     0.130 A 
ATOM     11  C   UNL d   1       0.281   0.857   1.194  0.00  0.00     0.054 A 
ATOM     12  C   UNL d   1      -0.028   1.479  -0.018  0.00  0.00     0.050 A 
ATOM     13  C   UNL d   1       0.045   0.715  -1.180  0.00  0.00     0.018 A 
ATOM     14  C   UNL d   1       0.388  -0.643  -1.123  0.00  0.00     0.032 A 
BRANCH  10  15
ATOM     15  N   UNL d   1       0.844  -1.057   2.560  0.00  0.00    -0.113 N 
ATOM     16  O   UNL d   1       0.058  -1.912   2.981  0.00  0.00    -0.532 OA
ATOM     17  O   UNL d   1       1.794  -0.575   3.197  0.00  0.00    -0.532 OA
ENDBRANCH  10  15
BRANCH  12  18
ATOM     18  C   UNL d   1      -0.437   2.929  -0.102  0.00  0.00     0.417 C 
ATOM     19  F   UNL d   1      -0.502   3.546   1.109  0.00  0.00    -0.166 F 
ATOM     20  F   UNL d   1       0.420   3.666  -0.858  0.00  0.00    -0.166 F 
ATOM     21  F   UNL d   1      -1.665   3.085  -0.669  0.00  0.00    -0.166 F 
ENDBRANCH  12  18
ENDBRANCH   1   9
BRANCH   3  22
ATOM     22  C   UNL d   1       1.234  -7.162  -1.966  0.00  0.00     0.182 C 
BRANCH  22  23
ATOM     23  S   UNL d   1       1.484  -6.955  -3.752  0.00  0.00    -0.121 SA
BRANCH  23  24
ATOM     24  C   UNL d   1       3.112  -7.565  -4.130  0.00  0.00     0.001 A 
ATOM     25  C   UNL d   1       4.049  -8.064  -3.226  0.00  0.00     0.019 A 
ATOM     26  C   UNL d   1       5.312  -8.481  -3.670  0.00  0.00     0.008 A 
ATOM     27  C   UNL d   1       5.652  -8.427  -5.026  0.00  0.00    -0.062 A 
ATOM     28  C   UNL d   1       4.713  -7.939  -5.934  0.00  0.00     0.008 A 
ATOM     29  C   UNL d   1       7.003  -8.880  -5.491  0.00  0.00     0.048 C 
ATOM     30  C   UNL d   1       3.461  -7.513  -5.488  0.00  0.00     0.019 A 
ENDBRANCH  23  24
ENDBRANCH  22  23
ENDBRANCH   3  22
TORSDOF 6
