REMARK  4 active torsions:
REMARK  status: ('A' for Active; 'I' for Inactive)
REMARK    1  A    between atoms: N_2  and  S_1 
REMARK    2  A    between atoms: C_8  and  S_1 
REMARK    3  A    between atoms: C_3  and  N_2 
REMARK    4  A    between atoms: N_15  and  C_14 
ROOT
ATOM      1  S   UNL d   1       1.073  -0.051  -0.094  0.00  0.00     0.247 S 
ATOM      2  O   UNL d   1       0.398  -0.985  -0.968  0.00  0.00    -0.205 OA
ATOM      3  O   UNL d   1       2.514   0.089  -0.096  0.00  0.00    -0.205 OA
ENDROOT
BRANCH   1   4
ATOM      4  N   UNL d   1       0.505  -0.397   1.468  0.00  0.00    -0.165 NA
ATOM      5  H   UNL d   1      -0.118  -1.200   1.355  0.00  0.00     0.147 HD
BRANCH   4   6
ATOM      6  C   UNL d   1       1.471  -0.671   2.435  0.00  0.00     0.117 A 
ATOM      7  N   UNL d   1       1.709  -1.917   2.848  0.00  0.00    -0.249 N 
ATOM      8  O   UNL d   1       2.732  -1.808   3.778  0.00  0.00    -0.241 OA
ATOM      9  HN  UNL d   1       1.238  -2.769   2.544  1.00  0.00     0.196 HD
ATOM     10  C   UNL d   1       3.039  -0.495   3.958  0.00  0.00     0.075 A 
ATOM     11  C   UNL d   1       2.242   0.270   3.143  0.00  0.00     0.079 A 
ATOM     12  C   UNL d   1       4.102  -0.186   4.931  0.00  0.00     0.079 C 
ENDBRANCH   4   6
ENDBRANCH   1   4
BRANCH   1  13
ATOM     13  C   UNL d   1       0.407   1.566  -0.409  0.00  0.00     0.075 A 
ATOM     14  C   UNL d   1       0.815   2.635   0.390  0.00  0.00     0.026 A 
ATOM     15  C   UNL d   1       0.366   3.926   0.101  0.00  0.00     0.025 A 
ATOM     16  C   UNL d   1      -0.435   4.166  -1.017  0.00  0.00     0.005 A 
ATOM     17  C   UNL d   1      -0.884   3.077  -1.773  0.00  0.00     0.025 A 
ATOM     18  C   UNL d   1      -0.451   1.778  -1.488  0.00  0.00     0.026 A 
BRANCH  16  19
ATOM     19  N   UNL d   1      -0.953   5.445  -1.245  0.00  0.00    -0.303 NA
ATOM     20  H   UNL d   1      -1.231   5.608  -2.208  0.00  0.00     0.124 HD
ATOM     21  H   UNL d   1      -0.366   6.194  -0.889  0.00  0.00     0.124 HD
ENDBRANCH  16  19
ENDBRANCH   1  13
TORSDOF 4
