REMARK  4 active torsions:
REMARK  status: ('A' for Active; 'I' for Inactive)
REMARK    1  A    between atoms: C_2  and  C_1 
REMARK       I    between atoms: N_3  and  C_2 
REMARK    2  A    between atoms: C_12  and  N_3 
REMARK    3  A    between atoms: N_15  and  C_4 
REMARK    4  A    between atoms: C_6  and  C_12 
ROOT
ATOM      1  C   UNL d   1      -1.225   1.191  -0.067  0.00  0.00     0.054 A 
ATOM      2  C   UNL d   1      -1.903   0.059  -0.580  0.00  0.00     0.021 A 
ATOM      3  C   UNL d   1       0.052   1.043   0.497  0.00  0.00     0.042 A 
ATOM      4  C   UNL d   1      -1.241  -1.177  -0.602  0.00  0.00     0.026 A 
ATOM      5  C   UNL d   1       0.667  -0.209   0.504  0.00  0.00     0.035 A 
ATOM      6  C   UNL d   1       0.030  -1.318  -0.045  0.00  0.00     0.026 A 
ATOM      7 CL   UNL d   1       2.232  -0.391   1.198  0.00  0.00    -0.084 Cl
ENDROOT
BRANCH   1   8
ATOM      8  C   UNL d   1      -1.914   2.516  -0.033  0.00  0.00     0.253 C 
ATOM      9  N   UNL d   1      -1.132   3.650  -0.105  0.00  0.00    -0.352 N 
ATOM     10  H   UNL d   1      -0.145   3.592  -0.317  0.00  0.00     0.163 HD
ATOM     11  O   UNL d   1      -3.141   2.568   0.048  0.00  0.00    -0.268 OA
BRANCH   9  12
ATOM     12  C   UNL d   1      -1.757   4.956  -0.090  0.00  0.00     0.169 C 
BRANCH  12  13
ATOM     13  C   UNL d   1      -0.729   6.043  -0.149  0.00  0.00     0.000 A 
ATOM     14  S   UNL d   1       0.471   6.182   1.071  0.00  0.00    -0.105 SA
ATOM     15  C   UNL d   1       1.137   7.583   0.351  0.00  0.00     0.050 A 
ATOM     16  C   UNL d   1       0.459   7.951  -0.787  0.00  0.00     0.008 A 
ATOM     17  C   UNL d   1      -0.618   7.063  -1.077  0.00  0.00     0.017 A 
ENDBRANCH  12  13
ENDBRANCH   9  12
ENDBRANCH   1   8
BRANCH   2  18
ATOM     18  N   UNL d   1      -3.122   0.168  -1.281  0.00  0.00    -0.302 NA
ATOM     19  H   UNL d   1      -3.653   0.992  -0.973  0.00  0.00     0.124 HD
ATOM     20  H   UNL d   1      -3.692  -0.671  -1.252  0.00  0.00     0.124 HD
ENDBRANCH   2  18
TORSDOF 4
