REMARK  2 active torsions:
REMARK  status: ('A' for Active; 'I' for Inactive)
REMARK    1  A    between atoms: S_8  and  C_4 
REMARK    2  A    between atoms: S_7  and  C_5 
ROOT
ATOM      1  S   UNL d   1      -0.557  -1.360   0.189  0.00  0.00    -0.062 SA
ATOM      2  S   UNL d   1      -0.561   1.537  -0.141  0.00  0.00    -0.062 SA
ATOM      3  C   UNL d   1       0.410   0.092   0.041  0.00  0.00     0.115 A 
ATOM      4  C   UNL d   1      -2.126   0.752  -0.106  0.00  0.00     0.066 A 
ATOM      5  C   UNL d   1      -2.122  -0.595   0.015  0.00  0.00     0.066 A 
ATOM      6  S   UNL d   1       2.076   0.096   0.068  0.00  0.00    -0.064 SA
ENDROOT
BRANCH   4   7
ATOM      7  S   UNL d   1      -3.556   1.729  -0.303  0.00  0.00    -0.125 SA
ATOM      8  C   UNL d   1      -3.457   2.784   1.164  0.00  0.00     0.096 C 
ENDBRANCH   4   7
BRANCH   5   9
ATOM      9  S   UNL d   1      -3.552  -1.590   0.086  0.00  0.00    -0.125 SA
ATOM     10  C   UNL d   1      -3.286  -2.686  -1.330  0.00  0.00     0.096 C 
ENDBRANCH   5   9
TORSDOF 2
