REMARK  7 active torsions:
REMARK  status: ('A' for Active; 'I' for Inactive)
REMARK    1  A    between atoms: C_7  and  C_3 
REMARK    2  A    between atoms: C_13  and  C_4 
REMARK    3  A    between atoms: C_14  and  C_5 
REMARK    4  A    between atoms: O_19  and  C_6 
REMARK    5  A    between atoms: C_18  and  C_10 
REMARK    6  A    between atoms: O_15  and  C_18 
REMARK    7  A    between atoms: C_16  and  O_15 
ROOT
ATOM      1  C   UNL d   1       3.910   3.435   1.029  0.00  0.00    -0.016 A 
ATOM      2  C   UNL d   1       4.584   2.369  -1.128  0.00  0.00    -0.016 A 
ATOM      3  C   UNL d   1       4.843   3.208  -0.014  0.00  0.00     0.079 A 
ATOM      4  C   UNL d   1       2.468   1.751  -0.034  0.00  0.00    -0.008 A 
ATOM      5  C   UNL d   1       2.737   2.661   0.995  0.00  0.00     0.024 A 
ATOM      6  C   UNL d   1       3.375   1.651  -1.098  0.00  0.00     0.024 A 
ENDROOT
BRANCH   4   7
ATOM      7  C   UNL d   1       1.278   0.906  -0.022  0.00  0.00     0.049 A 
ATOM      8  N   UNL d   1       0.728   0.409  -1.193  0.00  0.00    -0.351 N 
ATOM      9  C   UNL d   1      -0.307  -0.364  -0.924  0.00  0.00     0.075 A 
ATOM     10  HN  UNL d   1       1.074   0.612  -2.131  1.00  0.00     0.166 HD
ATOM     11  S   UNL d   1      -0.683  -0.526   0.749  0.00  0.00    -0.084 SA
ATOM     12  C   UNL d   1       0.652   0.472   1.136  0.00  0.00     0.082 A 
BRANCH   9  13
ATOM     13  C   UNL d   1      -1.080  -1.151  -1.943  0.00  0.00     0.240 C 
BRANCH  13  14
ATOM     14  O   UNL d   1      -2.237  -0.400  -2.294  0.00  0.00    -0.343 OA
BRANCH  14  15
ATOM     15  C   UNL d   1      -3.137  -0.912  -3.192  0.00  0.00     0.090 A 
ATOM     16  C   UNL d   1      -3.156  -2.140  -3.872  0.00  0.00     0.067 A 
ATOM     17 CL   UNL d   1      -1.959  -3.383  -3.753  0.00  0.00    -0.081 Cl
ATOM     18  C   UNL d   1      -4.218  -2.442  -4.744  0.00  0.00     0.026 A 
ATOM     19  C   UNL d   1      -5.258  -1.540  -4.952  0.00  0.00     0.002 A 
ATOM     20  C   UNL d   1      -5.245  -0.319  -4.290  0.00  0.00     0.003 A 
ATOM     21  C   UNL d   1      -4.196  -0.013  -3.420  0.00  0.00     0.038 A 
ENDBRANCH  14  15
ENDBRANCH  13  14
ENDBRANCH   9  13
ENDBRANCH   4   7
BRANCH   1  22
ATOM     22  C   UNL d   1       4.129   4.429   2.200  0.00  0.00    -0.021 C 
ATOM     23  C   UNL d   1       4.849   3.689   3.343  0.00  0.00     0.019 C 
ATOM     24  C   UNL d   1       4.946   5.685   1.814  0.00  0.00     0.019 C 
ATOM     25  C   UNL d   1       2.794   4.993   2.765  0.00  0.00     0.019 C 
ENDBRANCH   1  22
BRANCH   2  26
ATOM     26  C   UNL d   1       5.535   2.244  -2.348  0.00  0.00    -0.021 C 
ATOM     27  C   UNL d   1       5.027   1.245  -3.424  0.00  0.00     0.019 C 
ATOM     28  C   UNL d   1       5.654   3.607  -3.067  0.00  0.00     0.019 C 
ATOM     29  C   UNL d   1       6.943   1.752  -1.949  0.00  0.00     0.019 C 
ENDBRANCH   2  26
BRANCH   3  30
ATOM     30  O   UNL d   1       6.080   3.776   0.095  0.00  0.00    -0.360 OA
ATOM     31  H   UNL d   1       6.057   4.579  -0.449  0.00  0.00     0.217 HD
ENDBRANCH   3  30
TORSDOF 7
