REMARK  6 active torsions:
REMARK  status: ('A' for Active; 'I' for Inactive)
REMARK    1  A    between atoms: N_14  and  C_9 
REMARK    2  A    between atoms: C_18  and  N_10 
REMARK    3  A    between atoms: C_13  and  C_21 
REMARK    4  A    between atoms: O_19  and  C_13 
REMARK    5  A    between atoms: C_20  and  C_18 
REMARK    6  A    between atoms: C_21  and  C_20 
ROOT
ATOM      1  C   UNL d   1      -0.236  -0.740  -0.076  0.00  0.00     0.160 A 
ATOM      2  C   UNL d   1      -0.482   0.600  -0.074  0.00  0.00     0.164 A 
ATOM      3  N   UNL d   1      -1.383  -1.468  -0.119  0.00  0.00    -0.174 N 
ATOM      4  HN  UNL d   1      -1.473  -2.484  -0.152  1.00  0.00     0.186 HD
ATOM      5  N   UNL d   1       1.040  -1.246  -0.037  0.00  0.00    -0.287 N 
ATOM      6  N   UNL d   1       1.841   1.006  -0.021  0.00  0.00    -0.269 N 
ATOM      7  C   UNL d   1       2.126  -0.371  -0.005  0.00  0.00     0.332 A 
ATOM      8  C   UNL d   1       0.558   1.572  -0.060  0.00  0.00     0.282 A 
ATOM      9  C   UNL d   1      -2.348  -0.580  -0.108  0.00  0.00     0.680 A 
ATOM     10  N   UNL d   1      -1.852   0.709  -0.079  0.00  0.00    -0.174 N 
ATOM     11  O   UNL d   1       3.286  -0.796   0.033  0.00  0.00    -0.246 OA
ATOM     12  O   UNL d   1       0.351   2.781  -0.089  0.00  0.00    -0.265 OA
ATOM     13  C   UNL d   1       1.296  -2.672  -0.016  0.00  0.00     0.163 C 
ATOM     14  C   UNL d   1       2.954   1.936  -0.001  0.00  0.00     0.164 C 
ENDROOT
BRANCH  10  15
ATOM     15  C   UNL d   1      -2.624   1.935  -0.009  0.00  0.00     0.149 C 
BRANCH  15  16
ATOM     16  C   UNL d   1      -2.946   2.564  -1.370  0.00  0.00     0.031 C 
BRANCH  16  17
ATOM     17  C   UNL d   1      -3.833   1.715  -2.287  0.00  0.00     0.111 C 
BRANCH  17  18
ATOM     18  C   UNL d   1      -5.187   1.427  -1.682  0.00  0.00     0.139 C 
ATOM     19  O   UNL d   1      -5.726   2.114  -0.829  0.00  0.00    -0.650 OA
BRANCH  18  20
ATOM     20  O   UNL d   1      -5.768   0.312  -2.178  0.00  0.00    -0.776 OA
ATOM     21  H   UNL d   1      -5.193  -0.195  -2.783  0.00  0.00     0.167 HD
ENDBRANCH  18  20
ENDBRANCH  17  18
ENDBRANCH  16  17
ENDBRANCH  15  16
ENDBRANCH  10  15
BRANCH   9  22
ATOM     22  N   UNL d   1      -3.659  -0.870  -0.145  0.00  0.00    -0.234 N 
ATOM     23  H   UNL d   1      -3.867  -1.852   0.029  0.00  0.00     0.174 HD
ATOM     24  H   UNL d   1      -4.332  -0.273   0.328  0.00  0.00     0.174 HD
ENDBRANCH   9  22
TORSDOF 6
