REMARK  3 active torsions:
REMARK  status: ('A' for Active; 'I' for Inactive)
REMARK    1  A    between atoms: C_1  and  C_2 
REMARK    2  A    between atoms: C_2  and  C_6 
REMARK    3  A    between atoms: C_6  and  C_9 
ROOT
ATOM      1  C   UNL d   1      -3.786  -0.090  -0.004  0.00  0.00     0.234 C 
ATOM      2  C   UNL d   1      -4.238  -1.501  -0.010  0.00  0.00     0.080 C 
ATOM      3  N   UNL d   1      -4.645  -2.593  -0.023  0.00  0.00    -0.196 NA
ENDROOT
BRANCH   1   4
ATOM      4  C   UNL d   1      -4.398   0.691  -1.177  0.00  0.00     0.186 C 
ATOM      5  O   UNL d   1      -3.711   1.260  -2.027  0.00  0.00    -0.290 OA
BRANCH   4   6
ATOM      6  C   UNL d   1      -5.886   0.835  -1.278  0.00  0.00     0.033 A 
ATOM      7  C   UNL d   1      -6.532   0.934  -2.527  0.00  0.00     0.049 A 
ATOM      8  C   UNL d   1      -7.906   1.196  -2.596  0.00  0.00     0.048 A 
ATOM      9 CL   UNL d   1      -5.730   0.683  -4.040  0.00  0.00    -0.083 Cl
ATOM     10  C   UNL d   1      -8.646   1.333  -1.427  0.00  0.00     0.035 A 
ATOM     11 CL   UNL d   1     -10.326   1.684  -1.513  0.00  0.00    -0.084 Cl
ATOM     12  C   UNL d   1      -8.030   1.192  -0.186  0.00  0.00     0.025 A 
ATOM     13  C   UNL d   1      -6.655   0.951  -0.109  0.00  0.00     0.018 A 
ENDBRANCH   4   6
ENDBRANCH   1   4
BRANCH   1  14
ATOM     14  C   UNL d   1      -2.278  -0.049  -0.034  0.00  0.00     0.108 A 
ATOM     15  N   UNL d   1      -1.533   0.052  -1.190  0.00  0.00    -0.343 N 
ATOM     16  C   UNL d   1      -0.204   0.029  -0.862  0.00  0.00     0.060 A 
ATOM     17  H   UNL d   1      -1.913   0.197  -2.119  0.00  0.00     0.167 HD
ATOM     18  C   UNL d   1       0.955   0.097  -1.638  0.00  0.00     0.032 A 
ATOM     19  C   UNL d   1      -0.196  -0.070   0.523  0.00  0.00     0.060 A 
ATOM     20  C   UNL d   1       2.173   0.056  -0.950  0.00  0.00     0.002 A 
ATOM     21  C   UNL d   1       2.215  -0.046   0.443  0.00  0.00     0.002 A 
ATOM     22  C   UNL d   1       1.034  -0.110   1.196  0.00  0.00     0.032 A 
ATOM     23  N   UNL d   1      -1.480  -0.110   1.019  0.00  0.00    -0.343 N 
ATOM     24  HN  UNL d   1      -1.759  -0.172   1.998  1.00  0.00     0.167 HD
ENDBRANCH   1  14
TORSDOF 3
