REMARK  2 active torsions:
REMARK  status: ('A' for Active; 'I' for Inactive)
REMARK    1  A    between atoms: C_6  and  N_1 
REMARK    2  A    between atoms: N_9  and  C_6 
ROOT
ATOM      1  N   UNL d   1       2.759   1.056  -0.560  0.00  0.00    -0.260 N 
ATOM      2  C   UNL d   1       0.995  -0.322   0.150  0.00  0.00     0.077 A 
ATOM      3  C   UNL d   1       1.783   0.218  -1.030  0.00  0.00     0.241 C 
ATOM      4  C   UNL d   1       2.948   0.896   0.781  0.00  0.00     0.229 C 
ATOM      5  C   UNL d   1       1.781   0.164   1.370  0.00  0.00     0.127 C 
ATOM      6  C   UNL d   1      -0.440   0.139   0.138  0.00  0.00    -0.034 A 
ATOM      7  C   UNL d   1       0.871  -1.866   0.093  0.00  0.00     0.029 A 
ATOM      8  O   UNL d   1       1.591  -0.072  -2.206  0.00  0.00    -0.272 OA
ATOM      9  O   UNL d   1       3.912   1.270   1.434  0.00  0.00    -0.273 OA
ATOM     10  C   UNL d   1      -1.323  -0.936   0.047  0.00  0.00    -0.051 A 
ATOM     11  C   UNL d   1      -0.614  -2.245  -0.034  0.00  0.00     0.040 A 
ATOM     12  C   UNL d   1      -0.926   1.443   0.179  0.00  0.00     0.009 A 
ATOM     13  C   UNL d   1      -2.697  -0.739   0.011  0.00  0.00     0.007 A 
ATOM     14  C   UNL d   1      -2.306   1.651   0.138  0.00  0.00     0.001 A 
ATOM     15  C   UNL d   1      -3.188   0.565   0.059  0.00  0.00     0.001 A 
ENDROOT
BRANCH   1  16
ATOM     16  C   UNL d   1       3.677   1.792  -1.400  0.00  0.00     0.407 C 
BRANCH  16  17
ATOM     17  N   UNL d   1       3.181   3.144  -1.737  0.00  0.00     0.107 N 
ATOM     18  C   UNL d   1       2.880   3.949  -0.539  0.00  0.00     0.284 C 
ATOM     19  C   UNL d   1       2.415   5.387  -0.803  0.00  0.00     0.104 C 
ATOM     20  S   UNL d   1       0.897   5.425  -1.798  0.00  0.00    -0.166 SA
ATOM     21  C   UNL d   1       1.551   4.460  -3.189  0.00  0.00     0.104 C 
ATOM     22  C   UNL d   1       2.094   3.100  -2.731  0.00  0.00     0.284 C 
ENDBRANCH  16  17
ENDBRANCH   1  16
TORSDOF 2
