REMARK  7 active torsions:
REMARK  status: ('A' for Active; 'I' for Inactive)
REMARK    1  A    between atoms: C_6  and  C_1 
REMARK    2  A    between atoms: C_13  and  C_3 
REMARK    3  A    between atoms: O_16  and  C_6 
REMARK    4  A    between atoms: C_7  and  N_12 
REMARK    5  A    between atoms: N_10  and  C_7 
REMARK    6  A    between atoms: N_12  and  N_8 
REMARK    7  A    between atoms: C_15  and  N_10 
ROOT
ATOM      1  N   UNL d   1      -3.679  -1.226  -0.045  0.00  0.00    -0.309 N 
ATOM      2  HN  UNL d   1      -3.815  -0.216  -0.008  1.00  0.00     0.186 HD
ATOM      3  C   UNL d   1      -2.497  -1.743  -0.106  0.00  0.00     0.120 C 
ENDROOT
BRANCH   1   4
ATOM      4  N   UNL d   1      -4.736  -2.087  -0.033  0.00  0.00    -0.277 N 
ATOM      5  H   UNL d   1      -4.575  -3.064   0.166  0.00  0.00     0.189 HD
BRANCH   4   6
ATOM      6  C   UNL d   1      -6.012  -1.624  -0.215  0.00  0.00     0.187 C 
ATOM      7  S   UNL d   1      -6.428  -0.210  -1.012  0.00  0.00    -0.040 SA
BRANCH   6   8
ATOM      8  N   UNL d   1      -7.031  -2.346   0.326  0.00  0.00    -0.358 N 
ATOM      9  H   UNL d   1      -7.921  -1.905   0.113  0.00  0.00     0.162 HD
BRANCH   8  10
ATOM     10  C   UNL d   1      -7.048  -3.272   1.480  0.00  0.00     0.021 C 
ATOM     11  C   UNL d   1      -6.130  -2.788   2.616  0.00  0.00     0.037 C 
ATOM     12  C   UNL d   1      -8.494  -3.295   2.020  0.00  0.00     0.037 C 
ATOM     13  C   UNL d   1      -6.675  -4.697   1.054  0.00  0.00     0.037 C 
ENDBRANCH   8  10
ENDBRANCH   6   8
ENDBRANCH   4   6
ENDBRANCH   1   4
BRANCH   3  14
ATOM     14  C   UNL d   1      -1.363  -0.845  -0.034  0.00  0.00    -0.001 A 
ATOM     15  C   UNL d   1      -0.033  -1.057  -0.482  0.00  0.00     0.050 A 
ATOM     16  C   UNL d   1       0.721   0.092  -0.245  0.00  0.00     0.111 A 
ATOM     17  N   UNL d   1      -0.129   0.977   0.395  0.00  0.00    -0.355 N 
ATOM     18  C   UNL d   1      -1.380   0.423   0.506  0.00  0.00     0.104 A 
ATOM     19  C   UNL d   1       0.157   2.306   0.895  0.00  0.00     0.156 C 
BRANCH  16  20
ATOM     20  C   UNL d   1       2.107   0.334  -0.600  0.00  0.00     0.309 C 
ATOM     21  O   UNL d   1       2.759   1.338  -0.344  0.00  0.00    -0.258 OA
BRANCH  20  22
ATOM     22  O   UNL d   1       2.596  -0.738  -1.289  0.00  0.00    -0.321 OA
ATOM     23  C   UNL d   1       3.947  -0.588  -1.724  0.00  0.00     0.213 C 
ENDBRANCH  20  22
ENDBRANCH  16  20
ENDBRANCH   3  14
TORSDOF 7
