REMARK  4 active torsions:
REMARK  status: ('A' for Active; 'I' for Inactive)
REMARK    1  A    between atoms: N_4  and  C_1 
REMARK    2  A    between atoms: N_5  and  C_1 
REMARK    3  A    between atoms: N_2  and  N_4 
REMARK    4  A    between atoms: C_8  and  N_5 
ROOT
ATOM      1  N   UNL d   1       0.266   0.653   1.052  0.00  0.00    -0.276 N 
ATOM      2  H   UNL d   1      -0.578   1.025   0.637  0.00  0.00     0.189 HD
ENDROOT
BRANCH   1   3
ATOM      3  N   UNL d   1       0.885   1.339   2.049  0.00  0.00    -0.307 N 
ATOM      4  C   UNL d   1       0.200   2.155   2.796  0.00  0.00     0.004 C 
ATOM      5  C   UNL d   1       0.987   2.985   3.797  0.00  0.00     0.054 C 
ATOM      6  C   UNL d   1      -1.310   2.308   2.794  0.00  0.00     0.054 C 
ATOM      7  C   UNL d   1       1.039   4.444   3.360  0.00  0.00     0.006 C 
ATOM      8  C   UNL d   1      -0.147   5.289   3.826  0.00  0.00     0.000 C 
ATOM      9  C   UNL d   1      -1.532   4.647   3.754  0.00  0.00     0.000 C 
ATOM     10  C   UNL d   1      -1.767   3.742   2.545  0.00  0.00     0.006 C 
ATOM     11  HN  UNL d   1       1.885   1.215   2.210  1.00  0.00     0.186 HD
ENDBRANCH   1   3
BRANCH   1  12
ATOM     12  C   UNL d   1       0.864  -0.421   0.441  0.00  0.00     0.191 C 
ATOM     13  S   UNL d   1       1.941  -1.471   1.180  0.00  0.00    -0.039 SA
BRANCH  12  14
ATOM     14  N   UNL d   1       0.481  -0.702  -0.845  0.00  0.00    -0.332 N 
ATOM     15  H   UNL d   1       0.744  -1.637  -1.136  0.00  0.00     0.168 HD
BRANCH  14  16
ATOM     16  C   UNL d   1       0.041   0.155  -1.877  0.00  0.00     0.034 A 
ATOM     17  C   UNL d   1       0.051   1.550  -1.797  0.00  0.00     0.029 A 
ATOM     18  C   UNL d   1      -0.361   2.328  -2.883  0.00  0.00     0.002 A 
ATOM     19  C   UNL d   1      -0.760   1.720  -4.070  0.00  0.00     0.000 A 
ATOM     20  C   UNL d   1      -0.740   0.333  -4.175  0.00  0.00     0.002 A 
ATOM     21  C   UNL d   1      -0.341  -0.445  -3.084  0.00  0.00     0.029 A 
ENDBRANCH  14  16
ENDBRANCH  12  14
ENDBRANCH   1  12
TORSDOF 4
