REMARK  5 active torsions:
REMARK  status: ('A' for Active; 'I' for Inactive)
REMARK    1  A    between atoms: C_6  and  C_1 
REMARK    2  A    between atoms: C_2  and  C_7 
REMARK    3  A    between atoms: N_12  and  C_5 
REMARK    4  A    between atoms: N_8  and  N_12 
REMARK    5  A    between atoms: C_24  and  C_21 
ROOT
ATOM      1  N   UNL d   1      -0.813  -1.330   4.394  0.00  0.00    -0.132 N 
ATOM      2  H   UNL d   1      -1.168  -0.384   4.424  0.00  0.00     0.205 HD
ENDROOT
BRANCH   1   3
ATOM      3  N   UNL d   1      -0.971  -2.261   5.359  0.00  0.00    -0.297 N 
ATOM      4  C   UNL d   1      -1.699  -1.930   6.374  0.00  0.00     0.119 C 
ATOM      5  HN  UNL d   1      -0.537  -3.182   5.290  1.00  0.00     0.186 HD
BRANCH   4   6
ATOM      6  C   UNL d   1      -1.919  -2.891   7.475  0.00  0.00    -0.019 A 
ATOM      7  C   UNL d   1      -1.366  -4.175   7.404  0.00  0.00     0.013 A 
ATOM      8  C   UNL d   1      -1.553  -5.078   8.451  0.00  0.00     0.017 A 
ATOM      9  C   UNL d   1      -2.296  -4.709   9.582  0.00  0.00     0.048 A 
ATOM     10  C   UNL d   1      -2.858  -3.421   9.636  0.00  0.00     0.017 A 
ATOM     11  C   UNL d   1      -2.673  -2.513   8.587  0.00  0.00     0.013 A 
BRANCH   9  12
ATOM     12  C   UNL d   1      -2.484  -5.670  10.731  0.00  0.00     0.417 C 
ATOM     13  F   UNL d   1      -1.879  -6.876  10.542  0.00  0.00    -0.166 F 
ATOM     14  F   UNL d   1      -1.985  -5.183  11.901  0.00  0.00    -0.166 F 
ATOM     15  F   UNL d   1      -3.796  -5.945  10.970  0.00  0.00    -0.166 F 
ENDBRANCH   9  12
ENDBRANCH   4   6
ENDBRANCH   1   3
BRANCH   1  16
ATOM     16  C   UNL d   1      -0.027  -1.604   3.271  0.00  0.00     0.697 A 
ATOM     17  N   UNL d   1       0.091  -0.619   2.365  0.00  0.00    -0.185 N 
ATOM     18  C   UNL d   1       0.840  -0.864   1.254  0.00  0.00     0.133 A 
ATOM     19  HN  UNL d   1      -0.365   0.283   2.504  1.00  0.00     0.184 HD
ATOM     20  C   UNL d   1       1.474  -2.076   1.049  0.00  0.00     0.052 A 
ATOM     21  C   UNL d   1       1.301  -3.017   2.030  0.00  0.00     0.108 A 
ATOM     22  N   UNL d   1       0.564  -2.804   3.128  0.00  0.00    -0.200 N 
ATOM     23  HN  UNL d   1       0.455  -3.530   3.836  1.00  0.00     0.183 HD
BRANCH  18  24
ATOM     24  C   UNL d   1       0.989   0.215   0.196  0.00  0.00     0.433 C 
ATOM     25  F   UNL d   1       0.340   1.379   0.481  0.00  0.00    -0.165 F 
ATOM     26  F   UNL d   1       0.517  -0.185  -1.022  0.00  0.00    -0.165 F 
ATOM     27  F   UNL d   1       2.293   0.558  -0.017  0.00  0.00    -0.165 F 
ENDBRANCH  18  24
ENDBRANCH   1  16
TORSDOF 5
