REMARK  7 active torsions:
REMARK  status: ('A' for Active; 'I' for Inactive)
REMARK    1  A    between atoms: C_10  and  C_3 
REMARK    2  A    between atoms: C_6  and  C_11 
REMARK    3  A    between atoms: C_7  and  C_12 
REMARK    4  A    between atoms: O_31  and  C_8 
REMARK    5  A    between atoms: C_19  and  C_9 
REMARK    6  A    between atoms: C_20  and  C_18 
REMARK    7  A    between atoms: O_32  and  C_21 
ROOT
ATOM      1  N   UNL d   1       1.302   0.159   0.082  0.00  0.00    -0.319 N 
ATOM      2  HN  UNL d   1       2.305   0.306  -0.029  1.00  0.00     0.169 HD
ATOM      3  C   UNL d   1       0.305   1.106   0.108  0.00  0.00     0.138 A 
ATOM      4  N   UNL d   1      -0.918   0.594   0.293  0.00  0.00    -0.242 N 
ATOM      5  HN  UNL d   1      -1.806   1.091   0.359  1.00  0.00     0.196 HD
ATOM      6  C   UNL d   1       0.659  -0.987   0.232  0.00  0.00     0.171 A 
ATOM      7  O   UNL d   1      -0.695  -0.772   0.375  0.00  0.00    -0.218 OA
ENDROOT
BRANCH   3   8
ATOM      8  C   UNL d   1       0.563   2.533  -0.071  0.00  0.00     0.011 A 
ATOM      9  C   UNL d   1       1.870   3.010  -0.257  0.00  0.00     0.031 A 
ATOM     10  C   UNL d   1       2.120   4.381  -0.452  0.00  0.00     0.049 A 
ATOM     11  C   UNL d   1       1.040   5.277  -0.456  0.00  0.00     0.032 A 
ATOM     12  C   UNL d   1      -0.278   4.821  -0.280  0.00  0.00     0.049 A 
ATOM     13  C   UNL d   1      -0.499   3.451  -0.084  0.00  0.00     0.031 A 
BRANCH  10  14
ATOM     14  C   UNL d   1       3.534   4.869  -0.677  0.00  0.00     0.417 C 
ATOM     15  F   UNL d   1       3.615   6.212  -0.881  0.00  0.00    -0.166 F 
ATOM     16  F   UNL d   1       4.351   4.602   0.377  0.00  0.00    -0.166 F 
ATOM     17  F   UNL d   1       4.115   4.292  -1.763  0.00  0.00    -0.166 F 
ENDBRANCH  10  14
BRANCH  12  18
ATOM     18  C   UNL d   1      -1.452   5.770  -0.323  0.00  0.00     0.417 C 
ATOM     19  F   UNL d   1      -1.096   7.064  -0.551  0.00  0.00    -0.166 F 
ATOM     20  F   UNL d   1      -2.339   5.448  -1.304  0.00  0.00    -0.166 F 
ATOM     21  F   UNL d   1      -2.159   5.775   0.839  0.00  0.00    -0.166 F 
ENDBRANCH  12  18
ENDBRANCH   3   8
BRANCH   6  22
ATOM     22  C   UNL d   1       1.202  -2.297   0.234  0.00  0.00     0.059 C 
ATOM     23  C   UNL d   1       2.519  -2.516   0.077  0.00  0.00     0.017 C 
BRANCH  23  24
ATOM     24  C   UNL d   1       3.042  -3.882  -0.017  0.00  0.00    -0.011 A 
ATOM     25  C   UNL d   1       3.186  -4.562  -1.253  0.00  0.00     0.080 A 
ATOM     26  C   UNL d   1       3.630  -5.906  -1.292  0.00  0.00     0.124 A 
ATOM     27 CL   UNL d   1       2.888  -3.635  -2.699  0.00  0.00    -0.080 Cl
ATOM     28  C   UNL d   1       3.969  -6.535  -0.073  0.00  0.00     0.103 A 
ATOM     29  C   UNL d   1       3.853  -5.832   1.137  0.00  0.00     0.040 A 
ATOM     30  C   UNL d   1       3.388  -4.523   1.171  0.00  0.00     0.016 A 
BRANCH  26  31
ATOM     31  O   UNL d   1       3.877  -6.617  -2.439  0.00  0.00    -0.351 OA
ATOM     32  C   UNL d   1       2.955  -6.533  -3.519  0.00  0.00     0.210 C 
ENDBRANCH  26  31
BRANCH  28  33
ATOM     33  O   UNL d   1       4.434  -7.806   0.147  0.00  0.00    -0.353 OA
ATOM     34  C   UNL d   1       4.577  -8.704  -0.942  0.00  0.00     0.210 C 
ENDBRANCH  28  33
ENDBRANCH  23  24
ENDBRANCH   6  22
TORSDOF 7
