REMARK  9 active torsions:
REMARK  status: ('A' for Active; 'I' for Inactive)
REMARK    1  A    between atoms: S_2  and  C_1 
REMARK    2  A    between atoms: N_9  and  S_2 
REMARK    3  A    between atoms: C_8  and  C_3 
REMARK    4  A    between atoms: C_13  and  N_4 
REMARK    5  A    between atoms: C_15  and  C_5 
REMARK    6  A    between atoms: N_7  and  C_12 
REMARK    7  A    between atoms: O_22  and  C_8 
REMARK    8  A    between atoms: C_18  and  N_9 
REMARK    9  A    between atoms: C_29  and  O_22 
ROOT
ATOM      1  C   UNL d   1      -0.234  -1.237   0.036  0.00  0.00     0.121 A 
ATOM      2  C   UNL d   1       1.102  -0.706   0.040  0.00  0.00     0.087 A 
ATOM      3  N   UNL d   1      -0.367   1.025  -0.028  0.00  0.00    -0.312 N 
ATOM      4  C   UNL d   1      -1.144  -0.156   0.012  0.00  0.00     0.074 A 
ATOM      5  C   UNL d   1       0.983   0.682   0.005  0.00  0.00     0.031 A 
ATOM      6  C   UNL d   1       2.082   1.707   0.082  0.00  0.00     0.070 C 
ENDROOT
BRANCH   1   7
ATOM      7  S   UNL d   1      -0.605  -2.961   0.034  0.00  0.00     0.249 S 
ATOM      8  O   UNL d   1       0.584  -3.634   0.497  0.00  0.00    -0.205 OA
ATOM      9  O   UNL d   1      -1.829  -3.110   0.783  0.00  0.00    -0.205 OA
BRANCH   7  10
ATOM     10  N   UNL d   1      -0.978  -3.420  -1.561  0.00  0.00    -0.181 NA
ATOM     11  H   UNL d   1      -1.802  -2.910  -1.877  0.00  0.00     0.146 HD
BRANCH  10  12
ATOM     12  C   UNL d   1       0.103  -3.487  -2.480  0.00  0.00     0.023 A 
ATOM     13  C   UNL d   1       0.876  -4.652  -2.535  0.00  0.00     0.027 A 
ATOM     14  C   UNL d   1       2.017  -4.699  -3.336  0.00  0.00     0.038 A 
ATOM     15  C   UNL d   1       2.398  -3.558  -4.056  0.00  0.00     0.102 A 
ATOM     16  C   UNL d   1       1.611  -2.397  -4.024  0.00  0.00     0.038 A 
ATOM     17  C   UNL d   1       0.456  -2.367  -3.235  0.00  0.00     0.027 A 
BRANCH  15  18
ATOM     18  N   UNL d   1       3.668  -3.552  -4.792  0.00  0.00    -0.116 N 
ATOM     19  O   UNL d   1       4.373  -4.570  -4.736  0.00  0.00    -0.532 OA
ATOM     20  O   UNL d   1       3.971  -2.520  -5.406  0.00  0.00    -0.532 OA
ENDBRANCH  15  18
ENDBRANCH  10  12
ENDBRANCH   7  10
ENDBRANCH   1   7
BRANCH   2  21
ATOM     21  C   UNL d   1       2.405  -1.386   0.140  0.00  0.00     0.296 C 
ATOM     22  O   UNL d   1       3.314  -0.946   0.837  0.00  0.00    -0.259 OA
BRANCH  21  23
ATOM     23  O   UNL d   1       2.546  -2.464  -0.668  0.00  0.00    -0.318 OA
BRANCH  23  24
ATOM     24  C   UNL d   1       3.805  -3.156  -0.562  0.00  0.00     0.174 C 
ATOM     25  C   UNL d   1       3.987  -3.863   0.775  0.00  0.00     0.034 C 
ENDBRANCH  23  24
ENDBRANCH  21  23
ENDBRANCH   2  21
BRANCH   4  26
ATOM     26  C   UNL d   1      -2.634  -0.144  -0.027  0.00  0.00    -0.007 A 
ATOM     27  C   UNL d   1      -3.342   0.619  -0.972  0.00  0.00     0.014 A 
ATOM     28  C   UNL d   1      -4.740   0.713  -0.933  0.00  0.00     0.001 A 
ATOM     29  C   UNL d   1      -5.466  -0.028  -0.006  0.00  0.00     0.000 A 
ATOM     30  C   UNL d   1      -4.790  -0.814   0.917  0.00  0.00     0.001 A 
ATOM     31  C   UNL d   1      -3.390  -0.824   0.937  0.00  0.00     0.014 A 
ENDBRANCH   4  26
BRANCH   3  32
ATOM     32  C   UNL d   1      -0.854   2.379  -0.083  0.00  0.00     0.040 A 
ATOM     33  C   UNL d   1      -1.909   2.797   0.737  0.00  0.00     0.030 A 
ATOM     34  C   UNL d   1      -2.409   4.099   0.630  0.00  0.00     0.002 A 
ATOM     35  C   UNL d   1      -1.841   5.002  -0.268  0.00  0.00     0.000 A 
ATOM     36  C   UNL d   1      -0.774   4.603  -1.068  0.00  0.00     0.002 A 
ATOM     37  C   UNL d   1      -0.291   3.294  -0.987  0.00  0.00     0.030 A 
ENDBRANCH   3  32
TORSDOF 9
