REMARK  3 active torsions:
REMARK  status: ('A' for Active; 'I' for Inactive)
REMARK    1  A    between atoms: C_4  and  N_1 
REMARK       I    between atoms: C_2  and  N_5 
REMARK    2  A    between atoms: C_3  and  C_2 
REMARK    3  A    between atoms: N_5  and  C_9 
ROOT
ATOM      1  C   UNL d   1      -3.263   2.275  -1.822  0.00  0.00     0.259 C 
ATOM      2  N   UNL d   1      -2.698   1.414  -2.749  0.00  0.00    -0.323 N 
ATOM      3  O   UNL d   1      -3.034   2.274  -0.620  0.00  0.00    -0.267 OA
ATOM      4  H   UNL d   1      -2.995   1.511  -3.715  0.00  0.00     0.169 HD
ENDROOT
BRANCH   2   5
ATOM      5  C   UNL d   1      -1.649   0.492  -2.522  0.00  0.00     0.037 A 
ATOM      6  C   UNL d   1      -1.021   0.326  -1.290  0.00  0.00     0.066 A 
ATOM      7  C   UNL d   1       0.132  -0.467  -1.198  0.00  0.00     0.111 A 
ATOM      8  C   UNL d   1       0.629  -1.201  -2.287  0.00  0.00    -0.029 A 
ATOM      9  C   UNL d   1      -0.059  -1.083  -3.502  0.00  0.00     0.011 A 
ATOM     10  C   UNL d   1       1.828  -2.103  -2.222  0.00  0.00     0.050 C 
ATOM     11  C   UNL d   1      -1.167  -0.230  -3.623  0.00  0.00     0.030 A 
BRANCH   7  12
ATOM     12  N   UNL d   1       0.876  -0.381   0.046  0.00  0.00    -0.115 N 
ATOM     13  O   UNL d   1       0.305  -0.775   1.076  0.00  0.00    -0.532 OA
ATOM     14  O   UNL d   1       2.014   0.101  -0.008  0.00  0.00    -0.532 OA
ENDBRANCH   7  12
ENDBRANCH   2   5
BRANCH   1  15
ATOM     15  C   UNL d   1      -4.188   3.328  -2.349  0.00  0.00     0.070 A 
ATOM     16  C   UNL d   1      -4.556   3.421  -3.691  0.00  0.00     0.132 A 
ATOM     17  F   UNL d   1      -4.178   2.486  -4.578  0.00  0.00    -0.205 F 
ATOM     18  C   UNL d   1      -5.312   4.497  -4.157  0.00  0.00     0.043 A 
ATOM     19  C   UNL d   1      -5.721   5.495  -3.274  0.00  0.00     0.003 A 
ATOM     20  C   UNL d   1      -5.406   5.393  -1.921  0.00  0.00     0.001 A 
ATOM     21  C   UNL d   1      -4.647   4.314  -1.459  0.00  0.00     0.020 A 
ENDBRANCH   1  15
TORSDOF 3
