REMARK  8 active torsions:
REMARK  status: ('A' for Active; 'I' for Inactive)
REMARK    1  A    between atoms: C_19  and  C_3 
REMARK    2  A    between atoms: C_10  and  C_4 
REMARK    3  A    between atoms: C_17  and  C_5 
REMARK    4  A    between atoms: C_18  and  C_6 
REMARK    5  A    between atoms: O_29  and  C_7 
REMARK    6  A    between atoms: C_8  and  C_11 
REMARK    7  A    between atoms: C_20  and  O_23 
REMARK    8  A    between atoms: O_23  and  C_30 
ROOT
ATOM      1  N   UNL d   1       0.721   0.380  -1.205  0.00  0.00    -0.349 N 
ATOM      2  HN  UNL d   1       1.058   0.611  -2.139  1.00  0.00     0.166 HD
ATOM      3  C   UNL d   1      -0.309  -0.409  -0.950  0.00  0.00     0.084 A 
ATOM      4  C   UNL d   1       1.278   0.850  -0.029  0.00  0.00     0.050 A 
ATOM      5  S   UNL d   1      -0.672  -0.597   0.724  0.00  0.00    -0.081 SA
ATOM      6  C   UNL d   1       0.651   0.408   1.120  0.00  0.00     0.082 A 
ENDROOT
BRANCH   3   7
ATOM      7  C   UNL d   1      -1.135  -1.044  -1.987  0.00  0.00    -0.002 A 
ATOM      8  C   UNL d   1      -1.809  -2.261  -1.788  0.00  0.00     0.017 A 
ATOM      9  C   UNL d   1      -2.571  -2.831  -2.815  0.00  0.00     0.038 A 
ATOM     10  C   UNL d   1      -2.661  -2.200  -4.053  0.00  0.00     0.077 A 
ATOM     11  C   UNL d   1      -2.023  -0.974  -4.256  0.00  0.00     0.038 A 
ATOM     12  C   UNL d   1      -1.247  -0.416  -3.236  0.00  0.00     0.017 A 
BRANCH  10  13
ATOM     13  O   UNL d   1      -3.455  -2.800  -5.003  0.00  0.00    -0.294 OA
BRANCH  13  14
ATOM     14  C   UNL d   1      -3.009  -2.813  -6.319  0.00  0.00     0.147 A 
ATOM     15  N   UNL d   1      -1.691  -2.676  -6.591  0.00  0.00    -0.346 N 
ATOM     16  C   UNL d   1      -1.320  -2.700  -7.890  0.00  0.00     0.106 A 
ATOM     17  HN  UNL d   1      -1.005  -2.558  -5.845  1.00  0.00     0.167 HD
ATOM     18  C   UNL d   1      -2.203  -2.884  -8.941  0.00  0.00     0.063 A 
ATOM     19  C   UNL d   1      -3.558  -3.046  -8.629  0.00  0.00     0.022 A 
ATOM     20  C   UNL d   1      -3.970  -3.013  -7.297  0.00  0.00     0.057 A 
BRANCH  18  21
ATOM     21  C   UNL d   1      -1.706  -2.927 -10.354  0.00  0.00     0.418 C 
ATOM     22  F   UNL d   1      -0.363  -2.734 -10.467  0.00  0.00    -0.166 F 
ATOM     23  F   UNL d   1      -1.962  -4.120 -10.957  0.00  0.00    -0.166 F 
ATOM     24  F   UNL d   1      -2.286  -1.979 -11.140  0.00  0.00    -0.166 F 
ENDBRANCH  18  21
ENDBRANCH  13  14
ENDBRANCH  10  13
ENDBRANCH   3   7
BRANCH   4  25
ATOM     25  C   UNL d   1       2.460   1.705  -0.034  0.00  0.00    -0.008 A 
ATOM     26  C   UNL d   1       2.706   2.609   1.002  0.00  0.00     0.024 A 
ATOM     27  C   UNL d   1       3.873   3.390   1.060  0.00  0.00    -0.016 A 
ATOM     28  C   UNL d   1       4.801   3.222  -0.003  0.00  0.00     0.079 A 
ATOM     29  C   UNL d   1       4.566   2.377  -1.120  0.00  0.00    -0.016 A 
ATOM     30  C   UNL d   1       3.375   1.623  -1.089  0.00  0.00     0.024 A 
BRANCH  27  31
ATOM     31  C   UNL d   1       4.080   4.382   2.235  0.00  0.00    -0.021 C 
ATOM     32  C   UNL d   1       2.888   4.410   3.235  0.00  0.00     0.019 C 
ATOM     33  C   UNL d   1       5.324   4.005   3.065  0.00  0.00     0.019 C 
ATOM     34  C   UNL d   1       4.218   5.830   1.715  0.00  0.00     0.019 C 
ENDBRANCH  27  31
BRANCH  28  35
ATOM     35  O   UNL d   1       5.991   3.888   0.089  0.00  0.00    -0.360 OA
ATOM     36  H   UNL d   1       5.937   4.635  -0.530  0.00  0.00     0.217 HD
ENDBRANCH  28  35
BRANCH  29  37
ATOM     37  C   UNL d   1       5.516   2.260  -2.342  0.00  0.00    -0.021 C 
ATOM     38  C   UNL d   1       5.019   1.250  -3.416  0.00  0.00     0.019 C 
ATOM     39  C   UNL d   1       5.621   3.619  -3.072  0.00  0.00     0.019 C 
ATOM     40  C   UNL d   1       6.926   1.783  -1.937  0.00  0.00     0.019 C 
ENDBRANCH  29  37
ENDBRANCH   4  25
TORSDOF 8
