REMARK  9 active torsions:
REMARK  status: ('A' for Active; 'I' for Inactive)
REMARK    1  A    between atoms: C_7  and  S_1 
REMARK    2  A    between atoms: N_8  and  S_1 
REMARK    3  A    between atoms: C_2  and  C_6 
REMARK    4  A    between atoms: C_3  and  C_12 
REMARK       I    between atoms: N_4  and  C_3 
REMARK    5  A    between atoms: C_5  and  N_4 
REMARK    6  A    between atoms: C_25  and  N_8 
REMARK    7  A    between atoms: C_26  and  N_8 
REMARK    8  A    between atoms: C_27  and  C_25 
REMARK    9  A    between atoms: C_28  and  C_26 
ROOT
ATOM      1  C   UNL d   1       0.438  -1.006  -1.176  0.00  0.00     0.074 A 
ATOM      2  C   UNL d   1      -0.416  -2.778  -3.181  0.00  0.00     0.032 A 
ATOM      3  C   UNL d   1       1.155  -2.179  -1.411  0.00  0.00     0.026 A 
ATOM      4  C   UNL d   1      -0.733  -0.742  -1.896  0.00  0.00     0.026 A 
ATOM      5  C   UNL d   1       0.726  -3.058  -2.408  0.00  0.00     0.018 A 
ATOM      6  C   UNL d   1      -1.153  -1.618  -2.907  0.00  0.00     0.018 A 
ENDROOT
BRANCH   2   7
ATOM      7  C   UNL d   1      -0.802  -3.788  -4.211  0.00  0.00     0.256 C 
ATOM      8  N   UNL d   1      -1.745  -3.418  -5.156  0.00  0.00    -0.321 N 
ATOM      9  H   UNL d   1      -2.033  -2.448  -5.208  0.00  0.00     0.169 HD
ATOM     10  O   UNL d   1      -0.242  -4.879  -4.167  0.00  0.00    -0.267 OA
BRANCH   8  11
ATOM     11  C   UNL d   1      -2.338  -4.262  -6.134  0.00  0.00     0.057 A 
ATOM     12  C   UNL d   1      -2.092  -5.640  -6.194  0.00  0.00     0.047 A 
ATOM     13  C   UNL d   1      -2.714  -6.462  -7.148  0.00  0.00     0.050 A 
ATOM     14  C   UNL d   1      -3.613  -5.889  -8.056  0.00  0.00     0.018 A 
ATOM     15  C   UNL d   1      -3.871  -4.517  -8.017  0.00  0.00     0.027 A 
ATOM     16  C   UNL d   1      -3.236  -3.711  -7.066  0.00  0.00     0.060 A 
ATOM     17 CL   UNL d   1      -3.591  -2.016  -7.066  0.00  0.00    -0.082 Cl
BRANCH  13  18
ATOM     18  C   UNL d   1      -2.427  -7.946  -7.182  0.00  0.00     0.417 C 
ATOM     19  F   UNL d   1      -1.464  -8.344  -6.307  0.00  0.00    -0.166 F 
ATOM     20  F   UNL d   1      -3.529  -8.690  -6.889  0.00  0.00    -0.166 F 
ATOM     21  F   UNL d   1      -2.010  -8.364  -8.410  0.00  0.00    -0.166 F 
ENDBRANCH  13  18
ENDBRANCH   8  11
ENDBRANCH   2   7
BRANCH   1  22
ATOM     22  S   UNL d   1       0.972   0.095   0.122  0.00  0.00     0.243 S 
ATOM     23  O   UNL d   1       2.031  -0.572   0.839  0.00  0.00    -0.206 OA
ATOM     24  O   UNL d   1      -0.219   0.543   0.813  0.00  0.00    -0.206 OA
BRANCH  22  25
ATOM     25  N   UNL d   1       1.624   1.433  -0.783  0.00  0.00    -0.206 NA
BRANCH  25  26
ATOM     26  C   UNL d   1       0.585   2.500  -1.004  0.00  0.00     0.107 C 
BRANCH  26  27
ATOM     27  C   UNL d   1       0.968   3.612  -1.978  0.00  0.00     0.011 C 
ATOM     28  C   UNL d   1       1.314   3.121  -3.372  0.00  0.00     0.006 C 
ENDBRANCH  26  27
ENDBRANCH  25  26
BRANCH  25  29
ATOM     29  C   UNL d   1       2.930   1.962  -0.280  0.00  0.00     0.107 C 
BRANCH  29  30
ATOM     30  C   UNL d   1       4.131   1.052  -0.561  0.00  0.00     0.011 C 
ATOM     31  C   UNL d   1       4.278   0.633  -2.015  0.00  0.00     0.006 C 
ENDBRANCH  29  30
ENDBRANCH  25  29
ENDBRANCH  22  25
ENDBRANCH   1  22
TORSDOF 9
