REMARK  6 active torsions:
REMARK  status: ('A' for Active; 'I' for Inactive)
REMARK    1  A    between atoms: C_7  and  S_1 
REMARK    2  A    between atoms: N_9  and  S_1 
REMARK    3  A    between atoms: S_2  and  C_8 
REMARK    4  A    between atoms: N_10  and  S_2 
REMARK    5  A    between atoms: C_22  and  N_9 
REMARK    6  A    between atoms: C_23  and  N_10 
ROOT
ATOM      1  C   UNL d   1       0.214   2.425  -3.082  0.00  0.00    -0.041 A 
ATOM      2  C   UNL d   1      -0.277   3.660  -5.033  0.00  0.00    -0.041 A 
ATOM      3  C   UNL d   1      -0.333   1.551  -4.050  0.00  0.00    -0.019 A 
ATOM      4  C   UNL d   1      -0.634   2.309  -5.248  0.00  0.00    -0.019 A 
ATOM      5  C   UNL d   1       0.466   0.602  -1.561  0.00  0.00     0.080 A 
ATOM      6  C   UNL d   1      -0.971   4.203  -7.249  0.00  0.00     0.080 A 
ATOM      7  C   UNL d   1       0.287   3.837  -3.635  0.00  0.00     0.078 A 
ATOM      8  C   UNL d   1       0.624   1.967  -1.837  0.00  0.00     0.033 A 
ATOM      9  C   UNL d   1      -0.450   4.623  -6.017  0.00  0.00     0.033 A 
ATOM     10  C   UNL d   1      -1.171   1.908  -6.461  0.00  0.00     0.014 A 
ATOM     11  C   UNL d   1      -0.481   0.201  -3.773  0.00  0.00     0.014 A 
ATOM     12  C   UNL d   1      -0.073  -0.277  -2.522  0.00  0.00     0.026 A 
ATOM     13  C   UNL d   1      -1.348   2.865  -7.467  0.00  0.00     0.026 A 
ENDROOT
BRANCH   5  14
ATOM     14  S   UNL d   1       1.075  -0.058  -0.017  0.00  0.00     0.263 S 
ATOM     15  O   UNL d   1       2.112   0.838   0.450  0.00  0.00    -0.200 OA
ATOM     16  O   UNL d   1       1.339  -1.470  -0.206  0.00  0.00    -0.200 OA
BRANCH  14  17
ATOM     17  N   UNL d   1      -0.206   0.124   1.044  0.00  0.00    -0.281 N 
ATOM     18  H   UNL d   1      -0.148   0.888   1.712  0.00  0.00     0.179 HD
BRANCH  17  19
ATOM     19  C   UNL d   1      -1.429  -0.551   0.838  0.00  0.00     0.042 A 
ATOM     20  C   UNL d   1      -1.613  -1.830   1.360  0.00  0.00     0.030 A 
ATOM     21  C   UNL d   1      -2.831  -2.486   1.175  0.00  0.00     0.002 A 
ATOM     22  C   UNL d   1      -3.857  -1.864   0.463  0.00  0.00     0.000 A 
ATOM     23  C   UNL d   1      -3.672  -0.580  -0.051  0.00  0.00     0.002 A 
ATOM     24  C   UNL d   1      -2.461   0.084   0.147  0.00  0.00     0.030 A 
ENDBRANCH  17  19
ENDBRANCH  14  17
ENDBRANCH   5  14
BRANCH   6  25
ATOM     25  S   UNL d   1      -1.217   5.403  -8.548  0.00  0.00     0.263 S 
ATOM     26  O   UNL d   1      -2.250   4.904  -9.431  0.00  0.00    -0.200 OA
ATOM     27  O   UNL d   1      -1.334   6.699  -7.913  0.00  0.00    -0.200 OA
BRANCH  25  28
ATOM     28  N   UNL d   1       0.255   5.413  -9.357  0.00  0.00    -0.281 N 
ATOM     29  H   UNL d   1       0.933   6.066  -8.969  0.00  0.00     0.179 HD
BRANCH  28  30
ATOM     30  C   UNL d   1       0.743   4.244  -9.996  0.00  0.00     0.042 A 
ATOM     31  C   UNL d   1       0.329   3.944 -11.292  0.00  0.00     0.030 A 
ATOM     32  C   UNL d   1       0.864   2.835 -11.952  0.00  0.00     0.002 A 
ATOM     33  C   UNL d   1       1.790   2.018 -11.305  0.00  0.00     0.000 A 
ATOM     34  C   UNL d   1       2.177   2.303  -9.994  0.00  0.00     0.002 A 
ATOM     35  C   UNL d   1       1.657   3.420  -9.340  0.00  0.00     0.030 A 
ENDBRANCH  28  30
ENDBRANCH  25  28
ENDBRANCH   6  25
TORSDOF 6
