REMARK  7 active torsions:
REMARK  status: ('A' for Active; 'I' for Inactive)
REMARK    1  A    between atoms: N_7  and  S_1 
REMARK    2  A    between atoms: C_8  and  S_1 
REMARK    3  A    between atoms: C_2  and  N_7 
REMARK    4  A    between atoms: C_10  and  C_3 
REMARK    5  A    between atoms: C_14  and  C_6 
REMARK    6  A    between atoms: O_19  and  C_13 
REMARK    7  A    between atoms: O_20  and  C_15 
ROOT
ATOM      1  N   UNL d   1       0.588   1.455  -0.273  0.00  0.00    -0.180 NA
ATOM      2  H   UNL d   1      -0.377   1.544  -0.604  0.00  0.00     0.146 HD
ENDROOT
BRANCH   1   3
ATOM      3  C   UNL d   1       0.897   2.449   0.698  0.00  0.00     0.045 A 
ATOM      4  C   UNL d   1       2.143   2.992   0.968  0.00  0.00     0.073 A 
ATOM      5  S   UNL d   1       2.051   4.129   2.242  0.00  0.00    -0.084 SA
ATOM      6  C   UNL d   1       0.371   3.909   2.471  0.00  0.00     0.017 A 
ATOM      7  C   UNL d   1      -0.119   3.002   1.549  0.00  0.00     0.045 A 
BRANCH   4   8
ATOM      8  C   UNL d   1       3.416   2.751   0.295  0.00  0.00     0.164 C 
ATOM      9  O   UNL d   1       3.487   2.299  -0.852  0.00  0.00    -0.292 OA
ATOM     10  C   UNL d   1       4.718   3.098   0.992  0.00  0.00     0.097 C 
ENDBRANCH   4   8
BRANCH   6  11
ATOM     11  C   UNL d   1      -0.321   4.614   3.570  0.00  0.00    -0.019 A 
ATOM     12  C   UNL d   1      -1.416   4.019   4.216  0.00  0.00     0.013 A 
ATOM     13  C   UNL d   1      -2.044   4.649   5.296  0.00  0.00     0.001 A 
ATOM     14  C   UNL d   1      -1.588   5.886   5.748  0.00  0.00     0.000 A 
ATOM     15  C   UNL d   1      -0.514   6.499   5.113  0.00  0.00     0.001 A 
ATOM     16  C   UNL d   1       0.108   5.872   4.030  0.00  0.00     0.013 A 
ENDBRANCH   6  11
ENDBRANCH   1   3
BRANCH   1  17
ATOM     17  S   UNL d   1       0.685  -0.173   0.271  0.00  0.00     0.246 S 
ATOM     18  O   UNL d   1      -0.678  -0.538   0.608  0.00  0.00    -0.206 OA
ATOM     19  O   UNL d   1       1.768  -0.305   1.216  0.00  0.00    -0.206 OA
BRANCH  17  20
ATOM     20  C   UNL d   1       1.146  -1.071  -1.190  0.00  0.00     0.077 A 
ATOM     21  C   UNL d   1       2.345  -0.747  -1.829  0.00  0.00     0.064 A 
ATOM     22  C   UNL d   1       2.810  -1.498  -2.919  0.00  0.00     0.102 A 
ATOM     23  C   UNL d   1       2.041  -2.586  -3.372  0.00  0.00     0.101 A 
ATOM     24  C   UNL d   1       0.827  -2.888  -2.728  0.00  0.00     0.041 A 
ATOM     25  C   UNL d   1       0.374  -2.139  -1.639  0.00  0.00     0.028 A 
BRANCH  22  26
ATOM     26  O   UNL d   1       3.994  -1.222  -3.549  0.00  0.00    -0.353 OA
ATOM     27  C   UNL d   1       4.760  -0.116  -3.084  0.00  0.00     0.210 C 
ENDBRANCH  22  26
BRANCH  23  28
ATOM     28  O   UNL d   1       2.308  -3.456  -4.398  0.00  0.00    -0.353 OA
ATOM     29  C   UNL d   1       3.535  -3.334  -5.102  0.00  0.00     0.210 C 
ENDBRANCH  23  28
ENDBRANCH  17  20
ENDBRANCH   1  17
TORSDOF 7
