REMARK  4 active torsions:
REMARK  status: ('A' for Active; 'I' for Inactive)
REMARK    1  A    between atoms: C_2  and  C_1 
REMARK       I    between atoms: N_4  and  C_1 
REMARK    2  A    between atoms: C_11  and  N_4 
REMARK    3  A    between atoms: C_5  and  C_11 
REMARK    4  A    between atoms: O_12  and  C_5 
ROOT
ATOM      1  C   UNL d   1       1.019   0.042   0.032  0.00  0.00     0.259 C 
ATOM      2  N   UNL d   1       0.228  -0.681   0.894  0.00  0.00    -0.347 N 
ATOM      3  O   UNL d   1       2.217  -0.212  -0.078  0.00  0.00    -0.267 OA
ATOM      4  H   UNL d   1      -0.757  -0.446   0.988  0.00  0.00     0.163 HD
ENDROOT
BRANCH   1   5
ATOM      5  C   UNL d   1       0.356   1.101  -0.716  0.00  0.00     0.072 A 
ATOM      6  S   UNL d   1      -1.345   1.323  -0.684  0.00  0.00    -0.097 SA
ATOM      7  C   UNL d   1      -1.267   2.635  -1.777  0.00  0.00     0.050 A 
ATOM      8  C   UNL d   1       0.026   2.917  -2.154  0.00  0.00     0.009 A 
ATOM      9  C   UNL d   1       0.961   2.031  -1.544  0.00  0.00     0.025 A 
ENDBRANCH   1   5
BRANCH   2  10
ATOM     10  C   UNL d   1       0.746  -1.798   1.653  0.00  0.00     0.232 C 
BRANCH  10  11
ATOM     11  C   UNL d   1      -0.363  -2.460   2.454  0.00  0.00     0.158 C 
ATOM     12  O   UNL d   1      -1.531  -2.094   2.444  0.00  0.00    -0.649 OA
BRANCH  11  13
ATOM     13  O   UNL d   1       0.061  -3.511   3.195  0.00  0.00    -0.775 OA
ATOM     14  H   UNL d   1       1.015  -3.701   3.115  0.00  0.00     0.167 HD
ENDBRANCH  11  13
ENDBRANCH  10  11
ENDBRANCH   2  10
TORSDOF 4
