REMARK  6 active torsions:
REMARK  status: ('A' for Active; 'I' for Inactive)
REMARK    1  A    between atoms: C_11  and  C_1 
REMARK    2  A    between atoms: C_3  and  N_9 
REMARK    3  A    between atoms: N_5  and  C_3 
REMARK    4  A    between atoms: C_7  and  N_5 
REMARK    5  A    between atoms: N_9  and  C_11 
REMARK    6  A    between atoms: O_13  and  C_12 
ROOT
ATOM      1  C   UNL d   1      -0.496  -5.102  -0.541  0.00  0.00     0.172 C 
ATOM      2  S   UNL d   1      -1.921  -5.885  -0.914  0.00  0.00    -0.041 SA
ENDROOT
BRANCH   1   3
ATOM      3  N   UNL d   1      -0.279  -3.749  -0.580  0.00  0.00    -0.363 N 
ATOM      4  H   UNL d   1       0.687  -3.458  -0.615  0.00  0.00     0.162 HD
BRANCH   3   5
ATOM      5  C   UNL d   1      -1.277  -2.692  -0.617  0.00  0.00     0.162 C 
BRANCH   5   6
ATOM      6  C   UNL d   1      -1.377  -2.071  -1.981  0.00  0.00    -0.022 A 
ATOM      7  C   UNL d   1      -1.885  -2.724  -3.087  0.00  0.00     0.060 A 
ATOM      8  S   UNL d   1      -2.014  -1.731  -4.460  0.00  0.00    -0.101 SA
ATOM      9  C   UNL d   1      -1.399  -0.367  -3.618  0.00  0.00     0.015 A 
ATOM     10  C   UNL d   1      -1.058  -0.686  -2.297  0.00  0.00    -0.011 A 
ATOM     11  C   UNL d   1      -1.240   0.935  -4.137  0.00  0.00     0.019 A 
ATOM     12  C   UNL d   1      -0.514   0.355  -1.499  0.00  0.00     0.013 A 
ATOM     13  C   UNL d   1      -0.343   1.645  -2.014  0.00  0.00     0.001 A 
ATOM     14  C   UNL d   1      -0.712   1.934  -3.319  0.00  0.00     0.001 A 
ENDBRANCH   5   6
ENDBRANCH   3   5
ENDBRANCH   1   3
BRANCH   1  15
ATOM     15  N   UNL d   1       0.587  -5.871  -0.213  0.00  0.00    -0.331 N 
ATOM     16  H   UNL d   1       0.486  -6.854  -0.447  0.00  0.00     0.168 HD
BRANCH  15  17
ATOM     17  C   UNL d   1       1.621  -5.613   0.718  0.00  0.00     0.068 A 
ATOM     18  C   UNL d   1       2.721  -6.487   0.785  0.00  0.00     0.095 A 
ATOM     19  C   UNL d   1       3.668  -6.351   1.805  0.00  0.00     0.039 A 
ATOM     20  C   UNL d   1       3.541  -5.338   2.756  0.00  0.00     0.003 A 
ATOM     21  C   UNL d   1       2.458  -4.467   2.696  0.00  0.00     0.002 A 
ATOM     22  C   UNL d   1       1.505  -4.603   1.683  0.00  0.00     0.032 A 
BRANCH  18  23
ATOM     23  O   UNL d   1       2.904  -7.565  -0.046  0.00  0.00    -0.354 OA
ATOM     24  C   UNL d   1       2.948  -7.232  -1.433  0.00  0.00     0.210 C 
ENDBRANCH  18  23
ENDBRANCH  15  17
ENDBRANCH   1  15
TORSDOF 6
