REMARK  5 active torsions:
REMARK  status: ('A' for Active; 'I' for Inactive)
REMARK    1  A    between atoms: C_22  and  C_2 
REMARK    2  A    between atoms: C_7  and  O_9 
REMARK    3  A    between atoms: C_11  and  C_7 
REMARK    4  A    between atoms: O_9  and  C_12 
REMARK    5  A    between atoms: C_23  and  C_22 
ROOT
ATOM      1  C   UNL d   1       0.255   0.471  -0.390  0.00  0.00     0.092 A 
ATOM      2  C   UNL d   1      -0.531  -1.840  -0.050  0.00  0.00    -0.039 C 
ATOM      3  O   UNL d   1      -1.078   0.903  -0.532  0.00  0.00    -0.275 OA
ATOM      4  C   UNL d   1      -2.126   0.048  -0.257  0.00  0.00     0.288 C 
ATOM      5  C   UNL d   1       0.569  -0.864  -0.115  0.00  0.00     0.004 A 
ATOM      6  C   UNL d   1      -1.789  -1.374  -0.101  0.00  0.00     0.090 C 
ATOM      7  C   UNL d   1       1.223   1.474  -0.473  0.00  0.00     0.075 A 
ATOM      8  C   UNL d   1       1.917  -1.174   0.104  0.00  0.00     0.017 A 
ATOM      9  C   UNL d   1       2.549   1.149  -0.227  0.00  0.00     0.082 A 
ATOM     10  O   UNL d   1      -3.289   0.429  -0.190  0.00  0.00    -0.260 OA
ATOM     11  C   UNL d   1       2.901  -0.172   0.061  0.00  0.00     0.038 A 
ENDROOT
BRANCH   9  12
ATOM     12  O   UNL d   1       3.593   2.103  -0.123  0.00  0.00    -0.275 OA
BRANCH  12  13
ATOM     13  C   UNL d   1       3.477   3.434  -0.506  0.00  0.00     0.298 C 
ATOM     14  O   UNL d   1       2.580   3.939  -1.161  0.00  0.00    -0.259 OA
BRANCH  13  15
ATOM     15  C   UNL d   1       4.612   4.231   0.040  0.00  0.00     0.040 A 
ATOM     16  C   UNL d   1       4.548   5.629  -0.090  0.00  0.00     0.019 A 
ATOM     17  C   UNL d   1       5.569   6.434   0.432  0.00  0.00     0.025 A 
ATOM     18  C   UNL d   1       6.651   5.848   1.076  0.00  0.00     0.034 A 
ATOM     19  C   UNL d   1       6.730   4.461   1.206  0.00  0.00     0.025 A 
ATOM     20 CL   UNL d   1       7.899   6.838   1.724  0.00  0.00    -0.084 Cl
ATOM     21  C   UNL d   1       5.711   3.650   0.688  0.00  0.00     0.019 A 
ENDBRANCH  13  15
ENDBRANCH  12  13
ENDBRANCH   9  12
BRANCH   2  22
ATOM     22  C   UNL d   1      -0.271  -3.326  -0.001  0.00  0.00     0.039 C 
BRANCH  22  23
ATOM     23  C   UNL d   1      -0.102  -3.874   1.418  0.00  0.00     0.000 C 
ATOM     24  C   UNL d   1       0.131  -5.379   1.393  0.00  0.00     0.005 C 
ENDBRANCH  22  23
ENDBRANCH   2  22
TORSDOF 5
