REMARK  5 active torsions:
REMARK  status: ('A' for Active; 'I' for Inactive)
REMARK    1  A    between atoms: C_8  and  C_1 
REMARK    2  A    between atoms: N_6  and  C_2 
REMARK    3  A    between atoms: C_9  and  C_4 
REMARK       I    between atoms: C_7  and  N_6 
REMARK    4  A    between atoms: C_10  and  C_7 
REMARK    5  A    between atoms: O_17  and  C_8 
ROOT
ATOM      1  C   UNL d   1      -0.010   1.239  -0.052  0.00  0.00     0.107 A 
ATOM      2  C   UNL d   1       1.275   0.731  -0.163  0.00  0.00     0.059 A 
ATOM      3  S   UNL d   1      -1.176  -0.044  -0.006  0.00  0.00    -0.081 SA
ATOM      4  C   UNL d   1       0.002  -1.270  -0.093  0.00  0.00     0.018 A 
ATOM      5  C   UNL d   1       1.252  -0.705  -0.209  0.00  0.00     0.051 A 
ENDROOT
BRANCH   2   6
ATOM      6  N   UNL d   1       2.532   1.329  -0.202  0.00  0.00    -0.323 N 
ATOM      7  C   UNL d   1       2.922   2.621   0.072  0.00  0.00     0.255 C 
ATOM      8  O   UNL d   1       2.177   3.519   0.460  0.00  0.00    -0.270 OA
ATOM      9  H   UNL d   1       3.299   0.678  -0.360  0.00  0.00     0.169 HD
BRANCH   7  10
ATOM     10  C   UNL d   1       4.441   2.837  -0.012  0.00  0.00     0.270 C 
ATOM     11 CL   UNL d   1       5.135   2.520   1.595  0.00  0.00    -0.098 Cl
ATOM     12 CL   UNL d   1       5.196   1.736  -1.204  0.00  0.00    -0.098 Cl
ENDBRANCH   7  10
ENDBRANCH   2   6
BRANCH   1  13
ATOM     13  C   UNL d   1      -0.589   2.568   0.025  0.00  0.00     0.302 C 
ATOM     14  O   UNL d   1      -1.519   2.881   0.766  0.00  0.00    -0.259 OA
BRANCH  13  15
ATOM     15  O   UNL d   1      -0.077   3.384  -0.939  0.00  0.00    -0.322 OA
ATOM     16  C   UNL d   1      -0.614   4.713  -0.937  0.00  0.00     0.213 C 
ENDBRANCH  13  15
ENDBRANCH   1  13
BRANCH   4  17
ATOM     17  C   UNL d   1      -0.341  -2.703  -0.039  0.00  0.00    -0.019 A 
ATOM     18  C   UNL d   1       0.498  -3.645  -0.662  0.00  0.00     0.014 A 
ATOM     19  C   UNL d   1       0.247  -5.017  -0.563  0.00  0.00     0.024 A 
ATOM     20  C   UNL d   1      -0.855  -5.465   0.157  0.00  0.00     0.034 A 
ATOM     21  C   UNL d   1      -1.710  -4.553   0.769  0.00  0.00     0.024 A 
ATOM     22 CL   UNL d   1      -1.157  -7.152   0.296  0.00  0.00    -0.084 Cl
ATOM     23  C   UNL d   1      -1.453  -3.180   0.673  0.00  0.00     0.014 A 
ENDBRANCH   4  17
TORSDOF 5
