REMARK  8 active torsions:
REMARK  status: ('A' for Active; 'I' for Inactive)
REMARK    1  A    between atoms: N_5  and  S_1 
REMARK    2  A    between atoms: C_14  and  S_1 
REMARK    3  A    between atoms: C_10  and  C_2 
REMARK    4  A    between atoms: C_4  and  C_3 
REMARK    5  A    between atoms: N_9  and  N_5 
REMARK    6  A    between atoms: C_8  and  N_9 
REMARK    7  A    between atoms: O_23  and  C_10 
REMARK    8  A    between atoms: C_28  and  O_23 
ROOT
ATOM      1  C   UNL d   1      -0.068  -2.412  -6.240  0.00  0.00     0.087 A 
ATOM      2  C   UNL d   1       1.192  -1.894  -6.002  0.00  0.00     0.150 A 
ATOM      3  N   UNL d   1       1.478  -1.273  -4.814  0.00  0.00    -0.184 N 
ATOM      4  HN  UNL d   1       2.389  -0.838  -4.669  1.00  0.00     0.184 HD
ATOM      5  C   UNL d   1       0.557  -1.242  -3.845  0.00  0.00     0.697 A 
ATOM      6  N   UNL d   1      -0.662  -1.764  -3.976  0.00  0.00    -0.199 N 
ATOM      7  HN  UNL d   1      -1.341  -1.741  -3.216  1.00  0.00     0.183 HD
ATOM      8  C   UNL d   1      -0.951  -2.329  -5.175  0.00  0.00     0.126 A 
ENDROOT
BRANCH   5   9
ATOM      9  N   UNL d   1       0.959  -0.629  -2.669  0.00  0.00    -0.122 N 
ATOM     10  H   UNL d   1       1.925  -0.309  -2.699  0.00  0.00     0.206 HD
BRANCH   9  11
ATOM     11  N   UNL d   1       0.305  -0.685  -1.377  0.00  0.00    -0.208 N 
ATOM     12  H   UNL d   1      -0.559  -1.212  -1.232  0.00  0.00     0.201 HD
BRANCH  11  13
ATOM     13  S   UNL d   1       1.073  -0.010  -0.038  0.00  0.00     0.276 S 
ATOM     14  O   UNL d   1       2.496  -0.240  -0.180  0.00  0.00    -0.199 OA
ATOM     15  O   UNL d   1       0.341  -0.410   1.147  0.00  0.00    -0.199 OA
BRANCH  13  16
ATOM     16  C   UNL d   1       0.776   1.721  -0.324  0.00  0.00     0.081 A 
ATOM     17  C   UNL d   1      -0.395   2.310   0.162  0.00  0.00     0.027 A 
ATOM     18  C   UNL d   1      -0.616   3.672  -0.052  0.00  0.00     0.025 A 
ATOM     19  C   UNL d   1       0.331   4.432  -0.742  0.00  0.00     0.034 A 
ATOM     20  C   UNL d   1       1.501   3.843  -1.223  0.00  0.00     0.025 A 
ATOM     21 CL   UNL d   1       0.058   6.112  -0.991  0.00  0.00    -0.084 Cl
ATOM     22  C   UNL d   1       1.730   2.483  -1.010  0.00  0.00     0.027 A 
ENDBRANCH  13  16
ENDBRANCH  11  13
ENDBRANCH   9  11
ENDBRANCH   5   9
BRANCH   2  23
ATOM     23  C   UNL d   1       2.366  -1.995  -6.950  0.00  0.00     0.434 C 
ATOM     24  F   UNL d   1       2.242  -2.873  -7.979  0.00  0.00    -0.165 F 
ATOM     25  F   UNL d   1       2.688  -0.793  -7.508  0.00  0.00    -0.165 F 
ATOM     26  F   UNL d   1       3.498  -2.406  -6.299  0.00  0.00    -0.165 F 
ENDBRANCH   2  23
BRANCH   1  27
ATOM     27  C   UNL d   1      -0.554  -3.072  -7.455  0.00  0.00     0.296 C 
ATOM     28  O   UNL d   1      -1.377  -3.971  -7.423  0.00  0.00    -0.259 OA
BRANCH  27  29
ATOM     29  O   UNL d   1      -0.039  -2.495  -8.563  0.00  0.00    -0.318 OA
BRANCH  29  30
ATOM     30  C   UNL d   1      -0.414  -3.102  -9.811  0.00  0.00     0.174 C 
ATOM     31  C   UNL d   1       0.312  -4.421 -10.032  0.00  0.00     0.034 C 
ENDBRANCH  29  30
ENDBRANCH  27  29
ENDBRANCH   1  27
TORSDOF 8
