REMARK  4 active torsions:
REMARK  status: ('A' for Active; 'I' for Inactive)
REMARK    1  A    between atoms: N_2  and  S_1 
REMARK    2  A    between atoms: C_3  and  S_1 
REMARK    3  A    between atoms: C_4  and  N_2 
REMARK       I    between atoms: C_7  and  N_8 
REMARK    4  A    between atoms: N_8  and  C_17 
ROOT
ATOM      1  S   UNL d   1       1.057   0.159  -0.094  0.00  0.00     0.263 S 
ATOM      2  O   UNL d   1       1.762   1.379  -0.420  0.00  0.00    -0.200 OA
ATOM      3  O   UNL d   1       1.676  -1.139  -0.256  0.00  0.00    -0.200 OA
ENDROOT
BRANCH   1   4
ATOM      4  N   UNL d   1      -0.381   0.102  -0.975  0.00  0.00    -0.281 N 
ATOM      5  H   UNL d   1      -0.752  -0.843  -1.055  0.00  0.00     0.179 HD
BRANCH   4   6
ATOM      6  C   UNL d   1      -1.298   1.186  -0.919  0.00  0.00     0.045 A 
ATOM      7  C   UNL d   1      -1.103   2.307  -1.724  0.00  0.00     0.054 A 
ATOM      8  C   UNL d   1      -2.036   3.345  -1.691  0.00  0.00     0.037 A 
ATOM      9 CL   UNL d   1      -1.840   4.706  -2.727  0.00  0.00    -0.084 Cl
ATOM     10  C   UNL d   1      -3.140   3.284  -0.843  0.00  0.00     0.048 A 
ATOM     11  C   UNL d   1      -3.306   2.170  -0.024  0.00  0.00     0.037 A 
ATOM     12  C   UNL d   1      -2.393   1.116  -0.060  0.00  0.00     0.054 A 
ATOM     13 CL   UNL d   1      -4.660   2.081   1.034  0.00  0.00    -0.084 Cl
ENDBRANCH   4   6
ENDBRANCH   1   4
BRANCH   1  14
ATOM     14  C   UNL d   1       0.503   0.272   1.594  0.00  0.00     0.080 A 
ATOM     15  C   UNL d   1       0.257  -0.885   2.339  0.00  0.00     0.027 A 
ATOM     16  C   UNL d   1      -0.146  -0.773   3.679  0.00  0.00     0.031 A 
ATOM     17  C   UNL d   1      -0.295   0.488   4.279  0.00  0.00     0.034 A 
ATOM     18  C   UNL d   1      -0.029   1.628   3.517  0.00  0.00     0.031 A 
ATOM     19  C   UNL d   1       0.377   1.527   2.184  0.00  0.00     0.027 A 
BRANCH  17  20
ATOM     20  N   UNL d   1      -0.700   0.537   5.634  0.00  0.00    -0.328 N 
ATOM     21  C   UNL d   1      -0.902   1.679   6.394  0.00  0.00     0.218 C 
ATOM     22  O   UNL d   1      -0.776   2.841   6.020  0.00  0.00    -0.274 OA
ATOM     23  C   UNL d   1      -1.321   1.401   7.815  0.00  0.00     0.117 C 
ATOM     24  H   UNL d   1      -0.854  -0.350   6.092  0.00  0.00     0.169 HD
ENDBRANCH  17  20
ENDBRANCH   1  14
TORSDOF 4
