REMARK  4 active torsions:
REMARK  status: ('A' for Active; 'I' for Inactive)
REMARK    1  A    between atoms: N_7  and  C_1 
REMARK    2  A    between atoms: C_13  and  N_2 
REMARK    3  A    between atoms: C_9  and  C_6 
REMARK       I    between atoms: C_8  and  N_7 
REMARK       I    between atoms: N_12  and  C_8 
REMARK    4  A    between atoms: C_15  and  N_12 
ROOT
ATOM      1  C   UNL d   1      -0.059  -0.917   0.481  0.00  0.00     0.133 C 
ATOM      2  N   UNL d   1       1.281  -0.620   0.226  0.00  0.00    -0.240 N 
ATOM      3  N   UNL d   1       1.487   0.717   0.169  0.00  0.00    -0.296 N 
ATOM      4  HN  UNL d   1       2.332   1.207  -0.126  1.00  0.00     0.187 HD
ATOM      5  C   UNL d   1      -0.649   0.272   0.851  0.00  0.00     0.077 C 
ATOM      6  C   UNL d   1       0.339   1.250   0.585  0.00  0.00     0.034 C 
ENDROOT
BRANCH   1   7
ATOM      7  N   UNL d   1      -0.592  -2.165   0.218  0.00  0.00    -0.293 N 
ATOM      8  C   UNL d   1      -1.587  -2.859   0.844  0.00  0.00     0.326 C 
ATOM      9  N   UNL d   1      -1.913  -2.463   2.113  0.00  0.00    -0.309 N 
ATOM     10  O   UNL d   1      -1.990  -3.873   0.276  0.00  0.00    -0.247 OA
ATOM     11  H   UNL d   1      -1.554  -1.571   2.412  0.00  0.00     0.170 HD
ATOM     12  H   UNL d   1      -0.149  -2.723  -0.506  0.00  0.00     0.172 HD
BRANCH   9  13
ATOM     13  C   UNL d   1      -2.589  -3.235   3.087  0.00  0.00     0.036 A 
ATOM     14  C   UNL d   1      -3.014  -4.552   2.882  0.00  0.00     0.029 A 
ATOM     15  C   UNL d   1      -3.629  -5.277   3.909  0.00  0.00     0.002 A 
ATOM     16  C   UNL d   1      -3.828  -4.690   5.154  0.00  0.00     0.000 A 
ATOM     17  C   UNL d   1      -3.410  -3.380   5.373  0.00  0.00     0.002 A 
ATOM     18  C   UNL d   1      -2.792  -2.658   4.345  0.00  0.00     0.029 A 
ENDBRANCH   9  13
ENDBRANCH   1   7
BRANCH   2  19
ATOM     19  C   UNL d   1       2.378  -1.521   0.114  0.00  0.00     0.058 A 
ATOM     20  C   UNL d   1       3.548  -1.108  -0.534  0.00  0.00     0.031 A 
ATOM     21  C   UNL d   1       4.634  -1.980  -0.637  0.00  0.00     0.002 A 
ATOM     22  C   UNL d   1       4.568  -3.252  -0.071  0.00  0.00     0.000 A 
ATOM     23  C   UNL d   1       3.417  -3.658   0.602  0.00  0.00     0.002 A 
ATOM     24  C   UNL d   1       2.323  -2.798   0.695  0.00  0.00     0.031 A 
ENDBRANCH   2  19
BRANCH   6  25
ATOM     25  C   UNL d   1       0.196   2.762   0.665  0.00  0.00     0.037 A 
ATOM     26  C   UNL d   1      -0.736   3.392   1.675  0.00  0.00     0.011 A 
ATOM     27  C   UNL d   1      -1.098   3.416   0.230  0.00  0.00     0.011 A 
ENDBRANCH   6  25
TORSDOF 4
