REMARK  0 active torsions:
REMARK  status: ('A' for Active; 'I' for Inactive)
ROOT
ATOM      1  C   UNL d   1       1.532  -1.806   0.074  0.00  0.00     0.098 A 
ATOM      2  C   UNL d   1       1.269  -0.432   0.183  0.00  0.00     0.004 A 
ATOM      3  C   UNL d   1       0.524  -2.744  -0.169  0.00  0.00     0.005 A 
ATOM      4  C   UNL d   1      -0.044   0.042   0.037  0.00  0.00     0.045 A 
ATOM      5  C   UNL d   1       0.886  -4.160  -0.335  0.00  0.00    -0.043 A 
ATOM      6  O   UNL d   1       2.878  -2.216   0.207  0.00  0.00    -0.274 OA
ATOM      7  C   UNL d   1      -1.079  -0.898  -0.102  0.00  0.00    -0.030 A 
ATOM      8  C   UNL d   1       3.251  -3.537   0.060  0.00  0.00     0.288 A 
ATOM      9  C   UNL d   1      -0.787  -2.266  -0.234  0.00  0.00     0.024 A 
ATOM     10  C   UNL d   1       2.179  -4.498  -0.226  0.00  0.00     0.090 A 
ATOM     11  N   UNL d   1      -0.292   1.422   0.106  0.00  0.00    -0.380 N 
ATOM     12  O   UNL d   1       4.416  -3.909   0.157  0.00  0.00    -0.260 OA
ATOM     13  C   UNL d   1       2.325   0.582   0.528  0.00  0.00     0.045 C 
ATOM     14  C   UNL d   1      -2.517  -0.456  -0.157  0.00  0.00     0.042 C 
ATOM     15  C   UNL d   1       0.731   2.274  -0.526  0.00  0.00     0.123 C 
ATOM     16  C   UNL d   1      -1.673   1.863  -0.140  0.00  0.00     0.123 C 
ATOM     17  C   UNL d   1      -0.127  -5.226  -0.641  0.00  0.00     0.049 C 
ATOM     18  C   UNL d   1       2.172   1.787  -0.380  0.00  0.00     0.025 C 
ATOM     19  C   UNL d   1      -2.679   0.912   0.484  0.00  0.00     0.024 C 
ENDROOT
TORSDOF 0
