REMARK  4 active torsions:
REMARK  status: ('A' for Active; 'I' for Inactive)
REMARK    1  A    between atoms: C_9  and  C_5 
REMARK    2  A    between atoms: N_16  and  C_6 
REMARK    3  A    between atoms: O_20  and  C_7 
REMARK    4  A    between atoms: C_8  and  C_14 
ROOT
ATOM      1  C   UNL d   1       0.973  -0.367  -0.121  0.00  0.00     0.095 A 
ATOM      2  C   UNL d   1      -1.412  -0.060   0.113  0.00  0.00     0.108 A 
ATOM      3  N   UNL d   1       0.064   1.856   0.051  0.00  0.00    -0.325 N 
ATOM      4  HN  UNL d   1       0.195   2.867   0.082  1.00  0.00     0.169 HD
ATOM      5  C   UNL d   1      -0.320  -0.951  -0.031  0.00  0.00     0.023 A 
ATOM      6  C   UNL d   1       1.114   1.026  -0.038  0.00  0.00     0.101 A 
ATOM      7  C   UNL d   1      -1.169   1.314   0.100  0.00  0.00     0.165 A 
ATOM      8  C   UNL d   1      -2.763  -0.508   0.289  0.00  0.00     0.104 C 
ATOM      9  C   UNL d   1       2.157  -1.153  -0.322  0.00  0.00     0.103 C 
ATOM     10  N   UNL d   1       3.121  -1.769  -0.496  0.00  0.00    -0.191 NA
ATOM     11  N   UNL d   1      -3.850  -0.895   0.413  0.00  0.00    -0.191 NA
ENDROOT
BRANCH   5  12
ATOM     12  C   UNL d   1      -0.518  -2.434  -0.075  0.00  0.00    -0.022 A 
ATOM     13  C   UNL d   1      -1.489  -3.029  -0.907  0.00  0.00     0.028 A 
ATOM     14  C   UNL d   1      -1.720  -4.419  -0.912  0.00  0.00     0.048 A 
ATOM     15  C   UNL d   1      -0.900  -5.244  -0.135  0.00  0.00     0.016 A 
ATOM     16  C   UNL d   1       0.084  -4.689   0.674  0.00  0.00     0.002 A 
ATOM     17  C   UNL d   1       0.248  -3.300   0.728  0.00  0.00     0.012 A 
BRANCH  14  18
ATOM     18  C   UNL d   1      -2.845  -5.026  -1.717  0.00  0.00     0.417 C 
ATOM     19  F   UNL d   1      -3.647  -4.102  -2.317  0.00  0.00    -0.166 F 
ATOM     20  F   UNL d   1      -2.393  -5.832  -2.717  0.00  0.00    -0.166 F 
ATOM     21  F   UNL d   1      -3.670  -5.800  -0.958  0.00  0.00    -0.166 F 
ENDBRANCH  14  18
ENDBRANCH   5  12
BRANCH   7  22
ATOM     22  O   UNL d   1      -2.255   2.165   0.152  0.00  0.00    -0.340 OA
ATOM     23  C   UNL d   1      -1.937   3.519  -0.161  0.00  0.00     0.211 C 
ENDBRANCH   7  22
BRANCH   6  24
ATOM     24  N   UNL d   1       2.349   1.658   0.051  0.00  0.00    -0.287 NA
ATOM     25  H   UNL d   1       2.202   2.665   0.080  0.00  0.00     0.125 HD
ATOM     26  H   UNL d   1       3.025   1.388  -0.655  0.00  0.00     0.125 HD
ENDBRANCH   6  24
TORSDOF 4
