REMARK  8 active torsions:
REMARK  status: ('A' for Active; 'I' for Inactive)
REMARK       I    between atoms: N_4  and  C_1 
REMARK    1  A    between atoms: C_5  and  C_1 
REMARK       I    between atoms: C_2  and  N_3 
REMARK    2  A    between atoms: C_6  and  C_2 
REMARK    3  A    between atoms: N_3  and  C_16 
REMARK    4  A    between atoms: C_15  and  N_4 
REMARK    5  A    between atoms: O_9  and  C_20 
REMARK    6  A    between atoms: C_18  and  O_9 
REMARK    7  A    between atoms: O_10  and  C_19 
REMARK    8  A    between atoms: C_17  and  O_10 
ROOT
ATOM      1  C   UNL d   1      -0.467  -6.444  -1.080  0.00  0.00     0.076 C 
ATOM      2  C   UNL d   1      -2.732  -6.816  -2.671  0.00  0.00     0.076 C 
ATOM      3  C   UNL d   1      -0.343  -6.524  -2.473  0.00  0.00     0.040 C 
ATOM      4  C   UNL d   1      -1.699  -6.707  -0.482  0.00  0.00     0.040 C 
ATOM      5  C   UNL d   1      -1.475  -6.696  -3.268  0.00  0.00     0.040 C 
ATOM      6  C   UNL d   1      -2.833  -6.896  -1.280  0.00  0.00     0.040 C 
ENDROOT
BRANCH   1   7
ATOM      7  O   UNL d   1       0.579  -6.101  -0.244  0.00  0.00    -0.311 OA
BRANCH   7   8
ATOM      8  C   UNL d   1       1.494  -5.181  -0.717  0.00  0.00     0.076 C 
ATOM      9  C   UNL d   1       1.131  -4.071  -1.485  0.00  0.00     0.039 C 
ATOM     10  C   UNL d   1       2.117  -3.299  -2.112  0.00  0.00     0.032 C 
ATOM     11  C   UNL d   1       3.472  -3.589  -1.922  0.00  0.00     0.035 C 
ATOM     12  C   UNL d   1       3.819  -4.606  -1.026  0.00  0.00     0.032 C 
ATOM     13  C   UNL d   1       2.834  -5.404  -0.427  0.00  0.00     0.039 C 
BRANCH  11  14
ATOM     14  N   UNL d   1       4.404  -2.858  -2.696  0.00  0.00    -0.323 N 
ATOM     15  C   UNL d   1       5.782  -3.004  -2.679  0.00  0.00     0.256 C 
ATOM     16  O   UNL d   1       6.417  -3.700  -1.897  0.00  0.00    -0.267 OA
ATOM     17  H   UNL d   1       4.011  -2.178  -3.333  0.00  0.00     0.169 HD
BRANCH  15  18
ATOM     18  C   UNL d   1       6.556  -2.236  -3.702  0.00  0.00     0.032 A 
ATOM     19  C   UNL d   1       7.898  -1.957  -3.406  0.00  0.00     0.017 A 
ATOM     20  C   UNL d   1       8.720  -1.321  -4.337  0.00  0.00     0.007 A 
ATOM     21  C   UNL d   1       8.218  -0.963  -5.591  0.00  0.00    -0.062 A 
ATOM     22  C   UNL d   1       6.871  -1.218  -5.884  0.00  0.00     0.007 A 
ATOM     23  C   UNL d   1       9.126  -0.307  -6.590  0.00  0.00     0.048 C 
ATOM     24  C   UNL d   1       6.044  -1.859  -4.949  0.00  0.00     0.017 A 
ENDBRANCH  15  18
ENDBRANCH  11  14
ENDBRANCH   7   8
ENDBRANCH   1   7
BRANCH   2  25
ATOM     25  O   UNL d   1      -3.900  -6.907  -3.397  0.00  0.00    -0.311 OA
BRANCH  25  26
ATOM     26  C   UNL d   1      -4.070  -6.074  -4.485  0.00  0.00     0.076 A 
ATOM     27  C   UNL d   1      -4.849  -6.565  -5.532  0.00  0.00     0.039 A 
ATOM     28  C   UNL d   1      -5.061  -5.790  -6.683  0.00  0.00     0.032 A 
ATOM     29  C   UNL d   1      -4.495  -4.514  -6.802  0.00  0.00     0.035 A 
ATOM     30  C   UNL d   1      -3.752  -4.016  -5.729  0.00  0.00     0.032 A 
ATOM     31  C   UNL d   1      -3.560  -4.778  -4.570  0.00  0.00     0.039 A 
BRANCH  29  32
ATOM     32  N   UNL d   1      -4.723  -3.800  -8.002  0.00  0.00    -0.323 N 
ATOM     33  C   UNL d   1      -4.208  -2.555  -8.333  0.00  0.00     0.256 C 
ATOM     34  O   UNL d   1      -3.451  -1.877  -7.645  0.00  0.00    -0.267 OA
ATOM     35  H   UNL d   1      -5.358  -4.233  -8.658  0.00  0.00     0.169 HD
BRANCH  33  36
ATOM     36  C   UNL d   1      -4.645  -1.981  -9.638  0.00  0.00     0.032 A 
ATOM     37  C   UNL d   1      -4.743  -0.586  -9.734  0.00  0.00     0.017 A 
ATOM     38  C   UNL d   1      -5.141   0.017 -10.928  0.00  0.00     0.007 A 
ATOM     39  C   UNL d   1      -5.436  -0.766 -12.049  0.00  0.00    -0.062 A 
ATOM     40  C   UNL d   1      -5.318  -2.160 -11.959  0.00  0.00     0.007 A 
ATOM     41  C   UNL d   1      -5.887  -0.105 -13.318  0.00  0.00     0.048 C 
ATOM     42  C   UNL d   1      -4.919  -2.767 -10.762  0.00  0.00     0.017 A 
ENDBRANCH  33  36
ENDBRANCH  29  32
ENDBRANCH  25  26
ENDBRANCH   2  25
TORSDOF 8
