REMARK  9 active torsions:
REMARK  status: ('A' for Active; 'I' for Inactive)
REMARK    1  A    between atoms: C_2  and  S_1 
REMARK    2  A    between atoms: N_6  and  S_1 
REMARK    3  A    between atoms: C_11  and  C_3 
REMARK    4  A    between atoms: C_5  and  C_4 
REMARK    5  A    between atoms: N_10  and  N_6 
REMARK    6  A    between atoms: C_9  and  N_10 
REMARK    7  A    between atoms: O_25  and  C_11 
REMARK    8  A    between atoms: O_28  and  C_18 
REMARK    9  A    between atoms: C_29  and  O_25 
ROOT
ATOM      1  C   UNL d   1       0.128  -6.684  -0.186  0.00  0.00     0.087 A 
ATOM      2  C   UNL d   1       1.353  -6.290  -0.688  0.00  0.00     0.150 A 
ATOM      3  N   UNL d   1       1.779  -4.993  -0.558  0.00  0.00    -0.184 N 
ATOM      4  HN  UNL d   1       2.695  -4.712  -0.907  1.00  0.00     0.184 HD
ATOM      5  C   UNL d   1       0.975  -4.102   0.033  0.00  0.00     0.697 A 
ATOM      6  N   UNL d   1      -0.238  -4.410   0.516  0.00  0.00    -0.199 N 
ATOM      7  HN  UNL d   1      -0.830  -3.707   0.958  1.00  0.00     0.183 HD
ATOM      8  C   UNL d   1      -0.637  -5.692   0.390  0.00  0.00     0.126 A 
ENDROOT
BRANCH   5   9
ATOM      9  N   UNL d   1       1.440  -2.803   0.160  0.00  0.00    -0.122 N 
ATOM     10  H   UNL d   1       2.324  -2.606  -0.305  0.00  0.00     0.206 HD
BRANCH   9  11
ATOM     11  N   UNL d   1       0.673  -1.697   0.711  0.00  0.00    -0.208 N 
ATOM     12  H   UNL d   1      -0.315  -1.825   0.949  0.00  0.00     0.201 HD
BRANCH  11  13
ATOM     13  S   UNL d   1       1.261  -0.120   0.650  0.00  0.00     0.279 S 
ATOM     14  O   UNL d   1       2.132  -0.044  -0.504  0.00  0.00    -0.199 OA
ATOM     15  O   UNL d   1       0.108   0.736   0.827  0.00  0.00    -0.199 OA
BRANCH  13  16
ATOM     16  C   UNL d   1       2.267   0.023   2.102  0.00  0.00     0.116 A 
ATOM     17  C   UNL d   1       2.376  -1.054   2.993  0.00  0.00     0.052 A 
ATOM     18  C   UNL d   1       3.233  -0.964   4.088  0.00  0.00     0.035 A 
ATOM     19 CL   UNL d   1       3.397  -2.307   5.151  0.00  0.00    -0.084 Cl
ATOM     20  C   UNL d   1       3.974   0.193   4.314  0.00  0.00     0.026 A 
ATOM     21  C   UNL d   1       3.857   1.270   3.434  0.00  0.00     0.040 A 
ATOM     22  C   UNL d   1       2.997   1.195   2.333  0.00  0.00     0.091 A 
BRANCH  22  23
ATOM     23  O   UNL d   1       3.028   2.255   1.472  0.00  0.00    -0.354 OA
ATOM     24  C   UNL d   1       1.868   3.085   1.563  0.00  0.00     0.210 C 
ENDBRANCH  22  23
ENDBRANCH  13  16
ENDBRANCH  11  13
ENDBRANCH   9  11
ENDBRANCH   5   9
BRANCH   2  25
ATOM     25  C   UNL d   1       2.288  -7.231  -1.420  0.00  0.00     0.434 C 
ATOM     26  F   UNL d   1       1.688  -8.314  -1.984  0.00  0.00    -0.165 F 
ATOM     27  F   UNL d   1       2.927  -6.617  -2.460  0.00  0.00    -0.165 F 
ATOM     28  F   UNL d   1       3.277  -7.714  -0.617  0.00  0.00    -0.165 F 
ENDBRANCH   2  25
BRANCH   1  29
ATOM     29  C   UNL d   1      -0.454  -8.029  -0.230  0.00  0.00     0.296 C 
ATOM     30  O   UNL d   1      -1.637  -8.219  -0.443  0.00  0.00    -0.259 OA
BRANCH  29  31
ATOM     31  O   UNL d   1       0.473  -8.957   0.108  0.00  0.00    -0.318 OA
BRANCH  31  32
ATOM     32  C   UNL d   1      -0.009 -10.309   0.156  0.00  0.00     0.174 C 
ATOM     33  C   UNL d   1      -0.144 -10.893  -1.240  0.00  0.00     0.034 C 
ENDBRANCH  31  32
ENDBRANCH  29  31
ENDBRANCH   1  29
TORSDOF 9
