REMARK  3 active torsions:
REMARK  status: ('A' for Active; 'I' for Inactive)
REMARK    1  A    between atoms: C_3  and  C_1 
REMARK    2  A    between atoms: N_4  and  C_3 
REMARK    3  A    between atoms: O_9  and  C_5 
ROOT
ATOM      1  C   UNL d   1       1.089  -0.796   0.060  0.00  0.00     0.014 A 
ATOM      2  C   UNL d   1       0.963  -0.166   1.342  0.00  0.00    -0.015 A 
ATOM      3  C   UNL d   1       0.859  -0.024  -1.096  0.00  0.00     0.074 A 
ATOM      4  C   UNL d   1       0.589   1.204   1.407  0.00  0.00    -0.025 A 
ATOM      5  C   UNL d   1       0.520   1.323  -1.011  0.00  0.00     0.038 A 
ATOM      6  C   UNL d   1       0.380   1.931   0.230  0.00  0.00     0.015 A 
ATOM      7  C   UNL d   1       1.171  -0.825   2.578  0.00  0.00     0.013 A 
ATOM      8  C   UNL d   1       0.409   1.836   2.649  0.00  0.00     0.012 A 
ATOM      9  C   UNL d   1       0.980  -0.188   3.807  0.00  0.00     0.001 A 
ATOM     10  C   UNL d   1       0.593   1.143   3.843  0.00  0.00     0.001 A 
ENDROOT
BRANCH   1  11
ATOM     11  C   UNL d   1       1.403  -2.283  -0.033  0.00  0.00     0.314 C 
BRANCH  11  12
ATOM     12  N   UNL d   1       2.843  -2.619   0.034  0.00  0.00     0.092 N 
ATOM     13  C   UNL d   1       3.527  -2.294  -1.230  0.00  0.00     0.272 C 
ATOM     14  C   UNL d   1       4.969  -2.799  -1.310  0.00  0.00     0.030 C 
ATOM     15  C   UNL d   1       5.039  -4.289  -1.015  0.00  0.00     0.003 C 
ATOM     16  C   UNL d   1       4.428  -4.548   0.352  0.00  0.00     0.030 C 
ATOM     17  C   UNL d   1       2.987  -4.037   0.405  0.00  0.00     0.272 C 
ENDBRANCH  11  12
ENDBRANCH   1  11
BRANCH   3  18
ATOM     18  O   UNL d   1       0.927  -0.504  -2.374  0.00  0.00    -0.360 OA
ATOM     19  H   UNL d   1       1.229  -1.422  -2.371  0.00  0.00     0.217 HD
ENDBRANCH   3  18
TORSDOF 3
