REMARK  3 active torsions:
REMARK  status: ('A' for Active; 'I' for Inactive)
REMARK       I    between atoms: C_7  and  N_1 
REMARK    1  A    between atoms: S_14  and  C_3 
REMARK    2  A    between atoms: C_8  and  C_6 
REMARK    3  A    between atoms: C_12  and  C_7 
ROOT
ATOM      1  N   UNL d   1       0.017  -1.303  -0.031  0.00  0.00    -0.215 N 
ATOM      2  C   UNL d   1       1.226   0.561  -0.148  0.00  0.00     0.109 A 
ATOM      3  C   UNL d   1       1.318  -0.813  -0.085  0.00  0.00     0.119 A 
ATOM      4  N   UNL d   1      -0.885  -0.272  -0.001  0.00  0.00    -0.288 N 
ATOM      5  HN  UNL d   1      -1.900  -0.342   0.076  1.00  0.00     0.188 HD
ATOM      6  C   UNL d   1      -0.153   0.850  -0.095  0.00  0.00     0.089 A 
ATOM      7  C   UNL d   1      -0.425  -2.642   0.056  0.00  0.00     0.251 C 
ATOM      8  C   UNL d   1       2.330   1.463  -0.217  0.00  0.00     0.105 C 
ATOM      9  N   UNL d   1       3.231   2.191  -0.254  0.00  0.00    -0.191 NA
ATOM     10  O   UNL d   1       0.291  -3.463   0.625  0.00  0.00    -0.270 OA
ENDROOT
BRANCH   3  11
ATOM     11  S   UNL d   1       2.730  -1.823  -0.263  0.00  0.00    -0.113 SA
ATOM     12  C   UNL d   1       3.079  -2.272   1.454  0.00  0.00     0.097 C 
ENDBRANCH   3  11
BRANCH   6  13
ATOM     13  C   UNL d   1      -0.818   2.203  -0.143  0.00  0.00     0.034 A 
ATOM     14  S   UNL d   1      -0.112   3.611  -0.815  0.00  0.00    -0.100 SA
ATOM     15  C   UNL d   1      -1.496   4.555  -0.482  0.00  0.00     0.050 A 
ATOM     16  C   UNL d   1      -2.466   3.829   0.171  0.00  0.00     0.008 A 
ATOM     17  C   UNL d   1      -2.085   2.462   0.340  0.00  0.00     0.022 A 
ENDBRANCH   6  13
BRANCH   7  18
ATOM     18  C   UNL d   1      -1.754  -3.006  -0.628  0.00  0.00     0.032 C 
ATOM     19  C   UNL d   1      -1.774  -2.535  -2.091  0.00  0.00     0.025 C 
ATOM     20  C   UNL d   1      -1.834  -4.554  -0.651  0.00  0.00     0.025 C 
ATOM     21  C   UNL d   1      -2.979  -2.497   0.138  0.00  0.00     0.025 C 
ENDBRANCH   7  18
TORSDOF 3
