REMARK  2 active torsions:
REMARK  status: ('A' for Active; 'I' for Inactive)
REMARK    1  A    between atoms: C_11  and  N_1 
REMARK    2  A    between atoms: C_12  and  C_6 
ROOT
ATOM      1  N   UNL d   1      -3.056   1.080  -0.059  0.00  0.00    -0.282 N 
ATOM      2  N   UNL d   1      -1.775   1.516  -0.296  0.00  0.00    -0.300 N 
ATOM      3  HN  UNL d   1      -1.487   2.424  -0.659  1.00  0.00     0.187 HD
ATOM      4  C   UNL d   1      -1.013   0.523   0.043  0.00  0.00     0.047 C 
ATOM      5  C   UNL d   1      -1.704  -0.656   0.644  0.00  0.00     0.091 C 
ATOM      6  C   UNL d   1      -3.139  -0.368   0.187  0.00  0.00     0.153 C 
ATOM      7  C   UNL d   1       0.434   0.456  -0.026  0.00  0.00     0.022 A 
ATOM      8  C   UNL d   1      -1.026  -1.979   0.339  0.00  0.00     0.189 C 
ATOM      9  O   UNL d   1       0.204  -1.926  -0.402  0.00  0.00    -0.349 OA
ATOM     10  C   UNL d   1       0.974  -0.817  -0.193  0.00  0.00     0.081 A 
ATOM     11  C   UNL d   1       1.245   1.576   0.115  0.00  0.00     0.016 A 
ATOM     12  C   UNL d   1       2.356  -0.974  -0.234  0.00  0.00     0.037 A 
ATOM     13  C   UNL d   1       2.632   1.410   0.115  0.00  0.00     0.001 A 
ATOM     14  C   UNL d   1       3.185   0.136  -0.057  0.00  0.00     0.003 A 
ENDROOT
BRANCH   1  15
ATOM     15  C   UNL d   1      -4.159   1.905  -0.245  0.00  0.00     0.051 A 
ATOM     16  C   UNL d   1      -4.163   2.898  -1.233  0.00  0.00     0.031 A 
ATOM     17  C   UNL d   1      -5.264   3.741  -1.413  0.00  0.00     0.002 A 
ATOM     18  C   UNL d   1      -6.374   3.626  -0.581  0.00  0.00     0.000 A 
ATOM     19  C   UNL d   1      -6.389   2.654   0.414  0.00  0.00     0.002 A 
ATOM     20  C   UNL d   1      -5.298   1.794   0.569  0.00  0.00     0.031 A 
ENDBRANCH   1  15
BRANCH   6  21
ATOM     21  C   UNL d   1      -3.624  -1.114  -1.049  0.00  0.00    -0.033 A 
ATOM     22  C   UNL d   1      -4.769  -1.926  -0.966  0.00  0.00     0.009 A 
ATOM     23  C   UNL d   1      -5.212  -2.654  -2.074  0.00  0.00     0.001 A 
ATOM     24  C   UNL d   1      -4.522  -2.577  -3.281  0.00  0.00     0.000 A 
ATOM     25  C   UNL d   1      -3.404  -1.756  -3.390  0.00  0.00     0.001 A 
ATOM     26  C   UNL d   1      -2.963  -1.024  -2.285  0.00  0.00     0.009 A 
ENDBRANCH   6  21
TORSDOF 2
