REMARK  8 active torsions:
REMARK  status: ('A' for Active; 'I' for Inactive)
REMARK    1  A    between atoms: C_8  and  C_4 
REMARK    2  A    between atoms: C_15  and  C_7 
REMARK    3  A    between atoms: N_32  and  C_8 
REMARK    4  A    between atoms: C_9  and  C_17 
REMARK    5  A    between atoms: C_10  and  C_19 
REMARK    6  A    between atoms: O_21  and  N_13 
REMARK    7  A    between atoms: C_16  and  O_21 
REMARK    8  A    between atoms: C_22  and  C_16 
ROOT
ATOM      1  N   UNL d   1       5.942  -2.942  -0.015  0.00  0.00    -0.239 N 
ATOM      2  N   UNL d   1       5.744  -1.593  -0.017  0.00  0.00    -0.289 N 
ATOM      3  HN  UNL d   1       6.455  -0.861  -0.029  1.00  0.00     0.188 HD
ATOM      4  C   UNL d   1       4.405  -1.434   0.001  0.00  0.00     0.092 A 
ATOM      5  C   UNL d   1       4.729  -3.638  -0.049  0.00  0.00     0.129 A 
ATOM      6  C   UNL d   1       3.741  -2.682  -0.037  0.00  0.00     0.084 A 
ATOM      7  C   UNL d   1       7.161  -3.647   0.007  0.00  0.00     0.070 A 
ATOM      8  N   UNL d   1       4.668  -5.004  -0.079  0.00  0.00    -0.351 N 
ATOM      9  HN  UNL d   1       3.780  -5.505  -0.111  1.00  0.00     0.166 HD
ATOM     10  C   UNL d   1       7.152  -4.992  -0.014  0.00  0.00     0.049 A 
ATOM     11  C   UNL d   1       5.807  -5.625  -0.063  0.00  0.00     0.092 A 
ENDROOT
BRANCH   4  12
ATOM     12  C   UNL d   1       3.799  -0.092   0.029  0.00  0.00     0.127 C 
ATOM     13  N   UNL d   1       2.514   0.015  -0.044  0.00  0.00    -0.244 N 
ATOM     14  HN  UNL d   1       1.876  -0.776  -0.130  1.00  0.00     0.196 HD
BRANCH  13  15
ATOM     15  O   UNL d   1       2.103   1.370   0.008  0.00  0.00    -0.193 OA
BRANCH  15  16
ATOM     16  C   UNL d   1       0.738   1.431  -0.082  0.00  0.00     0.315 C 
ATOM     17  O   UNL d   1      -0.034   0.491  -0.234  0.00  0.00    -0.257 OA
BRANCH  16  18
ATOM     18  C   UNL d   1       0.247   2.835   0.030  0.00  0.00     0.042 A 
ATOM     19  C   UNL d   1       1.090   3.942   0.224  0.00  0.00     0.034 A 
ATOM     20  C   UNL d   1       0.550   5.242   0.333  0.00  0.00     0.048 A 
ATOM     21  C   UNL d   1      -0.841   5.418   0.241  0.00  0.00     0.016 A 
ATOM     22  C   UNL d   1      -1.681   4.324   0.046  0.00  0.00     0.002 A 
ATOM     23  C   UNL d   1      -1.139   3.043  -0.058  0.00  0.00     0.018 A 
BRANCH  20  24
ATOM     24  C   UNL d   1       1.430   6.450   0.552  0.00  0.00     0.417 C 
ATOM     25  F   UNL d   1       2.756   6.147   0.633  0.00  0.00    -0.166 F 
ATOM     26  F   UNL d   1       1.317   7.364  -0.452  0.00  0.00    -0.166 F 
ATOM     27  F   UNL d   1       1.126   7.115   1.700  0.00  0.00    -0.166 F 
ENDBRANCH  20  24
ENDBRANCH  16  18
ENDBRANCH  15  16
ENDBRANCH  13  15
BRANCH  12  28
ATOM     28  N   UNL d   1       4.729   0.913   0.105  0.00  0.00    -0.285 NA
ATOM     29  H   UNL d   1       5.662   0.603  -0.165  0.00  0.00     0.125 HD
ATOM     30  H   UNL d   1       4.435   1.779  -0.322  0.00  0.00     0.125 HD
ENDBRANCH  12  28
ENDBRANCH   4  12
BRANCH   7  31
ATOM     31  C   UNL d   1       8.451  -2.946   0.049  0.00  0.00    -0.006 A 
ATOM     32  C   UNL d   1       9.079  -2.558  -1.142  0.00  0.00     0.030 A 
ATOM     33  C   UNL d   1      10.298  -1.863  -1.116  0.00  0.00     0.048 A 
ATOM     34  C   UNL d   1      10.893  -1.581   0.124  0.00  0.00     0.016 A 
ATOM     35  C   UNL d   1      10.279  -1.978   1.312  0.00  0.00     0.002 A 
ATOM     36  C   UNL d   1       9.061  -2.658   1.275  0.00  0.00     0.014 A 
BRANCH  33  37
ATOM     37  C   UNL d   1      10.959  -1.401  -2.391  0.00  0.00     0.417 C 
ATOM     38  F   UNL d   1      10.255  -1.716  -3.514  0.00  0.00    -0.166 F 
ATOM     39  F   UNL d   1      11.133  -0.051  -2.427  0.00  0.00    -0.166 F 
ATOM     40  F   UNL d   1      12.196  -1.943  -2.563  0.00  0.00    -0.166 F 
ENDBRANCH  33  37
ENDBRANCH   7  31
TORSDOF 8
