REMARK  7 active torsions:
REMARK  status: ('A' for Active; 'I' for Inactive)
REMARK    1  A    between atoms: C_8  and  C_1 
REMARK    2  A    between atoms: C_10  and  N_6 
REMARK    3  A    between atoms: C_12  and  C_10 
REMARK    4  A    between atoms: C_11  and  N_14 
REMARK    5  A    between atoms: N_13  and  C_11 
REMARK       I    between atoms: N_15  and  C_12 
REMARK    6  A    between atoms: C_20  and  N_13 
REMARK    7  A    between atoms: N_14  and  N_15 
ROOT
ATOM      1  C   UNL d   1       3.085   0.635  -0.359  0.00  0.00     0.257 C 
ATOM      2  N   UNL d   1       3.176  -0.708  -0.649  0.00  0.00    -0.266 N 
ATOM      3  O   UNL d   1       4.110   1.316  -0.408  0.00  0.00    -0.270 OA
ATOM      4  H   UNL d   1       4.090  -1.036  -0.950  0.00  0.00     0.190 HD
ENDROOT
BRANCH   1   5
ATOM      5  C   UNL d   1       1.784   1.253   0.106  0.00  0.00     0.271 C 
BRANCH   5   6
ATOM      6  N   UNL d   1       0.643   0.829  -0.669  0.00  0.00    -0.207 N 
ATOM      7  N   UNL d   1      -0.263  -0.036  -0.162  0.00  0.00    -0.268 N 
ATOM      8  C   UNL d   1      -1.012  -0.270  -1.256  0.00  0.00     0.146 A 
ATOM      9  HN  UNL d   1      -0.354  -0.406   0.784  1.00  0.00     0.190 HD
ATOM     10  N   UNL d   1      -0.577   0.440  -2.348  0.00  0.00    -0.266 N 
ATOM     11  N   UNL d   1       0.488   1.133  -1.963  0.00  0.00    -0.002 NA
ATOM     12  HN  UNL d   1      -0.993   0.436  -3.279  1.00  0.00     0.186 HD
BRANCH   8  13
ATOM     13  C   UNL d   1      -2.145  -1.184  -1.273  0.00  0.00     0.034 A 
ATOM     14  C   UNL d   1      -2.357  -2.117  -2.306  0.00  0.00     0.069 A 
ATOM     15  C   UNL d   1      -3.466  -2.980  -2.241  0.00  0.00     0.056 A 
ATOM     16 CL   UNL d   1      -1.232  -2.263  -3.625  0.00  0.00    -0.082 Cl
ATOM     17 CL   UNL d   1      -3.805  -4.157  -3.468  0.00  0.00    -0.083 Cl
ATOM     18  C   UNL d   1      -4.348  -2.928  -1.159  0.00  0.00     0.026 A 
ATOM     19  C   UNL d   1      -4.136  -2.018  -0.129  0.00  0.00     0.003 A 
ATOM     20  C   UNL d   1      -3.045  -1.152  -0.185  0.00  0.00     0.017 A 
ENDBRANCH   8  13
ENDBRANCH   5   6
ENDBRANCH   1   5
BRANCH   2  21
ATOM     21  N   UNL d   1       2.242  -1.662  -0.236  0.00  0.00    -0.273 N 
ATOM     22  H   UNL d   1       1.275  -1.374  -0.066  0.00  0.00     0.189 HD
BRANCH  21  23
ATOM     23  C   UNL d   1       2.360  -3.008  -0.495  0.00  0.00     0.191 C 
ATOM     24  S   UNL d   1       1.007  -3.946  -0.184  0.00  0.00    -0.039 SA
BRANCH  23  25
ATOM     25  N   UNL d   1       3.597  -3.448  -0.918  0.00  0.00    -0.332 N 
ATOM     26  H   UNL d   1       4.375  -3.091  -0.373  0.00  0.00     0.168 HD
BRANCH  25  27
ATOM     27  C   UNL d   1       3.858  -4.604  -1.693  0.00  0.00     0.034 A 
ATOM     28  C   UNL d   1       5.075  -5.283  -1.532  0.00  0.00     0.037 A 
ATOM     29  C   UNL d   1       5.385  -6.422  -2.306  0.00  0.00    -0.043 A 
ATOM     30  C   UNL d   1       6.694  -7.132  -2.093  0.00  0.00     0.049 C 
ATOM     31  C   UNL d   1       4.452  -6.866  -3.257  0.00  0.00     0.017 A 
ATOM     32  C   UNL d   1       3.252  -6.178  -3.440  0.00  0.00     0.022 A 
ATOM     33 BR   UNL d   1       4.765  -8.387  -4.349  0.00  0.00    -0.051 Br
ATOM     34  C   UNL d   1       2.965  -5.051  -2.671  0.00  0.00     0.031 A 
ENDBRANCH  25  27
ENDBRANCH  23  25
ENDBRANCH  21  23
ENDBRANCH   2  21
TORSDOF 7
