REMARK  7 active torsions:
REMARK  status: ('A' for Active; 'I' for Inactive)
REMARK    1  A    between atoms: C_2  and  C_1 
REMARK       I    between atoms: N_6  and  C_1 
REMARK    2  A    between atoms: C_3  and  C_14 
REMARK    3  A    between atoms: C_18  and  N_6 
REMARK    4  A    between atoms: O_15  and  C_10 
REMARK    5  A    between atoms: S_13  and  C_19 
REMARK    6  A    between atoms: C_14  and  S_13 
REMARK    7  A    between atoms: C_19  and  C_18 
ROOT
ATOM      1  C   UNL d   1       1.811  -1.173  -0.064  0.00  0.00     0.251 C 
ATOM      2  O   UNL d   1       2.050  -2.039   0.771  0.00  0.00    -0.268 OA
ATOM      3  N   UNL d   1       2.284   0.119   0.038  0.00  0.00    -0.356 N 
ATOM      4  H   UNL d   1       2.300   0.695  -0.794  0.00  0.00     0.162 HD
ENDROOT
BRANCH   3   5
ATOM      5  C   UNL d   1       3.113   0.527   1.158  0.00  0.00     0.133 C 
BRANCH   5   6
ATOM      6  C   UNL d   1       4.614   0.423   0.874  0.00  0.00     0.093 C 
BRANCH   6   7
ATOM      7  S   UNL d   1       5.160   1.352  -0.610  0.00  0.00    -0.163 SA
BRANCH   7   8
ATOM      8  C   UNL d   1       4.661   3.030  -0.122  0.00  0.00     0.114 C 
BRANCH   8   9
ATOM      9  C   UNL d   1       4.888   4.032  -1.225  0.00  0.00    -0.027 A 
ATOM     10  C   UNL d   1       3.944   4.267  -2.239  0.00  0.00     0.041 A 
ATOM     11 CL   UNL d   1       2.458   3.383  -2.331  0.00  0.00    -0.084 Cl
ATOM     12  C   UNL d   1       4.177   5.244  -3.212  0.00  0.00     0.024 A 
ATOM     13  C   UNL d   1       5.357   5.986  -3.193  0.00  0.00     0.002 A 
ATOM     14  C   UNL d   1       6.315   5.742  -2.212  0.00  0.00     0.001 A 
ATOM     15  C   UNL d   1       6.086   4.769  -1.238  0.00  0.00     0.009 A 
ENDBRANCH   8   9
ENDBRANCH   7   8
ENDBRANCH   6   7
ENDBRANCH   5   6
ENDBRANCH   3   5
BRANCH   1  16
ATOM     16  C   UNL d   1       0.980  -1.490  -1.251  0.00  0.00     0.032 A 
ATOM     17  C   UNL d   1       0.161  -0.532  -1.862  0.00  0.00     0.020 A 
ATOM     18  C   UNL d   1      -0.661  -0.894  -2.939  0.00  0.00     0.038 A 
ATOM     19  C   UNL d   1      -0.666  -2.209  -3.405  0.00  0.00     0.068 A 
ATOM     20  C   UNL d   1       0.169  -3.157  -2.809  0.00  0.00     0.038 A 
ATOM     21  C   UNL d   1       0.977  -2.804  -1.725  0.00  0.00     0.020 A 
BRANCH  19  22
ATOM     22  O   UNL d   1      -1.410  -2.670  -4.457  0.00  0.00    -0.356 OA
ATOM     23  C   UNL d   1      -2.673  -2.038  -4.639  0.00  0.00     0.210 C 
ENDBRANCH  19  22
ENDBRANCH   1  16
TORSDOF 7
