REMARK  6 active torsions:
REMARK  status: ('A' for Active; 'I' for Inactive)
REMARK    1  A    between atoms: C_2  and  C_1 
REMARK    2  A    between atoms: O_7  and  C_2 
REMARK    3  A    between atoms: C_6  and  C_3 
REMARK    4  A    between atoms: C_12  and  O_7 
REMARK    5  A    between atoms: O_15  and  C_10 
REMARK    6  A    between atoms: O_16  and  C_11 
ROOT
ATOM      1  C   UNL d   1       0.993  -0.034   0.109  0.00  0.00     0.120 C 
ATOM      2  C   UNL d   1       0.168  -0.647  -0.761  0.00  0.00     0.040 C 
ATOM      3  C   UNL d   1       0.533   0.750   1.204  0.00  0.00     0.105 C 
ATOM      4  N   UNL d   1       0.156   1.399   2.088  0.00  0.00    -0.191 NA
ENDROOT
BRANCH   1   5
ATOM      5  C   UNL d   1       2.455  -0.176  -0.155  0.00  0.00     0.304 C 
ATOM      6  O   UNL d   1       2.900  -0.692  -1.172  0.00  0.00    -0.258 OA
BRANCH   5   7
ATOM      7  O   UNL d   1       3.206   0.354   0.843  0.00  0.00    -0.307 OA
BRANCH   7   8
ATOM      8  C   UNL d   1       4.659   0.398   0.732  0.00  0.00     0.060 C 
ATOM      9  C   UNL d   1       5.100   1.251  -0.466  0.00  0.00     0.046 C 
ATOM     10  C   UNL d   1       5.146   1.077   2.023  0.00  0.00     0.046 C 
ATOM     11  C   UNL d   1       5.269  -1.009   0.669  0.00  0.00     0.046 C 
ENDBRANCH   7   8
ENDBRANCH   5   7
ENDBRANCH   1   5
BRANCH   2  12
ATOM     12  C   UNL d   1      -1.300  -0.604  -0.810  0.00  0.00    -0.029 A 
ATOM     13  C   UNL d   1      -1.940   0.435  -1.500  0.00  0.00     0.048 A 
ATOM     14  C   UNL d   1      -3.323   0.404  -1.695  0.00  0.00     0.071 A 
ATOM     15  C   UNL d   1      -4.072  -0.664  -1.188  0.00  0.00     0.073 A 
ATOM     16  C   UNL d   1      -3.447  -1.703  -0.496  0.00  0.00     0.071 A 
ATOM     17  C   UNL d   1      -2.062  -1.661  -0.298  0.00  0.00     0.048 A 
BRANCH  14  18
ATOM     18  O   UNL d   1      -4.059   1.330  -2.385  0.00  0.00    -0.356 OA
ATOM     19  C   UNL d   1      -3.346   2.401  -2.990  0.00  0.00     0.210 C 
ENDBRANCH  14  18
BRANCH  16  20
ATOM     20  O   UNL d   1      -4.070  -2.815   0.004  0.00  0.00    -0.356 OA
ATOM     21  C   UNL d   1      -5.447  -2.984  -0.318  0.00  0.00     0.210 C 
ENDBRANCH  16  20
ENDBRANCH   2  12
TORSDOF 6
