REMARK  4 active torsions:
REMARK  status: ('A' for Active; 'I' for Inactive)
REMARK    1  A    between atoms: C_8  and  C_4 
REMARK    2  A    between atoms: O_16  and  C_10 
REMARK    3  A    between atoms: O_17  and  C_11 
REMARK    4  A    between atoms: O_18  and  C_13 
ROOT
ATOM      1  C   UNL d   1      -3.097   1.307  -1.229  0.00  0.00     0.001 A 
ATOM      2  C   UNL d   1      -3.222   3.279  -2.646  0.00  0.00     0.077 A 
ATOM      3  C   UNL d   1      -2.531   2.142  -2.201  0.00  0.00     0.081 A 
ATOM      4  C   UNL d   1      -4.503   3.584  -2.167  0.00  0.00     0.104 A 
ATOM      5  C   UNL d   1      -4.382   1.605  -0.759  0.00  0.00     0.054 A 
ATOM      6  C   UNL d   1      -5.096   2.716  -1.236  0.00  0.00     0.102 A 
ENDROOT
BRANCH   1   7
ATOM      7  C   UNL d   1      -2.405   0.141  -0.662  0.00  0.00     0.038 C 
ATOM      8  C   UNL d   1      -1.498   0.151   0.336  0.00  0.00     0.115 C 
ATOM      9  C   UNL d   1      -1.120   1.357   1.075  0.00  0.00     0.302 C 
ATOM     10  C   UNL d   1      -0.845  -1.126   0.667  0.00  0.00     0.302 C 
ATOM     11  O   UNL d   1       0.144   1.364   1.542  0.00  0.00    -0.280 OA
ATOM     12  O   UNL d   1      -1.883   2.288   1.299  0.00  0.00    -0.259 OA
ATOM     13  C   UNL d   1       0.994   0.242   1.303  0.00  0.00     0.175 C 
ATOM     14  O   UNL d   1       0.311  -1.011   1.353  0.00  0.00    -0.280 OA
ATOM     15  C   UNL d   1       1.736   0.392  -0.031  0.00  0.00     0.080 C 
ATOM     16  C   UNL d   1       2.014   0.248   2.444  0.00  0.00     0.080 C 
ATOM     17  O   UNL d   1      -1.298  -2.216   0.348  0.00  0.00    -0.259 OA
ENDBRANCH   1   7
BRANCH   3  18
ATOM     18  O   UNL d   1      -1.263   1.993  -2.709  0.00  0.00    -0.355 OA
ATOM     19  C   UNL d   1      -1.037   0.740  -3.351  0.00  0.00     0.210 C 
ENDBRANCH   3  18
BRANCH   6  20
ATOM     20  O   UNL d   1      -6.335   2.854  -0.658  0.00  0.00    -0.353 OA
ATOM     21  C   UNL d   1      -7.358   3.404  -1.481  0.00  0.00     0.210 C 
ENDBRANCH   6  20
BRANCH   4  22
ATOM     22  O   UNL d   1      -5.204   4.704  -2.529  0.00  0.00    -0.353 OA
ATOM     23  C   UNL d   1      -4.584   5.631  -3.409  0.00  0.00     0.210 C 
ENDBRANCH   4  22
TORSDOF 4
