REMARK  10 active torsions:
REMARK  status: ('A' for Active; 'I' for Inactive)
REMARK    1  A    between atoms: C_13  and  N_1 
REMARK    2  A    between atoms: N_2  and  C_12 
REMARK    3  A    between atoms: C_3  and  C_18 
REMARK    4  A    between atoms: O_9  and  C_3 
REMARK    5  A    between atoms: C_4  and  O_8 
REMARK    6  A    between atoms: C_19  and  C_4 
REMARK    7  A    between atoms: S_7  and  C_5 
REMARK    8  A    between atoms: C_6  and  S_7 
REMARK    9  A    between atoms: O_8  and  C_11 
REMARK   10  A    between atoms: C_10  and  O_9 
ROOT
ATOM      1  S   UNL d   1      -3.803  -3.473  -2.725  0.00  0.00    -0.085 SA
ENDROOT
BRANCH   1   2
ATOM      2  C   UNL d   1      -3.871  -5.073  -3.527  0.00  0.00     0.041 A 
ATOM      3  C   UNL d   1      -4.954  -5.966  -3.378  0.00  0.00     0.096 A 
ATOM      4  C   UNL d   1      -4.977  -7.174  -4.082  0.00  0.00     0.040 A 
ATOM      5  C   UNL d   1      -3.894  -7.531  -4.887  0.00  0.00     0.026 A 
ATOM      6  C   UNL d   1      -2.791  -6.689  -4.979  0.00  0.00     0.035 A 
ATOM      7  C   UNL d   1      -2.775  -5.466  -4.311  0.00  0.00     0.045 A 
ATOM      8 CL   UNL d   1      -1.434  -7.163  -5.925  0.00  0.00    -0.084 Cl
BRANCH   3   9
ATOM      9  O   UNL d   1      -5.990  -5.604  -2.465  0.00  0.00    -0.274 OA
BRANCH   9  10
ATOM     10  C   UNL d   1      -7.042  -6.421  -2.053  0.00  0.00     0.298 C 
ATOM     11  O   UNL d   1      -7.333  -7.535  -2.461  0.00  0.00    -0.259 OA
BRANCH  10  12
ATOM     12  C   UNL d   1      -7.857  -5.708  -1.041  0.00  0.00     0.040 A 
ATOM     13  C   UNL d   1      -7.276  -4.845  -0.103  0.00  0.00     0.020 A 
ATOM     14  C   UNL d   1      -8.083  -4.173   0.823  0.00  0.00     0.037 A 
ATOM     15  C   UNL d   1      -9.472  -4.366   0.803  0.00  0.00     0.102 A 
ATOM     16  C   UNL d   1     -10.054  -5.261  -0.104  0.00  0.00     0.037 A 
ATOM     17  C   UNL d   1      -9.241  -5.938  -1.018  0.00  0.00     0.020 A 
BRANCH  15  18
ATOM     18  N   UNL d   1     -10.327  -3.607   1.727  0.00  0.00    -0.116 N 
ATOM     19  O   UNL d   1      -9.768  -2.905   2.581  0.00  0.00    -0.532 OA
ATOM     20  O   UNL d   1     -11.554  -3.703   1.585  0.00  0.00    -0.532 OA
ENDBRANCH  15  18
ENDBRANCH  10  12
ENDBRANCH   9  10
ENDBRANCH   3   9
ENDBRANCH   1   2
BRANCH   1  21
ATOM     21  C   UNL d   1      -3.950  -2.256  -4.051  0.00  0.00     0.041 A 
ATOM     22  C   UNL d   1      -3.665  -0.893  -3.797  0.00  0.00     0.096 A 
ATOM     23  C   UNL d   1      -3.949   0.095  -4.749  0.00  0.00     0.040 A 
ATOM     24  C   UNL d   1      -4.437  -0.265  -6.002  0.00  0.00     0.026 A 
ATOM     25  C   UNL d   1      -4.650  -1.607  -6.293  0.00  0.00     0.035 A 
ATOM     26 CL   UNL d   1      -5.231  -2.051  -7.852  0.00  0.00    -0.084 Cl
ATOM     27  C   UNL d   1      -4.424  -2.595  -5.329  0.00  0.00     0.045 A 
BRANCH  22  28
ATOM     28  O   UNL d   1      -3.119  -0.545  -2.530  0.00  0.00    -0.274 OA
BRANCH  28  29
ATOM     29  C   UNL d   1      -2.241   0.523  -2.379  0.00  0.00     0.298 C 
ATOM     30  O   UNL d   1      -1.896   1.329  -3.227  0.00  0.00    -0.259 OA
BRANCH  29  31
ATOM     31  C   UNL d   1      -1.722   0.573  -0.985  0.00  0.00     0.040 A 
ATOM     32  C   UNL d   1      -1.119   1.764  -0.546  0.00  0.00     0.020 A 
ATOM     33  C   UNL d   1      -0.527   1.837   0.720  0.00  0.00     0.037 A 
ATOM     34  C   UNL d   1      -0.534   0.708   1.548  0.00  0.00     0.102 A 
ATOM     35  C   UNL d   1      -1.153  -0.479   1.129  0.00  0.00     0.037 A 
ATOM     36  C   UNL d   1      -1.747  -0.543  -0.137  0.00  0.00     0.020 A 
BRANCH  34  37
ATOM     37  N   UNL d   1       0.140   0.757   2.852  0.00  0.00    -0.116 N 
ATOM     38  O   UNL d   1       0.160  -0.282   3.528  0.00  0.00    -0.532 OA
ATOM     39  O   UNL d   1       0.655   1.830   3.195  0.00  0.00    -0.532 OA
ENDBRANCH  34  37
ENDBRANCH  29  31
ENDBRANCH  28  29
ENDBRANCH  22  28
ENDBRANCH   1  21
TORSDOF 10
