REMARK  4 active torsions:
REMARK  status: ('A' for Active; 'I' for Inactive)
REMARK    1  A    between atoms: C_3  and  S_1 
REMARK    2  A    between atoms: C_11  and  S_1 
REMARK    3  A    between atoms: S_2  and  C_4 
REMARK    4  A    between atoms: C_12  and  S_2 
ROOT
ATOM      1  C   UNL d   1       0.052  -1.670  -0.658  0.00  0.00     0.040 C 
ATOM      2  C   UNL d   1      -0.989  -5.511  -1.190  0.00  0.00     0.040 C 
ATOM      3  C   UNL d   1      -1.506  -3.402  -0.267  0.00  0.00    -0.006 C 
ATOM      4  C   UNL d   1      -1.294  -3.219  -1.812  0.00  0.00    -0.006 C 
ATOM      5  C   UNL d   1      -1.313  -4.872  -0.056  0.00  0.00     0.004 C 
ATOM      6  C   UNL d   1      -0.313  -2.079  -1.882  0.00  0.00     0.004 C 
ATOM      7  C   UNL d   1      -0.480  -2.513   0.450  0.00  0.00     0.065 C 
ATOM      8  C   UNL d   1      -0.808  -4.593  -2.351  0.00  0.00     0.065 C 
ATOM      9  C   UNL d   1      -2.966  -2.988  -0.011  0.00  0.00     0.015 C 
ATOM     10  C   UNL d   1      -2.674  -2.804  -2.368  0.00  0.00     0.015 C 
ATOM     11  C   UNL d   1      -3.679  -3.275  -1.326  0.00  0.00     0.002 C 
ENDROOT
BRANCH   1  12
ATOM     12  S   UNL d   1       1.063  -0.309  -0.355  0.00  0.00     0.202 S 
ATOM     13  O   UNL d   1       2.187  -0.339  -1.273  0.00  0.00    -0.217 OA
ATOM     14  O   UNL d   1       1.290  -0.186   1.071  0.00  0.00    -0.217 OA
BRANCH  12  15
ATOM     15  C   UNL d   1       0.045   1.087  -0.822  0.00  0.00     0.064 A 
ATOM     16  C   UNL d   1      -0.899   1.592   0.080  0.00  0.00     0.025 A 
ATOM     17  C   UNL d   1      -1.634   2.735  -0.253  0.00  0.00     0.025 A 
ATOM     18  C   UNL d   1      -1.413   3.372  -1.474  0.00  0.00     0.034 A 
ATOM     19  C   UNL d   1      -0.467   2.875  -2.371  0.00  0.00     0.025 A 
ATOM     20 CL   UNL d   1      -2.299   4.793  -1.870  0.00  0.00    -0.084 Cl
ATOM     21  C   UNL d   1       0.270   1.732  -2.045  0.00  0.00     0.025 A 
ENDBRANCH  12  15
ENDBRANCH   1  12
BRANCH   2  22
ATOM     22  S   UNL d   1      -1.204  -7.221  -1.272  0.00  0.00     0.202 S 
ATOM     23  O   UNL d   1      -0.639  -7.832  -0.083  0.00  0.00    -0.217 OA
ATOM     24  O   UNL d   1      -2.593  -7.467  -1.623  0.00  0.00    -0.217 OA
BRANCH  22  25
ATOM     25  C   UNL d   1      -0.222  -7.818  -2.632  0.00  0.00     0.064 A 
ATOM     26  C   UNL d   1       1.170  -7.858  -2.506  0.00  0.00     0.025 A 
ATOM     27  C   UNL d   1       1.932  -8.487  -3.496  0.00  0.00     0.025 A 
ATOM     28  C   UNL d   1       1.301  -9.081  -4.591  0.00  0.00     0.034 A 
ATOM     29  C   UNL d   1      -0.088  -9.043  -4.714  0.00  0.00     0.025 A 
ATOM     30 CL   UNL d   1       2.240  -9.893  -5.782  0.00  0.00    -0.084 Cl
ATOM     31  C   UNL d   1      -0.855  -8.412  -3.732  0.00  0.00     0.025 A 
ENDBRANCH  22  25
ENDBRANCH   2  22
TORSDOF 4
