REMARK  6 active torsions:
REMARK  status: ('A' for Active; 'I' for Inactive)
REMARK    1  A    between atoms: C_12  and  C_1 
REMARK    2  A    between atoms: C_4  and  S_18 
REMARK    3  A    between atoms: N_8  and  C_5 
REMARK    4  A    between atoms: N_7  and  C_6 
REMARK    5  A    between atoms: S_18  and  C_9 
REMARK    6  A    between atoms: C_13  and  C_14 
ROOT
ATOM      1  C   UNL d   1       3.304  -1.887   0.015  0.00  0.00     0.074 A 
ATOM      2  C   UNL d   1       3.860  -1.163   1.088  0.00  0.00     0.123 A 
ATOM      3  C   UNL d   1       4.208  -2.239  -1.006  0.00  0.00     0.123 A 
ATOM      4  C   UNL d   1       6.111  -1.235   0.148  0.00  0.00     0.052 A 
ATOM      5  C   UNL d   1       5.233  -0.843   1.165  0.00  0.00     0.053 A 
ATOM      6  C   UNL d   1       5.584  -1.927  -0.950  0.00  0.00     0.053 A 
ENDROOT
BRANCH   1   7
ATOM      7  S   UNL d   1       1.598  -2.447   0.022  0.00  0.00    -0.048 SA
BRANCH   7   8
ATOM      8  C   UNL d   1       0.831  -1.101  -0.724  0.00  0.00     0.165 A 
ATOM      9  N   UNL d   1       1.356   0.008  -1.176  0.00  0.00    -0.317 N 
ATOM     10  C   UNL d   1       0.239   0.744  -1.577  0.00  0.00     0.207 A 
ATOM     11  HN  UNL d   1       2.340   0.271  -1.225  1.00  0.00     0.169 HD
ATOM     12  N   UNL d   1      -0.928   0.076  -1.421  0.00  0.00    -0.280 N 
ATOM     13  N   UNL d   1      -0.518  -1.079  -0.874  0.00  0.00    -0.278 N 
ATOM     14  HN  UNL d   1      -1.875   0.374  -1.658  1.00  0.00     0.188 HD
ATOM     15  H   UNL d   1      -1.197  -1.787  -0.618  0.00  0.00     0.189 HD
BRANCH  10  16
ATOM     16  C   UNL d   1       0.320   2.159  -2.111  0.00  0.00     0.450 C 
ATOM     17  F   UNL d   1       1.600   2.623  -2.172  0.00  0.00    -0.163 F 
ATOM     18  F   UNL d   1      -0.187   2.268  -3.370  0.00  0.00    -0.163 F 
ATOM     19  F   UNL d   1      -0.369   3.043  -1.337  0.00  0.00    -0.163 F 
ENDBRANCH  10  16
ENDBRANCH   7   8
ENDBRANCH   1   7
BRANCH   2  20
ATOM     20  N   UNL d   1       3.043  -0.739   2.213  0.00  0.00    -0.114 N 
ATOM     21  O   UNL d   1       2.132   0.066   1.991  0.00  0.00    -0.532 OA
ATOM     22  O   UNL d   1       3.358  -1.186   3.324  0.00  0.00    -0.532 OA
ENDBRANCH   2  20
BRANCH   3  23
ATOM     23  N   UNL d   1       3.773  -2.974  -2.183  0.00  0.00    -0.114 N 
ATOM     24  O   UNL d   1       3.303  -4.105  -2.007  0.00  0.00    -0.532 OA
ATOM     25  O   UNL d   1       3.970  -2.435  -3.279  0.00  0.00    -0.532 OA
ENDBRANCH   3  23
BRANCH   4  26
ATOM     26  C   UNL d   1       7.596  -0.953   0.229  0.00  0.00     0.417 C 
ATOM     27  F   UNL d   1       7.948  -0.238   1.330  0.00  0.00    -0.166 F 
ATOM     28  F   UNL d   1       8.328  -2.099   0.271  0.00  0.00    -0.166 F 
ATOM     29  F   UNL d   1       8.047  -0.252  -0.843  0.00  0.00    -0.166 F 
ENDBRANCH   4  26
TORSDOF 6
