REMARK  4 active torsions:
REMARK  status: ('A' for Active; 'I' for Inactive)
REMARK    1  A    between atoms: C_2  and  C_1 
REMARK       I    between atoms: N_5  and  C_2 
REMARK    2  A    between atoms: C_15  and  N_5 
REMARK    3  A    between atoms: C_8  and  C_17 
REMARK    4  A    between atoms: C_17  and  C_15 
ROOT
ATOM      1  C   UNL d   1       0.695   2.477   0.049  0.00  0.00     0.252 C 
ATOM      2  O   UNL d   1       1.367   3.503   0.011  0.00  0.00    -0.268 OA
ATOM      3  N   UNL d   1      -0.678   2.499   0.135  0.00  0.00    -0.357 N 
ATOM      4  H   UNL d   1      -1.186   1.623   0.135  0.00  0.00     0.162 HD
ENDROOT
BRANCH   3   5
ATOM      5  C   UNL d   1      -1.415   3.751   0.113  0.00  0.00     0.127 C 
BRANCH   5   6
ATOM      6  C   UNL d   1      -2.926   3.523   0.137  0.00  0.00     0.058 C 
BRANCH   6   7
ATOM      7  C   UNL d   1      -3.717   4.808   0.120  0.00  0.00    -0.057 A 
ATOM      8  C   UNL d   1      -4.093   5.396  -1.096  0.00  0.00     0.009 A 
ATOM      9  C   UNL d   1      -4.842   6.574  -1.112  0.00  0.00     0.024 A 
ATOM     10  C   UNL d   1      -5.213   7.176   0.089  0.00  0.00     0.034 A 
ATOM     11  C   UNL d   1      -4.834   6.611   1.305  0.00  0.00     0.024 A 
ATOM     12 CL   UNL d   1      -6.149   8.619   0.070  0.00  0.00    -0.084 Cl
ATOM     13  C   UNL d   1      -4.085   5.432   1.321  0.00  0.00     0.009 A 
ENDBRANCH   6   7
ENDBRANCH   5   6
ENDBRANCH   3   5
BRANCH   1  14
ATOM     14  C   UNL d   1       1.376   1.146   0.071  0.00  0.00     0.048 A 
ATOM     15  C   UNL d   1       0.899  -0.055  -0.480  0.00  0.00     0.022 A 
ATOM     16  I   UNL d   1      -0.887  -0.265  -1.571  0.00  0.00    -0.043 I 
ATOM     17  C   UNL d   1       1.669  -1.228  -0.373  0.00  0.00     0.019 A 
ATOM     18  C   UNL d   1       2.910  -1.213   0.264  0.00  0.00     0.001 A 
ATOM     19  C   UNL d   1       3.397  -0.028   0.797  0.00  0.00     0.001 A 
ATOM     20  C   UNL d   1       2.638   1.139   0.701  0.00  0.00     0.018 A 
ENDBRANCH   1  14
TORSDOF 4
