REMARK  6 active torsions:
REMARK  status: ('A' for Active; 'I' for Inactive)
REMARK    1  A    between atoms: C_9  and  N_3 
REMARK    2  A    between atoms: S_8  and  N_10 
REMARK    3  A    between atoms: C_15  and  S_8 
REMARK    4  A    between atoms: C_11  and  C_9 
REMARK    5  A    between atoms: N_10  and  N_14 
REMARK       I    between atoms: N_14  and  C_11 
REMARK    6  A    between atoms: C_12  and  C_16 
ROOT
ATOM      1  C   UNL d   1       2.821  -0.931   1.390  0.00  0.00     0.262 C 
ATOM      2  N   UNL d   1       2.263  -1.260   2.607  0.00  0.00    -0.259 N 
ATOM      3  O   UNL d   1       3.971  -0.486   1.319  0.00  0.00    -0.269 OA
ATOM      4  H   UNL d   1       1.299  -1.582   2.723  0.00  0.00     0.190 HD
ENDROOT
BRANCH   1   5
ATOM      5  C   UNL d   1       2.016  -1.225   0.132  0.00  0.00     0.215 C 
ATOM      6  C   UNL d   1       1.847  -2.708  -0.190  0.00  0.00     0.046 C 
BRANCH   5   7
ATOM      7  N   UNL d   1       0.740  -0.535   0.139  0.00  0.00    -0.189 N 
ATOM      8  N   UNL d   1      -0.206  -0.770   1.073  0.00  0.00    -0.115 N 
ATOM      9  C   UNL d   1      -1.246  -0.120   0.528  0.00  0.00     0.709 A 
ATOM     10  HN  UNL d   1      -0.147  -1.293   1.947  1.00  0.00     0.207 HD
ATOM     11  N   UNL d   1      -0.930   0.442  -0.686  0.00  0.00    -0.113 N 
ATOM     12  N   UNL d   1      -2.480   0.020   1.047  0.00  0.00    -0.211 N 
ATOM     13  N   UNL d   1       0.337   0.158  -0.935  0.00  0.00     0.012 NA
ATOM     14  HN  UNL d   1      -1.557   0.979  -1.285  1.00  0.00     0.203 HD
ATOM     15  C   UNL d   1      -3.562   0.696   0.329  0.00  0.00     0.167 C 
ATOM     16  C   UNL d   1      -2.890  -0.625   2.292  0.00  0.00     0.167 C 
ATOM     17  C   UNL d   1      -4.273   1.669   1.283  0.00  0.00     0.188 C 
ATOM     18  O   UNL d   1      -4.728   1.001   2.473  0.00  0.00    -0.388 OA
ATOM     19  C   UNL d   1      -3.620   0.402   3.172  0.00  0.00     0.188 C 
ENDBRANCH   5   7
ENDBRANCH   1   5
BRANCH   2  20
ATOM     20  N   UNL d   1       3.039  -0.982   3.814  0.00  0.00    -0.220 N 
ATOM     21  H   UNL d   1       3.947  -0.508   3.735  0.00  0.00     0.200 HD
BRANCH  20  22
ATOM     22  S   UNL d   1       2.733  -1.812   5.253  0.00  0.00     0.276 S 
ATOM     23  O   UNL d   1       3.693  -1.374   6.247  0.00  0.00    -0.199 OA
ATOM     24  O   UNL d   1       1.308  -1.776   5.473  0.00  0.00    -0.199 OA
BRANCH  22  25
ATOM     25  C   UNL d   1       3.170  -3.477   4.790  0.00  0.00     0.081 A 
ATOM     26  C   UNL d   1       2.213  -4.490   4.896  0.00  0.00     0.041 A 
ATOM     27  C   UNL d   1       2.493  -5.776   4.410  0.00  0.00     0.049 A 
ATOM     28  C   UNL d   1       3.750  -6.025   3.833  0.00  0.00     0.016 A 
ATOM     29  C   UNL d   1       4.715  -5.016   3.761  0.00  0.00     0.002 A 
ATOM     30  C   UNL d   1       4.431  -3.739   4.245  0.00  0.00     0.025 A 
BRANCH  27  31
ATOM     31  C   UNL d   1       1.450  -6.867   4.470  0.00  0.00     0.417 C 
ATOM     32  F   UNL d   1       0.278  -6.462   5.034  0.00  0.00    -0.166 F 
ATOM     33  F   UNL d   1       1.124  -7.334   3.233  0.00  0.00    -0.166 F 
ATOM     34  F   UNL d   1       1.859  -7.948   5.187  0.00  0.00    -0.166 F 
ENDBRANCH  27  31
ENDBRANCH  22  25
ENDBRANCH  20  22
ENDBRANCH   2  20
TORSDOF 6
