REMARK  7 active torsions:
REMARK  status: ('A' for Active; 'I' for Inactive)
REMARK    1  A    between atoms: C_2  and  C_1 
REMARK    2  A    between atoms: N_3  and  C_1 
REMARK    3  A    between atoms: C_4  and  C_1 
REMARK    4  A    between atoms: N_5  and  C_1 
REMARK       I    between atoms: C_6  and  N_3 
REMARK    5  A    between atoms: O_13  and  C_4 
REMARK    6  A    between atoms: C_12  and  N_5 
REMARK    7  A    between atoms: C_21  and  O_13 
ROOT
ATOM      1  C   UNL d   1       0.971  -0.009  -0.004  0.00  0.00     0.280 C 
ENDROOT
BRANCH   1   2
ATOM      2  C   UNL d   1       0.275   0.813  -1.148  0.00  0.00     0.436 C 
ATOM      3  F   UNL d   1      -0.060   0.043  -2.212  0.00  0.00    -0.166 F 
ATOM      4  F   UNL d   1      -0.851   1.455  -0.751  0.00  0.00    -0.166 F 
ATOM      5  F   UNL d   1       1.105   1.782  -1.627  0.00  0.00    -0.166 F 
ENDBRANCH   1   2
BRANCH   1   6
ATOM      6  N   UNL d   1       0.615  -1.415   0.146  0.00  0.00    -0.323 N 
ATOM      7  C   UNL d   1      -0.690  -1.820   0.181  0.00  0.00     0.215 C 
ATOM      8  O   UNL d   1      -1.620  -1.054  -0.047  0.00  0.00    -0.274 OA
ATOM      9  C   UNL d   1      -0.898  -3.268   0.525  0.00  0.00     0.117 C 
ATOM     10  H   UNL d   1       1.355  -2.009   0.489  0.00  0.00     0.165 HD
ENDBRANCH   1   6
BRANCH   1  11
ATOM     11  C   UNL d   1       0.591   0.761   1.301  0.00  0.00     0.312 C 
ATOM     12  O   UNL d   1       0.048   0.278   2.289  0.00  0.00    -0.260 OA
BRANCH  11  13
ATOM     13  O   UNL d   1       1.066   2.047   1.246  0.00  0.00    -0.319 OA
BRANCH  13  14
ATOM     14  C   UNL d   1       0.690   2.899   2.340  0.00  0.00     0.174 C 
ATOM     15  C   UNL d   1       1.669   2.754   3.489  0.00  0.00     0.034 C 
ENDBRANCH  13  14
ENDBRANCH  11  13
ENDBRANCH   1  11
BRANCH   1  16
ATOM     16  N   UNL d   1       2.472  -0.078  -0.034  0.00  0.00    -0.250 NA
ATOM     17  H   UNL d   1       2.860   0.741   0.442  0.00  0.00     0.131 HD
BRANCH  16  18
ATOM     18  C   UNL d   1       3.240  -0.376  -1.157  0.00  0.00     0.011 A 
ATOM     19  C   UNL d   1       2.767  -1.021  -2.303  0.00  0.00     0.026 A 
ATOM     20  C   UNL d   1       3.621  -1.302  -3.378  0.00  0.00     0.044 A 
ATOM     21  C   UNL d   1       4.970  -0.996  -3.288  0.00  0.00     0.116 A 
ATOM     22  C   UNL d   1       5.486  -0.425  -2.137  0.00  0.00     0.044 A 
ATOM     23  F   UNL d   1       5.785  -1.272  -4.314  0.00  0.00    -0.206 F 
ATOM     24  C   UNL d   1       4.624  -0.127  -1.078  0.00  0.00     0.026 A 
ENDBRANCH  16  18
ENDBRANCH   1  16
TORSDOF 7
