REMARK  4 active torsions:
REMARK  status: ('A' for Active; 'I' for Inactive)
REMARK       I    between atoms: N_3  and  C_1 
REMARK       I    between atoms: N_10  and  C_1 
REMARK    1  A    between atoms: C_2  and  N_11 
REMARK    2  A    between atoms: C_8  and  N_3 
REMARK    3  A    between atoms: C_7  and  C_4 
REMARK    4  A    between atoms: O_25  and  C_16 
ROOT
ATOM      1  C   UNL d   1       0.939   0.078  -0.045  0.00  0.00     0.323 C 
ATOM      2  N   UNL d   1       0.431  -1.190  -0.269  0.00  0.00    -0.305 N 
ATOM      3  N   UNL d   1       0.268   0.824   0.908  0.00  0.00    -0.331 N 
ATOM      4  N   UNL d   1      -0.383   2.171   3.364  0.00  0.00    -0.377 N 
ATOM      5  O   UNL d   1       1.896   0.532  -0.657  0.00  0.00    -0.247 OA
ATOM      6  C   UNL d   1       0.673   2.223   1.123  0.00  0.00     0.147 C 
ATOM      7  C   UNL d   1      -0.891   0.400   1.694  0.00  0.00     0.147 C 
ATOM      8  C   UNL d   1       0.830   2.568   2.618  0.00  0.00     0.143 C 
ATOM      9  C   UNL d   1      -0.744   0.753   3.181  0.00  0.00     0.143 C 
ATOM     10  H   UNL d   1      -0.568  -1.242  -0.238  0.00  0.00     0.171 HD
ENDROOT
BRANCH   4  11
ATOM     11  C   UNL d   1      -1.032   3.024   4.252  0.00  0.00     0.045 A 
ATOM     12  C   UNL d   1      -1.152   4.386   3.919  0.00  0.00     0.064 A 
ATOM     13  C   UNL d   1      -1.888   5.260   4.719  0.00  0.00     0.119 A 
ATOM     14  N   UNL d   1      -2.534   4.834   5.829  0.00  0.00    -0.352 N 
ATOM     15  C   UNL d   1      -2.424   3.551   6.187  0.00  0.00     0.045 A 
ATOM     16  HN  UNL d   1      -3.095   5.481   6.384  1.00  0.00     0.166 HD
ATOM     17  C   UNL d   1      -1.659   2.601   5.468  0.00  0.00     0.017 A 
ATOM     18  C   UNL d   1      -3.111   3.164   7.329  0.00  0.00     0.030 A 
ATOM     19  C   UNL d   1      -1.558   1.305   6.042  0.00  0.00     0.016 A 
ATOM     20  C   UNL d   1      -2.284   0.923   7.168  0.00  0.00     0.001 A 
ATOM     21  C   UNL d   1      -3.071   1.856   7.812  0.00  0.00     0.002 A 
BRANCH  13  22
ATOM     22  C   UNL d   1      -1.990   6.727   4.324  0.00  0.00     0.432 C 
ATOM     23  F   UNL d   1      -2.761   7.484   5.156  0.00  0.00    -0.165 F 
ATOM     24  F   UNL d   1      -0.772   7.345   4.287  0.00  0.00    -0.165 F 
ATOM     25  F   UNL d   1      -2.519   6.897   3.075  0.00  0.00    -0.165 F 
ENDBRANCH  13  22
ENDBRANCH   4  11
BRANCH   2  26
ATOM     26  C   UNL d   1       1.060  -2.059  -1.202  0.00  0.00     0.091 A 
ATOM     27  C   UNL d   1       2.411  -2.445  -1.023  0.00  0.00     0.063 A 
ATOM     28 CL   UNL d   1       3.323  -2.030   0.398  0.00  0.00    -0.082 Cl
ATOM     29  C   UNL d   1       3.035  -3.320  -1.917  0.00  0.00     0.026 A 
ATOM     30  C   UNL d   1       2.325  -3.840  -2.992  0.00  0.00     0.005 A 
ATOM     31  C   UNL d   1       0.982  -3.503  -3.155  0.00  0.00     0.039 A 
ATOM     32  C   UNL d   1       0.335  -2.624  -2.270  0.00  0.00     0.096 A 
BRANCH  32  33
ATOM     33  O   UNL d   1      -1.006  -2.501  -2.529  0.00  0.00    -0.354 OA
ATOM     34  C   UNL d   1      -1.603  -1.213  -2.466  0.00  0.00     0.210 C 
ENDBRANCH  32  33
ENDBRANCH   2  26
TORSDOF 4
