REMARK  4 active torsions:
REMARK  status: ('A' for Active; 'I' for Inactive)
REMARK    1  A    between atoms: C_9  and  C_3 
REMARK    2  A    between atoms: C_12  and  N_6 
REMARK    3  A    between atoms: C_8  and  C_10 
REMARK    4  A    between atoms: C_16  and  C_12 
ROOT
ATOM      1  N   UNL d   1      -0.291  -1.168  -0.192  0.00  0.00    -0.268 N 
ATOM      2  HN  UNL d   1      -0.515  -2.150  -0.350  1.00  0.00     0.190 HD
ATOM      3  C   UNL d   1       0.904  -0.573  -0.009  0.00  0.00     0.144 A 
ATOM      4  N   UNL d   1       0.787   0.782   0.212  0.00  0.00    -0.266 N 
ATOM      5  HN  UNL d   1       1.551   1.437   0.380  1.00  0.00     0.186 HD
ATOM      6  N   UNL d   1      -1.111  -0.095  -0.106  0.00  0.00    -0.212 N 
ATOM      7  N   UNL d   1      -0.503   1.074   0.165  0.00  0.00    -0.002 NA
ENDROOT
BRANCH   3   8
ATOM      8  C   UNL d   1       2.198  -1.248  -0.051  0.00  0.00     0.011 A 
ATOM      9  C   UNL d   1       2.295  -2.622  -0.326  0.00  0.00     0.031 A 
ATOM     10  C   UNL d   1       3.548  -3.256  -0.427  0.00  0.00     0.048 A 
ATOM     11  C   UNL d   1       4.712  -2.498  -0.225  0.00  0.00     0.016 A 
ATOM     12  C   UNL d   1       4.628  -1.139   0.069  0.00  0.00     0.002 A 
ATOM     13  C   UNL d   1       3.380  -0.519   0.152  0.00  0.00     0.015 A 
BRANCH  10  14
ATOM     14  C   UNL d   1       3.658  -4.720  -0.775  0.00  0.00     0.417 C 
ATOM     15  F   UNL d   1       2.455  -5.334  -0.949  0.00  0.00    -0.166 F 
ATOM     16  F   UNL d   1       4.350  -4.925  -1.931  0.00  0.00    -0.166 F 
ATOM     17  F   UNL d   1       4.309  -5.438   0.181  0.00  0.00    -0.166 F 
ENDBRANCH  10  14
ENDBRANCH   3   8
BRANCH   6  18
ATOM     18  C   UNL d   1      -2.557  -0.216  -0.060  0.00  0.00     0.205 C 
BRANCH  18  19
ATOM     19  C   UNL d   1      -3.203  -0.012  -1.411  0.00  0.00    -0.037 A 
ATOM     20  C   UNL d   1      -3.440  -1.107  -2.260  0.00  0.00     0.012 A 
ATOM     21  C   UNL d   1      -4.066  -0.922  -3.495  0.00  0.00     0.043 A 
ATOM     22  C   UNL d   1      -4.450   0.354  -3.888  0.00  0.00     0.116 A 
ATOM     23  C   UNL d   1      -4.216   1.452  -3.069  0.00  0.00     0.043 A 
ATOM     24  F   UNL d   1      -5.056   0.527  -5.069  0.00  0.00    -0.206 F 
ATOM     25  C   UNL d   1      -3.591   1.272  -1.834  0.00  0.00     0.012 A 
ENDBRANCH  18  19
ENDBRANCH   6  18
TORSDOF 4
