REMARK  3 active torsions:
REMARK  status: ('A' for Active; 'I' for Inactive)
REMARK    1  A    between atoms: C_8  and  C_6 
REMARK    2  A    between atoms: C_11  and  C_7 
REMARK    3  A    between atoms: C_13  and  C_9 
ROOT
ATOM      1  C   UNL d   1       0.355  -0.733   0.053  0.00  0.00     0.111 A 
ATOM      2  N   UNL d   1       1.549  -0.058   0.057  0.00  0.00    -0.332 N 
ATOM      3  HN  UNL d   1       2.495  -0.438   0.058  1.00  0.00     0.168 HD
ATOM      4  C   UNL d   1      -0.777   0.236   0.058  0.00  0.00     0.316 A 
ATOM      5  O   UNL d   1      -0.143   1.442   0.062  0.00  0.00    -0.256 OA
ATOM      6  C   UNL d   1       1.180   1.178   0.059  0.00  0.00     0.152 A 
ATOM      7  C   UNL d   1       0.268  -2.069   0.040  0.00  0.00     0.047 C 
ATOM      8  O   UNL d   1      -1.976   0.049   0.055  0.00  0.00    -0.257 OA
ENDROOT
BRANCH   7   9
ATOM      9  C   UNL d   1      -0.968  -2.849   0.019  0.00  0.00    -0.034 A 
ATOM     10  C   UNL d   1      -1.543  -3.220  -1.203  0.00  0.00     0.013 A 
ATOM     11  C   UNL d   1      -2.694  -4.012  -1.225  0.00  0.00     0.024 A 
ATOM     12  C   UNL d   1      -3.268  -4.432  -0.027  0.00  0.00     0.034 A 
ATOM     13  C   UNL d   1      -2.712  -4.053   1.194  0.00  0.00     0.024 A 
ATOM     14 CL   UNL d   1      -4.663  -5.439  -0.055  0.00  0.00    -0.084 Cl
ATOM     15  C   UNL d   1      -1.563  -3.259   1.217  0.00  0.00     0.013 A 
ENDBRANCH   7   9
BRANCH   6  16
ATOM     16  C   UNL d   1       2.070   2.342   0.035  0.00  0.00     0.057 C 
ATOM     17  C   UNL d   1       1.634   3.611   0.030  0.00  0.00     0.015 C 
BRANCH  17  18
ATOM     18  C   UNL d   1       2.529   4.778  -0.055  0.00  0.00    -0.036 A 
ATOM     19  C   UNL d   1       3.754   4.729  -0.734  0.00  0.00     0.011 A 
ATOM     20  C   UNL d   1       4.559   5.865  -0.840  0.00  0.00     0.001 A 
ATOM     21  C   UNL d   1       4.143   7.069  -0.279  0.00  0.00     0.000 A 
ATOM     22  C   UNL d   1       2.921   7.137   0.388  0.00  0.00     0.001 A 
ATOM     23  C   UNL d   1       2.116   5.999   0.497  0.00  0.00     0.011 A 
ENDBRANCH  17  18
ENDBRANCH   6  16
TORSDOF 3
