REMARK  6 active torsions:
REMARK  status: ('A' for Active; 'I' for Inactive)
REMARK    1  A    between atoms: C_11  and  C_1 
REMARK    2  A    between atoms: N_8  and  C_2 
REMARK    3  A    between atoms: C_13  and  C_4 
REMARK       I    between atoms: C_6  and  N_7 
REMARK    4  A    between atoms: C_12  and  C_6 
REMARK       I    between atoms: C_9  and  N_8 
REMARK    5  A    between atoms: C_17  and  C_9 
REMARK    6  A    between atoms: N_10  and  C_17 
ROOT
ATOM      1  N   UNL d   1       1.144   5.734   0.409  0.00  0.00    -0.324 N 
ATOM      2  C   UNL d   1       2.189   4.987  -0.083  0.00  0.00     0.250 C 
ATOM      3  O   UNL d   1       3.225   5.428  -0.564  0.00  0.00    -0.271 OA
ATOM      4  H   UNL d   1       0.468   5.184   0.932  0.00  0.00     0.169 HD
ENDROOT
BRANCH   2   5
ATOM      5  C   UNL d   1       2.001   3.469   0.153  0.00  0.00     0.375 C 
BRANCH   5   6
ATOM      6  N   UNL d   1       0.707   2.960  -0.354  0.00  0.00     0.100 N 
ATOM      7  C   UNL d   1       0.547   3.112  -1.814  0.00  0.00     0.293 C 
ATOM      8  C   UNL d   1       0.459   1.831  -2.656  0.00  0.00     0.156 C 
ATOM      9  N   UNL d   1      -0.493   0.897  -2.067  0.00  0.00    -0.345 N 
ATOM     10  C   UNL d   1      -1.349   0.080  -2.805  0.00  0.00     0.253 C 
ATOM     11  C   UNL d   1      -0.108   0.467  -0.736  0.00  0.00     0.156 C 
ATOM     12  O   UNL d   1      -1.739  -1.021  -2.401  0.00  0.00    -0.267 OA
ATOM     13  C   UNL d   1       0.402   1.610   0.182  0.00  0.00     0.293 C 
BRANCH  10  14
ATOM     14  C   UNL d   1      -1.857   0.561  -4.113  0.00  0.00     0.032 A 
ATOM     15  C   UNL d   1      -1.921  -0.321  -5.195  0.00  0.00     0.017 A 
ATOM     16  C   UNL d   1      -2.401   0.124  -6.430  0.00  0.00     0.007 A 
ATOM     17  C   UNL d   1      -2.836   1.445  -6.592  0.00  0.00    -0.062 A 
ATOM     18  C   UNL d   1      -2.809   2.313  -5.492  0.00  0.00     0.007 A 
ATOM     19  C   UNL d   1      -3.325   1.917  -7.931  0.00  0.00     0.048 C 
ATOM     20  C   UNL d   1      -2.335   1.871  -4.257  0.00  0.00     0.017 A 
ENDBRANCH  10  14
ENDBRANCH   5   6
ENDBRANCH   2   5
BRANCH   1  21
ATOM     21  C   UNL d   1       0.957   7.118   0.473  0.00  0.00     0.057 A 
ATOM     22  C   UNL d   1       1.497   8.200  -0.218  0.00  0.00     0.077 A 
ATOM     23  S   UNL d   1       0.791   9.688   0.359  0.00  0.00    -0.084 SA
ATOM     24  C   UNL d   1      -0.229   8.933   1.492  0.00  0.00     0.018 A 
ATOM     25  C   UNL d   1       0.003   7.573   1.460  0.00  0.00     0.051 A 
BRANCH  22  26
ATOM     26  C   UNL d   1       2.438   8.417  -1.322  0.00  0.00     0.164 C 
ATOM     27  O   UNL d   1       3.052   9.484  -1.471  0.00  0.00    -0.292 OA
ATOM     28  C   UNL d   1       2.627   7.387  -2.398  0.00  0.00     0.097 C 
ENDBRANCH  22  26
BRANCH  24  29
ATOM     29  C   UNL d   1      -1.198   9.694   2.321  0.00  0.00    -0.019 A 
ATOM     30  C   UNL d   1      -2.163   9.007   3.082  0.00  0.00     0.013 A 
ATOM     31  C   UNL d   1      -3.119   9.688   3.843  0.00  0.00     0.001 A 
ATOM     32  C   UNL d   1      -3.135  11.076   3.861  0.00  0.00     0.000 A 
ATOM     33  C   UNL d   1      -2.187  11.783   3.128  0.00  0.00     0.001 A 
ATOM     34  C   UNL d   1      -1.226  11.099   2.370  0.00  0.00     0.013 A 
ENDBRANCH  24  29
ENDBRANCH   1  21
TORSDOF 6
