REMARK  8 active torsions:
REMARK  status: ('A' for Active; 'I' for Inactive)
REMARK    1  A    between atoms: O_6  and  C_1 
REMARK    2  A    between atoms: C_7  and  C_1 
REMARK    3  A    between atoms: C_2  and  C_8 
REMARK    4  A    between atoms: C_5  and  C_2 
REMARK    5  A    between atoms: C_11  and  C_7 
REMARK    6  A    between atoms: C_8  and  C_12 
REMARK    7  A    between atoms: C_13  and  C_11 
REMARK    8  A    between atoms: C_12  and  C_13 
ROOT
ATOM      1  C   UNL d   1       6.672   2.091  -1.985  0.00  0.00     0.084 C 
ENDROOT
BRANCH   1   2
ATOM      2  C   UNL d   1       7.176   3.170  -2.930  0.00  0.00     0.159 C 
ATOM      3  O   UNL d   1       6.414   3.890  -3.571  0.00  0.00    -0.292 OA
BRANCH   2   4
ATOM      4  C   UNL d   1       8.650   3.350  -3.089  0.00  0.00     0.010 A 
ATOM      5  C   UNL d   1       9.579   2.591  -2.367  0.00  0.00     0.015 A 
ATOM      6  C   UNL d   1      10.948   2.785  -2.568  0.00  0.00     0.001 A 
ATOM      7  C   UNL d   1      11.395   3.735  -3.485  0.00  0.00     0.000 A 
ATOM      8  C   UNL d   1      10.476   4.499  -4.201  0.00  0.00     0.001 A 
ATOM      9  C   UNL d   1       9.108   4.309  -4.003  0.00  0.00     0.015 A 
ENDBRANCH   2   4
ENDBRANCH   1   2
BRANCH   1  10
ATOM     10  C   UNL d   1       5.146   2.052  -1.949  0.00  0.00     0.008 C 
BRANCH  10  11
ATOM     11  C   UNL d   1       4.621   0.976  -0.999  0.00  0.00     0.001 C 
BRANCH  11  12
ATOM     12  C   UNL d   1       3.092   0.980  -0.990  0.00  0.00     0.010 C 
BRANCH  12  13
ATOM     13  C   UNL d   1       2.520  -0.079  -0.051  0.00  0.00     0.110 C 
BRANCH  13  14
ATOM     14  C   UNL d   1       1.008  -0.060  -0.057  0.00  0.00     0.139 C 
ATOM     15  O   UNL d   1       0.309   0.694  -0.714  0.00  0.00    -0.650 OA
BRANCH  14  16
ATOM     16  O   UNL d   1       0.480  -0.996   0.768  0.00  0.00    -0.776 OA
ATOM     17  H   UNL d   1       1.150  -1.531   1.233  0.00  0.00     0.167 HD
ENDBRANCH  14  16
ENDBRANCH  13  14
ENDBRANCH  12  13
ENDBRANCH  11  12
ENDBRANCH  10  11
ENDBRANCH   1  10
TORSDOF 8
