REMARK  2 active torsions:
REMARK  status: ('A' for Active; 'I' for Inactive)
REMARK    1  A    between atoms: C_3  and  C_1 
REMARK    2  A    between atoms: N_2  and  C_6 
ROOT
ATOM      1  C   UNL d   1       0.077  -1.452  -0.036  0.00  0.00    -0.013 A 
ATOM      2  C   UNL d   1      -1.186  -0.782  -0.019  0.00  0.00    -0.015 A 
ATOM      3  C   UNL d   1       1.304  -0.721  -0.062  0.00  0.00    -0.015 A 
ATOM      4  C   UNL d   1      -1.200   0.629  -0.009  0.00  0.00    -0.024 A 
ATOM      5  C   UNL d   1       1.246   0.691  -0.026  0.00  0.00    -0.024 A 
ATOM      6  C   UNL d   1       0.006   1.339  -0.002  0.00  0.00     0.024 A 
ATOM      7  C   UNL d   1       2.591  -1.315  -0.110  0.00  0.00     0.013 A 
ATOM      8  C   UNL d   1      -2.442  -1.443  -0.001  0.00  0.00     0.013 A 
ATOM      9  C   UNL d   1       2.429   1.450  -0.006  0.00  0.00     0.012 A 
ATOM     10  C   UNL d   1      -2.421   1.327   0.009  0.00  0.00     0.012 A 
ATOM     11  C   UNL d   1       3.760  -0.547  -0.105  0.00  0.00     0.001 A 
ATOM     12  C   UNL d   1      -3.648  -0.738   0.015  0.00  0.00     0.001 A 
ATOM     13  C   UNL d   1      -3.637   0.648   0.017  0.00  0.00     0.001 A 
ATOM     14  C   UNL d   1       3.678   0.836  -0.043  0.00  0.00     0.001 A 
ENDROOT
BRANCH   1  15
ATOM     15  C   UNL d   1       0.108  -2.929   0.034  0.00  0.00     0.036 C 
ATOM     16  C   UNL d   1       0.061  -3.693  -1.062  0.00  0.00     0.168 C 
BRANCH  16  17
ATOM     17  N   UNL d   1       0.041  -5.130  -0.920  0.00  0.00    -0.127 N 
ATOM     18  O   UNL d   1       0.032  -5.622   0.216  0.00  0.00    -0.532 OA
ATOM     19  O   UNL d   1       0.025  -5.775  -1.975  0.00  0.00    -0.532 OA
ENDBRANCH  16  17
ENDBRANCH   1  15
TORSDOF 2
