REMARK  4 active torsions:
REMARK  status: ('A' for Active; 'I' for Inactive)
REMARK    1  A    between atoms: C_3  and  C_1 
REMARK    2  A    between atoms: C_6  and  C_2 
REMARK       I    between atoms: N_7  and  C_3 
REMARK    3  A    between atoms: C_13  and  N_7 
REMARK    4  A    between atoms: C_14  and  N_7 
ROOT
ATOM      1  C   UNL d   1      -0.268  -1.305   0.151  0.00  0.00     0.092 A 
ATOM      2  C   UNL d   1      -1.166  -0.398  -0.516  0.00  0.00     0.086 A 
ATOM      3  N   UNL d   1      -1.086   0.827   0.033  0.00  0.00    -0.259 N 
ATOM      4  HN  UNL d   1      -1.596   1.659  -0.265  1.00  0.00     0.195 HD
ATOM      5  O   UNL d   1      -0.194   0.750   1.063  0.00  0.00    -0.241 OA
ATOM      6  C   UNL d   1       0.306  -0.499   1.129  0.00  0.00     0.090 A 
ATOM      7  C   UNL d   1       1.336  -0.713   2.170  0.00  0.00     0.080 C 
ENDROOT
BRANCH   1   8
ATOM      8  C   UNL d   1       0.213  -2.673  -0.041  0.00  0.00     0.259 C 
ATOM      9  N   UNL d   1      -0.625  -3.772  -0.341  0.00  0.00    -0.340 N 
ATOM     10  O   UNL d   1       1.421  -2.862   0.130  0.00  0.00    -0.267 OA
BRANCH   9  11
ATOM     11  C   UNL d   1       0.012  -5.123  -0.346  0.00  0.00     0.079 C 
ATOM     12  C   UNL d   1       1.071  -5.276  -1.445  0.00  0.00     0.032 C 
ATOM     13  C   UNL d   1       0.551  -5.550   1.024  0.00  0.00     0.032 C 
ENDBRANCH   9  11
BRANCH   9  14
ATOM     14  C   UNL d   1      -2.100  -3.711  -0.390  0.00  0.00     0.079 C 
ATOM     15  C   UNL d   1      -2.734  -4.660  -1.418  0.00  0.00     0.032 C 
ATOM     16  C   UNL d   1      -2.735  -3.888   0.986  0.00  0.00     0.032 C 
ENDBRANCH   9  14
ENDBRANCH   1   8
BRANCH   2  17
ATOM     17  C   UNL d   1      -2.072  -0.536  -1.665  0.00  0.00     0.037 A 
ATOM     18  C   UNL d   1      -3.425  -0.129  -1.550  0.00  0.00     0.048 A 
ATOM     19 CL   UNL d   1      -4.142   0.376  -0.051  0.00  0.00    -0.083 Cl
ATOM     20  C   UNL d   1      -4.291  -0.168  -2.650  0.00  0.00     0.025 A 
ATOM     21  C   UNL d   1      -3.844  -0.643  -3.875  0.00  0.00     0.003 A 
ATOM     22  C   UNL d   1      -2.527  -1.079  -4.002  0.00  0.00     0.025 A 
ATOM     23  C   UNL d   1      -1.642  -1.015  -2.915  0.00  0.00     0.048 A 
ATOM     24 CL   UNL d   1      -0.022  -1.542  -3.214  0.00  0.00    -0.083 Cl
ENDBRANCH   2  17
TORSDOF 4
