REMARK  7 active torsions:
REMARK  status: ('A' for Active; 'I' for Inactive)
REMARK    1  A    between atoms: S_9  and  C_3 
REMARK    2  A    between atoms: O_14  and  C_4 
REMARK    3  A    between atoms: C_8  and  C_12 
REMARK    4  A    between atoms: C_11  and  C_8 
REMARK    5  A    between atoms: C_12  and  S_9 
REMARK    6  A    between atoms: C_16  and  C_10 
REMARK    7  A    between atoms: O_15  and  C_16 
ROOT
ATOM      1  N   UNL d   1      -0.185  -0.951  -0.599  0.00  0.00    -0.318 N 
ATOM      2  HN  UNL d   1      -0.783  -1.776  -0.650  1.00  0.00     0.170 HD
ATOM      3  C   UNL d   1       1.134  -1.035  -0.366  0.00  0.00     0.146 A 
ATOM      4  C   UNL d   1      -0.659   0.283  -0.757  0.00  0.00     0.143 A 
ATOM      5  N   UNL d   1       1.970   0.018  -0.287  0.00  0.00    -0.338 N 
ATOM      6  HN  UNL d   1       2.967  -0.105  -0.108  1.00  0.00     0.168 HD
ATOM      7  C   UNL d   1       0.079   1.431  -0.703  0.00  0.00     0.083 A 
ATOM      8  C   UNL d   1       1.425   1.250  -0.455  0.00  0.00     0.039 A 
ENDROOT
BRANCH   3   9
ATOM      9  S   UNL d   1       1.759  -2.685  -0.181  0.00  0.00    -0.086 SA
BRANCH   9  10
ATOM     10  C   UNL d   1       3.515  -2.370   0.131  0.00  0.00     0.161 C 
BRANCH  10  11
ATOM     11  C   UNL d   1       4.297  -3.672   0.023  0.00  0.00     0.144 C 
ATOM     12  O   UNL d   1       4.773  -3.998  -1.072  0.00  0.00    -0.296 OA
BRANCH  11  13
ATOM     13  C   UNL d   1       4.433  -4.615   1.246  0.00  0.00     0.010 C 
ATOM     14  C   UNL d   1       3.238  -5.575   1.302  0.00  0.00     0.022 C 
ATOM     15  C   UNL d   1       5.718  -5.451   1.068  0.00  0.00     0.022 C 
ATOM     16  C   UNL d   1       4.549  -3.850   2.569  0.00  0.00     0.022 C 
ENDBRANCH  11  13
ENDBRANCH  10  11
ENDBRANCH   9  10
ENDBRANCH   3   9
BRANCH   4  17
ATOM     17  O   UNL d   1      -1.993   0.340  -1.000  0.00  0.00    -0.346 OA
ATOM     18  H   UNL d   1      -2.217  -0.609  -0.981  0.00  0.00     0.219 HD
ENDBRANCH   4  17
BRANCH   8  19
ATOM     19  C   UNL d   1       2.338   2.452  -0.401  0.00  0.00     0.224 C 
BRANCH  19  20
ATOM     20  O   UNL d   1       1.839   3.391   0.554  0.00  0.00    -0.390 OA
ATOM     21  C   UNL d   1       2.649   4.557   0.617  0.00  0.00     0.201 C 
ENDBRANCH  19  20
ENDBRANCH   8  19
TORSDOF 7
