REMARK  4 active torsions:
REMARK  status: ('A' for Active; 'I' for Inactive)
REMARK    1  A    between atoms: C_3  and  C_1 
REMARK    2  A    between atoms: C_9  and  N_2 
REMARK       I    between atoms: C_6  and  N_8 
REMARK    3  A    between atoms: C_10  and  C_6 
REMARK    4  A    between atoms: N_8  and  C_20 
ROOT
ATOM      1  C   UNL d   1       2.003  -1.499   0.067  0.00  0.00     0.057 A 
ATOM      2  C   UNL d   1       2.099  -2.533  -0.868  0.00  0.00     0.034 A 
ATOM      3  C   UNL d   1       3.112  -1.195   0.867  0.00  0.00     0.034 A 
ATOM      4  C   UNL d   1       4.374  -3.010  -0.138  0.00  0.00     0.035 A 
ATOM      5  C   UNL d   1       3.273  -3.287  -0.958  0.00  0.00     0.032 A 
ATOM      6  C   UNL d   1       4.284  -1.958   0.773  0.00  0.00     0.032 A 
ENDROOT
BRANCH   4   7
ATOM      7  N   UNL d   1       5.513  -3.826  -0.300  0.00  0.00    -0.323 N 
ATOM      8  C   UNL d   1       6.725  -3.712   0.354  0.00  0.00     0.256 C 
ATOM      9  O   UNL d   1       7.024  -2.886   1.209  0.00  0.00    -0.267 OA
ATOM     10  H   UNL d   1       5.401  -4.603  -0.937  0.00  0.00     0.169 HD
BRANCH   8  11
ATOM     11  C   UNL d   1       7.744  -4.738  -0.011  0.00  0.00     0.032 A 
ATOM     12  C   UNL d   1       7.846  -5.265  -1.306  0.00  0.00     0.018 A 
ATOM     13  C   UNL d   1       8.795  -6.255  -1.582  0.00  0.00     0.025 A 
ATOM     14  C   UNL d   1       9.647  -6.704  -0.573  0.00  0.00     0.034 A 
ATOM     15  C   UNL d   1       9.576  -6.158   0.707  0.00  0.00     0.025 A 
ATOM     16 CL   UNL d   1      10.793  -7.941  -0.911  0.00  0.00    -0.084 Cl
ATOM     17  C   UNL d   1       8.629  -5.171   0.986  0.00  0.00     0.018 A 
ENDBRANCH   8  11
ENDBRANCH   4   7
BRANCH   1  18
ATOM     18  N   UNL d   1       0.820  -0.723   0.196  0.00  0.00    -0.252 N 
ATOM     19  C   UNL d   1      -0.501  -1.053  -0.036  0.00  0.00     0.141 C 
ATOM     20  C   UNL d   1      -1.207   0.135  -0.036  0.00  0.00     0.055 C 
ATOM     21  C   UNL d   1      -0.276   1.106   0.342  0.00  0.00     0.110 C 
ATOM     22  N   UNL d   1       0.928   0.584   0.566  0.00  0.00    -0.305 N 
ATOM     23  HN  UNL d   1       1.752   1.059   0.935  1.00  0.00     0.186 HD
BRANCH  19  24
ATOM     24  C   UNL d   1      -1.008  -2.427  -0.161  0.00  0.00     0.434 C 
ATOM     25  F   UNL d   1      -0.181  -3.384   0.321  0.00  0.00    -0.165 F 
ATOM     26  F   UNL d   1      -2.179  -2.576   0.514  0.00  0.00    -0.165 F 
ATOM     27  F   UNL d   1      -1.269  -2.741  -1.455  0.00  0.00    -0.165 F 
ENDBRANCH  19  24
ENDBRANCH   1  18
TORSDOF 4
