REMARK  6 active torsions:
REMARK  status: ('A' for Active; 'I' for Inactive)
REMARK    1  A    between atoms: N_3  and  C_1 
REMARK    2  A    between atoms: N_4  and  C_1 
REMARK       I    between atoms: C_2  and  N_5 
REMARK    3  A    between atoms: O_11  and  C_2 
REMARK    4  A    between atoms: C_7  and  N_3 
REMARK    5  A    between atoms: N_5  and  N_4 
REMARK    6  A    between atoms: C_16  and  O_11 
ROOT
ATOM      1  C   UNL d   1       0.874   0.077   0.191  0.00  0.00     0.191 C 
ATOM      2  S   UNL d   1       2.536   0.059   0.333  0.00  0.00    -0.039 SA
ENDROOT
BRANCH   1   3
ATOM      3  N   UNL d   1       0.271  -0.553  -0.874  0.00  0.00    -0.332 N 
ATOM      4  H   UNL d   1       0.840  -1.253  -1.340  0.00  0.00     0.168 HD
BRANCH   3   5
ATOM      5  C   UNL d   1      -0.995  -0.273  -1.437  0.00  0.00     0.035 A 
ATOM      6  C   UNL d   1      -1.602   0.984  -1.325  0.00  0.00     0.053 A 
ATOM      7  C   UNL d   1      -2.850   1.215  -1.903  0.00  0.00     0.036 A 
ATOM      8 CL   UNL d   1      -3.575   2.769  -1.770  0.00  0.00    -0.084 Cl
ATOM      9  C   UNL d   1      -3.504   0.201  -2.595  0.00  0.00     0.024 A 
ATOM     10  C   UNL d   1      -2.892  -1.046  -2.732  0.00  0.00     0.004 A 
ATOM     11  C   UNL d   1      -1.631  -1.276  -2.172  0.00  0.00     0.029 A 
ENDBRANCH   3   5
ENDBRANCH   1   3
BRANCH   1  12
ATOM     12  N   UNL d   1       0.009   0.638   1.092  0.00  0.00    -0.272 N 
ATOM     13  H   UNL d   1      -0.965   0.333   1.107  0.00  0.00     0.189 HD
BRANCH  12  14
ATOM     14  N   UNL d   1       0.391   1.422   2.185  0.00  0.00    -0.243 N 
ATOM     15  C   UNL d   1      -0.650   1.963   2.902  0.00  0.00     0.379 C 
ATOM     16  O   UNL d   1      -1.798   1.532   2.853  0.00  0.00    -0.237 OA
ATOM     17  H   UNL d   1       1.248   1.960   2.102  0.00  0.00     0.192 HD
BRANCH  15  18
ATOM     18  O   UNL d   1      -0.251   3.070   3.570  0.00  0.00    -0.303 OA
BRANCH  18  19
ATOM     19  C   UNL d   1      -1.321   3.824   4.159  0.00  0.00     0.176 C 
ATOM     20  C   UNL d   1      -1.929   4.752   3.119  0.00  0.00     0.034 C 
ENDBRANCH  18  19
ENDBRANCH  15  18
ENDBRANCH  12  14
ENDBRANCH   1  12
TORSDOF 6
