REMARK  3 active torsions:
REMARK  status: ('A' for Active; 'I' for Inactive)
REMARK    1  A    between atoms: N_7  and  C_1 
REMARK    2  A    between atoms: C_9  and  N_7 
REMARK    3  A    between atoms: O_14  and  C_12 
ROOT
ATOM      1  C   UNL d   1      -0.281  -1.976   0.006  0.00  0.00     0.047 A 
ATOM      2  C   UNL d   1      -1.567  -1.604   0.081  0.00  0.00     0.089 A 
ATOM      3  C   UNL d   1      -0.931   0.867   0.058  0.00  0.00     0.232 A 
ATOM      4  C   UNL d   1      -2.004  -0.201   0.101  0.00  0.00     0.224 A 
ATOM      5  C   UNL d   1       0.477   0.428   0.014  0.00  0.00     0.031 A 
ATOM      6  C   UNL d   1       0.794  -0.942  -0.037  0.00  0.00     0.005 A 
ATOM      7  O   UNL d   1      -1.235   2.052   0.067  0.00  0.00    -0.283 OA
ATOM      8  O   UNL d   1      -3.191   0.089   0.144  0.00  0.00    -0.284 OA
ATOM      9  C   UNL d   1       1.476   1.416   0.044  0.00  0.00     0.016 A 
ATOM     10  C   UNL d   1       2.162  -1.276  -0.072  0.00  0.00     0.014 A 
ATOM     11  C   UNL d   1       2.817   1.053   0.020  0.00  0.00     0.001 A 
ATOM     12  C   UNL d   1       3.159  -0.292  -0.045  0.00  0.00     0.001 A 
ENDROOT
BRANCH   1  13
ATOM     13  N   UNL d   1       0.056  -3.324  -0.071  0.00  0.00    -0.355 N 
ATOM     14  H   UNL d   1       0.946  -3.518  -0.523  0.00  0.00     0.166 HD
BRANCH  13  15
ATOM     15  C   UNL d   1      -0.138  -4.258   0.983  0.00  0.00     0.035 A 
ATOM     16  C   UNL d   1      -0.270  -3.869   2.323  0.00  0.00     0.066 A 
ATOM     17  C   UNL d   1      -0.386  -4.835   3.321  0.00  0.00     0.067 A 
ATOM     18  C   UNL d   1      -0.401  -6.189   3.010  0.00  0.00     0.036 A 
ATOM     19  C   UNL d   1      -0.290  -6.588   1.681  0.00  0.00     0.005 A 
ATOM     20  C   UNL d   1      -0.150  -5.627   0.674  0.00  0.00     0.029 A 
BRANCH  17  21
ATOM     21  O   UNL d   1      -0.469  -4.487   4.637  0.00  0.00    -0.361 OA
ATOM     22  H   UNL d   1      -0.389  -3.522   4.712  0.00  0.00     0.217 HD
ENDBRANCH  17  21
ENDBRANCH  13  15
ENDBRANCH   1  13
TORSDOF 3
