REMARK  3 active torsions:
REMARK  status: ('A' for Active; 'I' for Inactive)
REMARK    1  A    between atoms: C_7  and  N_1 
REMARK    2  A    between atoms: N_6  and  C_4 
REMARK    3  A    between atoms: C_12  and  N_6 
ROOT
ATOM      1  N   UNL d   1       0.014   0.918  -0.036  0.00  0.00    -0.251 N 
ATOM      2  C   UNL d   1      -1.124   0.181   0.202  0.00  0.00     0.233 A 
ATOM      3  C   UNL d   1       1.100   0.097  -0.243  0.00  0.00     0.249 A 
ATOM      4  C   UNL d   1       0.656  -1.354  -0.190  0.00  0.00     0.162 A 
ATOM      5  C   UNL d   1      -0.827  -1.278   0.085  0.00  0.00     0.133 A 
ATOM      6  O   UNL d   1      -2.257   0.569   0.459  0.00  0.00    -0.273 OA
ATOM      7  O   UNL d   1       2.277   0.397  -0.419  0.00  0.00    -0.271 OA
ENDROOT
BRANCH   4   8
ATOM      8  N   UNL d   1       0.953  -2.008  -1.474  0.00  0.00    -0.279 NA
ATOM      9  H   UNL d   1       1.932  -1.862  -1.740  0.00  0.00     0.128 HD
BRANCH   8  10
ATOM     10  C   UNL d   1       0.615  -3.354  -1.648  0.00  0.00     0.009 A 
ATOM     11  C   UNL d   1       0.407  -3.808  -2.958  0.00  0.00     0.025 A 
ATOM     12  C   UNL d   1       0.048  -5.134  -3.215  0.00  0.00     0.025 A 
ATOM     13  C   UNL d   1      -0.070  -6.030  -2.158  0.00  0.00     0.034 A 
ATOM     14  C   UNL d   1       0.186  -5.614  -0.856  0.00  0.00     0.025 A 
ATOM     15 CL   UNL d   1      -0.532  -7.659  -2.461  0.00  0.00    -0.084 Cl
ATOM     16  C   UNL d   1       0.537  -4.284  -0.605  0.00  0.00     0.025 A 
ENDBRANCH   8  10
ENDBRANCH   4   8
BRANCH   1  17
ATOM     17  C   UNL d   1       0.064   2.350  -0.062  0.00  0.00     0.045 A 
ATOM     18  C   UNL d   1      -0.978   3.138   0.462  0.00  0.00     0.032 A 
ATOM     19  C   UNL d   1      -0.936   4.538   0.420  0.00  0.00     0.026 A 
ATOM     20  C   UNL d   1       0.151   5.184  -0.152  0.00  0.00     0.034 A 
ATOM     21  C   UNL d   1       1.196   4.437  -0.678  0.00  0.00     0.026 A 
ATOM     22 CL   UNL d   1       0.201   6.900  -0.212  0.00  0.00    -0.084 Cl
ATOM     23  C   UNL d   1       1.151   3.036  -0.632  0.00  0.00     0.032 A 
ENDBRANCH   1  17
TORSDOF 3
