REMARK  4 active torsions:
REMARK  status: ('A' for Active; 'I' for Inactive)
REMARK    1  A    between atoms: C_5  and  N_1 
REMARK    2  A    between atoms: C_10  and  C_5 
REMARK    3  A    between atoms: N_8  and  N_6 
REMARK    4  A    between atoms: C_12  and  C_17 
ROOT
ATOM      1  N   UNL d   1      -0.278   0.970  -0.000  0.00  0.00    -0.296 N 
ATOM      2  C   UNL d   1       1.034   0.610  -0.162  0.00  0.00     0.164 C 
ATOM      3  C   UNL d   1      -1.185  -0.053   0.161  0.00  0.00     0.235 C 
ATOM      4  S   UNL d   1       1.195  -1.134  -0.230  0.00  0.00    -0.083 SA
ATOM      5  N   UNL d   1       2.003   1.469  -0.242  0.00  0.00    -0.280 N 
ATOM      6  HN  UNL d   1       1.860   2.479  -0.261  1.00  0.00     0.189 HD
ATOM      7  C   UNL d   1      -0.572  -1.405  -0.087  0.00  0.00     0.185 C 
ATOM      8  O   UNL d   1      -2.364   0.081   0.477  0.00  0.00    -0.272 OA
ENDROOT
BRANCH   5   9
ATOM      9  N   UNL d   1       3.256   0.873  -0.298  0.00  0.00    -0.309 N 
ATOM     10  C   UNL d   1       4.186   1.660  -0.734  0.00  0.00     0.120 C 
ATOM     11  HN  UNL d   1       3.427  -0.094  -0.022  1.00  0.00     0.186 HD
BRANCH  10  12
ATOM     12  C   UNL d   1       5.578   1.169  -0.837  0.00  0.00     0.002 A 
ATOM     13  C   UNL d   1       6.598   1.929  -1.417  0.00  0.00     0.045 A 
ATOM     14 CL   UNL d   1       6.342   3.510  -2.064  0.00  0.00    -0.083 Cl
ATOM     15  C   UNL d   1       7.895   1.403  -1.498  0.00  0.00     0.024 A 
ATOM     16  C   UNL d   1       8.176   0.128  -0.999  0.00  0.00     0.002 A 
ATOM     17  C   UNL d   1       7.165  -0.628  -0.416  0.00  0.00     0.001 A 
ATOM     18  C   UNL d   1       5.872  -0.111  -0.335  0.00  0.00     0.014 A 
ENDBRANCH  10  12
ENDBRANCH   5   9
BRANCH   1  19
ATOM     19  C   UNL d   1      -0.681   2.353   0.185  0.00  0.00     0.138 C 
BRANCH  19  20
ATOM     20  C   UNL d   1      -1.005   3.089  -1.088  0.00  0.00     0.004 A 
ATOM     21  C   UNL d   1      -2.048   2.579  -2.056  0.00  0.00     0.007 A 
ATOM     22  C   UNL d   1      -0.604   2.636  -2.474  0.00  0.00     0.007 A 
ENDBRANCH  19  20
ENDBRANCH   1  19
TORSDOF 4
