REMARK  4 active torsions:
REMARK  status: ('A' for Active; 'I' for Inactive)
REMARK    1  A    between atoms: C_3  and  C_1 
REMARK    2  A    between atoms: N_7  and  C_2 
REMARK    3  A    between atoms: S_9  and  C_3 
REMARK    4  A    between atoms: C_15  and  S_9 
ROOT
ATOM      1  C   UNL d   1       1.436  -0.796   0.327  0.00  0.00     0.084 A 
ATOM      2  C   UNL d   1       0.149  -1.294   0.166  0.00  0.00     0.144 A 
ATOM      3  N   UNL d   1      -0.052   0.934   0.500  0.00  0.00    -0.307 N 
ATOM      4  HN  UNL d   1      -0.455   1.861   0.639  1.00  0.00     0.186 HD
ATOM      5  N   UNL d   1      -0.696  -0.215   0.199  0.00  0.00    -0.280 N 
ATOM      6  C   UNL d   1       1.232   0.578   0.576  0.00  0.00     0.127 A 
ATOM      7  C   UNL d   1      -2.134  -0.152   0.073  0.00  0.00     0.179 C 
ENDROOT
BRANCH   1   8
ATOM      8  C   UNL d   1       2.684  -1.514   0.145  0.00  0.00     0.229 C 
ATOM      9  O   UNL d   1       2.811  -2.426  -0.663  0.00  0.00    -0.279 OA
BRANCH   8  10
ATOM     10  S   UNL d   1       4.035  -0.948   1.120  0.00  0.00    -0.047 SA
BRANCH  10  11
ATOM     11  C   UNL d   1       4.546  -2.479   1.881  0.00  0.00     0.008 A 
ATOM     12  C   UNL d   1       4.921  -3.591   1.122  0.00  0.00     0.019 A 
ATOM     13  C   UNL d   1       5.226  -4.804   1.744  0.00  0.00     0.008 A 
ATOM     14  C   UNL d   1       5.178  -4.918   3.136  0.00  0.00    -0.062 A 
ATOM     15  C   UNL d   1       4.877  -3.784   3.899  0.00  0.00     0.008 A 
ATOM     16  C   UNL d   1       5.480  -6.231   3.794  0.00  0.00     0.048 C 
ATOM     17  C   UNL d   1       4.560  -2.574   3.276  0.00  0.00     0.019 A 
ENDBRANCH  10  11
ENDBRANCH   8  10
ENDBRANCH   1   8
BRANCH   2  18
ATOM     18  N   UNL d   1      -0.246  -2.630   0.042  0.00  0.00    -0.317 N 
ATOM     19  C   UNL d   1      -1.308  -3.133  -0.684  0.00  0.00     0.098 A 
ATOM     20  C   UNL d   1      -1.407  -4.491  -0.474  0.00  0.00     0.019 A 
ATOM     21  C   UNL d   1      -0.368  -4.851   0.408  0.00  0.00     0.019 A 
ATOM     22  C   UNL d   1       0.340  -3.703   0.687  0.00  0.00     0.098 A 
ENDBRANCH   2  18
TORSDOF 4
