REMARK  7 active torsions:
REMARK  status: ('A' for Active; 'I' for Inactive)
REMARK    1  A    between atoms: C_8  and  S_1 
REMARK    2  A    between atoms: C_16  and  S_1 
REMARK    3  A    between atoms: C_4  and  C_8 
REMARK    4  A    between atoms: C_13  and  C_5 
REMARK    5  A    between atoms: C_6  and  C_11 
REMARK    6  A    between atoms: C_7  and  C_12 
REMARK    7  A    between atoms: C_18  and  C_16 
ROOT
ATOM      1  N   UNL d   1       0.134  -1.314  -3.166  0.00  0.00    -0.352 N 
ATOM      2  HN  UNL d   1      -0.824  -0.964  -3.181  1.00  0.00     0.166 HD
ATOM      3  C   UNL d   1       0.862  -1.469  -2.077  0.00  0.00     0.065 A 
ATOM      4  C   UNL d   1       0.858  -1.696  -4.292  0.00  0.00     0.049 A 
ATOM      5  S   UNL d   1       2.479  -1.988  -2.354  0.00  0.00    -0.085 SA
ATOM      6  C   UNL d   1       2.178  -2.016  -4.038  0.00  0.00     0.081 A 
ENDROOT
BRANCH   3   7
ATOM      7  C   UNL d   1       0.319  -1.330  -0.699  0.00  0.00     0.205 C 
BRANCH   7   8
ATOM      8  S   UNL d   1       0.976   0.104   0.123  0.00  0.00     0.154 S 
ATOM      9  O   UNL d   1       2.413  -0.064   0.262  0.00  0.00    -0.227 OA
ATOM     10  O   UNL d   1       0.155   0.299   1.309  0.00  0.00    -0.227 OA
BRANCH   8  11
ATOM     11  C   UNL d   1       0.650   1.462  -1.003  0.00  0.00     0.179 C 
BRANCH  11  12
ATOM     12  C   UNL d   1       1.151   2.748  -0.388  0.00  0.00    -0.043 A 
ATOM     13  C   UNL d   1       0.305   3.550   0.395  0.00  0.00     0.024 A 
ATOM     14  C   UNL d   1       0.767   4.753   0.959  0.00  0.00     0.048 A 
ATOM     15  C   UNL d   1       2.095   5.143   0.734  0.00  0.00     0.016 A 
ATOM     16  C   UNL d   1       2.946   4.345  -0.029  0.00  0.00     0.001 A 
ATOM     17  C   UNL d   1       2.478   3.155  -0.585  0.00  0.00     0.008 A 
BRANCH  14  18
ATOM     18  C   UNL d   1      -0.141   5.632   1.784  0.00  0.00     0.417 C 
ATOM     19  F   UNL d   1      -1.379   5.101   1.990  0.00  0.00    -0.166 F 
ATOM     20  F   UNL d   1       0.363   5.897   3.022  0.00  0.00    -0.166 F 
ATOM     21  F   UNL d   1      -0.352   6.846   1.202  0.00  0.00    -0.166 F 
ENDBRANCH  14  18
ENDBRANCH  11  12
ENDBRANCH   8  11
ENDBRANCH   7   8
ENDBRANCH   3   7
BRANCH   4  22
ATOM     22  C   UNL d   1       0.239  -1.768  -5.614  0.00  0.00    -0.009 A 
ATOM     23  C   UNL d   1      -0.900  -1.004  -5.900  0.00  0.00     0.014 A 
ATOM     24  C   UNL d   1      -1.531  -1.093  -7.148  0.00  0.00     0.017 A 
ATOM     25  C   UNL d   1      -1.039  -1.956  -8.137  0.00  0.00     0.048 A 
ATOM     26  C   UNL d   1       0.098  -2.724  -7.853  0.00  0.00     0.017 A 
ATOM     27  C   UNL d   1       0.728  -2.632  -6.606  0.00  0.00     0.014 A 
BRANCH  25  28
ATOM     28  C   UNL d   1      -1.713  -2.083  -9.482  0.00  0.00     0.417 C 
ATOM     29  F   UNL d   1      -2.799  -1.273  -9.629  0.00  0.00    -0.166 F 
ATOM     30  F   UNL d   1      -0.877  -1.777 -10.513  0.00  0.00    -0.166 F 
ATOM     31  F   UNL d   1      -2.156  -3.348  -9.724  0.00  0.00    -0.166 F 
ENDBRANCH  25  28
ENDBRANCH   4  22
TORSDOF 7
