REMARK  6 active torsions:
REMARK  status: ('A' for Active; 'I' for Inactive)
REMARK    1  A    between atoms: C_13  and  C_1 
REMARK    2  A    between atoms: C_2  and  N_12 
REMARK    3  A    between atoms: N_8  and  C_2 
REMARK    4  A    between atoms: O_16  and  C_4 
REMARK    5  A    between atoms: N_12  and  N_6 
REMARK    6  A    between atoms: C_14  and  N_8 
ROOT
ATOM      1  N   UNL d   1       0.293   6.783   0.487  0.00  0.00    -0.309 N 
ATOM      2  HN  UNL d   1       0.235   7.602   1.093  1.00  0.00     0.186 HD
ATOM      3  C   UNL d   1       1.437   6.254   0.194  0.00  0.00     0.121 C 
ENDROOT
BRANCH   1   4
ATOM      4  N   UNL d   1      -0.831   6.219  -0.031  0.00  0.00    -0.277 N 
ATOM      5  H   UNL d   1      -0.802   5.273  -0.382  0.00  0.00     0.189 HD
BRANCH   4   6
ATOM      6  C   UNL d   1      -1.988   6.953  -0.106  0.00  0.00     0.187 C 
ATOM      7  S   UNL d   1      -2.074   8.630  -0.120  0.00  0.00    -0.040 SA
BRANCH   6   8
ATOM      8  N   UNL d   1      -3.179   6.292  -0.143  0.00  0.00    -0.358 N 
ATOM      9  H   UNL d   1      -3.934   6.965  -0.226  0.00  0.00     0.162 HD
BRANCH   8  10
ATOM     10  C   UNL d   1      -3.576   4.995   0.448  0.00  0.00     0.021 C 
ATOM     11  C   UNL d   1      -2.903   4.753   1.808  0.00  0.00     0.037 C 
ATOM     12  C   UNL d   1      -5.104   5.055   0.677  0.00  0.00     0.037 C 
ATOM     13  C   UNL d   1      -3.287   3.830  -0.505  0.00  0.00     0.037 C 
ENDBRANCH   8  10
ENDBRANCH   6   8
ENDBRANCH   4   6
ENDBRANCH   1   4
BRANCH   3  14
ATOM     14  C   UNL d   1       2.666   6.782   0.831  0.00  0.00     0.016 A 
ATOM     15  C   UNL d   1       3.936   6.413   0.384  0.00  0.00     0.093 A 
ATOM     16  C   UNL d   1       5.073   6.925   1.028  0.00  0.00     0.041 A 
ATOM     17  I   UNL d   1       7.003   6.423   0.395  0.00  0.00    -0.042 I 
ATOM     18  C   UNL d   1       4.944   7.789   2.119  0.00  0.00     0.039 A 
ATOM     19  C   UNL d   1       3.672   8.149   2.563  0.00  0.00     0.008 A 
ATOM     20  C   UNL d   1       2.536   7.658   1.921  0.00  0.00     0.034 A 
ATOM     21  I   UNL d   1       3.463   9.415   4.198  0.00  0.00    -0.045 I 
BRANCH  15  22
ATOM     22  O   UNL d   1       4.049   5.561  -0.683  0.00  0.00    -0.358 OA
ATOM     23  H   UNL d   1       4.998   5.459  -0.884  0.00  0.00     0.217 HD
ENDBRANCH  15  22
ENDBRANCH   3  14
TORSDOF 6
