REMARK  6 active torsions:
REMARK  status: ('A' for Active; 'I' for Inactive)
REMARK    1  A    between atoms: C_3  and  N_1 
REMARK    2  A    between atoms: C_4  and  C_2 
REMARK    3  A    between atoms: O_7  and  C_4 
REMARK    4  A    between atoms: C_11  and  O_7 
REMARK    5  A    between atoms: C_8  and  C_11 
REMARK    6  A    between atoms: O_13  and  C_8 
ROOT
ATOM      1  C   UNL d   1       0.768   1.954   1.153  0.00  0.00     0.072 A 
ATOM      2  C   UNL d   1       0.383   0.632   0.907  0.00  0.00     0.119 A 
ATOM      3  C   UNL d   1       0.099   2.660   2.165  0.00  0.00     0.020 A 
ATOM      4  C   UNL d   1      -0.654   0.020   1.630  0.00  0.00     0.037 A 
ATOM      5  C   UNL d   1      -0.932   2.057   2.895  0.00  0.00     0.001 A 
ATOM      6  C   UNL d   1      -1.309   0.741   2.627  0.00  0.00     0.002 A 
ENDROOT
BRANCH   1   7
ATOM      7  C   UNL d   1       1.863   2.660   0.447  0.00  0.00     0.296 C 
ATOM      8  O   UNL d   1       2.558   3.510   0.982  0.00  0.00    -0.259 OA
BRANCH   7   9
ATOM      9  O   UNL d   1       1.944   2.262  -0.840  0.00  0.00    -0.307 OA
BRANCH   9  10
ATOM     10  C   UNL d   1       3.038   2.824  -1.571  0.00  0.00     0.290 C 
BRANCH  10  11
ATOM     11  C   UNL d   1       2.736   4.184  -2.182  0.00  0.00     0.282 C 
ATOM     12  O   UNL d   1       1.675   4.788  -2.089  0.00  0.00    -0.263 OA
BRANCH  11  13
ATOM     13  O   UNL d   1       3.824   4.612  -2.890  0.00  0.00    -0.325 OA
ATOM     14  C   UNL d   1       3.641   5.863  -3.556  0.00  0.00     0.213 C 
ENDBRANCH  11  13
ENDBRANCH  10  11
ENDBRANCH   9  10
ENDBRANCH   7   9
ENDBRANCH   1   7
BRANCH   2  15
ATOM     15  N   UNL d   1       1.095  -0.191  -0.044  0.00  0.00    -0.115 N 
ATOM     16  O   UNL d   1       2.292  -0.409   0.184  0.00  0.00    -0.532 OA
ATOM     17  O   UNL d   1       0.440  -0.657  -0.987  0.00  0.00    -0.532 OA
ENDBRANCH   2  15
TORSDOF 6
