REMARK  4 active torsions:
REMARK  status: ('A' for Active; 'I' for Inactive)
REMARK    1  A    between atoms: C_7  and  N_1 
REMARK    2  A    between atoms: C_4  and  C_2 
REMARK    3  A    between atoms: C_3  and  C_9 
REMARK    4  A    between atoms: O_21  and  C_11 
ROOT
ATOM      1  C   UNL d   1      -3.289   2.675   4.020  0.00  0.00     0.038 C 
ATOM      2  C   UNL d   1      -2.194   3.253   3.475  0.00  0.00     0.055 C 
ATOM      3  C   UNL d   1      -1.381   2.518   2.535  0.00  0.00     0.100 C 
ATOM      4  N   UNL d   1      -0.699   1.923   1.808  0.00  0.00    -0.191 NA
ENDROOT
BRANCH   2   5
ATOM      5  C   UNL d   1      -1.823   4.655   3.847  0.00  0.00    -0.015 A 
ATOM      6  C   UNL d   1      -0.494   5.097   3.717  0.00  0.00     0.015 A 
ATOM      7  C   UNL d   1      -0.122   6.411   4.036  0.00  0.00     0.037 A 
ATOM      8  C   UNL d   1      -1.079   7.316   4.493  0.00  0.00     0.102 A 
ATOM      9  C   UNL d   1      -2.414   6.915   4.628  0.00  0.00     0.037 A 
ATOM     10  C   UNL d   1      -2.775   5.599   4.297  0.00  0.00     0.015 A 
BRANCH   8  11
ATOM     11  N   UNL d   1      -0.693   8.695   4.831  0.00  0.00    -0.116 N 
ATOM     12  O   UNL d   1      -1.578   9.459   5.236  0.00  0.00    -0.532 OA
ATOM     13  O   UNL d   1       0.499   9.008   4.690  0.00  0.00    -0.532 OA
ENDBRANCH   8  11
ENDBRANCH   2   5
BRANCH   1  14
ATOM     14  C   UNL d   1      -3.808   1.355   3.637  0.00  0.00    -0.000 A 
ATOM     15  C   UNL d   1      -4.841   1.145   2.704  0.00  0.00     0.078 A 
ATOM     16  C   UNL d   1      -5.179  -0.173   2.358  0.00  0.00     0.039 A 
ATOM     17  C   UNL d   1      -4.523  -1.268   2.920  0.00  0.00     0.022 A 
ATOM     18  C   UNL d   1      -3.523  -1.053   3.858  0.00  0.00     0.011 A 
ATOM     19  C   UNL d   1      -3.171   0.244   4.224  0.00  0.00     0.033 A 
ATOM     20 BR   UNL d   1      -2.619  -2.526   4.622  0.00  0.00    -0.051 Br
BRANCH  15  21
ATOM     21  O   UNL d   1      -5.612   2.048   2.026  0.00  0.00    -0.355 OA
ATOM     22  C   UNL d   1      -5.455   3.441   2.221  0.00  0.00     0.210 C 
ENDBRANCH  15  21
ENDBRANCH   1  14
TORSDOF 4
