REMARK  4 active torsions:
REMARK  status: ('A' for Active; 'I' for Inactive)
REMARK    1  A    between atoms: C_4  and  C_2 
REMARK    2  A    between atoms: C_8  and  C_3 
REMARK       I    between atoms: N_7  and  C_4 
REMARK    3  A    between atoms: C_10  and  N_7 
REMARK    4  A    between atoms: O_16  and  C_11 
ROOT
ATOM      1  C   UNL d   1      -0.175   2.689  -0.226  0.00  0.00     0.263 C 
ATOM      2  N   UNL d   1      -1.476   3.019  -0.586  0.00  0.00    -0.323 N 
ATOM      3  O   UNL d   1       0.661   3.520   0.130  0.00  0.00    -0.267 OA
ATOM      4  H   UNL d   1      -2.117   2.246  -0.718  0.00  0.00     0.169 HD
ENDROOT
BRANCH   1   5
ATOM      5  C   UNL d   1       0.178   1.272  -0.227  0.00  0.00     0.073 A 
ATOM      6  S   UNL d   1      -0.904   0.006  -0.587  0.00  0.00    -0.088 SA
ATOM      7  C   UNL d   1       0.252  -1.222  -0.185  0.00  0.00    -0.009 A 
ATOM      8  C   UNL d   1       1.477  -0.643   0.091  0.00  0.00     0.017 A 
ATOM      9  C   UNL d   1       1.429   0.774   0.082  0.00  0.00     0.025 A 
BRANCH   7  10
ATOM     10  C   UNL d   1      -0.139  -2.706  -0.138  0.00  0.00    -0.018 C 
ATOM     11  C   UNL d   1      -0.486  -3.230  -1.542  0.00  0.00     0.020 C 
ATOM     12  C   UNL d   1       1.018  -3.573   0.412  0.00  0.00     0.020 C 
ATOM     13  C   UNL d   1      -1.343  -2.902   0.805  0.00  0.00     0.020 C 
ENDBRANCH   7  10
ENDBRANCH   1   5
BRANCH   2  14
ATOM     14  C   UNL d   1      -2.021   4.327  -0.590  0.00  0.00     0.035 A 
ATOM     15  C   UNL d   1      -1.233   5.482  -0.564  0.00  0.00     0.032 A 
ATOM     16  C   UNL d   1      -1.806   6.754  -0.456  0.00  0.00     0.039 A 
ATOM     17  C   UNL d   1      -3.187   6.895  -0.378  0.00  0.00     0.068 A 
ATOM     18  C   UNL d   1      -3.986   5.753  -0.480  0.00  0.00     0.039 A 
ATOM     19  C   UNL d   1      -3.410   4.478  -0.599  0.00  0.00     0.032 A 
BRANCH  17  20
ATOM     20  O   UNL d   1      -3.860   8.072  -0.201  0.00  0.00    -0.356 OA
ATOM     21  C   UNL d   1      -3.063   9.232   0.027  0.00  0.00     0.210 C 
ENDBRANCH  17  20
ENDBRANCH   2  14
TORSDOF 4
