REMARK  1 active torsions:
REMARK  status: ('A' for Active; 'I' for Inactive)
REMARK    1  A    between atoms: C_5  and  C_3 
ROOT
ATOM      1  C   UNL d   1      -2.040   0.318   0.069  0.00  0.00    -0.006 C 
ATOM      2  C   UNL d   1      -1.067  -0.819   0.031  0.00  0.00     0.189 C 
ATOM      3  C   UNL d   1      -3.238   0.147  -0.520  0.00  0.00     0.023 C 
ATOM      4  C   UNL d   1       0.380  -0.452   0.057  0.00  0.00     0.021 A 
ATOM      5  C   UNL d   1       0.781   0.898   0.058  0.00  0.00    -0.044 A 
ATOM      6  C   UNL d   1      -1.532   1.561   0.739  0.00  0.00     0.047 C 
ATOM      7  O   UNL d   1      -1.429  -1.990  -0.036  0.00  0.00    -0.287 OA
ATOM      8  C   UNL d   1      -0.234   2.010   0.079  0.00  0.00     0.044 C 
ATOM      9  C   UNL d   1       1.345  -1.467   0.032  0.00  0.00     0.016 A 
ATOM     10  C   UNL d   1       2.147   1.208  -0.014  0.00  0.00     0.008 A 
ATOM     11  C   UNL d   1       2.702  -1.144  -0.017  0.00  0.00     0.001 A 
ATOM     12  C   UNL d   1       3.101   0.192  -0.050  0.00  0.00     0.001 A 
ENDROOT
BRANCH   3  13
ATOM     13  C   UNL d   1      -4.238   1.216  -0.634  0.00  0.00    -0.030 A 
ATOM     14  C   UNL d   1      -4.278   2.093  -1.737  0.00  0.00    -0.052 A 
ATOM     15  C   UNL d   1      -3.383   1.953  -2.938  0.00  0.00     0.049 C 
ATOM     16  C   UNL d   1      -5.183   3.169  -1.718  0.00  0.00     0.007 A 
ATOM     17  C   UNL d   1      -6.061   3.349  -0.650  0.00  0.00     0.001 A 
ATOM     18  C   UNL d   1      -6.053   2.451   0.412  0.00  0.00     0.001 A 
ATOM     19  C   UNL d   1      -5.143   1.393   0.423  0.00  0.00     0.012 A 
ENDBRANCH   3  13
TORSDOF 1
