REMARK  2 active torsions:
REMARK  status: ('A' for Active; 'I' for Inactive)
REMARK    1  A    between atoms: C_7  and  C_1 
REMARK    2  A    between atoms: C_14  and  C_8 
ROOT
ATOM      1  C   UNL d   1       1.196   1.161   0.029  0.00  0.00     0.167 A 
ATOM      2  N   UNL d   1       1.556  -0.081   0.088  0.00  0.00    -0.331 N 
ATOM      3  HN  UNL d   1       2.500  -0.465   0.134  1.00  0.00     0.168 HD
ATOM      4  O   UNL d   1      -0.131   1.421  -0.011  0.00  0.00    -0.255 OA
ATOM      5  C   UNL d   1       0.363  -0.755   0.073  0.00  0.00     0.111 A 
ATOM      6  C   UNL d   1      -0.770   0.216   0.030  0.00  0.00     0.316 A 
ATOM      7  C   UNL d   1       0.279  -2.094   0.070  0.00  0.00     0.047 C 
ATOM      8  O   UNL d   1      -1.969   0.031   0.020  0.00  0.00    -0.257 OA
ENDROOT
BRANCH   7   9
ATOM      9  C   UNL d   1      -0.965  -2.860   0.045  0.00  0.00    -0.031 A 
ATOM     10  C   UNL d   1      -1.588  -3.218   1.248  0.00  0.00     0.051 A 
ATOM     11  C   UNL d   1      -2.783  -3.901   1.173  0.00  0.00     0.105 A 
ATOM     12  O   UNL d   1      -3.535  -4.305   2.233  0.00  0.00    -0.323 OA
ATOM     13  C   UNL d   1      -3.353  -4.239  -0.032  0.00  0.00     0.105 A 
ATOM     14  C   UNL d   1      -4.680  -4.860   1.553  0.00  0.00     0.352 A 
ATOM     15  O   UNL d   1      -4.534  -4.896   0.119  0.00  0.00    -0.323 OA
ATOM     16  C   UNL d   1      -2.756  -3.920  -1.232  0.00  0.00     0.040 A 
ATOM     17  C   UNL d   1      -1.547  -3.219  -1.190  0.00  0.00     0.014 A 
ENDBRANCH   7   9
BRANCH   1  18
ATOM     18  C   UNL d   1       2.073   2.337  -0.026  0.00  0.00     0.076 A 
ATOM     19  C   UNL d   1       1.660   3.532   0.577  0.00  0.00     0.132 A 
ATOM     20  F   UNL d   1       0.480   3.615   1.208  0.00  0.00    -0.205 F 
ATOM     21  C   UNL d   1       2.469   4.667   0.569  0.00  0.00     0.043 A 
ATOM     22  C   UNL d   1       3.716   4.625  -0.044  0.00  0.00     0.005 A 
ATOM     23  C   UNL d   1       4.144   3.444  -0.651  0.00  0.00     0.025 A 
ATOM     24  C   UNL d   1       3.328   2.304  -0.648  0.00  0.00     0.051 A 
ATOM     25 CL   UNL d   1       3.946   0.922  -1.485  0.00  0.00    -0.083 Cl
ENDBRANCH   1  18
TORSDOF 2
