REMARK  10 active torsions:
REMARK  status: ('A' for Active; 'I' for Inactive)
REMARK    1  A    between atoms: O_10  and  C_3 
REMARK    2  A    between atoms: S_9  and  C_4 
REMARK    3  A    between atoms: C_11  and  C_5 
REMARK    4  A    between atoms: C_12  and  C_8 
REMARK    5  A    between atoms: C_15  and  C_11 
REMARK    6  A    between atoms: O_13  and  C_12 
REMARK    7  A    between atoms: C_18  and  C_15 
REMARK    8  A    between atoms: C_16  and  C_17 
REMARK    9  A    between atoms: C_17  and  C_19 
REMARK   10  A    between atoms: C_19  and  C_18 
ROOT
ATOM      1  N   UNL d   1       0.410   0.647   1.209  0.00  0.00    -0.317 N 
ATOM      2  HN  UNL d   1       0.675   1.074   2.097  1.00  0.00     0.170 HD
ATOM      3  C   UNL d   1      -0.310  -0.478   1.139  0.00  0.00     0.150 A 
ATOM      4  C   UNL d   1       0.759   1.168   0.029  0.00  0.00     0.143 A 
ATOM      5  C   UNL d   1      -0.701  -1.129  -0.014  0.00  0.00     0.018 A 
ATOM      6  N   UNL d   1       0.431   0.658  -1.164  0.00  0.00    -0.338 N 
ATOM      7  HN  UNL d   1       0.718   1.114  -2.029  1.00  0.00     0.168 HD
ATOM      8  C   UNL d   1      -0.298  -0.489  -1.184  0.00  0.00     0.045 A 
ENDROOT
BRANCH   5   9
ATOM      9  C   UNL d   1      -1.475  -2.419   0.016  0.00  0.00     0.045 C 
BRANCH   9  10
ATOM     10  C   UNL d   1      -2.997  -2.247   0.047  0.00  0.00     0.005 C 
BRANCH  10  11
ATOM     11  C   UNL d   1      -3.709  -3.602   0.025  0.00  0.00     0.000 C 
BRANCH  11  12
ATOM     12  C   UNL d   1      -5.227  -3.418   0.011  0.00  0.00     0.000 C 
BRANCH  12  13
ATOM     13  C   UNL d   1      -5.967  -4.755   0.006  0.00  0.00    -0.000 C 
BRANCH  13  14
ATOM     14  C   UNL d   1      -7.480  -4.533   0.004  0.00  0.00    -0.005 C 
ATOM     15  C   UNL d   1      -8.239  -5.849   0.005  0.00  0.00     0.005 C 
ENDBRANCH  13  14
ENDBRANCH  12  13
ENDBRANCH  11  12
ENDBRANCH  10  11
ENDBRANCH   9  10
ENDBRANCH   5   9
BRANCH   3  16
ATOM     16  O   UNL d   1      -0.629  -0.967   2.360  0.00  0.00    -0.346 OA
ATOM     17  H   UNL d   1      -0.205  -0.307   2.940  0.00  0.00     0.219 HD
ENDBRANCH   3  16
BRANCH   8  18
ATOM     18  C   UNL d   1      -0.642  -0.995  -2.566  0.00  0.00     0.224 C 
BRANCH  18  19
ATOM     19  O   UNL d   1      -2.045  -1.101  -2.815  0.00  0.00    -0.390 OA
ATOM     20  C   UNL d   1      -2.711   0.157  -2.790  0.00  0.00     0.201 C 
ENDBRANCH  18  19
ENDBRANCH   8  18
BRANCH   4  21
ATOM     21  S   UNL d   1       1.741   2.635   0.055  0.00  0.00    -0.107 SA
ATOM     22  H   UNL d   1       1.788   2.689   1.391  0.00  0.00     0.110 HD
ENDBRANCH   4  21
TORSDOF 10
