REMARK  6 active torsions:
REMARK  status: ('A' for Active; 'I' for Inactive)
REMARK    1  A    between atoms: C_3  and  C_1 
REMARK       I    between atoms: N_9  and  C_1 
REMARK    2  A    between atoms: C_2  and  C_4 
REMARK    3  A    between atoms: O_10  and  C_2 
REMARK    4  A    between atoms: C_5  and  C_12 
REMARK    5  A    between atoms: C_11  and  N_9 
REMARK    6  A    between atoms: C_12  and  C_11 
ROOT
ATOM      1  C   UNL d   1      -2.908  -2.392  -0.632  0.00  0.00     0.241 C 
ATOM      2  O   UNL d   1      -3.228  -3.524  -0.316  0.00  0.00    -0.269 OA
ATOM      3  N   UNL d   1      -2.179  -2.062  -1.757  0.00  0.00    -0.357 N 
ATOM      4  H   UNL d   1      -1.862  -1.108  -1.861  0.00  0.00     0.162 HD
ENDROOT
BRANCH   3   5
ATOM      5  C   UNL d   1      -1.542  -3.059  -2.604  0.00  0.00     0.127 C 
BRANCH   5   6
ATOM      6  C   UNL d   1      -2.516  -3.906  -3.434  0.00  0.00     0.053 C 
BRANCH   6   7
ATOM      7  C   UNL d   1      -1.787  -4.887  -4.335  0.00  0.00    -0.082 C 
ATOM      8  C   UNL d   1      -1.454  -4.584  -5.603  0.00  0.00    -0.024 C 
ATOM      9  C   UNL d   1      -0.766  -5.537  -6.539  0.00  0.00     0.027 C 
ATOM     10  C   UNL d   1      -0.804  -6.987  -6.056  0.00  0.00     0.004 C 
ATOM     11  C   UNL d   1      -0.496  -7.076  -4.566  0.00  0.00     0.005 C 
ATOM     12  C   UNL d   1      -1.479  -6.243  -3.739  0.00  0.00     0.034 C 
ENDBRANCH   6   7
ENDBRANCH   5   6
ENDBRANCH   3   5
BRANCH   1  13
ATOM     13  C   UNL d   1      -3.317  -1.181   0.128  0.00  0.00     0.080 C 
ATOM     14  C   UNL d   1      -3.546  -1.092   1.445  0.00  0.00     0.086 C 
BRANCH  14  15
ATOM     15  C   UNL d   1      -3.373  -2.108   2.487  0.00  0.00     0.165 C 
ATOM     16  O   UNL d   1      -4.000  -2.118   3.532  0.00  0.00    -0.647 OA
BRANCH  15  17
ATOM     17  O   UNL d   1      -2.358  -2.947   2.264  0.00  0.00    -0.773 OA
ATOM     18  H   UNL d   1      -2.396  -3.575   3.014  0.00  0.00     0.167 HD
ENDBRANCH  15  17
ENDBRANCH  14  15
ENDBRANCH   1  13
TORSDOF 6
