REMARK  6 active torsions:
REMARK  status: ('A' for Active; 'I' for Inactive)
REMARK    1  A    between atoms: C_9  and  C_1 
REMARK    2  A    between atoms: C_10  and  C_1 
REMARK    3  A    between atoms: C_11  and  C_6 
REMARK    4  A    between atoms: N_12  and  C_7 
REMARK    5  A    between atoms: O_21  and  C_13 
REMARK    6  A    between atoms: C_25  and  O_21 
ROOT
ATOM      1  C   UNL d   1       1.482  -0.359   0.051  0.00  0.00     0.308 C 
ATOM      2  N   UNL d   1       0.886   0.973  -0.207  0.00  0.00    -0.314 N 
ATOM      3  HN  UNL d   1       1.439   1.727  -0.615  1.00  0.00     0.166 HD
ATOM      4  N   UNL d   1       0.473  -1.428  -0.171  0.00  0.00    -0.328 N 
ATOM      5  HN  UNL d   1       0.732  -2.357  -0.504  1.00  0.00     0.164 HD
ATOM      6  C   UNL d   1      -0.742  -1.112   0.082  0.00  0.00     0.162 C 
ATOM      7  C   UNL d   1      -0.341   1.148   0.098  0.00  0.00     0.225 C 
ATOM      8  O   UNL d   1      -1.155   0.130   0.449  0.00  0.00    -0.262 OA
ENDROOT
BRANCH   6   9
ATOM      9  C   UNL d   1      -1.915  -2.038   0.017  0.00  0.00     0.049 A 
ATOM     10  C   UNL d   1      -1.795  -3.442   0.073  0.00  0.00     0.083 A 
ATOM     11  C   UNL d   1      -2.968  -4.227   0.075  0.00  0.00     0.038 A 
ATOM     12  C   UNL d   1      -4.231  -3.646  -0.049  0.00  0.00     0.003 A 
ATOM     13  C   UNL d   1      -4.346  -2.272  -0.170  0.00  0.00     0.001 A 
ATOM     14  C   UNL d   1      -3.204  -1.472  -0.134  0.00  0.00     0.018 A 
BRANCH  10  15
ATOM     15  O   UNL d   1      -0.542  -4.014   0.141  0.00  0.00    -0.350 OA
BRANCH  15  16
ATOM     16  C   UNL d   1      -0.464  -5.388  -0.257  0.00  0.00     0.171 C 
ATOM     17  C   UNL d   1       0.978  -5.787  -0.509  0.00  0.00     0.034 C 
ENDBRANCH  15  16
ENDBRANCH  10  15
ENDBRANCH   6   9
BRANCH   1  18
ATOM     18  C   UNL d   1       2.671  -0.532  -0.947  0.00  0.00     0.441 C 
ATOM     19  F   UNL d   1       3.062   0.655  -1.487  0.00  0.00    -0.166 F 
ATOM     20  F   UNL d   1       3.787  -1.099  -0.443  0.00  0.00    -0.166 F 
ATOM     21  F   UNL d   1       2.312  -1.308  -2.010  0.00  0.00    -0.166 F 
ENDBRANCH   1  18
BRANCH   1  22
ATOM     22  C   UNL d   1       2.042  -0.390   1.514  0.00  0.00     0.441 C 
ATOM     23  F   UNL d   1       2.046   0.848   2.080  0.00  0.00    -0.166 F 
ATOM     24  F   UNL d   1       1.242  -1.144   2.324  0.00  0.00    -0.166 F 
ATOM     25  F   UNL d   1       3.287  -0.878   1.669  0.00  0.00    -0.166 F 
ENDBRANCH   1  22
BRANCH   7  26
ATOM     26  N   UNL d   1      -0.952   2.387   0.051  0.00  0.00    -0.356 N 
ATOM     27  C   UNL d   1      -0.179   3.583  -0.265  0.00  0.00     0.152 C 
ATOM     28  C   UNL d   1      -2.275   2.660   0.596  0.00  0.00     0.152 C 
ENDBRANCH   7  26
TORSDOF 6
