REMARK  2 active torsions:
REMARK  status: ('A' for Active; 'I' for Inactive)
REMARK    1  A    between atoms: C_9  and  C_3 
REMARK    2  A    between atoms: C_12  and  C_6 
REMARK       I    between atoms: C_10  and  N_8 
ROOT
ATOM      1  N   UNL d   1       1.455  -0.174  -0.216  0.00  0.00    -0.322 N 
ATOM      2  HN  UNL d   1       2.470  -0.182  -0.319  1.00  0.00     0.169 HD
ATOM      3  C   UNL d   1       0.581   0.886  -0.341  0.00  0.00     0.144 A 
ATOM      4  N   UNL d   1      -0.713   0.550  -0.228  0.00  0.00    -0.242 N 
ATOM      5  HN  UNL d   1      -1.533   1.151  -0.316  1.00  0.00     0.196 HD
ATOM      6  C   UNL d   1       0.648  -1.168   0.069  0.00  0.00     0.152 A 
ATOM      7  O   UNL d   1      -0.670  -0.817   0.037  0.00  0.00    -0.222 OA
ENDROOT
BRANCH   6   8
ATOM      8  C   UNL d   1       0.936  -2.526   0.621  0.00  0.00     0.066 C 
ATOM      9  C   UNL d   1       1.827  -2.403   1.876  0.00  0.00     0.033 C 
ATOM     10  C   UNL d   1       3.313  -2.372   1.527  0.00  0.00     0.126 C 
ATOM     11  N   UNL d   1       3.613  -3.552   0.731  0.00  0.00    -0.352 N 
ATOM     12  C   UNL d   1       2.989  -3.520  -0.587  0.00  0.00     0.126 C 
ATOM     13  C   UNL d   1       4.005  -4.700   1.414  0.00  0.00     0.215 C 
ATOM     14  C   UNL d   1       1.466  -3.518  -0.435  0.00  0.00     0.033 C 
ATOM     15  O   UNL d   1       4.282  -4.693   2.614  0.00  0.00    -0.274 OA
ATOM     16  C   UNL d   1       4.106  -5.990   0.638  0.00  0.00     0.117 C 
ENDBRANCH   6   8
BRANCH   3  17
ATOM     17  C   UNL d   1       1.021   2.308  -0.495  0.00  0.00     0.050 A 
ATOM     18  S   UNL d   1       2.634   2.786  -0.785  0.00  0.00    -0.098 SA
ATOM     19  C   UNL d   1       2.212   4.446  -0.763  0.00  0.00     0.050 A 
ATOM     20  C   UNL d   1       0.869   4.634  -0.519  0.00  0.00     0.009 A 
ATOM     21  C   UNL d   1       0.176   3.396  -0.379  0.00  0.00     0.023 A 
ENDBRANCH   3  17
TORSDOF 2
