REMARK  3 active torsions:
REMARK  status: ('A' for Active; 'I' for Inactive)
REMARK    1  A    between atoms: C_2  and  N_1 
REMARK    2  A    between atoms: O_19  and  C_9 
REMARK    3  A    between atoms: O_20  and  C_10 
ROOT
ATOM      1  C   UNL d   1       1.291   1.854  -1.180  0.00  0.00     0.117 A 
ATOM      2  C   UNL d   1       1.762   1.679  -2.506  0.00  0.00     0.037 A 
ATOM      3  C   UNL d   1       2.625   2.685  -2.974  0.00  0.00     0.050 A 
ATOM      4  C   UNL d   1       1.409   0.635  -3.409  0.00  0.00     0.057 A 
ATOM      5  N   UNL d   1       1.600   2.950  -0.459  0.00  0.00    -0.338 N 
ATOM      6  HN  UNL d   1       1.240   3.089   0.485  1.00  0.00     0.168 HD
ATOM      7  C   UNL d   1       3.143   2.586  -4.263  0.00  0.00     0.070 A 
ATOM      8  C   UNL d   1       1.944   0.556  -4.703  0.00  0.00     0.102 A 
ATOM      9  C   UNL d   1       2.831   1.537  -5.139  0.00  0.00     0.103 A 
ATOM     10  N   UNL d   1       2.951   3.756  -2.253  0.00  0.00    -0.351 N 
ATOM     11  HN  UNL d   1       3.588   4.468  -2.608  1.00  0.00     0.166 HD
ATOM     12  C   UNL d   1       2.401   3.848  -1.041  0.00  0.00     0.182 A 
ENDROOT
BRANCH   1  13
ATOM     13  N   UNL d   1       0.443   0.913  -0.589  0.00  0.00    -0.362 N 
ATOM     14  C   UNL d   1      -0.441   1.373   0.506  0.00  0.00     0.156 C 
ATOM     15  C   UNL d   1       0.097   1.015   1.909  0.00  0.00     0.136 C 
ATOM     16  C   UNL d   1      -0.957   1.274   2.981  0.00  0.00     0.041 C 
ATOM     17  O   UNL d   1       0.427  -0.385   1.991  0.00  0.00    -0.378 OA
ATOM     18  C   UNL d   1       1.457  -0.706   1.044  0.00  0.00     0.136 C 
ATOM     19  C   UNL d   1       0.983  -0.445  -0.401  0.00  0.00     0.156 C 
ATOM     20  C   UNL d   1       1.798  -2.179   1.230  0.00  0.00     0.041 C 
ENDBRANCH   1  13
BRANCH   8  21
ATOM     21  O   UNL d   1       1.455  -0.398  -5.552  0.00  0.00    -0.353 OA
ATOM     22  C   UNL d   1       2.042  -1.680  -5.329  0.00  0.00     0.210 C 
ENDBRANCH   8  21
BRANCH   9  23
ATOM     23  O   UNL d   1       3.418   1.674  -6.366  0.00  0.00    -0.353 OA
ATOM     24  C   UNL d   1       3.526   0.533  -7.197  0.00  0.00     0.210 C 
ENDBRANCH   9  23
TORSDOF 3
