REMARK  2 active torsions:
REMARK  status: ('A' for Active; 'I' for Inactive)
REMARK    1  A    between atoms: C_15  and  N_8 
REMARK    2  A    between atoms: C_12  and  C_15 
ROOT
ATOM      1  C   UNL d   1       0.066  -0.732   0.040  0.00  0.00     0.101 A 
ATOM      2  C   UNL d   1       0.014   0.611   0.043  0.00  0.00     0.077 A 
ATOM      3  N   UNL d   1       1.289  -1.370  -0.057  0.00  0.00    -0.293 N 
ATOM      4  N   UNL d   1       2.438   0.691  -0.026  0.00  0.00    -0.270 N 
ATOM      5  C   UNL d   1       2.506  -0.690  -0.092  0.00  0.00     0.332 A 
ATOM      6  C   UNL d   1       1.257   1.403   0.030  0.00  0.00     0.262 A 
ATOM      7  N   UNL d   1      -1.128  -1.435   0.136  0.00  0.00    -0.252 NA
ATOM      8  N   UNL d   1      -2.456   0.576  -0.379  0.00  0.00     0.111 N 
ATOM      9  C   UNL d   1      -1.287   1.377   0.049  0.00  0.00     0.322 C 
ATOM     10  C   UNL d   1      -2.382  -0.715   0.295  0.00  0.00     0.369 C 
ATOM     11  O   UNL d   1       3.580  -1.292  -0.171  0.00  0.00    -0.246 OA
ATOM     12  O   UNL d   1       1.204   2.631   0.087  0.00  0.00    -0.267 OA
ATOM     13  C   UNL d   1       1.383  -2.824  -0.068  0.00  0.00     0.162 C 
ATOM     14  C   UNL d   1       3.671   1.454  -0.004  0.00  0.00     0.164 C 
ATOM     15  H   UNL d   1      -1.195  -2.132  -0.601  0.00  0.00     0.130 HD
ENDROOT
BRANCH   8  16
ATOM     16  C   UNL d   1      -3.703   1.295  -0.074  0.00  0.00     0.339 C 
BRANCH  16  17
ATOM     17  C   UNL d   1      -4.927   0.565  -0.520  0.00  0.00     0.081 A 
ATOM     18  O   UNL d   1      -5.516  -0.250   0.405  0.00  0.00    -0.325 OA
ATOM     19  C   UNL d   1      -6.598  -0.813  -0.192  0.00  0.00     0.142 A 
ATOM     20  C   UNL d   1      -6.720  -0.365  -1.486  0.00  0.00     0.027 A 
ATOM     21  C   UNL d   1      -5.638   0.522  -1.702  0.00  0.00     0.036 A 
ENDBRANCH  16  17
ENDBRANCH   8  16
TORSDOF 2
