REMARK  5 active torsions:
REMARK  status: ('A' for Active; 'I' for Inactive)
REMARK    1  A    between atoms: N_8  and  C_1 
REMARK    2  A    between atoms: N_6  and  C_2 
REMARK       I    between atoms: C_9  and  N_8 
REMARK    3  A    between atoms: O_17  and  C_9 
REMARK    4  A    between atoms: N_10  and  O_17 
REMARK    5  A    between atoms: C_20  and  C_18 
ROOT
ATOM      1  N   UNL d   1       2.595  -1.697  -0.068  0.00  0.00    -0.296 N 
ATOM      2  C   UNL d   1       2.667  -3.055  -0.268  0.00  0.00     0.387 C 
ATOM      3  O   UNL d   1       1.759  -3.783  -0.638  0.00  0.00    -0.236 OA
ATOM      4  H   UNL d   1       3.470  -1.205  -0.178  0.00  0.00     0.171 HD
ENDROOT
BRANCH   1   5
ATOM      5  C   UNL d   1       1.415  -0.981  -0.086  0.00  0.00     0.100 A 
ATOM      6  C   UNL d   1       1.220   0.280  -0.618  0.00  0.00     0.156 A 
ATOM      7  N   UNL d   1      -0.060   0.640  -0.270  0.00  0.00    -0.279 N 
ATOM      8  C   UNL d   1      -0.870   1.761  -0.694  0.00  0.00     0.179 C 
ATOM      9  N   UNL d   1      -0.690  -0.308   0.462  0.00  0.00    -0.306 N 
ATOM     10  C   UNL d   1       0.189  -1.309   0.525  0.00  0.00     0.141 A 
ATOM     11  HN  UNL d   1      -1.624  -0.266   0.871  1.00  0.00     0.186 HD
BRANCH   6  12
ATOM     12  N   UNL d   1       2.082   0.995  -1.452  0.00  0.00    -0.316 N 
ATOM     13  C   UNL d   1       2.176   2.364  -1.608  0.00  0.00     0.098 A 
ATOM     14  C   UNL d   1       3.142   2.654  -2.549  0.00  0.00     0.019 A 
ATOM     15  C   UNL d   1       3.675   1.430  -2.993  0.00  0.00     0.019 A 
ATOM     16  C   UNL d   1       3.019   0.435  -2.305  0.00  0.00     0.098 A 
ENDBRANCH   6  12
ENDBRANCH   1   5
BRANCH   2  17
ATOM     17  O   UNL d   1       3.952  -3.470  -0.011  0.00  0.00    -0.181 OA
BRANCH  17  18
ATOM     18  N   UNL d   1       4.519  -4.017  -1.179  0.00  0.00    -0.267 N 
ATOM     19  C   UNL d   1       5.618  -4.628  -0.854  0.00  0.00     0.126 C 
ATOM     20  HN  UNL d   1       4.131  -3.946  -2.120  1.00  0.00     0.194 HD
BRANCH  19  21
ATOM     21  C   UNL d   1       6.516  -5.213  -1.869  0.00  0.00    -0.019 A 
ATOM     22  C   UNL d   1       6.256  -5.033  -3.229  0.00  0.00     0.013 A 
ATOM     23  C   UNL d   1       7.141  -5.541  -4.180  0.00  0.00     0.001 A 
ATOM     24  C   UNL d   1       8.282  -6.231  -3.772  0.00  0.00     0.000 A 
ATOM     25  C   UNL d   1       8.541  -6.416  -2.412  0.00  0.00     0.001 A 
ATOM     26  C   UNL d   1       7.659  -5.905  -1.455  0.00  0.00     0.013 A 
ENDBRANCH  19  21
ENDBRANCH  17  18
ENDBRANCH   2  17
TORSDOF 5
