REMARK  3 active torsions:
REMARK  status: ('A' for Active; 'I' for Inactive)
REMARK    1  A    between atoms: C_5  and  C_1 
REMARK    2  A    between atoms: C_11  and  C_10 
REMARK    3  A    between atoms: C_13  and  C_12 
ROOT
ATOM      1  C   UNL d   1      -3.794   0.067   0.038  0.00  0.00     0.088 C 
ATOM      2  C   UNL d   1      -4.486   1.320   0.022  0.00  0.00     0.103 C 
ATOM      3  N   UNL d   1      -4.997   2.360   0.005  0.00  0.00    -0.191 NA
ATOM      4  C   UNL d   1      -4.470  -1.103   0.059  0.00  0.00     0.026 C 
ENDROOT
BRANCH   1   5
ATOM      5  C   UNL d   1      -2.363   0.041   0.016  0.00  0.00     0.127 A 
ATOM      6  N   UNL d   1      -1.520  -0.977   0.013  0.00  0.00    -0.339 N 
ATOM      7  C   UNL d   1      -0.257  -0.433  -0.019  0.00  0.00     0.060 A 
ATOM      8  HN  UNL d   1      -1.758  -1.969   0.030  1.00  0.00     0.167 HD
ATOM      9  C   UNL d   1       0.996  -1.063  -0.037  0.00  0.00     0.032 A 
ATOM     10  C   UNL d   1      -0.316   0.953  -0.035  0.00  0.00     0.060 A 
ATOM     11  C   UNL d   1       2.149  -0.266  -0.070  0.00  0.00     0.002 A 
ATOM     12  C   UNL d   1       2.056   1.128  -0.086  0.00  0.00     0.002 A 
ATOM     13  C   UNL d   1       0.814   1.773  -0.069  0.00  0.00     0.032 A 
ATOM     14  N   UNL d   1      -1.658   1.232  -0.011  0.00  0.00    -0.339 N 
ATOM     15  H   UNL d   1      -2.052   2.163  -0.015  0.00  0.00     0.167 HD
ENDBRANCH   1   5
BRANCH   4  16
ATOM     16  C   UNL d   1      -5.920  -1.226   0.059  0.00  0.00     0.002 C 
ATOM     17  C   UNL d   1      -6.593  -2.389   0.051  0.00  0.00     0.011 C 
BRANCH  17  18
ATOM     18  C   UNL d   1      -8.066  -2.462  -0.010  0.00  0.00    -0.036 A 
ATOM     19  C   UNL d   1      -8.833  -1.496  -0.680  0.00  0.00     0.011 A 
ATOM     20  C   UNL d   1     -10.224  -1.603  -0.754  0.00  0.00     0.001 A 
ATOM     21  C   UNL d   1     -10.869  -2.691  -0.173  0.00  0.00     0.000 A 
ATOM     22  C   UNL d   1     -10.123  -3.668   0.481  0.00  0.00     0.001 A 
ATOM     23  C   UNL d   1      -8.729  -3.558   0.560  0.00  0.00     0.011 A 
ENDBRANCH  17  18
ENDBRANCH   4  16
TORSDOF 3
