REMARK  6 active torsions:
REMARK  status: ('A' for Active; 'I' for Inactive)
REMARK    1  A    between atoms: C_4  and  C_1 
REMARK    2  A    between atoms: C_2  and  C_3 
REMARK    3  A    between atoms: N_8  and  C_6 
REMARK       I    between atoms: C_7  and  N_8 
REMARK    4  A    between atoms: C_9  and  C_7 
REMARK    5  A    between atoms: C_10  and  C_11 
REMARK    6  A    between atoms: O_22  and  C_10 
ROOT
ATOM      1  C   UNL d   1      -1.485  -3.163  -0.584  0.00  0.00     0.050 C 
ATOM      2  C   UNL d   1       0.217  -1.422  -0.559  0.00  0.00     0.050 C 
ATOM      3  C   UNL d   1      -1.117  -1.814  -0.709  0.00  0.00     0.032 C 
ATOM      4  C   UNL d   1       0.835  -3.729  -0.077  0.00  0.00     0.036 C 
ATOM      5  C   UNL d   1       1.186  -2.400  -0.311  0.00  0.00     0.045 C 
ATOM      6  C   UNL d   1      -0.500  -4.113  -0.250  0.00  0.00     0.045 C 
ENDROOT
BRANCH   4   7
ATOM      7  N   UNL d   1       1.751  -4.686   0.419  0.00  0.00    -0.324 N 
ATOM      8  C   UNL d   1       3.064  -4.417   0.786  0.00  0.00     0.245 C 
ATOM      9  O   UNL d   1       3.681  -3.387   0.581  0.00  0.00    -0.268 OA
ATOM     10  H   UNL d   1       1.378  -5.598   0.632  0.00  0.00     0.169 HD
BRANCH   8  11
ATOM     11  C   UNL d   1       3.704  -5.547   1.498  0.00  0.00     0.081 C 
ATOM     12  C   UNL d   1       4.934  -5.321   1.979  0.00  0.00     0.086 C 
BRANCH  12  13
ATOM     13  C   UNL d   1       5.739  -6.420   2.505  0.00  0.00     0.165 C 
ATOM     14  O   UNL d   1       5.398  -7.576   2.658  0.00  0.00    -0.647 OA
BRANCH  13  15
ATOM     15  O   UNL d   1       6.997  -5.989   2.685  0.00  0.00    -0.773 OA
ATOM     16  H   UNL d   1       7.531  -6.794   2.836  0.00  0.00     0.167 HD
ENDBRANCH  13  15
ENDBRANCH  12  13
ENDBRANCH   8  11
ENDBRANCH   4   7
BRANCH   2  17
ATOM     17  C   UNL d   1       0.641   0.026  -0.589  0.00  0.00     0.417 C 
ATOM     18  F   UNL d   1      -0.409   0.891  -0.531  0.00  0.00    -0.166 F 
ATOM     19  F   UNL d   1       1.338   0.348  -1.711  0.00  0.00    -0.166 F 
ATOM     20  F   UNL d   1       1.443   0.351   0.463  0.00  0.00    -0.166 F 
ENDBRANCH   2  17
BRANCH   1  21
ATOM     21  C   UNL d   1      -2.924  -3.585  -0.768  0.00  0.00     0.417 C 
ATOM     22  F   UNL d   1      -3.769  -2.543  -1.000  0.00  0.00    -0.166 F 
ATOM     23  F   UNL d   1      -3.084  -4.438  -1.816  0.00  0.00    -0.166 F 
ATOM     24  F   UNL d   1      -3.418  -4.232   0.324  0.00  0.00    -0.166 F 
ENDBRANCH   1  21
TORSDOF 6
