REMARK  6 active torsions:
REMARK  status: ('A' for Active; 'I' for Inactive)
REMARK    1  A    between atoms: C_8  and  C_1 
REMARK    2  A    between atoms: N_7  and  C_2 
REMARK    3  A    between atoms: S_3  and  N_7 
REMARK    4  A    between atoms: C_10  and  S_3 
REMARK    5  A    between atoms: C_9  and  C_5 
REMARK    6  A    between atoms: O_20  and  C_8 
ROOT
ATOM      1  C   UNL d   1      -0.049   1.359   0.212  0.00  0.00     0.108 A 
ATOM      2  C   UNL d   1       1.269   0.954   0.104  0.00  0.00     0.067 A 
ATOM      3  S   UNL d   1      -1.105   0.016   0.352  0.00  0.00    -0.081 SA
ATOM      4  C   UNL d   1       0.164  -1.123   0.199  0.00  0.00     0.025 A 
ATOM      5  C   UNL d   1       1.384  -0.474   0.114  0.00  0.00     0.052 A 
ENDROOT
BRANCH   2   6
ATOM      6  N   UNL d   1       2.375   1.795  -0.072  0.00  0.00    -0.279 N 
ATOM      7  H   UNL d   1       2.631   2.105  -1.010  0.00  0.00     0.179 HD
BRANCH   6   8
ATOM      8  S   UNL d   1       3.536   2.117   1.094  0.00  0.00     0.263 S 
ATOM      9  O   UNL d   1       3.752   0.933   1.900  0.00  0.00    -0.200 OA
ATOM     10  O   UNL d   1       4.631   2.768   0.407  0.00  0.00    -0.200 OA
BRANCH   8  11
ATOM     11  C   UNL d   1       2.724   3.343   2.093  0.00  0.00     0.079 A 
ATOM     12  C   UNL d   1       2.092   2.964   3.280  0.00  0.00     0.026 A 
ATOM     13  C   UNL d   1       1.461   3.934   4.062  0.00  0.00     0.008 A 
ATOM     14  C   UNL d   1       1.465   5.280   3.670  0.00  0.00    -0.062 A 
ATOM     15  C   UNL d   1       2.123   5.650   2.491  0.00  0.00     0.008 A 
ATOM     16  C   UNL d   1       0.774   6.306   4.523  0.00  0.00     0.048 C 
ATOM     17  C   UNL d   1       2.757   4.686   1.703  0.00  0.00     0.026 A 
ENDBRANCH   8  11
ENDBRANCH   6   8
ENDBRANCH   2   6
BRANCH   1  18
ATOM     18  C   UNL d   1      -0.647   2.678   0.229  0.00  0.00     0.302 C 
ATOM     19  O   UNL d   1      -1.741   2.965   0.702  0.00  0.00    -0.259 OA
BRANCH  18  20
ATOM     20  O   UNL d   1       0.165   3.579  -0.402  0.00  0.00    -0.322 OA
ATOM     21  C   UNL d   1      -0.382   4.896  -0.479  0.00  0.00     0.213 C 
ENDBRANCH  18  20
ENDBRANCH   1  18
BRANCH   4  22
ATOM     22  C   UNL d   1      -0.111  -2.544   0.165  0.00  0.00     0.022 A 
ATOM     23  S   UNL d   1       0.948  -3.653  -0.615  0.00  0.00    -0.101 SA
ATOM     24  C   UNL d   1      -0.047  -4.991  -0.240  0.00  0.00     0.050 A 
ATOM     25  C   UNL d   1      -1.169  -4.617   0.462  0.00  0.00     0.008 A 
ATOM     26  C   UNL d   1      -1.209  -3.210   0.687  0.00  0.00     0.021 A 
ENDBRANCH   4  22
TORSDOF 6
