REMARK  5 active torsions:
REMARK  status: ('A' for Active; 'I' for Inactive)
REMARK    1  A    between atoms: N_3  and  C_1 
REMARK    2  A    between atoms: O_5  and  C_2 
REMARK    3  A    between atoms: C_4  and  O_5 
REMARK    4  A    between atoms: C_10  and  C_4 
REMARK    5  A    between atoms: C_6  and  C_8 
ROOT
ATOM      1  C   UNL d   1       2.195  -1.172   0.555  0.00  0.00     0.139 A 
ATOM      2  C   UNL d   1       0.799  -1.001   0.519  0.00  0.00     0.130 A 
ATOM      3  C   UNL d   1       3.051  -0.064   0.373  0.00  0.00     0.055 A 
ATOM      4  C   UNL d   1       2.528   1.219   0.156  0.00  0.00     0.051 A 
ATOM      5  C   UNL d   1       0.279   0.290   0.342  0.00  0.00     0.048 A 
ATOM      6  C   UNL d   1       1.135   1.381   0.137  0.00  0.00     0.038 A 
ATOM      7 BR   UNL d   1      -1.576   0.681   0.493  0.00  0.00    -0.048 Br
ENDROOT
BRANCH   2   8
ATOM      8  O   UNL d   1      -0.069  -2.070   0.833  0.00  0.00    -0.271 OA
BRANCH   8   9
ATOM      9  C   UNL d   1      -0.944  -2.529  -0.135  0.00  0.00     0.299 C 
ATOM     10  O   UNL d   1      -0.985  -2.118  -1.288  0.00  0.00    -0.259 OA
BRANCH   9  11
ATOM     11  C   UNL d   1      -1.889  -3.573   0.407  0.00  0.00     0.045 A 
ATOM     12  C   UNL d   1      -1.790  -4.249   1.644  0.00  0.00    -0.046 A 
ATOM     13  C   UNL d   1      -0.745  -4.021   2.703  0.00  0.00     0.049 C 
ATOM     14  C   UNL d   1      -2.700  -5.298   1.918  0.00  0.00     0.008 A 
ATOM     15  C   UNL d   1      -3.731  -5.626   1.041  0.00  0.00     0.001 A 
ATOM     16  C   UNL d   1      -3.877  -4.911  -0.137  0.00  0.00     0.001 A 
ATOM     17  C   UNL d   1      -2.962  -3.902  -0.454  0.00  0.00     0.018 A 
ENDBRANCH   9  11
ENDBRANCH   8   9
ENDBRANCH   2   8
BRANCH   1  18
ATOM     18  N   UNL d   1       2.824  -2.471   0.836  0.00  0.00    -0.113 N 
ATOM     19  O   UNL d   1       2.115  -3.486   0.853  0.00  0.00    -0.532 OA
ATOM     20  O   UNL d   1       4.045  -2.478   1.043  0.00  0.00    -0.532 OA
ENDBRANCH   1  18
BRANCH   4  21
ATOM     21  C   UNL d   1       3.427   2.422  -0.026  0.00  0.00     0.417 C 
ATOM     22  F   UNL d   1       4.749   2.137   0.118  0.00  0.00    -0.166 F 
ATOM     23  F   UNL d   1       3.293   2.985  -1.256  0.00  0.00    -0.166 F 
ATOM     24  F   UNL d   1       3.156   3.407   0.873  0.00  0.00    -0.166 F 
ENDBRANCH   4  21
TORSDOF 5
