REMARK  6 active torsions:
REMARK  status: ('A' for Active; 'I' for Inactive)
REMARK    1  A    between atoms: C_7  and  C_1 
REMARK    2  A    between atoms: N_11  and  N_2 
REMARK    3  A    between atoms: O_19  and  C_5 
REMARK       I    between atoms: C_6  and  N_11 
REMARK    4  A    between atoms: C_16  and  C_6 
REMARK    5  A    between atoms: O_20  and  C_8 
REMARK    6  A    between atoms: C_13  and  C_16 
ROOT
ATOM      1  C   UNL d   1       0.079   7.926   0.431  0.00  0.00     0.240 C 
ATOM      2  N   UNL d   1      -0.261   7.757   1.767  0.00  0.00    -0.270 N 
ATOM      3  O   UNL d   1      -0.580   8.576  -0.383  0.00  0.00    -0.272 OA
ATOM      4  H   UNL d   1       0.345   7.267   2.418  0.00  0.00     0.190 HD
ENDROOT
BRANCH   1   5
ATOM      5  C   UNL d   1       1.359   7.233   0.019  0.00  0.00     0.143 C 
BRANCH   5   6
ATOM      6  C   UNL d   1       2.609   8.079   0.086  0.00  0.00    -0.047 A 
ATOM      7  C   UNL d   1       3.855   7.428   0.136  0.00  0.00     0.047 A 
ATOM      8  C   UNL d   1       5.063   8.145   0.145  0.00  0.00     0.102 A 
ATOM      9  C   UNL d   1       5.026   9.543   0.053  0.00  0.00     0.101 A 
ATOM     10  C   UNL d   1       3.787  10.194   0.008  0.00  0.00     0.040 A 
ATOM     11  C   UNL d   1       2.591   9.474   0.011  0.00  0.00     0.010 A 
BRANCH   8  12
ATOM     12  O   UNL d   1       6.280   7.517   0.203  0.00  0.00    -0.353 OA
ATOM     13  C   UNL d   1       6.323   6.298   0.935  0.00  0.00     0.210 C 
ENDBRANCH   8  12
BRANCH   9  14
ATOM     14  O   UNL d   1       6.093  10.403   0.056  0.00  0.00    -0.353 OA
ATOM     15  C   UNL d   1       7.287   9.939  -0.561  0.00  0.00     0.210 C 
ENDBRANCH   9  14
ENDBRANCH   5   6
ENDBRANCH   1   5
BRANCH   2  16
ATOM     16  N   UNL d   1      -1.413   8.330   2.198  0.00  0.00    -0.308 N 
ATOM     17  C   UNL d   1      -1.764   8.191   3.433  0.00  0.00     0.126 C 
ATOM     18  HN  UNL d   1      -1.996   8.864   1.553  1.00  0.00     0.186 HD
BRANCH  17  19
ATOM     19  C   UNL d   1      -2.993   8.816   3.861  0.00  0.00     0.021 A 
ATOM     20  S   UNL d   1      -3.533   8.672   5.472  0.00  0.00    -0.101 SA
ATOM     21  C   UNL d   1      -4.923   9.624   5.153  0.00  0.00     0.050 A 
ATOM     22  C   UNL d   1      -4.977  10.040   3.842  0.00  0.00     0.008 A 
ATOM     23  C   UNL d   1      -3.861   9.571   3.096  0.00  0.00     0.021 A 
ENDBRANCH  17  19
ENDBRANCH   2  16
TORSDOF 6
