REMARK  6 active torsions:
REMARK  status: ('A' for Active; 'I' for Inactive)
REMARK    1  A    between atoms: O_7  and  C_3 
REMARK    2  A    between atoms: S_13  and  C_4 
REMARK    3  A    between atoms: C_5  and  C_12 
REMARK    4  A    between atoms: C_6  and  O_7 
REMARK    5  A    between atoms: C_8  and  C_6 
REMARK    6  A    between atoms: C_12  and  S_13 
ROOT
ATOM      1  N   UNL d   1       1.663  -0.005  -0.288  0.00  0.00    -0.317 N 
ATOM      2  HN  UNL d   1       2.669  -0.021  -0.460  1.00  0.00     0.170 HD
ATOM      3  C   UNL d   1       0.996  -1.105   0.116  0.00  0.00     0.155 A 
ATOM      4  C   UNL d   1       0.937   1.113  -0.452  0.00  0.00     0.146 A 
ATOM      5  N   UNL d   1      -0.389   1.192  -0.253  0.00  0.00    -0.341 N 
ATOM      6  HN  UNL d   1      -0.896   2.063  -0.403  1.00  0.00     0.167 HD
ATOM      7  C   UNL d   1      -0.357  -1.109   0.368  0.00  0.00     0.081 A 
ATOM      8  C   UNL d   1      -1.021   0.079   0.152  0.00  0.00     0.011 A 
ATOM      9  C   UNL d   1      -2.514   0.137   0.264  0.00  0.00     0.068 C 
ENDROOT
BRANCH   4  10
ATOM     10  S   UNL d   1       1.781   2.576  -1.020  0.00  0.00    -0.089 SA
BRANCH  10  11
ATOM     11  C   UNL d   1       0.398   3.764  -0.963  0.00  0.00     0.124 C 
BRANCH  11  12
ATOM     12  C   UNL d   1       0.780   5.144  -1.454  0.00  0.00    -0.005 A 
ATOM     13  C   UNL d   1       0.653   5.500  -2.812  0.00  0.00     0.042 A 
ATOM     14 CL   UNL d   1       0.076   4.389  -4.007  0.00  0.00    -0.084 Cl
ATOM     15  C   UNL d   1       0.975   6.789  -3.260  0.00  0.00     0.024 A 
ATOM     16  C   UNL d   1       1.438   7.749  -2.367  0.00  0.00     0.003 A 
ATOM     17  C   UNL d   1       1.583   7.418  -1.024  0.00  0.00     0.024 A 
ATOM     18  C   UNL d   1       1.263   6.131  -0.571  0.00  0.00     0.042 A 
ATOM     19 CL   UNL d   1       1.474   5.831   1.121  0.00  0.00    -0.084 Cl
ENDBRANCH  11  12
ENDBRANCH  10  11
ENDBRANCH   4  10
BRANCH   3  20
ATOM     20  O   UNL d   1       1.799  -2.273   0.171  0.00  0.00    -0.256 OA
BRANCH  20  21
ATOM     21  C   UNL d   1       1.348  -3.554   0.502  0.00  0.00     0.323 C 
ATOM     22  O   UNL d   1       0.228  -3.834   0.911  0.00  0.00    -0.257 OA
BRANCH  21  23
ATOM     23  C   UNL d   1       2.387  -4.532   0.275  0.00  0.00     0.150 A 
ATOM     24  O   UNL d   1       3.613  -4.156  -0.203  0.00  0.00    -0.317 OA
ATOM     25  C   UNL d   1       4.362  -5.282  -0.330  0.00  0.00     0.143 A 
ATOM     26  C   UNL d   1       3.643  -6.387   0.060  0.00  0.00     0.027 A 
ATOM     27  C   UNL d   1       2.371  -5.907   0.449  0.00  0.00     0.045 A 
ENDBRANCH  21  23
ENDBRANCH  20  21
ENDBRANCH   3  20
TORSDOF 6
