REMARK  3 active torsions:
REMARK  status: ('A' for Active; 'I' for Inactive)
REMARK    1  A    between atoms: N_2  and  S_1 
REMARK    2  A    between atoms: C_4  and  S_1 
REMARK    3  A    between atoms: C_3  and  N_2 
ROOT
ATOM      1  S   UNL d   1       0.851  -0.304  -0.256  0.00  0.00     0.247 S 
ATOM      2  O   UNL d   1       0.799  -1.186  -1.404  0.00  0.00    -0.205 OA
ATOM      3  O   UNL d   1       2.041  -0.238   0.562  0.00  0.00    -0.205 OA
ENDROOT
BRANCH   1   4
ATOM      4  N   UNL d   1      -0.466  -0.656   0.780  0.00  0.00    -0.165 NA
ATOM      5  H   UNL d   1      -0.463   0.007   1.555  0.00  0.00     0.147 HD
BRANCH   4   6
ATOM      6  C   UNL d   1      -1.731  -0.810   0.115  0.00  0.00     0.111 A 
ATOM      7  N   UNL d   1      -2.165  -1.820  -0.708  0.00  0.00    -0.285 N 
ATOM      8  N   UNL d   1      -3.406  -1.593  -1.196  0.00  0.00    -0.309 N 
ATOM      9  C   UNL d   1      -1.550  -3.103  -0.958  0.00  0.00     0.179 C 
ATOM     10  C   UNL d   1      -3.775  -0.453  -0.608  0.00  0.00     0.110 A 
ATOM     11  HN  UNL d   1      -3.936  -2.159  -1.858  1.00  0.00     0.186 HD
ATOM     12  C   UNL d   1      -2.783   0.062   0.244  0.00  0.00     0.063 A 
ENDBRANCH   4   6
ENDBRANCH   1   4
BRANCH   1  13
ATOM     13  C   UNL d   1       0.455   1.368  -0.803  0.00  0.00     0.081 A 
ATOM     14  C   UNL d   1      -0.149   1.480  -2.072  0.00  0.00     0.033 A 
ATOM     15  C   UNL d   1      -0.467   2.730  -2.626  0.00  0.00    -0.039 A 
ATOM     16  C   UNL d   1      -1.085   2.797  -3.994  0.00  0.00     0.050 C 
ATOM     17  C   UNL d   1      -0.154   3.880  -1.895  0.00  0.00     0.040 A 
ATOM     18  C   UNL d   1       0.439   3.776  -0.634  0.00  0.00     0.032 A 
ATOM     19 CL   UNL d   1      -0.469   5.462  -2.511  0.00  0.00    -0.084 Cl
ATOM     20  C   UNL d   1       0.746   2.527  -0.056  0.00  0.00    -0.037 A 
ATOM     21  C   UNL d   1       1.400   2.568   1.296  0.00  0.00     0.050 C 
ENDBRANCH   1  13
TORSDOF 3
