REMARK  3 active torsions:
REMARK  status: ('A' for Active; 'I' for Inactive)
REMARK    1  A    between atoms: C_9  and  C_3 
REMARK    2  A    between atoms: C_10  and  C_4 
REMARK    3  A    between atoms: C_6  and  C_8 
ROOT
ATOM      1  N   UNL d   1       1.403  -0.593  -0.074  0.00  0.00    -0.349 N 
ATOM      2  HN  UNL d   1       2.287  -1.097  -0.145  1.00  0.00     0.166 HD
ATOM      3  C   UNL d   1       0.213  -1.164  -0.015  0.00  0.00     0.084 A 
ATOM      4  C   UNL d   1       1.282   0.790  -0.027  0.00  0.00     0.050 A 
ATOM      5  S   UNL d   1      -1.111  -0.055  -0.004  0.00  0.00    -0.081 SA
ATOM      6  C   UNL d   1      -0.017   1.255  -0.004  0.00  0.00     0.082 A 
ENDROOT
BRANCH   3   7
ATOM      7  C   UNL d   1      -0.024  -2.620  -0.001  0.00  0.00    -0.002 A 
ATOM      8  C   UNL d   1      -1.171  -3.188   0.575  0.00  0.00     0.015 A 
ATOM      9  C   UNL d   1      -1.377  -4.572   0.567  0.00  0.00     0.017 A 
ATOM     10  C   UNL d   1      -0.436  -5.429  -0.015  0.00  0.00     0.048 A 
ATOM     11  C   UNL d   1       0.722  -4.872  -0.578  0.00  0.00     0.017 A 
ATOM     12  C   UNL d   1       0.927  -3.487  -0.566  0.00  0.00     0.015 A 
BRANCH  10  13
ATOM     13  C   UNL d   1      -0.657  -6.922  -0.037  0.00  0.00     0.417 C 
ATOM     14  F   UNL d   1      -1.826  -7.307   0.548  0.00  0.00    -0.166 F 
ATOM     15  F   UNL d   1      -0.694  -7.425  -1.302  0.00  0.00    -0.166 F 
ATOM     16  F   UNL d   1       0.326  -7.606   0.611  0.00  0.00    -0.166 F 
ENDBRANCH  10  13
ENDBRANCH   3   7
BRANCH   4  17
ATOM     17  C   UNL d   1       2.446   1.669  -0.044  0.00  0.00    -0.009 A 
ATOM     18  C   UNL d   1       3.618   1.264  -0.694  0.00  0.00     0.014 A 
ATOM     19  C   UNL d   1       4.727   2.115  -0.759  0.00  0.00     0.007 A 
ATOM     20  C   UNL d   1       4.687   3.382  -0.166  0.00  0.00    -0.062 A 
ATOM     21  C   UNL d   1       3.528   3.780   0.507  0.00  0.00     0.007 A 
ATOM     22  C   UNL d   1       5.876   4.292  -0.254  0.00  0.00     0.048 C 
ATOM     23  C   UNL d   1       2.420   2.930   0.570  0.00  0.00     0.014 A 
ENDBRANCH   4  17
TORSDOF 3
