REMARK  6 active torsions:
REMARK  status: ('A' for Active; 'I' for Inactive)
REMARK    1  A    between atoms: N_10  and  C_1 
REMARK    2  A    between atoms: N_14  and  C_1 
REMARK    3  A    between atoms: N_9  and  C_4 
REMARK    4  A    between atoms: C_5  and  C_13 
REMARK    5  A    between atoms: N_6  and  N_10 
REMARK    6  A    between atoms: C_13  and  N_6 
ROOT
ATOM      1  C   UNL d   1      -5.372  -1.580   0.430  0.00  0.00     0.054 A 
ATOM      2  C   UNL d   1      -3.965  -1.587   0.419  0.00  0.00     0.047 A 
ATOM      3  C   UNL d   1      -6.117  -1.587   1.624  0.00  0.00     0.031 A 
ATOM      4  C   UNL d   1      -3.260  -1.592   1.621  0.00  0.00     0.003 A 
ATOM      5  C   UNL d   1      -3.980  -1.617   2.820  0.00  0.00     0.017 A 
ATOM      6  C   UNL d   1      -5.377  -1.620   2.813  0.00  0.00     0.030 A 
ATOM      7 CL   UNL d   1      -3.181  -1.577  -1.122  0.00  0.00    -0.083 Cl
ENDROOT
BRANCH   4   8
ATOM      8  C   UNL d   1      -1.783  -1.547   1.685  0.00  0.00     0.120 C 
BRANCH   8   9
ATOM      9  N   UNL d   1      -1.180  -1.553   2.832  0.00  0.00    -0.309 N 
ATOM     10  HN  UNL d   1      -1.695  -1.610   3.711  1.00  0.00     0.186 HD
BRANCH   9  11
ATOM     11  N   UNL d   1       0.182  -1.478   2.798  0.00  0.00    -0.277 N 
ATOM     12  H   UNL d   1       0.679  -1.387   1.918  0.00  0.00     0.189 HD
BRANCH  11  13
ATOM     13  C   UNL d   1       0.897  -1.479   3.966  0.00  0.00     0.184 C 
ATOM     14  S   UNL d   1       2.550  -1.353   4.004  0.00  0.00    -0.040 SA
BRANCH  13  15
ATOM     15  N   UNL d   1       0.158  -1.594   5.094  0.00  0.00    -0.375 N 
ATOM     16  H   UNL d   1       0.577  -1.599   6.015  0.00  0.00     0.158 HD
ATOM     17  H   UNL d   1      -0.847  -1.653   4.976  0.00  0.00     0.158 HD
ENDBRANCH  13  15
ENDBRANCH  11  13
ENDBRANCH   9  11
ENDBRANCH   8   9
ENDBRANCH   4   8
BRANCH   3  18
ATOM     18  N   UNL d   1      -7.500  -1.533   1.624  0.00  0.00    -0.390 N 
ATOM     19  C   UNL d   1      -8.300  -2.110   0.547  0.00  0.00     0.149 C 
ATOM     20  C   UNL d   1      -8.260  -1.054   2.775  0.00  0.00     0.149 C 
ENDBRANCH   3  18
TORSDOF 6
