REMARK  3 active torsions:
REMARK  status: ('A' for Active; 'I' for Inactive)
REMARK    1  A    between atoms: C_11  and  C_8 
REMARK    2  A    between atoms: O_10  and  C_9 
REMARK    3  A    between atoms: C_14  and  O_10 
ROOT
ATOM      1  C   UNL d   1      -1.026  -2.049   0.754  0.00  0.00     0.125 C 
ATOM      2  N   UNL d   1      -1.077  -3.946   2.507  0.00  0.00    -0.191 NA
ATOM      3  N   UNL d   1      -3.123  -0.572   0.436  0.00  0.00    -0.191 NA
ATOM      4  C   UNL d   1      -1.054  -3.093   1.720  0.00  0.00     0.111 C 
ATOM      5  C   UNL d   1      -2.189  -1.241   0.595  0.00  0.00     0.111 C 
ATOM      6  C   UNL d   1       0.050  -1.805  -0.020  0.00  0.00     0.046 C 
ENDROOT
BRANCH   6   7
ATOM      7  C   UNL d   1       1.296  -2.572  -0.011  0.00  0.00    -0.018 A 
ATOM      8  C   UNL d   1       1.467  -3.654  -0.869  0.00  0.00     0.101 A 
ATOM      9  N   UNL d   1       2.587  -4.402  -0.922  0.00  0.00    -0.346 N 
ATOM     10  C   UNL d   1       3.579  -4.088  -0.059  0.00  0.00     0.147 A 
ATOM     11  HN  UNL d   1       2.682  -5.172  -1.585  1.00  0.00     0.167 HD
ATOM     12  C   UNL d   1       3.522  -3.009   0.809  0.00  0.00     0.057 A 
ATOM     13  C   UNL d   1       2.356  -2.242   0.837  0.00  0.00     0.017 A 
BRANCH  10  14
ATOM     14  O   UNL d   1       4.726  -4.872  -0.025  0.00  0.00    -0.294 OA
BRANCH  14  15
ATOM     15  C   UNL d   1       4.565  -6.218  -0.282  0.00  0.00     0.077 A 
ATOM     16  C   UNL d   1       5.563  -6.851  -1.023  0.00  0.00     0.037 A 
ATOM     17  C   UNL d   1       5.448  -8.210  -1.326  0.00  0.00     0.003 A 
ATOM     18  C   UNL d   1       4.343  -8.936  -0.881  0.00  0.00     0.000 A 
ATOM     19  C   UNL d   1       3.365  -8.313  -0.107  0.00  0.00     0.003 A 
ATOM     20  C   UNL d   1       3.486  -6.962   0.210  0.00  0.00     0.037 A 
ENDBRANCH  14  15
ENDBRANCH  10  14
ENDBRANCH   6   7
TORSDOF 3
