REMARK  2 active torsions:
REMARK  status: ('A' for Active; 'I' for Inactive)
REMARK    1  A    between atoms: C_2  and  S_1 
REMARK    2  A    between atoms: C_3  and  S_1 
ROOT
ATOM      1  S   UNL d   1       0.971   0.042  -0.112  0.00  0.00     0.206 S 
ATOM      2  O   UNL d   1       0.483   1.308  -0.626  0.00  0.00    -0.217 OA
ATOM      3  O   UNL d   1       0.629  -1.201  -0.779  0.00  0.00    -0.217 OA
ENDROOT
BRANCH   1   4
ATOM      4  C   UNL d   1       0.428  -0.093   1.580  0.00  0.00     0.065 A 
ATOM      5  C   UNL d   1       0.109   1.061   2.305  0.00  0.00     0.033 A 
ATOM      6  C   UNL d   1      -0.351   0.948   3.624  0.00  0.00    -0.021 A 
ATOM      7  C   UNL d   1      -0.699   2.158   4.439  0.00  0.00     0.051 C 
ATOM      8  C   UNL d   1      -0.493  -0.328   4.187  0.00  0.00     0.128 A 
ATOM      9  C   UNL d   1      -0.188  -1.487   3.466  0.00  0.00    -0.021 A 
ATOM     10  F   UNL d   1      -0.935  -0.434   5.449  0.00  0.00    -0.205 F 
ATOM     11  C   UNL d   1       0.270  -1.363   2.148  0.00  0.00     0.033 A 
ATOM     12  C   UNL d   1      -0.350  -2.846   4.078  0.00  0.00     0.051 C 
ENDBRANCH   1   4
BRANCH   1  13
ATOM     13  C   UNL d   1       2.749   0.141  -0.073  0.00  0.00     0.066 A 
ATOM     14  C   UNL d   1       3.504  -1.035  -0.123  0.00  0.00     0.049 A 
ATOM     15  C   UNL d   1       4.901  -0.959  -0.108  0.00  0.00     0.057 A 
ATOM     16 CL   UNL d   1       5.784  -2.443  -0.157  0.00  0.00    -0.083 Cl
ATOM     17  C   UNL d   1       5.535   0.290  -0.055  0.00  0.00     0.055 A 
ATOM     18  C   UNL d   1       4.769   1.461  -0.037  0.00  0.00     0.027 A 
ATOM     19 CL   UNL d   1       7.254   0.455  -0.011  0.00  0.00    -0.083 Cl
ATOM     20  C   UNL d   1       3.373   1.390  -0.053  0.00  0.00     0.025 A 
ENDBRANCH   1  13
TORSDOF 2
