REMARK  7 active torsions:
REMARK  status: ('A' for Active; 'I' for Inactive)
REMARK    1  A    between atoms: N_2  and  S_1 
REMARK    2  A    between atoms: C_6  and  S_1 
REMARK    3  A    between atoms: C_4  and  N_2 
REMARK    4  A    between atoms: C_9  and  N_2 
REMARK    5  A    between atoms: C_3  and  C_4 
REMARK    6  A    between atoms: C_15  and  C_9 
REMARK    7  A    between atoms: O_26  and  C_17 
ROOT
ATOM      1  N   UNL d   1       0.448   1.432   0.011  0.00  0.00    -0.197 NA
ENDROOT
BRANCH   1   2
ATOM      2  S   UNL d   1       1.238  -0.117  -0.062  0.00  0.00     0.244 S 
ATOM      3  O   UNL d   1       0.323  -1.114   0.461  0.00  0.00    -0.206 OA
ATOM      4  O   UNL d   1       2.585  -0.033   0.460  0.00  0.00    -0.206 OA
BRANCH   2   5
ATOM      5  C   UNL d   1       1.428  -0.437  -1.815  0.00  0.00     0.074 A 
ATOM      6  C   UNL d   1       2.565   0.060  -2.474  0.00  0.00     0.028 A 
ATOM      7  C   UNL d   1       2.882  -0.398  -3.756  0.00  0.00     0.044 A 
ATOM      8  C   UNL d   1       2.072  -1.349  -4.364  0.00  0.00     0.116 A 
ATOM      9  C   UNL d   1       0.935  -1.837  -3.726  0.00  0.00     0.044 A 
ATOM     10  F   UNL d   1       2.414  -1.837  -5.565  0.00  0.00    -0.206 F 
ATOM     11  C   UNL d   1       0.608  -1.381  -2.444  0.00  0.00     0.028 A 
ENDBRANCH   2   5
ENDBRANCH   1   2
BRANCH   1  12
ATOM     12  C   UNL d   1      -1.044   1.254  -0.013  0.00  0.00     0.165 C 
BRANCH  12  13
ATOM     13  C   UNL d   1      -1.806   2.542   0.111  0.00  0.00     0.025 A 
ATOM     14  N   UNL d   1      -1.798   3.559  -0.817  0.00  0.00    -0.363 N 
ATOM     15  C   UNL d   1      -2.590   4.592  -0.377  0.00  0.00     0.090 A 
ATOM     16  C   UNL d   1      -1.083   3.585  -2.072  0.00  0.00     0.155 C 
ATOM     17  C   UNL d   1      -3.150   4.227   0.824  0.00  0.00     0.019 A 
ATOM     18  C   UNL d   1      -2.667   2.936   1.128  0.00  0.00     0.027 A 
ENDBRANCH  12  13
ENDBRANCH   1  12
BRANCH   1  19
ATOM     19  C   UNL d   1       0.895   2.250   1.192  0.00  0.00     0.146 C 
BRANCH  19  20
ATOM     20  C   UNL d   1       2.332   2.733   1.151  0.00  0.00    -0.044 A 
ATOM     21  C   UNL d   1       2.971   3.067  -0.051  0.00  0.00     0.011 A 
ATOM     22  C   UNL d   1       4.327   3.415  -0.066  0.00  0.00     0.037 A 
ATOM     23  C   UNL d   1       5.046   3.477   1.128  0.00  0.00     0.068 A 
ATOM     24  C   UNL d   1       4.393   3.236   2.335  0.00  0.00     0.037 A 
ATOM     25  C   UNL d   1       3.048   2.860   2.349  0.00  0.00     0.011 A 
BRANCH  23  26
ATOM     26  O   UNL d   1       6.370   3.806   1.232  0.00  0.00    -0.356 OA
ATOM     27  C   UNL d   1       7.184   3.393   0.140  0.00  0.00     0.210 C 
ENDBRANCH  23  26
ENDBRANCH  19  20
ENDBRANCH   1  19
TORSDOF 7
