REMARK  2 active torsions:
REMARK  status: ('A' for Active; 'I' for Inactive)
REMARK    1  A    between atoms: C_9  and  C_3 
REMARK    2  A    between atoms: C_10  and  C_4 
ROOT
ATOM      1  N   UNL d   1       0.043  -3.580  -2.474  0.00  0.00    -0.197 NA
ATOM      2  C   UNL d   1      -0.456  -2.552  -2.273  0.00  0.00     0.065 C 
ATOM      3  C   UNL d   1      -1.102  -1.231  -2.012  0.00  0.00     0.188 C 
ENDROOT
BRANCH   3   4
ATOM      4  C   UNL d   1      -0.323  -0.483  -0.962  0.00  0.00     0.064 A 
ATOM      5  N   UNL d   1       0.706   0.303  -1.210  0.00  0.00    -0.352 N 
ATOM      6  C   UNL d   1       1.251   0.778  -0.024  0.00  0.00     0.049 A 
ATOM      7  HN  UNL d   1       1.053   0.530  -2.142  1.00  0.00     0.166 HD
ATOM      8  C   UNL d   1       0.606   0.343   1.118  0.00  0.00     0.081 A 
ATOM      9  S   UNL d   1      -0.720  -0.662   0.704  0.00  0.00    -0.085 SA
BRANCH   6  10
ATOM     10  C   UNL d   1       2.432   1.637  -0.019  0.00  0.00    -0.009 A 
ATOM     11  C   UNL d   1       2.664   2.567   1.006  0.00  0.00     0.015 A 
ATOM     12  C   UNL d   1       3.808   3.373   0.992  0.00  0.00     0.024 A 
ATOM     13  C   UNL d   1       4.726   3.257  -0.049  0.00  0.00     0.034 A 
ATOM     14  C   UNL d   1       4.509   2.345  -1.078  0.00  0.00     0.024 A 
ATOM     15 CL   UNL d   1       6.130   4.250  -0.063  0.00  0.00    -0.084 Cl
ATOM     16  C   UNL d   1       3.364   1.541  -1.064  0.00  0.00     0.015 A 
ENDBRANCH   6  10
ENDBRANCH   3   4
TORSDOF 2
