REMARK  6 active torsions:
REMARK  status: ('A' for Active; 'I' for Inactive)
REMARK    1  A    between atoms: N_10  and  C_1 
REMARK    2  A    between atoms: C_14  and  N_2 
REMARK    3  A    between atoms: C_3  and  C_7 
REMARK       I    between atoms: C_7  and  N_10 
REMARK    4  A    between atoms: C_18  and  C_9 
REMARK    5  A    between atoms: C_17  and  C_12 
REMARK    6  A    between atoms: O_37  and  C_30 
ROOT
ATOM      1  C   UNL d   1      -0.406  -1.098   0.144  0.00  0.00     0.132 C 
ATOM      2  N   UNL d   1       0.898  -0.702  -0.133  0.00  0.00    -0.239 N 
ATOM      3  N   UNL d   1       0.977   0.652  -0.234  0.00  0.00    -0.291 N 
ATOM      4  HN  UNL d   1       1.763   1.204  -0.580  1.00  0.00     0.187 HD
ATOM      5  C   UNL d   1      -1.062   0.030   0.568  0.00  0.00     0.082 C 
ATOM      6  C   UNL d   1      -0.203   1.107   0.219  0.00  0.00     0.062 C 
ENDROOT
BRANCH   1   7
ATOM      7  N   UNL d   1      -0.901  -2.377   0.018  0.00  0.00    -0.307 N 
ATOM      8  C   UNL d   1      -1.116  -3.038  -1.183  0.00  0.00     0.259 C 
ATOM      9  O   UNL d   1      -1.362  -4.243  -1.128  0.00  0.00    -0.267 OA
ATOM     10  H   UNL d   1      -1.358  -2.819   0.807  0.00  0.00     0.170 HD
BRANCH   8  11
ATOM     11  C   UNL d   1      -1.172  -2.306  -2.451  0.00  0.00     0.064 A 
ATOM     12  C   UNL d   1      -1.523  -0.947  -2.717  0.00  0.00     0.057 A 
ATOM     13  C   UNL d   1      -1.535  -0.756  -4.081  0.00  0.00     0.087 A 
ATOM     14  O   UNL d   1      -1.220  -1.933  -4.690  0.00  0.00    -0.314 OA
ATOM     15  C   UNL d   1      -1.022  -2.867  -3.713  0.00  0.00     0.065 A 
ATOM     16  C   UNL d   1      -0.721  -4.228  -4.210  0.00  0.00     0.077 C 
BRANCH  13  17
ATOM     17  C   UNL d   1      -1.832   0.389  -4.944  0.00  0.00    -0.002 A 
ATOM     18  C   UNL d   1      -2.090   1.650  -4.376  0.00  0.00     0.016 A 
ATOM     19  C   UNL d   1      -2.381   2.758  -5.181  0.00  0.00     0.024 A 
ATOM     20  C   UNL d   1      -2.417   2.615  -6.566  0.00  0.00     0.034 A 
ATOM     21  C   UNL d   1      -2.168   1.379  -7.148  0.00  0.00     0.024 A 
ATOM     22 CL   UNL d   1      -2.768   3.977  -7.555  0.00  0.00    -0.084 Cl
ATOM     23  C   UNL d   1      -1.877   0.271  -6.340  0.00  0.00     0.016 A 
ENDBRANCH  13  17
ENDBRANCH   8  11
ENDBRANCH   1   7
BRANCH   2  24
ATOM     24  C   UNL d   1       2.081  -1.500  -0.162  0.00  0.00     0.060 A 
ATOM     25  C   UNL d   1       2.122  -2.746   0.482  0.00  0.00     0.057 A 
ATOM     26  C   UNL d   1       3.304  -3.497   0.505  0.00  0.00     0.058 A 
ATOM     27 CL   UNL d   1       3.283  -4.997   1.365  0.00  0.00    -0.082 Cl
ATOM     28  C   UNL d   1       4.451  -3.016  -0.131  0.00  0.00     0.055 A 
ATOM     29  C   UNL d   1       4.417  -1.770  -0.765  0.00  0.00     0.028 A 
ATOM     30 CL   UNL d   1       5.938  -3.894  -0.153  0.00  0.00    -0.083 Cl
ATOM     31  C   UNL d   1       3.243  -1.008  -0.768  0.00  0.00     0.033 A 
ENDBRANCH   2  24
BRANCH   6  32
ATOM     32  C   UNL d   1      -0.526   2.533   0.260  0.00  0.00    -0.008 A 
ATOM     33  C   UNL d   1       0.456   3.486   0.548  0.00  0.00     0.016 A 
ATOM     34  C   UNL d   1       0.135   4.849   0.615  0.00  0.00     0.037 A 
ATOM     35  C   UNL d   1      -1.172   5.276   0.381  0.00  0.00     0.068 A 
ATOM     36  C   UNL d   1      -2.151   4.330   0.070  0.00  0.00     0.037 A 
ATOM     37  C   UNL d   1      -1.835   2.970   0.010  0.00  0.00     0.016 A 
BRANCH  35  38
ATOM     38  O   UNL d   1      -1.622   6.565   0.418  0.00  0.00    -0.356 OA
ATOM     39  C   UNL d   1      -0.676   7.569   0.765  0.00  0.00     0.210 C 
ENDBRANCH  35  38
ENDBRANCH   6  32
TORSDOF 6
