REMARK  6 active torsions:
REMARK  status: ('A' for Active; 'I' for Inactive)
REMARK    1  A    between atoms: C_8  and  C_1 
REMARK    2  A    between atoms: C_10  and  N_3 
REMARK    3  A    between atoms: N_7  and  C_4 
REMARK    4  A    between atoms: C_11  and  N_7 
REMARK    5  A    between atoms: C_13  and  C_8 
REMARK    6  A    between atoms: C_15  and  C_11 
ROOT
ATOM      1  C   UNL d   1       2.437  -0.641  -0.150  0.00  0.00     0.037 C 
ATOM      2  C   UNL d   1       2.374   0.851  -0.285  0.00  0.00     0.261 C 
ATOM      3  N   UNL d   1       1.142   1.459  -0.082  0.00  0.00    -0.278 N 
ATOM      4  C   UNL d   1       1.321  -1.375   0.028  0.00  0.00     0.033 C 
ATOM      5  C   UNL d   1      -0.069   0.717   0.027  0.00  0.00     0.055 A 
ATOM      6  C   UNL d   1       0.001  -0.688   0.039  0.00  0.00     0.013 A 
ATOM      7  O   UNL d   1       3.414   1.475  -0.509  0.00  0.00    -0.267 OA
ATOM      8  C   UNL d   1      -1.333   1.341   0.035  0.00  0.00     0.031 A 
ATOM      9  C   UNL d   1      -1.200  -1.425   0.039  0.00  0.00     0.015 A 
ATOM     10  C   UNL d   1      -2.511   0.591   0.050  0.00  0.00     0.002 A 
ATOM     11  C   UNL d   1      -2.444  -0.794   0.049  0.00  0.00     0.001 A 
ENDROOT
BRANCH   4  12
ATOM     12  N   UNL d   1       1.298  -2.768   0.148  0.00  0.00    -0.287 NA
ATOM     13  H   UNL d   1       1.996  -3.185  -0.468  0.00  0.00     0.128 HD
BRANCH  12  14
ATOM     14  C   UNL d   1       1.382  -3.415   1.459  0.00  0.00     0.131 C 
BRANCH  14  15
ATOM     15  C   UNL d   1       0.763  -4.790   1.386  0.00  0.00    -0.045 A 
ATOM     16  C   UNL d   1       1.523  -5.910   1.016  0.00  0.00     0.008 A 
ATOM     17  C   UNL d   1       0.930  -7.173   0.936  0.00  0.00     0.001 A 
ATOM     18  C   UNL d   1      -0.427  -7.329   1.216  0.00  0.00     0.000 A 
ATOM     19  C   UNL d   1      -1.193  -6.224   1.577  0.00  0.00     0.001 A 
ATOM     20  C   UNL d   1      -0.602  -4.963   1.663  0.00  0.00     0.008 A 
ENDBRANCH  14  15
ENDBRANCH  12  14
ENDBRANCH   4  12
BRANCH   1  21
ATOM     21  C   UNL d   1       3.841  -1.203  -0.103  0.00  0.00     0.084 C 
BRANCH  21  22
ATOM     22  C   UNL d   1       4.328  -1.787  -1.409  0.00  0.00    -0.054 A 
ATOM     23  C   UNL d   1       4.497  -0.980  -2.543  0.00  0.00     0.007 A 
ATOM     24  C   UNL d   1       4.961  -1.525  -3.741  0.00  0.00     0.001 A 
ATOM     25  C   UNL d   1       5.271  -2.881  -3.816  0.00  0.00     0.000 A 
ATOM     26  C   UNL d   1       5.124  -3.691  -2.692  0.00  0.00     0.001 A 
ATOM     27  C   UNL d   1       4.659  -3.148  -1.494  0.00  0.00     0.007 A 
ENDBRANCH  21  22
ENDBRANCH   1  21
BRANCH   3  28
ATOM     28  C   UNL d   1       1.095   2.877  -0.024  0.00  0.00     0.043 A 
ATOM     29  C   UNL d   1       1.394   3.641  -1.157  0.00  0.00     0.030 A 
ATOM     30  C   UNL d   1       1.439   5.033  -1.071  0.00  0.00     0.002 A 
ATOM     31  C   UNL d   1       1.212   5.664   0.153  0.00  0.00     0.000 A 
ATOM     32  C   UNL d   1       0.926   4.906   1.289  0.00  0.00     0.002 A 
ATOM     33  C   UNL d   1       0.860   3.514   1.202  0.00  0.00     0.030 A 
ENDBRANCH   3  28
TORSDOF 6
