REMARK  0 active torsions:
REMARK  status: ('A' for Active; 'I' for Inactive)
ROOT
ATOM      1  N   UNL d   1       1.255  -1.373  -0.021  0.00  0.00    -0.358 N 
ATOM      2  HN  UNL d   1       1.291  -2.392  -0.013  1.00  0.00     0.166 HD
ATOM      3  C   UNL d   1       0.059  -0.733  -0.005  0.00  0.00     0.064 A 
ATOM      4  C   UNL d   1      -1.160  -1.427   0.018  0.00  0.00     0.061 A 
ATOM      5  C   UNL d   1      -0.007   0.677  -0.016  0.00  0.00    -0.008 A 
ATOM      6  C   UNL d   1       2.401  -0.653  -0.048  0.00  0.00     0.005 A 
ATOM      7  C   UNL d   1       1.192   1.401  -0.031  0.00  0.00     0.015 A 
ATOM      8 CL   UNL d   1      -1.192  -3.161   0.048  0.00  0.00    -0.082 Cl
ATOM      9  C   UNL d   1       2.409   0.732  -0.048  0.00  0.00     0.025 A 
ATOM     10  C   UNL d   1      -2.438   0.623  -0.003  0.00  0.00     0.003 A 
ATOM     11  C   UNL d   1      -2.395  -0.765   0.018  0.00  0.00     0.026 A 
ATOM     12  C   UNL d   1      -1.247   1.343  -0.015  0.00  0.00     0.014 A 
ATOM     13  C   UNL d   1       3.689  -1.417  -0.095  0.00  0.00     0.068 C 
ENDROOT
TORSDOF 0
