REMARK  5 active torsions:
REMARK  status: ('A' for Active; 'I' for Inactive)
REMARK    1  A    between atoms: C_2  and  S_1 
REMARK    2  A    between atoms: C_4  and  S_1 
REMARK    3  A    between atoms: N_5  and  C_3 
REMARK    4  A    between atoms: O_20  and  C_11 
REMARK    5  A    between atoms: O_21  and  C_16 
ROOT
ATOM      1  S   UNL d   1       1.062   0.019  -0.095  0.00  0.00     0.212 S 
ATOM      2  O   UNL d   1       2.191   0.853  -0.450  0.00  0.00    -0.217 OA
ATOM      3  O   UNL d   1      -0.012   0.538   0.732  0.00  0.00    -0.217 OA
ENDROOT
BRANCH   1   4
ATOM      4  C   UNL d   1       1.766  -1.335   0.824  0.00  0.00     0.097 A 
ATOM      5  C   UNL d   1       2.968  -1.945   0.457  0.00  0.00     0.126 A 
ATOM      6  C   UNL d   1       3.481  -3.034   1.175  0.00  0.00     0.061 A 
ATOM      7  C   UNL d   1       2.798  -3.477   2.304  0.00  0.00     0.036 A 
ATOM      8  C   UNL d   1       1.630  -2.837   2.723  0.00  0.00     0.025 A 
ATOM      9 CL   UNL d   1       3.394  -4.826   3.186  0.00  0.00    -0.084 Cl
ATOM     10  C   UNL d   1       1.113  -1.767   1.986  0.00  0.00     0.028 A 
BRANCH   5  11
ATOM     11  N   UNL d   1       3.723  -1.534  -0.706  0.00  0.00    -0.114 N 
ATOM     12  O   UNL d   1       4.733  -0.851  -0.499  0.00  0.00    -0.532 OA
ATOM     13  O   UNL d   1       3.355  -1.986  -1.793  0.00  0.00    -0.532 OA
ENDBRANCH   5  11
ENDBRANCH   1   4
BRANCH   1  14
ATOM     14  C   UNL d   1       0.319  -0.553  -1.598  0.00  0.00     0.100 A 
ATOM     15  C   UNL d   1       0.388  -1.915  -1.936  0.00  0.00     0.063 A 
ATOM     16  C   UNL d   1      -0.096  -2.370  -3.160  0.00  0.00     0.069 A 
ATOM     17  C   UNL d   1      -0.702  -1.464  -4.029  0.00  0.00     0.039 A 
ATOM     18  C   UNL d   1      -0.840  -0.121  -3.668  0.00  0.00     0.041 A 
ATOM     19  C   UNL d   1      -0.328   0.343  -2.454  0.00  0.00     0.090 A 
BRANCH  16  20
ATOM     20  O   UNL d   1      -0.051  -3.662  -3.604  0.00  0.00    -0.356 OA
ATOM     21  C   UNL d   1       0.702  -4.590  -2.830  0.00  0.00     0.210 C 
ENDBRANCH  16  20
BRANCH  19  22
ATOM     22  O   UNL d   1      -0.676   1.620  -2.113  0.00  0.00    -0.354 OA
ATOM     23  C   UNL d   1       0.398   2.558  -2.154  0.00  0.00     0.210 C 
ENDBRANCH  19  22
ENDBRANCH   1  14
TORSDOF 5
