REMARK  2 active torsions:
REMARK  status: ('A' for Active; 'I' for Inactive)
REMARK    1  A    between atoms: C_3  and  C_1 
REMARK       I    between atoms: N_6  and  C_3 
REMARK    2  A    between atoms: C_11  and  N_6 
ROOT
ATOM      1  C   UNL d   1      -1.826  -1.146  -0.034  0.00  0.00     0.108 A 
ATOM      2  C   UNL d   1      -0.381  -1.454   0.053  0.00  0.00     0.304 A 
ATOM      3  C   UNL d   1      -2.246   0.130   0.015  0.00  0.00     0.037 A 
ATOM      4  O   UNL d   1       0.498  -0.388   0.243  0.00  0.00    -0.274 OA
ATOM      5  C   UNL d   1      -1.310   1.229   0.190  0.00  0.00    -0.001 A 
ATOM      6  C   UNL d   1       0.042   0.944   0.318  0.00  0.00     0.089 A 
ATOM      7  O   UNL d   1       0.042  -2.605  -0.038  0.00  0.00    -0.259 OA
ATOM      8  C   UNL d   1      -1.732   2.558   0.258  0.00  0.00     0.014 A 
ATOM      9  C   UNL d   1       0.986   1.952   0.523  0.00  0.00     0.038 A 
ATOM     10  C   UNL d   1      -0.800   3.581   0.463  0.00  0.00     0.001 A 
ATOM     11  C   UNL d   1       0.556   3.277   0.599  0.00  0.00     0.003 A 
ENDROOT
BRANCH   1  12
ATOM     12  C   UNL d   1      -2.899  -2.190  -0.173  0.00  0.00     0.258 C 
ATOM     13  N   UNL d   1      -2.488  -3.502  -0.146  0.00  0.00    -0.349 N 
ATOM     14  H   UNL d   1      -1.482  -3.673  -0.116  0.00  0.00     0.163 HD
ATOM     15  O   UNL d   1      -4.075  -1.868  -0.303  0.00  0.00    -0.267 OA
BRANCH  13  16
ATOM     16  C   UNL d   1      -3.364  -4.674  -0.337  0.00  0.00     0.022 C 
ATOM     17  C   UNL d   1      -4.040  -4.634  -1.719  0.00  0.00     0.037 C 
ATOM     18  C   UNL d   1      -2.497  -5.944  -0.237  0.00  0.00     0.037 C 
ATOM     19  C   UNL d   1      -4.448  -4.760   0.752  0.00  0.00     0.037 C 
ENDBRANCH  13  16
ENDBRANCH   1  12
TORSDOF 2
