REMARK  7 active torsions:
REMARK  status: ('A' for Active; 'I' for Inactive)
REMARK    1  A    between atoms: C_5  and  C_1 
REMARK    2  A    between atoms: N_11  and  C_4 
REMARK    3  A    between atoms: C_18  and  N_11 
REMARK    4  A    between atoms: C_12  and  N_15 
REMARK    5  A    between atoms: O_17  and  C_13 
REMARK    6  A    between atoms: N_15  and  C_19 
REMARK    7  A    between atoms: C_19  and  C_18 
ROOT
ATOM      1  N   UNL d   1      -1.532  -2.103   5.542  0.00  0.00    -0.262 NA
ATOM      2  H   UNL d   1      -2.099  -2.550   6.248  0.00  0.00     0.130 HD
ENDROOT
BRANCH   1   3
ATOM      3  C   UNL d   1      -2.328  -1.760   4.468  0.00  0.00     0.157 A 
ATOM      4  N   UNL d   1      -3.553  -2.293   4.455  0.00  0.00    -0.329 N 
ATOM      5  C   UNL d   1      -4.348  -2.038   3.383  0.00  0.00     0.120 A 
ATOM      6  HN  UNL d   1      -3.881  -2.874   5.226  1.00  0.00     0.168 HD
ATOM      7  C   UNL d   1      -3.920  -1.251   2.328  0.00  0.00     0.051 A 
ATOM      8  C   UNL d   1      -2.655  -0.735   2.443  0.00  0.00     0.093 A 
ATOM      9  N   UNL d   1      -1.856  -0.964   3.499  0.00  0.00    -0.343 N 
ATOM     10  HN  UNL d   1      -0.927  -0.547   3.561  1.00  0.00     0.167 HD
BRANCH   5  11
ATOM     11  C   UNL d   1      -5.745  -2.633   3.326  0.00  0.00     0.432 C 
ATOM     12  F   UNL d   1      -6.097  -3.353   4.428  0.00  0.00    -0.165 F 
ATOM     13  F   UNL d   1      -5.912  -3.470   2.261  0.00  0.00    -0.165 F 
ATOM     14  F   UNL d   1      -6.708  -1.674   3.187  0.00  0.00    -0.165 F 
ENDBRANCH   5  11
ENDBRANCH   1   3
BRANCH   1  15
ATOM     15  C   UNL d   1      -0.586  -1.108   6.026  0.00  0.00     0.125 C 
BRANCH  15  16
ATOM     16  C   UNL d   1      -1.264  -0.027   6.897  0.00  0.00     0.284 C 
BRANCH  16  17
ATOM     17  N   UNL d   1      -1.901  -0.586   8.108  0.00  0.00     0.091 N 
ATOM     18  H   UNL d   1      -2.684  -1.170   7.815  0.00  0.00     0.316 HD
BRANCH  17  19
ATOM     19  C   UNL d   1      -2.391   0.475   9.027  0.00  0.00     0.249 C 
ATOM     20  C   UNL d   1      -2.896  -0.163  10.352  0.00  0.00     0.151 C 
ATOM     21  C   UNL d   1      -4.185  -0.965  10.164  0.00  0.00     0.034 C 
ATOM     22  C   UNL d   1      -5.281  -0.145   9.490  0.00  0.00     0.003 C 
ATOM     23  C   UNL d   1      -4.805   0.549   8.216  0.00  0.00     0.002 C 
ATOM     24  C   UNL d   1      -3.519   1.342   8.447  0.00  0.00     0.038 C 
BRANCH  20  25
ATOM     25  O   UNL d   1      -1.894  -1.021  10.895  0.00  0.00    -0.393 OA
ATOM     26  H   UNL d   1      -1.470  -1.438  10.119  0.00  0.00     0.210 HD
ENDBRANCH  20  25
ENDBRANCH  17  19
ENDBRANCH  16  17
ENDBRANCH  15  16
ENDBRANCH   1  15
TORSDOF 7
