REMARK  7 active torsions:
REMARK  status: ('A' for Active; 'I' for Inactive)
REMARK    1  A    between atoms: C_9  and  C_1 
REMARK    2  A    between atoms: C_3  and  C_2 
REMARK       I    between atoms: C_6  and  N_13 
REMARK    3  A    between atoms: C_8  and  C_6 
REMARK    4  A    between atoms: N_15  and  C_7 
REMARK    5  A    between atoms: O_24  and  C_9 
REMARK    6  A    between atoms: N_13  and  N_15 
REMARK    7  A    between atoms: C_25  and  O_24 
ROOT
ATOM      1  C   UNL d   1      -0.039  -1.442  -0.004  0.00  0.00     0.086 A 
ATOM      2  C   UNL d   1       1.163  -0.764   0.039  0.00  0.00     0.136 A 
ATOM      3  N   UNL d   1       1.194   0.604   0.168  0.00  0.00    -0.327 N 
ATOM      4  HN  UNL d   1       2.087   1.094   0.217  1.00  0.00     0.168 HD
ATOM      5  C   UNL d   1       0.045   1.288   0.229  0.00  0.00     0.176 A 
ATOM      6  N   UNL d   1      -1.157   0.700   0.143  0.00  0.00    -0.340 N 
ATOM      7  HN  UNL d   1      -2.020   1.243   0.167  1.00  0.00     0.167 HD
ATOM      8  C   UNL d   1      -1.171  -0.646   0.025  0.00  0.00     0.110 A 
ENDROOT
BRANCH   5   9
ATOM      9  N   UNL d   1       0.143   2.671   0.427  0.00  0.00    -0.172 NA
ATOM     10  H   UNL d   1       1.070   2.979   0.125  0.00  0.00     0.156 HD
BRANCH   9  11
ATOM     11  N   UNL d   1      -0.906   3.412  -0.144  0.00  0.00    -0.280 N 
ATOM     12  C   UNL d   1      -0.621   4.670  -0.650  0.00  0.00     0.273 C 
ATOM     13  O   UNL d   1       0.544   5.063  -0.741  0.00  0.00    -0.266 OA
ATOM     14  H   UNL d   1      -1.852   3.084   0.035  0.00  0.00     0.184 HD
BRANCH  12  15
ATOM     15  C   UNL d   1      -1.764   5.481  -1.052  0.00  0.00     0.073 A 
ATOM     16  S   UNL d   1      -3.372   4.887  -1.018  0.00  0.00    -0.097 SA
ATOM     17  C   UNL d   1      -4.006   6.358  -1.617  0.00  0.00     0.050 A 
ATOM     18  C   UNL d   1      -3.020   7.294  -1.831  0.00  0.00     0.009 A 
ATOM     19  C   UNL d   1      -1.729   6.788  -1.504  0.00  0.00     0.025 A 
ENDBRANCH  12  15
ENDBRANCH   9  11
ENDBRANCH   5   9
BRANCH   2  20
ATOM     20  C   UNL d   1       2.521  -1.425  -0.100  0.00  0.00     0.433 C 
ATOM     21  F   UNL d   1       2.524  -2.751  -0.397  0.00  0.00    -0.165 F 
ATOM     22  F   UNL d   1       3.258  -0.858  -1.102  0.00  0.00    -0.165 F 
ATOM     23  F   UNL d   1       3.279  -1.294   1.027  0.00  0.00    -0.165 F 
ENDBRANCH   2  20
BRANCH   1  24
ATOM     24  C   UNL d   1      -0.256  -2.892  -0.108  0.00  0.00     0.296 C 
ATOM     25  O   UNL d   1      -1.151  -3.368  -0.782  0.00  0.00    -0.259 OA
BRANCH  24  26
ATOM     26  O   UNL d   1       0.574  -3.555   0.721  0.00  0.00    -0.318 OA
BRANCH  26  27
ATOM     27  C   UNL d   1       0.437  -4.991   0.732  0.00  0.00     0.174 C 
ATOM     28  C   UNL d   1       0.989  -5.624  -0.537  0.00  0.00     0.034 C 
ENDBRANCH  26  27
ENDBRANCH  24  26
ENDBRANCH   1  24
TORSDOF 7
