REMARK  4 active torsions:
REMARK  status: ('A' for Active; 'I' for Inactive)
REMARK    1  A    between atoms: C_2  and  C_1 
REMARK    2  A    between atoms: O_6  and  C_2 
REMARK    3  A    between atoms: C_7  and  C_3 
REMARK    4  A    between atoms: C_9  and  O_6 
ROOT
ATOM      1  C   UNL d   1       0.825  -0.023  -0.132  0.00  0.00     0.120 C 
ATOM      2  C   UNL d   1       0.043   0.617   0.760  0.00  0.00     0.040 C 
ATOM      3  C   UNL d   1       0.287  -0.872  -1.133  0.00  0.00     0.105 C 
ATOM      4  N   UNL d   1      -0.187  -1.562  -1.941  0.00  0.00    -0.191 NA
ENDROOT
BRANCH   1   5
ATOM      5  C   UNL d   1       2.306   0.152  -0.014  0.00  0.00     0.304 C 
ATOM      6  O   UNL d   1       2.841   0.720   0.927  0.00  0.00    -0.258 OA
BRANCH   5   7
ATOM      7  O   UNL d   1       2.954  -0.418  -1.062  0.00  0.00    -0.307 OA
BRANCH   7   8
ATOM      8  C   UNL d   1       4.410  -0.449  -1.130  0.00  0.00     0.060 C 
ATOM      9  C   UNL d   1       5.010  -1.257   0.028  0.00  0.00     0.046 C 
ATOM     10  C   UNL d   1       4.736  -1.172  -2.449  0.00  0.00     0.046 C 
ATOM     11  C   UNL d   1       5.010   0.960  -1.194  0.00  0.00     0.046 C 
ENDBRANCH   7   8
ENDBRANCH   5   7
ENDBRANCH   1   5
BRANCH   2  12
ATOM     12  C   UNL d   1      -1.420   0.452   0.886  0.00  0.00    -0.029 A 
ATOM     13  C   UNL d   1      -2.364   1.302   0.277  0.00  0.00    -0.052 A 
ATOM     14  C   UNL d   1      -2.001   2.426  -0.652  0.00  0.00     0.049 C 
ATOM     15  C   UNL d   1      -3.733   1.112   0.557  0.00  0.00     0.007 A 
ATOM     16  C   UNL d   1      -4.165   0.063   1.366  0.00  0.00     0.001 A 
ATOM     17  C   UNL d   1      -3.236  -0.813   1.912  0.00  0.00     0.001 A 
ATOM     18  C   UNL d   1      -1.873  -0.612   1.685  0.00  0.00     0.012 A 
ENDBRANCH   2  12
TORSDOF 4
