REMARK  5 active torsions:
REMARK  status: ('A' for Active; 'I' for Inactive)
REMARK    1  A    between atoms: N_10  and  C_1 
REMARK    2  A    between atoms: C_2  and  C_8 
REMARK    3  A    between atoms: C_15  and  N_5 
REMARK    4  A    between atoms: C_14  and  C_7 
REMARK       I    between atoms: C_8  and  N_10 
REMARK    5  A    between atoms: C_17  and  C_12 
ROOT
ATOM      1  C   UNL d   1      -0.334  -1.129   0.174  0.00  0.00     0.132 C 
ATOM      2  N   UNL d   1       0.720   0.821  -0.325  0.00  0.00    -0.291 N 
ATOM      3  HN  UNL d   1       1.295   1.522  -0.792  1.00  0.00     0.187 HD
ATOM      4  N   UNL d   1       0.561  -0.487  -0.678  0.00  0.00    -0.239 N 
ATOM      5  C   UNL d   1      -0.633  -0.222   1.167  0.00  0.00     0.082 C 
ATOM      6  C   UNL d   1      -0.038   0.987   0.764  0.00  0.00     0.069 C 
ENDROOT
BRANCH   1   7
ATOM      7  N   UNL d   1      -0.778  -2.429   0.030  0.00  0.00    -0.307 N 
ATOM      8  C   UNL d   1      -2.096  -2.849   0.084  0.00  0.00     0.259 C 
ATOM      9  O   UNL d   1      -2.314  -4.058  -0.016  0.00  0.00    -0.267 OA
ATOM     10  H   UNL d   1      -0.149  -3.138  -0.329  0.00  0.00     0.170 HD
BRANCH   8  11
ATOM     11  C   UNL d   1      -3.183  -1.877   0.161  0.00  0.00     0.064 C 
ATOM     12  C   UNL d   1      -3.262  -0.538  -0.334  0.00  0.00     0.057 C 
ATOM     13  C   UNL d   1      -4.433   0.013   0.135  0.00  0.00     0.087 C 
ATOM     14  O   UNL d   1      -5.174  -0.969   0.725  0.00  0.00    -0.314 OA
ATOM     15  C   UNL d   1      -4.439  -2.119   0.694  0.00  0.00     0.065 C 
ATOM     16  C   UNL d   1      -5.117  -3.315   1.238  0.00  0.00     0.077 C 
BRANCH  13  17
ATOM     17  C   UNL d   1      -4.991   1.362   0.124  0.00  0.00    -0.002 A 
ATOM     18  C   UNL d   1      -4.263   2.430  -0.429  0.00  0.00     0.016 A 
ATOM     19  C   UNL d   1      -4.785   3.728  -0.442  0.00  0.00     0.024 A 
ATOM     20  C   UNL d   1      -6.041   3.972   0.105  0.00  0.00     0.034 A 
ATOM     21  C   UNL d   1      -6.771   2.933   0.676  0.00  0.00     0.024 A 
ATOM     22 CL   UNL d   1      -6.694   5.563   0.075  0.00  0.00    -0.084 Cl
ATOM     23  C   UNL d   1      -6.246   1.636   0.687  0.00  0.00     0.016 A 
ENDBRANCH  13  17
ENDBRANCH   8  11
ENDBRANCH   1   7
BRANCH   4  24
ATOM     24  C   UNL d   1       1.202  -0.984  -1.852  0.00  0.00     0.058 A 
ATOM     25  C   UNL d   1       2.381  -0.359  -2.288  0.00  0.00     0.034 A 
ATOM     26  C   UNL d   1       3.087  -0.870  -3.379  0.00  0.00     0.044 A 
ATOM     27  C   UNL d   1       2.602  -1.982  -4.052  0.00  0.00     0.116 A 
ATOM     28  C   UNL d   1       1.408  -2.582  -3.670  0.00  0.00     0.044 A 
ATOM     29  F   UNL d   1       3.289  -2.483  -5.088  0.00  0.00    -0.206 F 
ATOM     30  C   UNL d   1       0.700  -2.079  -2.574  0.00  0.00     0.034 A 
ENDBRANCH   4  24
BRANCH   6  31
ATOM     31  C   UNL d   1      -0.243   2.322   1.419  0.00  0.00     0.033 A 
ATOM     32  S   UNL d   1      -1.103   2.546   2.882  0.00  0.00    -0.100 SA
ATOM     33  C   UNL d   1      -0.849   4.236   2.852  0.00  0.00     0.050 A 
ATOM     34  C   UNL d   1      -0.154   4.631   1.731  0.00  0.00     0.008 A 
ATOM     35  C   UNL d   1       0.198   3.523   0.902  0.00  0.00     0.021 A 
ENDBRANCH   6  31
TORSDOF 5
