REMARK  4 active torsions:
REMARK  status: ('A' for Active; 'I' for Inactive)
REMARK    1  A    between atoms: C_9  and  N_6 
REMARK    2  A    between atoms: C_10  and  C_9 
REMARK       I    between atoms: N_13  and  C_10 
REMARK    3  A    between atoms: N_11  and  N_13 
REMARK    4  A    between atoms: C_18  and  C_17 
ROOT
ATOM      1  C   UNL d   1       3.227  -0.059  -0.292  0.00  0.00     0.257 C 
ATOM      2  N   UNL d   1       3.446  -1.184   0.489  0.00  0.00    -0.269 N 
ATOM      3  O   UNL d   1       4.043   0.399  -1.096  0.00  0.00    -0.270 OA
ATOM      4  H   UNL d   1       2.647  -1.629   0.942  0.00  0.00     0.190 HD
ENDROOT
BRANCH   1   5
ATOM      5  C   UNL d   1       1.972   0.709   0.029  0.00  0.00     0.272 C 
BRANCH   5   6
ATOM      6  N   UNL d   1       0.744  -0.054   0.105  0.00  0.00    -0.194 N 
ATOM      7  N   UNL d   1       0.673  -1.401   0.168  0.00  0.00    -0.115 N 
ATOM      8  C   UNL d   1      -0.651  -1.567   0.312  0.00  0.00     0.709 A 
ATOM      9  HN  UNL d   1       1.418  -2.097   0.121  1.00  0.00     0.207 HD
ATOM     10  N   UNL d   1      -1.317  -0.370   0.425  0.00  0.00    -0.113 N 
ATOM     11  N   UNL d   1      -1.327  -2.731   0.391  0.00  0.00    -0.215 N 
ATOM     12  N   UNL d   1      -0.418   0.590   0.303  0.00  0.00     0.011 NA
ATOM     13  HN  UNL d   1      -2.319  -0.247   0.576  1.00  0.00     0.203 HD
ATOM     14  C   UNL d   1      -2.778  -2.761   0.426  0.00  0.00     0.141 C 
ATOM     15  C   UNL d   1      -0.789  -3.974  -0.134  0.00  0.00     0.141 C 
ATOM     16  C   UNL d   1      -3.080  -4.235   0.651  0.00  0.00     0.022 C 
ATOM     17  C   UNL d   1      -1.964  -4.960  -0.089  0.00  0.00     0.022 C 
ENDBRANCH   5   6
ENDBRANCH   1   5
BRANCH   2  18
ATOM     18  N   UNL d   1       4.606  -1.899   0.350  0.00  0.00    -0.308 N 
ATOM     19  C   UNL d   1       4.702  -2.924   1.129  0.00  0.00     0.120 C 
ATOM     20  HN  UNL d   1       5.336  -1.642  -0.315  1.00  0.00     0.186 HD
BRANCH  19  21
ATOM     21  C   UNL d   1       5.855  -3.838   1.099  0.00  0.00    -0.004 A 
ATOM     22  C   UNL d   1       6.874  -3.711   0.168  0.00  0.00     0.100 A 
ATOM     23  N   UNL d   1       7.928  -4.564   0.098  0.00  0.00    -0.374 N 
ATOM     24  C   UNL d   1       7.960  -5.573   0.995  0.00  0.00     0.087 A 
ATOM     25  HN  UNL d   1       8.663  -4.448  -0.601  1.00  0.00     0.164 HD
ATOM     26  C   UNL d   1       6.992  -5.771   1.967  0.00  0.00     0.018 A 
ATOM     27  C   UNL d   1       5.919  -4.884   2.019  0.00  0.00     0.015 A 
ENDBRANCH  19  21
ENDBRANCH   2  18
TORSDOF 4
