REMARK  5 active torsions:
REMARK  status: ('A' for Active; 'I' for Inactive)
REMARK    1  A    between atoms: C_9  and  N_2 
REMARK    2  A    between atoms: C_10  and  N_3 
REMARK    3  A    between atoms: N_7  and  C_4 
REMARK    4  A    between atoms: C_12  and  N_7 
REMARK    5  A    between atoms: C_13  and  C_12 
ROOT
ATOM      1  C   UNL d   1      -0.709   1.299   0.066  0.00  0.00     0.342 C 
ATOM      2  N   UNL d   1      -1.425   0.081   0.060  0.00  0.00    -0.254 N 
ATOM      3  N   UNL d   1       0.689   1.195   0.016  0.00  0.00    -0.230 N 
ATOM      4  C   UNL d   1      -0.796  -1.167   0.089  0.00  0.00     0.097 C 
ATOM      5  C   UNL d   1       1.359  -0.005  -0.111  0.00  0.00     0.259 C 
ATOM      6  C   UNL d   1       0.537  -1.217   0.028  0.00  0.00     0.117 C 
ATOM      7  O   UNL d   1      -1.278   2.398   0.099  0.00  0.00    -0.245 OA
ATOM      8  O   UNL d   1       2.568  -0.156  -0.285  0.00  0.00    -0.267 OA
ENDROOT
BRANCH   4   9
ATOM      9  N   UNL d   1      -1.521  -2.373   0.141  0.00  0.00    -0.274 NA
ATOM     10  H   UNL d   1      -1.034  -3.059   0.715  0.00  0.00     0.129 HD
BRANCH   9  11
ATOM     11  C   UNL d   1      -1.905  -3.048  -1.111  0.00  0.00     0.132 C 
BRANCH  11  12
ATOM     12  C   UNL d   1      -3.042  -4.032  -0.928  0.00  0.00    -0.045 A 
ATOM     13  C   UNL d   1      -4.040  -3.853   0.039  0.00  0.00     0.008 A 
ATOM     14  C   UNL d   1      -5.143  -4.707   0.112  0.00  0.00     0.001 A 
ATOM     15  C   UNL d   1      -5.267  -5.762  -0.785  0.00  0.00     0.000 A 
ATOM     16  C   UNL d   1      -4.285  -5.966  -1.751  0.00  0.00     0.001 A 
ATOM     17  C   UNL d   1      -3.184  -5.105  -1.826  0.00  0.00     0.008 A 
ENDBRANCH  11  12
ENDBRANCH   9  11
ENDBRANCH   4   9
BRANCH   2  18
ATOM     18  C   UNL d   1      -2.857   0.199   0.078  0.00  0.00     0.045 A 
ATOM     19  C   UNL d   1      -3.517   0.914  -0.931  0.00  0.00     0.030 A 
ATOM     20  C   UNL d   1      -4.910   1.004  -0.941  0.00  0.00     0.002 A 
ATOM     21  C   UNL d   1      -5.654   0.401   0.071  0.00  0.00     0.000 A 
ATOM     22  C   UNL d   1      -5.005  -0.281   1.099  0.00  0.00     0.002 A 
ATOM     23  C   UNL d   1      -3.611  -0.384   1.102  0.00  0.00     0.030 A 
ENDBRANCH   2  18
BRANCH   3  24
ATOM     24  C   UNL d   1       1.440   2.414   0.015  0.00  0.00     0.047 A 
ATOM     25  C   UNL d   1       1.282   3.337   1.061  0.00  0.00     0.030 A 
ATOM     26  C   UNL d   1       1.954   4.560   1.038  0.00  0.00     0.002 A 
ATOM     27  C   UNL d   1       2.769   4.884  -0.043  0.00  0.00     0.000 A 
ATOM     28  C   UNL d   1       2.938   3.973  -1.086  0.00  0.00     0.002 A 
ATOM     29  C   UNL d   1       2.293   2.733  -1.048  0.00  0.00     0.030 A 
ENDBRANCH   3  24
TORSDOF 5
