REMARK  5 active torsions:
REMARK  status: ('A' for Active; 'I' for Inactive)
REMARK    1  A    between atoms: C_2  and  C_1 
REMARK       I    between atoms: N_4  and  C_1 
REMARK    2  A    between atoms: C_3  and  N_8 
REMARK    3  A    between atoms: N_9  and  C_3 
REMARK    4  A    between atoms: N_8  and  N_4 
REMARK    5  A    between atoms: C_11  and  N_9 
ROOT
ATOM      1  C   UNL d   1      -1.801  -2.248  -1.218  0.00  0.00     0.191 C 
ATOM      2  S   UNL d   1      -3.427  -2.594  -0.969  0.00  0.00    -0.039 SA
ENDROOT
BRANCH   1   3
ATOM      3  N   UNL d   1      -1.148  -1.176  -0.670  0.00  0.00    -0.273 N 
ATOM      4  H   UNL d   1      -0.140  -1.247  -0.533  0.00  0.00     0.189 HD
BRANCH   3   5
ATOM      5  N   UNL d   1      -1.801  -0.398   0.307  0.00  0.00    -0.262 N 
ATOM      6  C   UNL d   1      -1.064   0.324   1.218  0.00  0.00     0.286 C 
ATOM      7  O   UNL d   1       0.156   0.460   1.117  0.00  0.00    -0.264 OA
ATOM      8  H   UNL d   1      -2.808  -0.505   0.381  0.00  0.00     0.190 HD
BRANCH   6   9
ATOM      9  C   UNL d   1      -1.838   0.917   2.287  0.00  0.00     0.102 A 
ATOM     10  N   UNL d   1      -1.341   1.936   3.071  0.00  0.00    -0.361 N 
ATOM     11  C   UNL d   1      -2.274   2.321   3.997  0.00  0.00     0.088 A 
ATOM     12  H   UNL d   1      -0.419   2.339   2.955  0.00  0.00     0.165 HD
ATOM     13  C   UNL d   1      -3.378   1.516   3.844  0.00  0.00     0.019 A 
ATOM     14  C   UNL d   1      -3.107   0.633   2.770  0.00  0.00     0.036 A 
ENDBRANCH   6   9
ENDBRANCH   3   5
ENDBRANCH   1   3
BRANCH   1  15
ATOM     15  N   UNL d   1      -1.090  -3.115  -1.990  0.00  0.00    -0.332 N 
ATOM     16  H   UNL d   1      -1.595  -3.982  -2.150  0.00  0.00     0.168 HD
BRANCH  15  17
ATOM     17  C   UNL d   1       0.092  -2.967  -2.743  0.00  0.00     0.035 A 
ATOM     18  C   UNL d   1       0.601  -4.126  -3.340  0.00  0.00     0.053 A 
ATOM     19  C   UNL d   1       1.689  -4.063  -4.217  0.00  0.00     0.042 A 
ATOM     20 CL   UNL d   1       2.239  -5.539  -4.927  0.00  0.00    -0.084 Cl
ATOM     21  C   UNL d   1       2.286  -2.835  -4.523  0.00  0.00    -0.040 A 
ATOM     22  C   UNL d   1       1.797  -1.682  -3.892  0.00  0.00     0.011 A 
ATOM     23  C   UNL d   1       3.399  -2.720  -5.527  0.00  0.00     0.050 C 
ATOM     24  C   UNL d   1       0.708  -1.746  -3.013  0.00  0.00     0.030 A 
ENDBRANCH  15  17
ENDBRANCH   1  15
TORSDOF 5
