REMARK  5 active torsions:
REMARK  status: ('A' for Active; 'I' for Inactive)
REMARK    1  A    between atoms: C_7  and  C_2 
REMARK    2  A    between atoms: C_3  and  C_6 
REMARK    3  A    between atoms: N_13  and  C_4 
REMARK    4  A    between atoms: O_17  and  C_7 
REMARK    5  A    between atoms: C_20  and  O_17 
ROOT
ATOM      1  C   UNL d   1      -0.965  -4.516  -0.070  0.00  0.00     0.110 A 
ATOM      2  C   UNL d   1      -0.570  -5.874  -0.097  0.00  0.00     0.053 A 
ATOM      3  C   UNL d   1      -0.004  -3.480  -0.046  0.00  0.00     0.149 A 
ATOM      4  C   UNL d   1       1.377  -3.724  -0.068  0.00  0.00     0.006 A 
ATOM      5  C   UNL d   1      -2.336  -4.098  -0.138  0.00  0.00     0.105 C 
ATOM      6  N   UNL d   1      -3.444  -3.750  -0.174  0.00  0.00    -0.191 NA
ATOM      7  C   UNL d   1       0.824  -6.090  -0.117  0.00  0.00     0.032 A 
ATOM      8  C   UNL d   1       1.770  -5.054  -0.138  0.00  0.00     0.017 A 
ATOM      9  F   UNL d   1      -0.424  -2.202  -0.021  0.00  0.00    -0.203 F 
ENDROOT
BRANCH   2  10
ATOM     10  N   UNL d   1      -1.430  -6.964  -0.154  0.00  0.00    -0.388 N 
ATOM     11  C   UNL d   1      -1.018  -8.243  -0.740  0.00  0.00     0.149 C 
ATOM     12  C   UNL d   1      -2.711  -7.025   0.553  0.00  0.00     0.149 C 
ENDBRANCH   2  10
BRANCH   4  13
ATOM     13  C   UNL d   1       2.330  -2.584  -0.086  0.00  0.00     0.043 C 
ATOM     14  C   UNL d   1       3.575  -2.522   0.437  0.00  0.00     0.120 C 
ATOM     15  C   UNL d   1       4.180  -3.608   1.134  0.00  0.00     0.105 C 
ATOM     16  N   UNL d   1       4.640  -4.517   1.682  0.00  0.00    -0.191 NA
BRANCH  14  17
ATOM     17  C   UNL d   1       4.403  -1.285   0.413  0.00  0.00     0.303 C 
ATOM     18  O   UNL d   1       5.537  -1.236   0.870  0.00  0.00    -0.258 OA
BRANCH  17  19
ATOM     19  O   UNL d   1       3.715  -0.217  -0.065  0.00  0.00    -0.317 OA
BRANCH  19  20
ATOM     20  C   UNL d   1       4.251   1.060   0.318  0.00  0.00     0.174 C 
ATOM     21  C   UNL d   1       3.610   1.448   1.638  0.00  0.00     0.034 C 
ENDBRANCH  19  20
ENDBRANCH  17  19
ENDBRANCH  14  17
ENDBRANCH   4  13
TORSDOF 5
