REMARK  2 active torsions:
REMARK  status: ('A' for Active; 'I' for Inactive)
REMARK    1  A    between atoms: C_8  and  C_3 
REMARK    2  A    between atoms: C_7  and  C_4 
ROOT
ATOM      1  N   UNL d   1       1.415  -0.618   0.036  0.00  0.00    -0.349 N 
ATOM      2  HN  UNL d   1       2.298  -1.125   0.093  1.00  0.00     0.166 HD
ATOM      3  C   UNL d   1       0.224  -1.184  -0.019  0.00  0.00     0.085 A 
ATOM      4  C   UNL d   1       1.298   0.766   0.006  0.00  0.00     0.050 A 
ATOM      5  S   UNL d   1      -1.099  -0.078  -0.005  0.00  0.00    -0.081 SA
ATOM      6  C   UNL d   1      -0.002   1.232   0.009  0.00  0.00     0.082 A 
ENDROOT
BRANCH   3   7
ATOM      7  C   UNL d   1      -0.008  -2.637  -0.044  0.00  0.00     0.000 A 
ATOM      8  C   UNL d   1       0.908  -3.491   0.577  0.00  0.00     0.031 A 
ATOM      9  C   UNL d   1       0.678  -4.857   0.544  0.00  0.00     0.088 A 
ATOM     10  N   UNL d   1      -0.383  -5.425  -0.065  0.00  0.00    -0.375 N 
ATOM     11  C   UNL d   1      -1.249  -4.591  -0.674  0.00  0.00     0.088 A 
ATOM     12  HN  UNL d   1      -0.523  -6.435  -0.065  1.00  0.00     0.164 HD
ATOM     13  C   UNL d   1      -1.108  -3.213  -0.692  0.00  0.00     0.031 A 
ENDBRANCH   3   7
BRANCH   4  14
ATOM     14  C   UNL d   1       2.469   1.637  -0.001  0.00  0.00    -0.009 A 
ATOM     15  C   UNL d   1       2.429   2.914  -0.579  0.00  0.00     0.014 A 
ATOM     16  C   UNL d   1       3.554   3.744  -0.559  0.00  0.00     0.007 A 
ATOM     17  C   UNL d   1       4.744   3.311   0.035  0.00  0.00    -0.062 A 
ATOM     18  C   UNL d   1       4.795   2.032   0.597  0.00  0.00     0.007 A 
ATOM     19  C   UNL d   1       5.936   4.221   0.061  0.00  0.00     0.048 C 
ATOM     20  C   UNL d   1       3.668   1.200   0.574  0.00  0.00     0.014 A 
ENDBRANCH   4  14
TORSDOF 2
