REMARK  3 active torsions:
REMARK  status: ('A' for Active; 'I' for Inactive)
REMARK    1  A    between atoms: C_8  and  C_1 
REMARK    2  A    between atoms: C_14  and  C_8 
REMARK    3  A    between atoms: O_22  and  C_16 
ROOT
ATOM      1  C   UNL d   1      -2.341   0.565  -0.155  0.00  0.00     0.029 A 
ATOM      2  C   UNL d   1      -2.150  -0.912  -0.226  0.00  0.00     0.295 A 
ATOM      3  C   UNL d   1      -1.281   1.404  -0.094  0.00  0.00    -0.036 A 
ATOM      4  O   UNL d   1      -0.857  -1.399  -0.169  0.00  0.00    -0.274 OA
ATOM      5  C   UNL d   1       0.249  -0.540  -0.098  0.00  0.00     0.092 A 
ATOM      6  C   UNL d   1       0.086   0.843  -0.080  0.00  0.00     0.005 A 
ATOM      7  C   UNL d   1       1.503  -1.156  -0.048  0.00  0.00     0.074 A 
ATOM      8  C   UNL d   1       1.252   1.623  -0.018  0.00  0.00     0.017 A 
ATOM      9  O   UNL d   1      -3.100  -1.687  -0.316  0.00  0.00    -0.259 OA
ATOM     10  C   UNL d   1       2.634  -0.357   0.015  0.00  0.00     0.068 A 
ATOM     11  C   UNL d   1       2.518   1.026   0.028  0.00  0.00     0.037 A 
ATOM     12  C   UNL d   1      -1.402   2.905  -0.009  0.00  0.00     0.050 C 
ENDROOT
BRANCH   1  13
ATOM     13  C   UNL d   1      -3.792   0.987  -0.031  0.00  0.00     0.084 C 
BRANCH  13  14
ATOM     14  C   UNL d   1      -4.493   1.367  -1.321  0.00  0.00    -0.052 A 
ATOM     15  C   UNL d   1      -4.974   2.674  -1.505  0.00  0.00     0.033 A 
ATOM     16  C   UNL d   1      -5.732   3.012  -2.635  0.00  0.00     0.056 A 
ATOM     17 CL   UNL d   1      -6.308   4.637  -2.757  0.00  0.00    -0.083 Cl
ATOM     18  C   UNL d   1      -6.015   2.042  -3.599  0.00  0.00     0.055 A 
ATOM     19  C   UNL d   1      -5.524   0.744  -3.436  0.00  0.00     0.026 A 
ATOM     20 CL   UNL d   1      -6.983   2.370  -4.992  0.00  0.00    -0.083 Cl
ATOM     21  C   UNL d   1      -4.771   0.409  -2.306  0.00  0.00     0.009 A 
ENDBRANCH  13  14
ENDBRANCH   1  13
BRANCH  10  22
ATOM     22  O   UNL d   1       3.886  -0.891   0.063  0.00  0.00    -0.361 OA
ATOM     23  H   UNL d   1       3.818  -1.859   0.025  0.00  0.00     0.217 HD
ENDBRANCH  10  22
TORSDOF 3
