REMARK  10 active torsions:
REMARK  status: ('A' for Active; 'I' for Inactive)
REMARK    1  A    between atoms: C_4  and  S_1 
REMARK    2  A    between atoms: N_12  and  S_1 
REMARK    3  A    between atoms: C_2  and  C_5 
REMARK    4  A    between atoms: C_3  and  C_6 
REMARK    5  A    between atoms: C_21  and  N_12 
REMARK    6  A    between atoms: N_19  and  C_22 
REMARK    7  A    between atoms: C_23  and  N_19 
REMARK    8  A    between atoms: C_24  and  N_19 
REMARK    9  A    between atoms: C_20  and  C_21 
REMARK   10  A    between atoms: C_22  and  C_20 
ROOT
ATOM      1  C   UNL d   1       0.188   1.472   0.835  0.00  0.00     0.081 A 
ATOM      2  C   UNL d   1       0.285   3.888   1.045  0.00  0.00     0.050 A 
ATOM      3  C   UNL d   1      -1.268   2.578   2.425  0.00  0.00     0.050 A 
ATOM      4  C   UNL d   1       0.731   2.702   0.443  0.00  0.00     0.041 A 
ATOM      5  C   UNL d   1      -0.795   1.403   1.825  0.00  0.00     0.041 A 
ATOM      6  C   UNL d   1      -0.710   3.812   2.038  0.00  0.00     0.032 A 
ENDROOT
BRANCH   1   7
ATOM      7  S   UNL d   1       0.729  -0.021   0.035  0.00  0.00     0.258 S 
ATOM      8  O   UNL d   1       0.409   0.113  -1.365  0.00  0.00    -0.201 OA
ATOM      9  O   UNL d   1       0.278  -1.143   0.831  0.00  0.00    -0.201 OA
BRANCH   7  10
ATOM     10  N   UNL d   1       2.398   0.054   0.160  0.00  0.00    -0.315 N 
ATOM     11  H   UNL d   1       2.804   0.578  -0.613  0.00  0.00     0.172 HD
BRANCH  10  12
ATOM     12  C   UNL d   1       3.016   0.183   1.484  0.00  0.00     0.134 C 
BRANCH  12  13
ATOM     13  C   UNL d   1       4.537   0.132   1.361  0.00  0.00     0.050 C 
BRANCH  13  14
ATOM     14  C   UNL d   1       5.146   1.272   0.526  0.00  0.00     0.274 C 
BRANCH  14  15
ATOM     15  N   UNL d   1       4.821   2.646   0.967  0.00  0.00     0.087 N 
BRANCH  15  16
ATOM     16  C   UNL d   1       5.274   2.931   2.342  0.00  0.00     0.268 C 
ATOM     17  C   UNL d   1       6.783   2.931   2.573  0.00  0.00     0.037 C 
ENDBRANCH  15  16
BRANCH  15  18
ATOM     18  C   UNL d   1       5.339   3.607  -0.031  0.00  0.00     0.268 C 
ATOM     19  C   UNL d   1       5.064   5.076   0.276  0.00  0.00     0.037 C 
ENDBRANCH  15  18
ENDBRANCH  14  15
ENDBRANCH  13  14
ENDBRANCH  12  13
ENDBRANCH  10  12
ENDBRANCH   7  10
ENDBRANCH   1   7
BRANCH   2  20
ATOM     20  C   UNL d   1       0.831   5.232   0.620  0.00  0.00     0.417 C 
ATOM     21  F   UNL d   1       1.733   5.155  -0.397  0.00  0.00    -0.166 F 
ATOM     22  F   UNL d   1      -0.149   6.070   0.183  0.00  0.00    -0.166 F 
ATOM     23  F   UNL d   1       1.459   5.885   1.635  0.00  0.00    -0.166 F 
ENDBRANCH   2  20
BRANCH   3  24
ATOM     24  C   UNL d   1      -2.393   2.534   3.434  0.00  0.00     0.417 C 
ATOM     25  F   UNL d   1      -2.842   1.276   3.693  0.00  0.00    -0.166 F 
ATOM     26  F   UNL d   1      -2.037   3.062   4.636  0.00  0.00    -0.166 F 
ATOM     27  F   UNL d   1      -3.479   3.241   3.018  0.00  0.00    -0.166 F 
ENDBRANCH   3  24
TORSDOF 10
