REMARK  3 active torsions:
REMARK  status: ('A' for Active; 'I' for Inactive)
REMARK    1  A    between atoms: S_15  and  C_4 
REMARK    2  A    between atoms: C_9  and  C_5 
REMARK    3  A    between atoms: S_17  and  C_6 
ROOT
ATOM      1  N   UNL d   1       1.524   1.148   0.022  0.00  0.00    -0.330 N 
ATOM      2  HN  UNL d   1       2.049   2.022   0.034  1.00  0.00     0.168 HD
ATOM      3  C   UNL d   1      -0.573  -0.028   0.024  0.00  0.00     0.106 A 
ATOM      4  C   UNL d   1       0.176   1.141   0.040  0.00  0.00     0.094 A 
ATOM      5  C   UNL d   1       0.161  -1.201  -0.014  0.00  0.00     0.075 A 
ATOM      6  C   UNL d   1       2.146  -0.033  -0.013  0.00  0.00     0.145 A 
ATOM      7  N   UNL d   1       1.514  -1.208  -0.026  0.00  0.00    -0.334 N 
ATOM      8  HN  UNL d   1       2.035  -2.084  -0.045  1.00  0.00     0.168 HD
ATOM      9  C   UNL d   1      -1.999  -0.014   0.036  0.00  0.00     0.104 C 
ATOM     10  N   UNL d   1      -3.158  -0.027   0.068  0.00  0.00    -0.191 NA
ENDROOT
BRANCH   4  11
ATOM     11  S   UNL d   1      -0.614   2.756   0.098  0.00  0.00    -0.115 SA
ATOM     12  C   UNL d   1       0.825   3.860   0.057  0.00  0.00     0.097 C 
ENDBRANCH   4  11
BRANCH   5  13
ATOM     13  C   UNL d   1      -0.419  -2.561  -0.018  0.00  0.00     0.033 A 
ATOM     14  S   UNL d   1       0.349  -3.804  -0.942  0.00  0.00    -0.100 SA
ATOM     15  C   UNL d   1      -0.775  -4.985  -0.442  0.00  0.00     0.050 A 
ATOM     16  C   UNL d   1      -1.738  -4.460   0.386  0.00  0.00     0.008 A 
ATOM     17  C   UNL d   1      -1.531  -3.070   0.633  0.00  0.00     0.021 A 
ENDBRANCH   5  13
BRANCH   6  18
ATOM     18  S   UNL d   1       3.918  -0.004  -0.036  0.00  0.00    -0.098 SA
ATOM     19  C   UNL d   1       4.271  -1.780  -0.066  0.00  0.00     0.099 C 
ENDBRANCH   6  18
TORSDOF 3
