REMARK  4 active torsions:
REMARK  status: ('A' for Active; 'I' for Inactive)
REMARK    1  A    between atoms: C_5  and  N_1 
REMARK    2  A    between atoms: N_15  and  C_2 
REMARK    3  A    between atoms: S_16  and  C_8 
REMARK    4  A    between atoms: C_11  and  C_12 
ROOT
ATOM      1  N   UNL d   1      -0.007  -1.196   0.017  0.00  0.00    -0.225 N 
ATOM      2  C   UNL d   1       1.202  -0.565   0.346  0.00  0.00     0.179 A 
ATOM      3  N   UNL d   1       1.082   0.728   0.180  0.00  0.00    -0.311 N 
ATOM      4  HN  UNL d   1       1.774   1.455   0.362  1.00  0.00     0.170 HD
ATOM      5  N   UNL d   1      -0.885  -0.255  -0.408  0.00  0.00    -0.270 N 
ATOM      6  HN  UNL d   1      -1.843  -0.379  -0.735  1.00  0.00     0.190 HD
ATOM      7  C   UNL d   1      -0.183   0.872  -0.291  0.00  0.00     0.161 A 
ENDROOT
BRANCH   1   8
ATOM      8  C   UNL d   1      -0.347  -2.577   0.049  0.00  0.00     0.102 A 
ATOM      9  C   UNL d   1       0.063  -3.403   1.112  0.00  0.00     0.065 A 
ATOM     10  C   UNL d   1      -0.151  -4.789   1.073  0.00  0.00     0.042 A 
ATOM     11 CL   UNL d   1       0.695  -2.810   2.614  0.00  0.00    -0.082 Cl
ATOM     12  C   UNL d   1      -0.826  -5.383   0.005  0.00  0.00     0.051 A 
ATOM     13  C   UNL d   1      -1.316  -4.554  -1.011  0.00  0.00     0.042 A 
ATOM     14  C   UNL d   1      -1.082  -3.167  -1.000  0.00  0.00     0.065 A 
ATOM     15 CL   UNL d   1      -1.657  -2.325  -2.401  0.00  0.00    -0.082 Cl
BRANCH  12  16
ATOM     16  C   UNL d   1      -1.037  -6.876  -0.054  0.00  0.00     0.417 C 
ATOM     17  F   UNL d   1      -0.451  -7.543   0.979  0.00  0.00    -0.166 F 
ATOM     18  F   UNL d   1      -2.352  -7.217  -0.025  0.00  0.00    -0.166 F 
ATOM     19  F   UNL d   1      -0.526  -7.424  -1.189  0.00  0.00    -0.166 F 
ENDBRANCH  12  16
ENDBRANCH   1   8
BRANCH   2  20
ATOM     20  N   UNL d   1       2.355  -1.177   0.696  0.00  0.00    -0.272 NA
ATOM     21  H   UNL d   1       2.317  -2.050   1.217  0.00  0.00     0.127 HD
ATOM     22  H   UNL d   1       3.056  -0.551   1.086  0.00  0.00     0.127 HD
ENDBRANCH   2  20
BRANCH   7  23
ATOM     23  S   UNL d   1      -0.866   2.413  -0.740  0.00  0.00    -0.097 SA
ATOM     24  C   UNL d   1       0.481   3.514  -0.255  0.00  0.00     0.099 C 
ENDBRANCH   7  23
TORSDOF 4
