REMARK  6 active torsions:
REMARK  status: ('A' for Active; 'I' for Inactive)
REMARK    1  A    between atoms: C_6  and  N_1 
REMARK    2  A    between atoms: C_3  and  C_8 
REMARK    3  A    between atoms: C_15  and  C_4 
REMARK    4  A    between atoms: C_16  and  C_4 
REMARK    5  A    between atoms: O_17  and  C_15 
REMARK    6  A    between atoms: O_18  and  C_16 
ROOT
ATOM      1  N   UNL d   1      -2.371   5.008   1.544  0.00  0.00     0.133 N 
ATOM      2  C   UNL d   1      -2.047   3.954   2.509  0.00  0.00     0.392 C 
ATOM      3  C   UNL d   1      -1.757   6.253   2.081  0.00  0.00     0.223 C 
ATOM      4  O   UNL d   1      -1.213   4.497   3.529  0.00  0.00    -0.351 OA
ATOM      5  C   UNL d   1      -1.476   5.903   3.539  0.00  0.00     0.217 C 
ATOM      6  H   UNL d   1      -3.383   5.093   1.544  0.00  0.00     0.321 HD
ENDROOT
BRANCH   2   7
ATOM      7  C   UNL d   1      -1.335   2.763   1.891  0.00  0.00     0.000 A 
ATOM      8  C   UNL d   1      -0.979   2.714   0.529  0.00  0.00     0.014 A 
ATOM      9  C   UNL d   1      -0.274   1.628   0.006  0.00  0.00     0.037 A 
ATOM     10  C   UNL d   1       0.068   0.562   0.842  0.00  0.00     0.102 A 
ATOM     11  C   UNL d   1      -0.289   0.578   2.196  0.00  0.00     0.037 A 
ATOM     12  C   UNL d   1      -0.984   1.675   2.712  0.00  0.00     0.014 A 
BRANCH  10  13
ATOM     13  N   UNL d   1       0.808  -0.583   0.298  0.00  0.00    -0.116 N 
ATOM     14  O   UNL d   1       1.075  -1.514   1.064  0.00  0.00    -0.532 OA
ATOM     15  O   UNL d   1       1.117  -0.549  -0.905  0.00  0.00    -0.532 OA
ENDBRANCH  10  13
ENDBRANCH   2   7
BRANCH   3  16
ATOM     16  C   UNL d   1      -0.454   6.589   1.302  0.00  0.00     0.210 C 
BRANCH  16  17
ATOM     17  O   UNL d   1       0.607   5.661   1.489  0.00  0.00    -0.398 OA
ATOM     18  H   UNL d   1       0.209   4.781   1.601  0.00  0.00     0.209 HD
ENDBRANCH  16  17
ENDBRANCH   3  16
BRANCH   3  19
ATOM     19  C   UNL d   1      -2.711   7.459   1.942  0.00  0.00     0.210 C 
BRANCH  19  20
ATOM     20  O   UNL d   1      -3.907   7.284   2.699  0.00  0.00    -0.398 OA
ATOM     21  H   UNL d   1      -4.503   6.702   2.201  0.00  0.00     0.209 HD
ENDBRANCH  19  20
ENDBRANCH   3  19
TORSDOF 6
