REMARK  7 active torsions:
REMARK  status: ('A' for Active; 'I' for Inactive)
REMARK    1  A    between atoms: C_4  and  C_1 
REMARK    2  A    between atoms: N_6  and  C_2 
REMARK    3  A    between atoms: O_12  and  C_4 
REMARK       I    between atoms: C_9  and  N_6 
REMARK    4  A    between atoms: O_13  and  C_7 
REMARK    5  A    between atoms: O_14  and  C_8 
REMARK    6  A    between atoms: C_15  and  C_9 
REMARK    7  A    between atoms: O_16  and  C_15 
ROOT
ATOM      1  C   UNL d   1       1.417  -0.232   0.118  0.00  0.00     0.069 A 
ATOM      2  C   UNL d   1       0.587  -1.366   0.089  0.00  0.00     0.053 A 
ATOM      3  C   UNL d   1       0.829   1.037   0.148  0.00  0.00     0.059 A 
ATOM      4  C   UNL d   1      -0.815  -1.196   0.038  0.00  0.00     0.070 A 
ATOM      5  C   UNL d   1      -0.563   1.201   0.116  0.00  0.00     0.102 A 
ATOM      6  C   UNL d   1      -1.398   0.076   0.030  0.00  0.00     0.103 A 
ENDROOT
BRANCH   2   7
ATOM      7  N   UNL d   1       1.129  -2.672   0.040  0.00  0.00    -0.324 N 
ATOM      8  C   UNL d   1       0.627  -3.718   0.801  0.00  0.00     0.245 C 
ATOM      9  O   UNL d   1      -0.300  -3.642   1.598  0.00  0.00    -0.271 OA
ATOM     10  H   UNL d   1       2.122  -2.767  -0.180  0.00  0.00     0.169 HD
BRANCH   8  11
ATOM     11  C   UNL d   1       1.390  -5.029   0.570  0.00  0.00     0.270 C 
BRANCH  11  12
ATOM     12  O   UNL d   1       2.802  -4.882   0.510  0.00  0.00    -0.387 OA
ATOM     13  C   UNL d   1       3.362  -4.574   1.784  0.00  0.00     0.202 C 
ENDBRANCH  11  12
ENDBRANCH   8  11
ENDBRANCH   2   7
BRANCH   1  14
ATOM     14  C   UNL d   1       2.882  -0.370   0.225  0.00  0.00     0.295 C 
ATOM     15  O   UNL d   1       3.462  -1.364   0.643  0.00  0.00    -0.259 OA
BRANCH  14  16
ATOM     16  O   UNL d   1       3.488   0.755  -0.239  0.00  0.00    -0.322 OA
ATOM     17  C   UNL d   1       4.914   0.753  -0.159  0.00  0.00     0.213 C 
ENDBRANCH  14  16
ENDBRANCH   1  14
BRANCH   6  18
ATOM     18  O   UNL d   1      -2.742   0.293  -0.090  0.00  0.00    -0.353 OA
ATOM     19  C   UNL d   1      -3.598  -0.830  -0.263  0.00  0.00     0.210 C 
ENDBRANCH   6  18
BRANCH   5  20
ATOM     20  O   UNL d   1      -0.942   2.518   0.126  0.00  0.00    -0.353 OA
ATOM     21  C   UNL d   1      -2.194   2.823   0.728  0.00  0.00     0.210 C 
ENDBRANCH   5  20
TORSDOF 7
