REMARK  9 active torsions:
REMARK  status: ('A' for Active; 'I' for Inactive)
REMARK    1  A    between atoms: C_2  and  C_1 
REMARK    2  A    between atoms: C_3  and  C_1 
REMARK    3  A    between atoms: O_20  and  C_2 
REMARK    4  A    between atoms: O_19  and  C_3 
REMARK    5  A    between atoms: N_12  and  C_7 
REMARK    6  A    between atoms: C_11  and  N_15 
REMARK    7  A    between atoms: N_15  and  N_12 
REMARK    8  A    between atoms: C_24  and  O_19 
REMARK    9  A    between atoms: C_23  and  O_20 
ROOT
ATOM      1  N   UNL d   1       3.170   1.105   0.425  0.00  0.00    -0.310 N 
ATOM      2  H   UNL d   1       2.735   1.739   1.105  0.00  0.00     0.186 HD
ENDROOT
BRANCH   1   3
ATOM      3  C   UNL d   1       2.318   0.140  -0.059  0.00  0.00     0.131 C 
ATOM      4  C   UNL d   1       0.971   0.095  -0.018  0.00  0.00     0.131 C 
BRANCH   4   5
ATOM      5  C   UNL d   1       0.136   1.193   0.528  0.00  0.00     0.300 C 
ATOM      6  O   UNL d   1      -1.021   1.405   0.192  0.00  0.00    -0.259 OA
BRANCH   5   7
ATOM      7  O   UNL d   1       0.823   1.963   1.420  0.00  0.00    -0.318 OA
BRANCH   7   8
ATOM      8  C   UNL d   1       0.080   3.061   1.977  0.00  0.00     0.174 C 
ATOM      9  C   UNL d   1       0.054   4.237   1.016  0.00  0.00     0.034 C 
ENDBRANCH   7   8
ENDBRANCH   5   7
ENDBRANCH   4   5
BRANCH   4  10
ATOM     10  C   UNL d   1       0.339  -1.049  -0.720  0.00  0.00     0.300 C 
ATOM     11  O   UNL d   1       0.903  -1.738  -1.560  0.00  0.00    -0.259 OA
BRANCH  10  12
ATOM     12  O   UNL d   1      -0.950  -1.192  -0.330  0.00  0.00    -0.318 OA
BRANCH  12  13
ATOM     13  C   UNL d   1      -1.805  -1.895  -1.242  0.00  0.00     0.174 C 
ATOM     14  C   UNL d   1      -2.307  -0.914  -2.290  0.00  0.00     0.034 C 
ENDBRANCH  12  13
ENDBRANCH  10  12
ENDBRANCH   4  10
ENDBRANCH   1   3
BRANCH   1  15
ATOM     15  N   UNL d   1       4.529   1.145   0.346  0.00  0.00    -0.300 N 
ATOM     16  H   UNL d   1       4.959   0.411  -0.220  0.00  0.00     0.187 HD
BRANCH  15  17
ATOM     17  C   UNL d   1       5.245   2.373   0.207  0.00  0.00     0.061 A 
ATOM     18  C   UNL d   1       6.666   2.393   0.189  0.00  0.00     0.019 A 
ATOM     19  C   UNL d   1       7.299   3.662   0.131  0.00  0.00     0.046 A 
ATOM     20  C   UNL d   1       7.484   1.237   0.237  0.00  0.00     0.018 A 
ATOM     21  C   UNL d   1       8.682   3.733   0.118  0.00  0.00     0.054 A 
ATOM     22  N   UNL d   1       6.622   4.817   0.099  0.00  0.00    -0.365 N 
ATOM     23  C   UNL d   1       9.469   2.588   0.160  0.00  0.00     0.036 A 
ATOM     24  C   UNL d   1       8.876   1.334   0.218  0.00  0.00     0.025 A 
ATOM     25 CL   UNL d   1      11.184   2.723   0.149  0.00  0.00    -0.084 Cl
ATOM     26  C   UNL d   1       5.279   4.765   0.135  0.00  0.00     0.090 A 
ATOM     27  HN  UNL d   1       7.112   5.711   0.048  1.00  0.00     0.165 HD
ATOM     28  C   UNL d   1       4.558   3.592   0.200  0.00  0.00     0.049 A 
ENDBRANCH  15  17
ENDBRANCH   1  15
TORSDOF 9
