REMARK  4 active torsions:
REMARK  status: ('A' for Active; 'I' for Inactive)
REMARK    1  A    between atoms: N_2  and  C_1 
REMARK    2  A    between atoms: N_6  and  C_3 
REMARK    3  A    between atoms: C_4  and  C_8 
REMARK    4  A    between atoms: N_9  and  N_6 
REMARK       I    between atoms: C_7  and  N_9 
REMARK       I    between atoms: N_18  and  C_7 
ROOT
ATOM      1  C   UNL d   1       1.438  -0.170   0.236  0.00  0.00     0.131 A 
ATOM      2  C   UNL d   1       0.565  -1.281   0.124  0.00  0.00     0.083 A 
ATOM      3  C   UNL d   1       0.950   1.156   0.302  0.00  0.00     0.054 A 
ATOM      4  C   UNL d   1      -0.422   1.418   0.323  0.00  0.00     0.050 A 
ATOM      5  C   UNL d   1      -0.813  -0.980   0.235  0.00  0.00     0.034 A 
ATOM      6  C   UNL d   1      -1.299   0.331   0.333  0.00  0.00     0.019 A 
ENDROOT
BRANCH   2   7
ATOM      7  N   UNL d   1       0.976  -2.608  -0.126  0.00  0.00    -0.290 N 
ATOM      8  C   UNL d   1       0.018  -3.713  -0.075  0.00  0.00     0.178 C 
BRANCH   7   9
ATOM      9  N   UNL d   1       1.980  -2.806  -1.115  0.00  0.00    -0.249 N 
ATOM     10  C   UNL d   1       2.025  -2.110  -2.316  0.00  0.00     0.334 C 
ATOM     11  O   UNL d   1       1.248  -1.230  -2.662  0.00  0.00    -0.246 OA
ATOM     12  N   UNL d   1       3.066  -2.544  -3.107  0.00  0.00    -0.346 N 
ATOM     13  C   UNL d   1       3.372  -1.905  -4.362  0.00  0.00     0.151 C 
ATOM     14  H   UNL d   1       3.756  -3.159  -2.703  0.00  0.00     0.163 HD
ATOM     15  H   UNL d   1       2.824  -3.233  -0.750  0.00  0.00     0.192 HD
ENDBRANCH   7   9
ENDBRANCH   2   7
BRANCH   1  16
ATOM     16  N   UNL d   1       2.899  -0.336   0.340  0.00  0.00    -0.113 N 
ATOM     17  O   UNL d   1       3.358  -1.372   0.831  0.00  0.00    -0.532 OA
ATOM     18  O   UNL d   1       3.607   0.625  -0.027  0.00  0.00    -0.532 OA
ENDBRANCH   1  16
BRANCH   4  19
ATOM     19  C   UNL d   1      -0.964   2.828   0.333  0.00  0.00     0.417 C 
ATOM     20  F   UNL d   1       0.006   3.784   0.296  0.00  0.00    -0.166 F 
ATOM     21  F   UNL d   1      -1.780   3.080  -0.726  0.00  0.00    -0.166 F 
ATOM     22  F   UNL d   1      -1.703   3.089   1.446  0.00  0.00    -0.166 F 
ENDBRANCH   4  19
TORSDOF 4
