REMARK  5 active torsions:
REMARK  status: ('A' for Active; 'I' for Inactive)
REMARK    1  A    between atoms: C_12  and  C_1 
REMARK    2  A    between atoms: C_10  and  C_2 
REMARK       I    between atoms: C_6  and  N_13 
REMARK    3  A    between atoms: C_11  and  C_6 
REMARK    4  A    between atoms: N_13  and  N_8 
REMARK    5  A    between atoms: O_26  and  C_20 
ROOT
ATOM      1  C   UNL d   1       1.116   0.784   0.054  0.00  0.00     0.026 A 
ATOM      2  C   UNL d   1      -0.266   1.157   0.051  0.00  0.00     0.071 A 
ATOM      3  N   UNL d   1      -1.048   0.065   0.104  0.00  0.00    -0.299 N 
ATOM      4  HN  UNL d   1      -2.066   0.030   0.163  1.00  0.00     0.187 HD
ATOM      5  N   UNL d   1      -0.195  -0.969   0.064  0.00  0.00    -0.310 N 
ATOM      6  C   UNL d   1       1.110  -0.595   0.032  0.00  0.00     0.122 A 
ATOM      7  H   UNL d   1      -0.578  -1.909   0.063  0.00  0.00     0.186 HD
ENDROOT
BRANCH   1   8
ATOM      8  C   UNL d   1       2.284   1.631   0.070  0.00  0.00     0.122 C 
ATOM      9  N   UNL d   1       3.386   1.202  -0.449  0.00  0.00    -0.308 N 
ATOM     10  HN  UNL d   1       3.474   0.262  -0.835  1.00  0.00     0.186 HD
BRANCH   9  11
ATOM     11  N   UNL d   1       4.427   2.088  -0.448  0.00  0.00    -0.266 N 
ATOM     12  C   UNL d   1       5.616   1.746  -1.078  0.00  0.00     0.270 C 
ATOM     13  O   UNL d   1       5.852   0.674  -1.622  0.00  0.00    -0.266 OA
ATOM     14  H   UNL d   1       4.338   2.957   0.063  0.00  0.00     0.190 HD
BRANCH  12  15
ATOM     15  C   UNL d   1       6.679   2.790  -1.046  0.00  0.00     0.033 A 
ATOM     16  C   UNL d   1       8.017   2.371  -1.010  0.00  0.00     0.019 A 
ATOM     17  C   UNL d   1       9.050   3.311  -0.972  0.00  0.00     0.025 A 
ATOM     18  C   UNL d   1       8.747   4.671  -0.983  0.00  0.00     0.034 A 
ATOM     19  C   UNL d   1       7.420   5.099  -1.044  0.00  0.00     0.025 A 
ATOM     20 CL   UNL d   1      10.016   5.830  -0.931  0.00  0.00    -0.084 Cl
ATOM     21  C   UNL d   1       6.384   4.160  -1.080  0.00  0.00     0.019 A 
ENDBRANCH  12  15
ENDBRANCH   9  11
ENDBRANCH   1   8
BRANCH   2  22
ATOM     22  C   UNL d   1      -0.852   2.500  -0.025  0.00  0.00    -0.007 A 
ATOM     23  C   UNL d   1      -0.217   3.524  -0.742  0.00  0.00     0.016 A 
ATOM     24  C   UNL d   1      -0.755   4.816  -0.786  0.00  0.00     0.037 A 
ATOM     25  C   UNL d   1      -1.955   5.093  -0.135  0.00  0.00     0.068 A 
ATOM     26  C   UNL d   1      -2.629   4.066   0.525  0.00  0.00     0.037 A 
ATOM     27  C   UNL d   1      -2.079   2.780   0.589  0.00  0.00     0.016 A 
BRANCH  25  28
ATOM     28  O   UNL d   1      -2.577   6.311  -0.127  0.00  0.00    -0.356 OA
ATOM     29  C   UNL d   1      -1.712   7.439  -0.215  0.00  0.00     0.210 C 
ENDBRANCH  25  28
ENDBRANCH   2  22
TORSDOF 5
