REMARK  4 active torsions:
REMARK  status: ('A' for Active; 'I' for Inactive)
REMARK    1  A    between atoms: C_10  and  C_1 
REMARK    2  A    between atoms: C_12  and  C_2 
REMARK    3  A    between atoms: C_3  and  C_5 
REMARK    4  A    between atoms: N_11  and  C_4 
REMARK       I    between atoms: C_5  and  N_11 
ROOT
ATOM      1  C   UNL d   1       1.497  -3.011   0.471  0.00  0.00     0.261 C 
ATOM      2  N   UNL d   1       0.394  -2.319  -0.026  0.00  0.00    -0.319 N 
ATOM      3  O   UNL d   1       1.527  -4.220   0.674  0.00  0.00    -0.267 OA
ATOM      4  H   UNL d   1       0.618  -1.489  -0.559  0.00  0.00     0.169 HD
ENDROOT
BRANCH   1   5
ATOM      5  C   UNL d   1       2.681  -2.195   0.641  0.00  0.00     0.093 A 
ATOM      6  C   UNL d   1       2.858  -0.891   1.208  0.00  0.00     0.086 A 
ATOM      7  N   UNL d   1       4.160  -0.564   1.217  0.00  0.00    -0.259 N 
ATOM      8  O   UNL d   1       4.832  -1.600   0.614  0.00  0.00    -0.241 OA
ATOM      9  HN  UNL d   1       4.571   0.288   1.597  1.00  0.00     0.195 HD
ATOM     10  C   UNL d   1       3.955  -2.575   0.274  0.00  0.00     0.090 A 
ATOM     11  C   UNL d   1       4.523  -3.745  -0.429  0.00  0.00     0.080 C 
BRANCH   6  12
ATOM     12  C   UNL d   1       1.853   0.043   1.726  0.00  0.00     0.037 A 
ATOM     13  C   UNL d   1       0.893  -0.360   2.675  0.00  0.00     0.048 A 
ATOM     14 CL   UNL d   1       0.954  -1.890   3.488  0.00  0.00    -0.083 Cl
ATOM     15  C   UNL d   1      -0.149   0.495   3.060  0.00  0.00     0.025 A 
ATOM     16  C   UNL d   1      -0.209   1.794   2.571  0.00  0.00     0.003 A 
ATOM     17  C   UNL d   1       0.776   2.244   1.699  0.00  0.00     0.025 A 
ATOM     18  C   UNL d   1       1.788   1.376   1.262  0.00  0.00     0.048 A 
ATOM     19 CL   UNL d   1       2.890   2.035   0.100  0.00  0.00    -0.083 Cl
ENDBRANCH   6  12
ENDBRANCH   1   5
BRANCH   2  20
ATOM     20  C   UNL d   1      -0.772  -2.990  -0.392  0.00  0.00     0.096 C 
ATOM     21  C   UNL d   1      -1.598  -2.765  -1.548  0.00  0.00     0.097 C 
ATOM     22  N   UNL d   1      -2.566  -3.695  -1.597  0.00  0.00    -0.258 N 
ATOM     23  O   UNL d   1      -2.480  -4.420  -0.435  0.00  0.00    -0.240 OA
ATOM     24  HN  UNL d   1      -3.237  -3.835  -2.352  1.00  0.00     0.195 HD
ATOM     25  C   UNL d   1      -1.425  -3.983   0.305  0.00  0.00     0.101 C 
ATOM     26  C   UNL d   1      -1.305  -4.614   1.634  0.00  0.00     0.081 C 
BRANCH  21  27
ATOM     27  C   UNL d   1      -1.504  -1.749  -2.607  0.00  0.00     0.038 A 
ATOM     28  C   UNL d   1      -0.293  -1.449  -3.266  0.00  0.00     0.048 A 
ATOM     29 CL   UNL d   1       1.192  -2.297  -2.990  0.00  0.00    -0.083 Cl
ATOM     30  C   UNL d   1      -0.228  -0.444  -4.244  0.00  0.00     0.025 A 
ATOM     31  C   UNL d   1      -1.371   0.242  -4.632  0.00  0.00     0.003 A 
ATOM     32  C   UNL d   1      -2.584  -0.062  -4.029  0.00  0.00     0.025 A 
ATOM     33  C   UNL d   1      -2.653  -1.030  -3.016  0.00  0.00     0.048 A 
ATOM     34 CL   UNL d   1      -4.220  -1.227  -2.293  0.00  0.00    -0.083 Cl
ENDBRANCH  21  27
ENDBRANCH   2  20
TORSDOF 4
