REMARK  7 active torsions:
REMARK  status: ('A' for Active; 'I' for Inactive)
REMARK    1  A    between atoms: N_8  and  C_3 
REMARK    2  A    between atoms: N_5  and  C_4 
REMARK    3  A    between atoms: N_11  and  C_6 
REMARK    4  A    between atoms: C_13  and  N_8 
REMARK    5  A    between atoms: C_14  and  N_8 
REMARK    6  A    between atoms: C_15  and  N_11 
REMARK    7  A    between atoms: C_16  and  N_11 
ROOT
ATOM      1  N   UNL d   1      -1.301   0.058  -0.019  0.00  0.00    -0.327 N 
ATOM      2  HN  UNL d   1      -2.321   0.055  -0.034  1.00  0.00     0.169 HD
ATOM      3  C   UNL d   1      -0.647   1.266  -0.074  0.00  0.00     0.138 A 
ATOM      4  C   UNL d   1       0.744   1.230  -0.087  0.00  0.00     0.146 A 
ATOM      5  C   UNL d   1      -0.648  -1.139   0.055  0.00  0.00     0.104 A 
ATOM      6  C   UNL d   1       1.446   0.024  -0.024  0.00  0.00     0.043 A 
ATOM      7  C   UNL d   1       0.740  -1.161   0.059  0.00  0.00     0.051 A 
ENDROOT
BRANCH   3   8
ATOM      8  N   UNL d   1      -1.454   2.397  -0.106  0.00  0.00    -0.366 N 
BRANCH   8   9
ATOM      9  C   UNL d   1      -1.095   3.739  -0.583  0.00  0.00     0.120 C 
ATOM     10  C   UNL d   1      -0.849   3.787  -2.082  0.00  0.00     0.026 C 
ENDBRANCH   8   9
BRANCH   8  11
ATOM     11  C   UNL d   1      -2.723   2.305   0.637  0.00  0.00     0.120 C 
ATOM     12  C   UNL d   1      -3.897   2.035  -0.291  0.00  0.00     0.026 C 
ENDBRANCH   8  11
ENDBRANCH   3   8
BRANCH   4  13
ATOM     13  N   UNL d   1       1.565   2.406  -0.042  0.00  0.00    -0.112 N 
ATOM     14  O   UNL d   1       1.636   3.016   1.037  0.00  0.00    -0.532 OA
ATOM     15  O   UNL d   1       2.226   2.671  -1.058  0.00  0.00    -0.532 OA
ENDBRANCH   4  13
BRANCH   5  16
ATOM     16  N   UNL d   1      -1.385  -2.317   0.135  0.00  0.00    -0.368 N 
BRANCH  16  17
ATOM     17  C   UNL d   1      -0.813  -3.599   0.563  0.00  0.00     0.120 C 
ATOM     18  C   UNL d   1      -0.524  -3.616   2.058  0.00  0.00     0.026 C 
ENDBRANCH  16  17
BRANCH  16  19
ATOM     19  C   UNL d   1      -2.643  -2.360  -0.611  0.00  0.00     0.120 C 
ATOM     20  C   UNL d   1      -3.833  -2.232   0.325  0.00  0.00     0.026 C 
ENDBRANCH  16  19
ENDBRANCH   5  16
TORSDOF 7
