REMARK  5 active torsions:
REMARK  status: ('A' for Active; 'I' for Inactive)
REMARK    1  A    between atoms: N_2  and  C_1 
REMARK       I    between atoms: C_3  and  N_2 
REMARK    2  A    between atoms: C_8  and  N_2 
REMARK       I    between atoms: N_7  and  C_3 
REMARK    3  A    between atoms: C_10  and  N_7 
REMARK    4  A    between atoms: C_14  and  C_8 
REMARK    5  A    between atoms: C_17  and  C_14 
ROOT
ATOM      1  N   UNL d   1       2.167   1.329  -0.008  0.00  0.00    -0.280 N 
ATOM      2  C   UNL d   1       3.570   0.987  -0.056  0.00  0.00     0.329 C 
ATOM      3  N   UNL d   1       3.850  -0.249   0.481  0.00  0.00    -0.308 N 
ATOM      4  O   UNL d   1       4.417   1.721  -0.554  0.00  0.00    -0.246 OA
ATOM      5  H   UNL d   1       3.051  -0.712   0.888  0.00  0.00     0.170 HD
ENDROOT
BRANCH   1   6
ATOM      6  C   UNL d   1       1.048   0.475   0.122  0.00  0.00     0.146 C 
ATOM      7  N   UNL d   1      -0.175   0.891   0.124  0.00  0.00    -0.369 N 
ATOM      8  C   UNL d   1      -1.107  -0.231   0.376  0.00  0.00     0.137 C 
ATOM      9  HN  UNL d   1      -0.459   1.860  -0.026  1.00  0.00     0.161 HD
ATOM     10  C   UNL d   1      -0.381  -1.339   1.129  0.00  0.00     0.069 C 
ATOM     11  S   UNL d   1       1.225  -1.256   0.328  0.00  0.00    -0.088 SA
ATOM     12  C   UNL d   1      -0.217  -1.058   2.620  0.00  0.00     0.023 C 
ENDBRANCH   1   6
BRANCH   1  13
ATOM     13  C   UNL d   1       1.862   2.708  -0.435  0.00  0.00     0.140 C 
BRANCH  13  14
ATOM     14  C   UNL d   1       0.980   3.577   0.490  0.00  0.00     0.059 C 
BRANCH  14  15
ATOM     15  C   UNL d   1       1.495   4.016   1.842  0.00  0.00    -0.057 A 
ATOM     16  C   UNL d   1       2.854   4.141   2.141  0.00  0.00     0.007 A 
ATOM     17  C   UNL d   1       3.261   4.716   3.350  0.00  0.00     0.001 A 
ATOM     18  C   UNL d   1       2.318   5.177   4.269  0.00  0.00     0.000 A 
ATOM     19  C   UNL d   1       0.963   5.039   3.997  0.00  0.00     0.001 A 
ATOM     20  C   UNL d   1       0.554   4.461   2.793  0.00  0.00     0.007 A 
ENDBRANCH  14  15
ENDBRANCH  13  14
ENDBRANCH   1  13
BRANCH   3  21
ATOM     21  C   UNL d   1       5.000  -1.054   0.392  0.00  0.00     0.037 A 
ATOM     22  C   UNL d   1       6.216  -0.662  -0.156  0.00  0.00     0.053 A 
ATOM     23  C   UNL d   1       7.265  -1.586  -0.232  0.00  0.00     0.036 A 
ATOM     24 CL   UNL d   1       8.780  -1.113  -0.901  0.00  0.00    -0.084 Cl
ATOM     25  C   UNL d   1       7.108  -2.899   0.223  0.00  0.00     0.024 A 
ATOM     26  C   UNL d   1       5.896  -3.293   0.773  0.00  0.00     0.004 A 
ATOM     27  C   UNL d   1       4.855  -2.373   0.865  0.00  0.00     0.029 A 
ENDBRANCH   3  21
TORSDOF 5
