REMARK  5 active torsions:
REMARK  status: ('A' for Active; 'I' for Inactive)
REMARK    1  A    between atoms: C_4  and  C_1 
REMARK    2  A    between atoms: N_7  and  C_4 
REMARK       I    between atoms: C_8  and  N_7 
REMARK    3  A    between atoms: C_15  and  C_8 
REMARK    4  A    between atoms: C_18  and  C_10 
REMARK    5  A    between atoms: C_13  and  C_11 
ROOT
ATOM      1  C   UNL d   1      -3.767   0.014  -0.004  0.00  0.00     0.080 C 
ATOM      2  C   UNL d   1      -4.492  -1.113  -0.153  0.00  0.00     0.044 C 
ENDROOT
BRANCH   1   3
ATOM      3  C   UNL d   1      -4.442   1.264   0.123  0.00  0.00     0.133 A 
ATOM      4  N   UNL d   1      -5.078   1.810   1.141  0.00  0.00    -0.339 N 
ATOM      5  C   UNL d   1      -5.640   2.968   0.657  0.00  0.00     0.061 A 
ATOM      6  HN  UNL d   1      -5.142   1.447   2.093  1.00  0.00     0.167 HD
ATOM      7  C   UNL d   1      -6.487   3.895   1.286  0.00  0.00     0.039 A 
ATOM      8  C   UNL d   1      -5.280   3.174  -0.667  0.00  0.00     0.060 A 
ATOM      9  C   UNL d   1      -6.962   5.029   0.584  0.00  0.00    -0.048 A 
ATOM     10  C   UNL d   1      -6.537   5.200  -0.748  0.00  0.00     0.010 A 
ATOM     11  C   UNL d   1      -5.695   4.283  -1.401  0.00  0.00     0.032 A 
ATOM     12  N   UNL d   1      -4.520   2.078  -0.985  0.00  0.00    -0.339 N 
ATOM     13  H   UNL d   1      -4.135   1.865  -1.894  0.00  0.00     0.167 HD
BRANCH   9  14
ATOM     14  C   UNL d   1      -7.943   6.000   1.272  0.00  0.00    -0.024 C 
ATOM     15  C   UNL d   1      -7.342   6.524   2.595  0.00  0.00     0.019 C 
ATOM     16  C   UNL d   1      -8.304   7.240   0.421  0.00  0.00     0.019 C 
ATOM     17  C   UNL d   1      -9.261   5.256   1.576  0.00  0.00     0.019 C 
ENDBRANCH   9  14
ENDBRANCH   1   3
BRANCH   1  18
ATOM     18  N   UNL d   1      -2.378   0.056   0.045  0.00  0.00    -0.320 N 
ATOM     19  C   UNL d   1      -1.503  -1.001  -0.167  0.00  0.00     0.256 C 
ATOM     20  O   UNL d   1      -1.841  -2.142  -0.472  0.00  0.00    -0.267 OA
ATOM     21  H   UNL d   1      -1.989   0.970   0.236  0.00  0.00     0.169 HD
BRANCH  19  22
ATOM     22  C   UNL d   1      -0.035  -0.729  -0.078  0.00  0.00     0.032 A 
ATOM     23  C   UNL d   1       0.520   0.389   0.557  0.00  0.00     0.017 A 
ATOM     24  C   UNL d   1       1.911   0.551   0.595  0.00  0.00     0.001 A 
ATOM     25  C   UNL d   1       2.752  -0.398   0.013  0.00  0.00     0.000 A 
ATOM     26  C   UNL d   1       2.210  -1.518  -0.609  0.00  0.00     0.001 A 
ATOM     27  C   UNL d   1       0.826  -1.681  -0.653  0.00  0.00     0.017 A 
ENDBRANCH  19  22
ENDBRANCH   1  18
BRANCH   2  28
ATOM     28  C   UNL d   1      -5.949  -1.218  -0.264  0.00  0.00    -0.034 A 
ATOM     29  C   UNL d   1      -6.538  -1.284  -1.534  0.00  0.00     0.014 A 
ATOM     30  C   UNL d   1      -7.919  -1.440  -1.654  0.00  0.00     0.043 A 
ATOM     31  C   UNL d   1      -8.700  -1.534  -0.508  0.00  0.00     0.116 A 
ATOM     32  C   UNL d   1      -8.128  -1.469   0.758  0.00  0.00     0.043 A 
ATOM     33  F   UNL d   1     -10.024  -1.697  -0.626  0.00  0.00    -0.206 F 
ATOM     34  C   UNL d   1      -6.747  -1.308   0.882  0.00  0.00     0.014 A 
ENDBRANCH   2  28
TORSDOF 5
