REMARK  14 active torsions:
REMARK  status: ('A' for Active; 'I' for Inactive)
REMARK    1  A    between atoms: N_4  and  S_1 
REMARK    2  A    between atoms: C_8  and  S_1 
REMARK    3  A    between atoms: C_6  and  C_2 
REMARK    4  A    between atoms: C_3  and  N_4 
REMARK    5  A    between atoms: O_16  and  C_6 
REMARK    6  A    between atoms: O_18  and  C_9 
REMARK    7  A    between atoms: O_19  and  C_10 
REMARK    8  A    between atoms: C_25  and  O_16 
REMARK    9  A    between atoms: C_26  and  O_18 
REMARK   10  A    between atoms: C_27  and  O_19 
REMARK   11  A    between atoms: O_23  and  C_28 
REMARK   12  A    between atoms: O_24  and  C_29 
REMARK   13  A    between atoms: C_28  and  C_26 
REMARK   14  A    between atoms: C_29  and  C_27 
ROOT
ATOM      1  C   UNL d   1       1.994  -2.212  -2.007  0.00  0.00     0.064 A 
ATOM      2  C   UNL d   1       0.690  -2.270  -1.507  0.00  0.00     0.042 A 
ATOM      3  C   UNL d   1       2.318  -2.973  -3.141  0.00  0.00     0.059 A 
ATOM      4  C   UNL d   1      -0.266  -3.086  -2.147  0.00  0.00     0.065 A 
ATOM      5  C   UNL d   1       1.373  -3.797  -3.767  0.00  0.00     0.103 A 
ATOM      6  C   UNL d   1       0.076  -3.894  -3.237  0.00  0.00     0.103 A 
ENDROOT
BRANCH   2   7
ATOM      7  N   UNL d   1       0.280  -1.542  -0.320  0.00  0.00    -0.180 NA
ATOM      8  H   UNL d   1      -0.524  -0.943  -0.532  0.00  0.00     0.146 HD
BRANCH   7   9
ATOM      9  S   UNL d   1      -0.233  -2.578   0.937  0.00  0.00     0.245 S 
ATOM     10  O   UNL d   1       0.367  -3.883   0.774  0.00  0.00    -0.206 OA
ATOM     11  O   UNL d   1      -1.675  -2.421   0.986  0.00  0.00    -0.206 OA
BRANCH   9  12
ATOM     12  C   UNL d   1       0.437  -1.870   2.421  0.00  0.00     0.074 A 
ATOM     13  C   UNL d   1      -0.351  -0.999   3.181  0.00  0.00     0.026 A 
ATOM     14  C   UNL d   1      -0.008  -0.747   4.512  0.00  0.00     0.025 A 
ATOM     15  C   UNL d   1       1.112  -1.366   5.070  0.00  0.00     0.034 A 
ATOM     16  C   UNL d   1       1.933  -2.183   4.293  0.00  0.00     0.025 A 
ATOM     17 CL   UNL d   1       1.443  -1.177   6.748  0.00  0.00    -0.084 Cl
ATOM     18  C   UNL d   1       1.600  -2.432   2.961  0.00  0.00     0.026 A 
ENDBRANCH   9  12
ENDBRANCH   7   9
ENDBRANCH   2   7
BRANCH   1  19
ATOM     19  C   UNL d   1       3.072  -1.332  -1.487  0.00  0.00     0.295 C 
ATOM     20  O   UNL d   1       3.912  -0.838  -2.229  0.00  0.00    -0.259 OA
BRANCH  19  21
ATOM     21  O   UNL d   1       3.048  -1.206  -0.142  0.00  0.00    -0.318 OA
BRANCH  21  22
ATOM     22  C   UNL d   1       4.057  -0.339   0.411  0.00  0.00     0.174 C 
ATOM     23  C   UNL d   1       5.336  -1.108   0.694  0.00  0.00     0.034 C 
ENDBRANCH  21  22
ENDBRANCH  19  21
ENDBRANCH   1  19
BRANCH   6  24
ATOM     24  O   UNL d   1      -0.774  -4.805  -3.800  0.00  0.00    -0.346 OA
BRANCH  24  25
ATOM     25  C   UNL d   1      -2.066  -5.013  -3.234  0.00  0.00     0.201 C 
BRANCH  25  26
ATOM     26  C   UNL d   1      -2.745  -6.146  -4.004  0.00  0.00     0.193 C 
BRANCH  26  27
ATOM     27  O   UNL d   1      -4.071  -6.334  -3.511  0.00  0.00    -0.394 OA
ATOM     28  C   UNL d   1      -4.743  -7.378  -4.204  0.00  0.00     0.201 C 
ENDBRANCH  26  27
ENDBRANCH  25  26
ENDBRANCH  24  25
ENDBRANCH   6  24
BRANCH   5  29
ATOM     29  O   UNL d   1       1.869  -4.454  -4.867  0.00  0.00    -0.346 OA
BRANCH  29  30
ATOM     30  C   UNL d   1       0.916  -4.836  -5.861  0.00  0.00     0.201 C 
BRANCH  30  31
ATOM     31  C   UNL d   1       1.592  -4.942  -7.223  0.00  0.00     0.193 C 
BRANCH  31  32
ATOM     32  O   UNL d   1       0.597  -5.296  -8.186  0.00  0.00    -0.394 OA
ATOM     33  C   UNL d   1       1.127  -5.362  -9.501  0.00  0.00     0.201 C 
ENDBRANCH  31  32
ENDBRANCH  30  31
ENDBRANCH  29  30
ENDBRANCH   5  29
TORSDOF 14
