REMARK  3 active torsions:
REMARK  status: ('A' for Active; 'I' for Inactive)
REMARK    1  A    between atoms: N_2  and  S_1 
REMARK    2  A    between atoms: C_9  and  S_1 
REMARK    3  A    between atoms: C_3  and  N_2 
ROOT
ATOM      1  N   UNL d   1       0.603  -0.986  -1.535  0.00  0.00    -0.165 NA
ATOM      2  H   UNL d   1      -0.315  -1.408  -1.411  0.00  0.00     0.147 HD
ENDROOT
BRANCH   1   3
ATOM      3  S   UNL d   1       0.968  -0.065  -0.179  0.00  0.00     0.247 S 
ATOM      4  O   UNL d   1       0.074  -0.545   0.857  0.00  0.00    -0.205 OA
ATOM      5  O   UNL d   1       1.009   1.342  -0.517  0.00  0.00    -0.205 OA
BRANCH   3   6
ATOM      6  C   UNL d   1       2.604  -0.602   0.252  0.00  0.00     0.074 A 
ATOM      7  C   UNL d   1       3.710   0.103  -0.229  0.00  0.00     0.025 A 
ATOM      8  C   UNL d   1       4.992  -0.272   0.174  0.00  0.00     0.002 A 
ATOM      9  C   UNL d   1       5.165  -1.340   1.059  0.00  0.00     0.000 A 
ATOM     10  C   UNL d   1       4.056  -2.033   1.546  0.00  0.00     0.002 A 
ATOM     11  C   UNL d   1       2.771  -1.662   1.149  0.00  0.00     0.025 A 
ENDBRANCH   3   6
ENDBRANCH   1   3
BRANCH   1  12
ATOM     12  C   UNL d   1       0.803  -0.344  -2.780  0.00  0.00     0.111 A 
ATOM     13  N   UNL d   1       2.056  -0.461  -3.261  0.00  0.00    -0.354 N 
ATOM     14  C   UNL d   1       2.291   0.095  -4.473  0.00  0.00     0.096 A 
ATOM     15  HN  UNL d   1       2.788  -0.943  -2.740  1.00  0.00     0.166 HD
ATOM     16  C   UNL d   1       1.338   0.781  -5.222  0.00  0.00    -0.045 A 
ATOM     17  C   UNL d   1       0.061   0.921  -4.672  0.00  0.00     0.030 A 
ATOM     18  C   UNL d   1       1.674   1.329  -6.574  0.00  0.00     0.049 C 
ATOM     19  C   UNL d   1      -0.215   0.352  -3.430  0.00  0.00     0.050 A 
ATOM     20 BR   UNL d   1      -1.959   0.510  -2.712  0.00  0.00    -0.048 Br
ENDBRANCH   1  12
TORSDOF 3
