REMARK  4 active torsions:
REMARK  status: ('A' for Active; 'I' for Inactive)
REMARK    1  A    between atoms: O_7  and  C_1 
REMARK    2  A    between atoms: O_8  and  C_2 
REMARK    3  A    between atoms: C_9  and  O_7 
REMARK    4  A    between atoms: C_10  and  O_8 
ROOT
ATOM      1  C   UNL d   1      -0.126  -1.397   0.126  0.00  0.00     0.159 A 
ATOM      2  C   UNL d   1       0.132   1.415   0.117  0.00  0.00     0.159 A 
ATOM      3  C   UNL d   1      -1.252  -0.579   0.203  0.00  0.00     0.194 A 
ATOM      4  C   UNL d   1       1.259   0.597   0.197  0.00  0.00     0.194 A 
ATOM      5  C   UNL d   1      -1.122   0.808   0.164  0.00  0.00     0.194 A 
ATOM      6  C   UNL d   1       1.129  -0.790   0.166  0.00  0.00     0.194 A 
ATOM      7  F   UNL d   1       2.490   1.117   0.303  0.00  0.00    -0.200 F 
ATOM      8  F   UNL d   1      -2.231   1.565   0.169  0.00  0.00    -0.200 F 
ATOM      9  F   UNL d   1       2.237  -1.548   0.174  0.00  0.00    -0.200 F 
ATOM     10  F   UNL d   1      -2.483  -1.099   0.315  0.00  0.00    -0.200 F 
ENDROOT
BRANCH   1  11
ATOM     11  O   UNL d   1      -0.126  -2.771   0.096  0.00  0.00    -0.304 OA
BRANCH  11  12
ATOM     12  C   UNL d   1      -1.136  -3.466  -0.526  0.00  0.00     0.076 A 
ATOM     13  C   UNL d   1      -1.872  -3.009  -1.624  0.00  0.00     0.044 A 
ATOM     14  C   UNL d   1      -2.935  -3.770  -2.131  0.00  0.00    -0.059 A 
ATOM     15  C   UNL d   1      -3.827  -3.220  -3.204  0.00  0.00     0.048 C 
ATOM     16  C   UNL d   1      -3.187  -5.036  -1.591  0.00  0.00     0.007 A 
ATOM     17  C   UNL d   1      -2.400  -5.530  -0.551  0.00  0.00     0.003 A 
ATOM     18  C   UNL d   1      -1.381  -4.743  -0.016  0.00  0.00     0.037 A 
ENDBRANCH  11  12
ENDBRANCH   1  11
BRANCH   2  19
ATOM     19  O   UNL d   1       0.132   2.788   0.079  0.00  0.00    -0.304 OA
BRANCH  19  20
ATOM     20  C   UNL d   1       1.141   3.481  -0.547  0.00  0.00     0.076 A 
ATOM     21  C   UNL d   1       1.876   3.020  -1.643  0.00  0.00     0.044 A 
ATOM     22  C   UNL d   1       2.935   3.780  -2.156  0.00  0.00    -0.059 A 
ATOM     23  C   UNL d   1       3.827   3.226  -3.229  0.00  0.00     0.048 C 
ATOM     24  C   UNL d   1       3.186   5.050  -1.625  0.00  0.00     0.007 A 
ATOM     25  C   UNL d   1       2.400   5.549  -0.586  0.00  0.00     0.003 A 
ATOM     26  C   UNL d   1       1.383   4.761  -0.045  0.00  0.00     0.037 A 
ENDBRANCH  19  20
ENDBRANCH   2  19
TORSDOF 4
