REMARK  4 active torsions:
REMARK  status: ('A' for Active; 'I' for Inactive)
REMARK    1  A    between atoms: S_2  and  N_1 
REMARK    2  A    between atoms: C_10  and  S_2 
REMARK    3  A    between atoms: N_7  and  C_5 
REMARK    4  A    between atoms: C_9  and  C_15 
ROOT
ATOM      1  N   UNL d   1       1.551  -1.077   0.003  0.00  0.00    -0.174 N 
ATOM      2  N   UNL d   1       2.370   0.007  -0.058  0.00  0.00    -0.267 N 
ATOM      3  HN  UNL d   1       3.388   0.019  -0.119  1.00  0.00     0.190 HD
ATOM      4  C   UNL d   1       1.540   1.056  -0.019  0.00  0.00     0.143 C 
ATOM      5  C   UNL d   1       0.179   0.660  -0.101  0.00  0.00     0.078 A 
ATOM      6  C   UNL d   1       0.209  -0.746  -0.098  0.00  0.00     0.086 A 
ATOM      7  C   UNL d   1      -1.074   1.290  -0.230  0.00  0.00     0.132 A 
ATOM      8  C   UNL d   1      -0.976  -1.508  -0.171  0.00  0.00     0.033 A 
ATOM      9  F   UNL d   1      -1.171   2.617  -0.365  0.00  0.00    -0.205 F 
ATOM     10  C   UNL d   1      -2.201  -0.840  -0.215  0.00  0.00     0.005 A 
ATOM     11  C   UNL d   1      -2.253   0.547  -0.246  0.00  0.00     0.043 A 
ENDROOT
BRANCH   1  12
ATOM     12  S   UNL d   1       2.140  -2.717  -0.026  0.00  0.00     0.282 S 
ATOM     13  O   UNL d   1       3.489  -2.675   0.511  0.00  0.00    -0.198 OA
ATOM     14  O   UNL d   1       1.109  -3.540   0.574  0.00  0.00    -0.198 OA
BRANCH  12  15
ATOM     15  C   UNL d   1       2.266  -3.109  -1.752  0.00  0.00     0.082 A 
ATOM     16  C   UNL d   1       3.119  -2.358  -2.571  0.00  0.00     0.041 A 
ATOM     17  C   UNL d   1       3.249  -2.679  -3.932  0.00  0.00     0.049 A 
ATOM     18  C   UNL d   1       2.523  -3.767  -4.447  0.00  0.00     0.016 A 
ATOM     19  C   UNL d   1       1.692  -4.527  -3.620  0.00  0.00     0.002 A 
ATOM     20  C   UNL d   1       1.564  -4.202  -2.269  0.00  0.00     0.025 A 
BRANCH  17  21
ATOM     21  C   UNL d   1       4.150  -1.879  -4.845  0.00  0.00     0.417 C 
ATOM     22  F   UNL d   1       4.830  -0.889  -4.204  0.00  0.00    -0.166 F 
ATOM     23  F   UNL d   1       5.092  -2.649  -5.455  0.00  0.00    -0.166 F 
ATOM     24  F   UNL d   1       3.457  -1.270  -5.846  0.00  0.00    -0.166 F 
ENDBRANCH  17  21
ENDBRANCH  12  15
ENDBRANCH   1  12
BRANCH   4  25
ATOM     25  N   UNL d   1       2.118   2.377   0.087  0.00  0.00    -0.304 N 
ATOM     26  C   UNL d   1       1.600   3.477   0.784  0.00  0.00     0.014 A 
ATOM     27  C   UNL d   1       2.434   4.563   0.580  0.00  0.00     0.027 A 
ATOM     28  C   UNL d   1       0.421   3.481   1.693  0.00  0.00     0.068 C 
ATOM     29  C   UNL d   1       3.533   4.127  -0.167  0.00  0.00     0.027 A 
ATOM     30  C   UNL d   1       3.349   2.786  -0.449  0.00  0.00     0.014 A 
ATOM     31  C   UNL d   1       4.283   1.947  -1.257  0.00  0.00     0.068 C 
ENDBRANCH   4  25
TORSDOF 4
