REMARK  6 active torsions:
REMARK  status: ('A' for Active; 'I' for Inactive)
REMARK       I    between atoms: N_3  and  C_1 
REMARK       I    between atoms: N_12  and  C_1 
REMARK    1  A    between atoms: C_2  and  N_3 
REMARK    2  A    between atoms: C_6  and  C_17 
REMARK    3  A    between atoms: C_20  and  N_12 
REMARK    4  A    between atoms: S_16  and  C_21 
REMARK    5  A    between atoms: C_17  and  S_16 
REMARK    6  A    between atoms: C_21  and  C_20 
ROOT
ATOM      1  C   UNL d   1       1.164   0.006   0.007  0.00  0.00     0.320 C 
ATOM      2  N   UNL d   1       0.564   0.916  -0.821  0.00  0.00    -0.309 N 
ATOM      3  O   UNL d   1       0.599  -0.859   0.670  0.00  0.00    -0.247 OA
ATOM      4  N   UNL d   1       2.523   0.057   0.061  0.00  0.00    -0.342 N 
ATOM      5  H   UNL d   1       1.177   1.431  -1.431  0.00  0.00     0.170 HD
ATOM      6  H   UNL d   1       2.908  -0.678   0.646  0.00  0.00     0.164 HD
ENDROOT
BRANCH   4   7
ATOM      7  C   UNL d   1       3.449   0.984  -0.564  0.00  0.00     0.134 C 
BRANCH   7   8
ATOM      8  C   UNL d   1       4.914   0.613  -0.321  0.00  0.00     0.094 C 
BRANCH   8   9
ATOM      9  S   UNL d   1       5.344  -1.093  -0.818  0.00  0.00    -0.163 SA
BRANCH   9  10
ATOM     10  C   UNL d   1       4.974  -1.008  -2.602  0.00  0.00     0.114 C 
BRANCH  10  11
ATOM     11  C   UNL d   1       5.211  -2.336  -3.275  0.00  0.00    -0.027 A 
ATOM     12  C   UNL d   1       6.435  -2.688  -3.866  0.00  0.00     0.041 A 
ATOM     13 CL   UNL d   1       7.779  -1.603  -3.906  0.00  0.00    -0.084 Cl
ATOM     14  C   UNL d   1       6.603  -3.947  -4.452  0.00  0.00     0.024 A 
ATOM     15  C   UNL d   1       5.556  -4.869  -4.455  0.00  0.00     0.002 A 
ATOM     16  C   UNL d   1       4.338  -4.535  -3.871  0.00  0.00     0.001 A 
ATOM     17  C   UNL d   1       4.167  -3.281  -3.283  0.00  0.00     0.009 A 
ENDBRANCH  10  11
ENDBRANCH   9  10
ENDBRANCH   8   9
ENDBRANCH   7   8
ENDBRANCH   4   7
BRANCH   2  18
ATOM     18  C   UNL d   1      -0.819   1.019  -1.091  0.00  0.00     0.039 A 
ATOM     19  C   UNL d   1      -1.806   0.420  -0.305  0.00  0.00     0.053 A 
ATOM     20  C   UNL d   1      -3.149   0.504  -0.679  0.00  0.00     0.037 A 
ATOM     21 CL   UNL d   1      -4.353  -0.257   0.289  0.00  0.00    -0.084 Cl
ATOM     22  C   UNL d   1      -3.526   1.187  -1.830  0.00  0.00     0.048 A 
ATOM     23  C   UNL d   1      -2.547   1.815  -2.592  0.00  0.00     0.037 A 
ATOM     24  C   UNL d   1      -1.202   1.747  -2.224  0.00  0.00     0.053 A 
ATOM     25 CL   UNL d   1      -2.995   2.664  -4.021  0.00  0.00    -0.084 Cl
ENDBRANCH   2  18
TORSDOF 6
