REMARK  5 active torsions:
REMARK  status: ('A' for Active; 'I' for Inactive)
REMARK    1  A    between atoms: C_20  and  N_5 
REMARK    2  A    between atoms: C_9  and  N_8 
REMARK    3  A    between atoms: N_10  and  C_23 
REMARK    4  A    between atoms: C_21  and  C_20 
REMARK    5  A    between atoms: C_23  and  C_21 
ROOT
ATOM      1  C   UNL d   1       6.116   2.406   0.540  0.00  0.00     0.050 C 
ENDROOT
BRANCH   1   2
ATOM      2  C   UNL d   1       4.820   3.201   0.343  0.00  0.00     0.135 C 
BRANCH   2   3
ATOM      3  N   UNL d   1       4.781   4.386   1.202  0.00  0.00    -0.310 N 
ATOM      4  C   UNL d   1       4.336   4.253   2.510  0.00  0.00     0.262 A 
ATOM      5  C   UNL d   1       4.373   5.467   3.333  0.00  0.00     0.076 A 
ATOM      6  O   UNL d   1       3.937   3.196   2.998  0.00  0.00    -0.267 OA
ATOM      7  C   UNL d   1       4.853   6.628   2.751  0.00  0.00     0.121 A 
ATOM      8  C   UNL d   1       3.964   5.485   4.667  0.00  0.00     0.022 A 
ATOM      9  N   UNL d   1       4.944   7.795   3.426  0.00  0.00    -0.351 N 
ATOM     10  N   UNL d   1       5.295   6.683   1.427  0.00  0.00    -0.338 N 
ATOM     11  C   UNL d   1       4.546   7.795   4.719  0.00  0.00     0.090 A 
ATOM     12  HN  UNL d   1       5.297   8.641   2.979  1.00  0.00     0.166 HD
ATOM     13  C   UNL d   1       4.055   6.677   5.378  0.00  0.00     0.018 A 
ATOM     14  C   UNL d   1       5.247   5.594   0.739  0.00  0.00     0.187 A 
ATOM     15  HN  UNL d   1       5.642   7.551   1.020  1.00  0.00     0.168 HD
ENDBRANCH   2   3
ENDBRANCH   1   2
BRANCH   1  16
ATOM     16  C   UNL d   1       6.126   1.091  -0.261  0.00  0.00     0.274 C 
BRANCH  16  17
ATOM     17  N   UNL d   1       7.444   0.443  -0.213  0.00  0.00     0.091 N 
ATOM     18  C   UNL d   1       7.789  -0.132   1.111  0.00  0.00     0.292 C 
ATOM     19  C   UNL d   1       7.147  -1.499   1.461  0.00  0.00     0.153 C 
ATOM     20  N   UNL d   1       7.393  -2.468   0.382  0.00  0.00    -0.377 N 
ATOM     21  C   UNL d   1       7.005  -1.992  -0.952  0.00  0.00     0.153 C 
ATOM     22  C   UNL d   1       7.616  -0.602  -1.253  0.00  0.00     0.292 C 
BRANCH  20  23
ATOM     23  C   UNL d   1       8.110  -3.628   0.604  0.00  0.00     0.031 A 
ATOM     24  C   UNL d   1       9.023  -4.142  -0.329  0.00  0.00     0.053 A 
ATOM     25  C   UNL d   1       9.730  -5.328  -0.084  0.00  0.00     0.036 A 
ATOM     26 CL   UNL d   1      10.851  -5.909  -1.256  0.00  0.00    -0.084 Cl
ATOM     27  C   UNL d   1       9.543  -6.040   1.094  0.00  0.00     0.024 A 
ATOM     28  C   UNL d   1       8.644  -5.556   2.036  0.00  0.00     0.004 A 
ATOM     29  C   UNL d   1       7.944  -4.367   1.790  0.00  0.00     0.029 A 
ENDBRANCH  20  23
ENDBRANCH  16  17
ENDBRANCH   1  16
TORSDOF 5
