REMARK  5 active torsions:
REMARK  status: ('A' for Active; 'I' for Inactive)
REMARK    1  A    between atoms: S_10  and  C_3 
REMARK    2  A    between atoms: C_4  and  C_8 
REMARK    3  A    between atoms: O_14  and  C_5 
REMARK    4  A    between atoms: C_8  and  S_10 
REMARK    5  A    between atoms: C_20  and  C_11 
ROOT
ATOM      1  N   UNL d   1      -0.318  -1.170   0.124  0.00  0.00    -0.318 N 
ATOM      2  HN  UNL d   1      -0.875  -2.024   0.147  1.00  0.00     0.170 HD
ATOM      3  C   UNL d   1       1.022  -1.186   0.189  0.00  0.00     0.146 A 
ATOM      4  C   UNL d   1      -0.870   0.038   0.027  0.00  0.00     0.143 A 
ATOM      5  N   UNL d   1       1.806  -0.090   0.158  0.00  0.00    -0.340 N 
ATOM      6  HN  UNL d   1       2.822  -0.160   0.213  1.00  0.00     0.167 HD
ATOM      7  C   UNL d   1      -0.190   1.224  -0.011  0.00  0.00     0.081 A 
ATOM      8  C   UNL d   1       1.182   1.109   0.050  0.00  0.00     0.015 A 
ENDROOT
BRANCH   3   9
ATOM      9  S   UNL d   1       1.742  -2.805   0.316  0.00  0.00    -0.089 SA
BRANCH   9  10
ATOM     10  C   UNL d   1       3.514  -2.404   0.421  0.00  0.00     0.126 C 
BRANCH  10  11
ATOM     11  C   UNL d   1       4.341  -3.660   0.562  0.00  0.00     0.012 A 
ATOM     12  C   UNL d   1       4.779  -4.425  -0.530  0.00  0.00     0.044 A 
ATOM     13 CL   UNL d   1       4.425  -3.976  -2.161  0.00  0.00    -0.084 Cl
ATOM     14  C   UNL d   1       5.524  -5.596  -0.335  0.00  0.00     0.024 A 
ATOM     15  C   UNL d   1       5.840  -6.027   0.953  0.00  0.00     0.005 A 
ATOM     16  C   UNL d   1       5.406  -5.287   2.047  0.00  0.00     0.043 A 
ATOM     17  C   UNL d   1       4.667  -4.123   1.844  0.00  0.00     0.125 A 
ATOM     18  F   UNL d   1       4.261  -3.436   2.923  0.00  0.00    -0.205 F 
ENDBRANCH  10  11
ENDBRANCH   9  10
ENDBRANCH   3   9
BRANCH   4  19
ATOM     19  O   UNL d   1      -2.225   0.026  -0.044  0.00  0.00    -0.346 OA
ATOM     20  H   UNL d   1      -2.395  -0.933  -0.007  0.00  0.00     0.219 HD
ENDBRANCH   4  19
BRANCH   8  21
ATOM     21  C   UNL d   1       2.039   2.349   0.003  0.00  0.00     0.053 C 
ATOM     22  C   UNL d   1       2.298   2.920   1.389  0.00  0.00     0.011 C 
ENDBRANCH   8  21
TORSDOF 5
