REMARK  2 active torsions:
REMARK  status: ('A' for Active; 'I' for Inactive)
REMARK    1  A    between atoms: C_7  and  N_1 
REMARK    2  A    between atoms: C_6  and  C_2 
ROOT
ATOM      1  N   UNL d   1      -0.634  -1.188   0.171  0.00  0.00    -0.298 N 
ATOM      2  C   UNL d   1       0.759  -1.385  -0.211  0.00  0.00     0.188 C 
ATOM      3  S   UNL d   1       1.519   0.243  -0.428  0.00  0.00    -0.129 SA
ATOM      4  C   UNL d   1      -1.095   0.132   0.155  0.00  0.00     0.235 C 
ATOM      5  C   UNL d   1      -0.036   1.120  -0.274  0.00  0.00     0.179 C 
ATOM      6  O   UNL d   1      -2.238   0.511   0.389  0.00  0.00    -0.272 OA
ENDROOT
BRANCH   1   7
ATOM      7  C   UNL d   1      -1.494  -2.308   0.418  0.00  0.00     0.054 A 
ATOM      8  C   UNL d   1      -1.233  -3.580  -0.101  0.00  0.00     0.117 A 
ATOM      9  N   UNL d   1      -1.996  -4.683   0.104  0.00  0.00    -0.373 N 
ATOM     10  C   UNL d   1      -3.085  -4.525   0.881  0.00  0.00     0.088 A 
ATOM     11  HN  UNL d   1      -1.757  -5.585  -0.308  1.00  0.00     0.164 HD
ATOM     12  C   UNL d   1      -3.442  -3.318   1.452  0.00  0.00     0.019 A 
ATOM     13  C   UNL d   1      -2.639  -2.202   1.212  0.00  0.00     0.032 A 
ENDBRANCH   1   7
BRANCH   2  14
ATOM     14  C   UNL d   1       1.559  -2.215   0.784  0.00  0.00    -0.025 A 
ATOM     15  C   UNL d   1       2.309  -3.317   0.335  0.00  0.00     0.012 A 
ATOM     16  C   UNL d   1       3.012  -4.120   1.238  0.00  0.00     0.024 A 
ATOM     17  C   UNL d   1       2.990  -3.819   2.596  0.00  0.00     0.034 A 
ATOM     18  C   UNL d   1       2.272  -2.719   3.061  0.00  0.00     0.024 A 
ATOM     19 CL   UNL d   1       3.851  -4.811   3.706  0.00  0.00    -0.084 Cl
ATOM     20  C   UNL d   1       1.560  -1.923   2.162  0.00  0.00     0.012 A 
ENDBRANCH   2  14
TORSDOF 2
