REMARK  6 active torsions:
REMARK  status: ('A' for Active; 'I' for Inactive)
REMARK    1  A    between atoms: C_6  and  C_1 
REMARK    2  A    between atoms: C_4  and  C_7 
REMARK       I    between atoms: N_9  and  C_6 
REMARK    3  A    between atoms: C_8  and  N_13 
REMARK    4  A    between atoms: N_14  and  C_8 
REMARK    5  A    between atoms: N_13  and  N_9 
REMARK    6  A    between atoms: C_16  and  N_14 
ROOT
ATOM      1  C   UNL d   1      -3.469   0.193   0.059  0.00  0.00     0.272 C 
ATOM      2  N   UNL d   1      -3.596   1.404  -0.597  0.00  0.00    -0.264 N 
ATOM      3  O   UNL d   1      -3.296   0.096   1.274  0.00  0.00    -0.266 OA
ATOM      4  H   UNL d   1      -3.845   1.477  -1.572  0.00  0.00     0.190 HD
ENDROOT
BRANCH   2   5
ATOM      5  N   UNL d   1      -3.508   2.634   0.096  0.00  0.00    -0.273 N 
ATOM      6  H   UNL d   1      -4.347   3.205   0.142  0.00  0.00     0.189 HD
BRANCH   5   7
ATOM      7  C   UNL d   1      -2.328   3.171   0.574  0.00  0.00     0.191 C 
ATOM      8  S   UNL d   1      -0.907   2.368   0.937  0.00  0.00    -0.039 SA
BRANCH   7   9
ATOM      9  N   UNL d   1      -2.356   4.531   0.805  0.00  0.00    -0.332 N 
ATOM     10  H   UNL d   1      -1.662   4.808   1.496  0.00  0.00     0.168 HD
BRANCH   9  11
ATOM     11  C   UNL d   1      -2.568   5.525  -0.190  0.00  0.00     0.036 A 
ATOM     12  C   UNL d   1      -2.142   6.829   0.107  0.00  0.00     0.056 A 
ATOM     13  C   UNL d   1      -2.195   7.830  -0.868  0.00  0.00     0.074 A 
ATOM     14 CL   UNL d   1      -1.606   9.406  -0.498  0.00  0.00    -0.081 Cl
ATOM     15  C   UNL d   1      -2.695   7.541  -2.133  0.00  0.00     0.138 A 
ATOM     16  C   UNL d   1      -3.139   6.259  -2.435  0.00  0.00     0.046 A 
ATOM     17  F   UNL d   1      -2.740   8.480  -3.088  0.00  0.00    -0.204 F 
ATOM     18  C   UNL d   1      -3.069   5.251  -1.467  0.00  0.00     0.032 A 
ENDBRANCH   9  11
ENDBRANCH   7   9
ENDBRANCH   5   7
ENDBRANCH   2   5
BRANCH   1  19
ATOM     19  C   UNL d   1      -3.534  -1.077  -0.732  0.00  0.00     0.055 A 
ATOM     20  C   UNL d   1      -4.342  -1.350  -1.834  0.00  0.00     0.021 A 
ATOM     21  N   UNL d   1      -4.456  -2.610  -2.365  0.00  0.00    -0.355 N 
ATOM     22  C   UNL d   1      -5.173  -0.339  -2.558  0.00  0.00     0.069 C 
ATOM     23  C   UNL d   1      -3.764  -3.639  -1.808  0.00  0.00     0.117 A 
ATOM     24  HN  UNL d   1      -5.057  -2.773  -3.173  1.00  0.00     0.166 HD
ATOM     25  C   UNL d   1      -2.878  -3.427  -0.764  0.00  0.00     0.035 A 
ATOM     26  C   UNL d   1      -2.763  -2.145  -0.225  0.00  0.00     0.021 A 
BRANCH  23  27
ATOM     27  C   UNL d   1      -3.997  -5.070  -2.300  0.00  0.00     0.432 C 
ATOM     28  F   UNL d   1      -4.943  -5.182  -3.270  0.00  0.00    -0.165 F 
ATOM     29  F   UNL d   1      -2.865  -5.638  -2.811  0.00  0.00    -0.165 F 
ATOM     30  F   UNL d   1      -4.398  -5.902  -1.293  0.00  0.00    -0.165 F 
ENDBRANCH  23  27
ENDBRANCH   1  19
TORSDOF 6
