REMARK  10 active torsions:
REMARK  status: ('A' for Active; 'I' for Inactive)
REMARK    1  A    between atoms: N_2  and  C_1 
REMARK    2  A    between atoms: C_3  and  C_1 
REMARK    3  A    between atoms: N_5  and  C_1 
REMARK    4  A    between atoms: C_7  and  C_1 
REMARK       I    between atoms: C_4  and  N_2 
REMARK    5  A    between atoms: C_6  and  C_4 
REMARK    6  A    between atoms: C_8  and  N_5 
REMARK    7  A    between atoms: O_19  and  C_7 
REMARK    8  A    between atoms: O_22  and  C_9 
REMARK    9  A    between atoms: O_24  and  C_18 
REMARK   10  A    between atoms: C_26  and  O_19 
ROOT
ATOM      1  C   UNL d   1       1.481   0.069   0.209  0.00  0.00     0.281 C 
ENDROOT
BRANCH   1   2
ATOM      2  N   UNL d   1       1.036   0.450   1.543  0.00  0.00    -0.319 N 
ATOM      3  C   UNL d   1       1.284   1.695   2.065  0.00  0.00     0.255 C 
ATOM      4  O   UNL d   1       2.050   2.473   1.510  0.00  0.00    -0.268 OA
ATOM      5  H   UNL d   1       0.322  -0.146   1.935  0.00  0.00     0.165 HD
BRANCH   3   6
ATOM      6  C   UNL d   1       0.508   2.131   3.274  0.00  0.00     0.053 A 
ATOM      7  C   UNL d   1      -0.274   1.313   4.100  0.00  0.00     0.049 A 
ATOM      8 CL   UNL d   1      -0.352  -0.415   3.967  0.00  0.00    -0.083 Cl
ATOM      9  C   UNL d   1      -1.049   1.875   5.127  0.00  0.00     0.025 A 
ATOM     10  C   UNL d   1      -1.033   3.252   5.359  0.00  0.00     0.002 A 
ATOM     11  C   UNL d   1      -0.226   4.068   4.580  0.00  0.00     0.001 A 
ATOM     12  C   UNL d   1       0.538   3.517   3.548  0.00  0.00     0.019 A 
ENDBRANCH   3   6
ENDBRANCH   1   2
BRANCH   1  13
ATOM     13  C   UNL d   1       1.150   1.103  -0.942  0.00  0.00     0.436 C 
ATOM     14  F   UNL d   1       0.381   2.142  -0.537  0.00  0.00    -0.166 F 
ATOM     15  F   UNL d   1       2.230   1.609  -1.579  0.00  0.00    -0.166 F 
ATOM     16  F   UNL d   1       0.412   0.470  -1.910  0.00  0.00    -0.166 F 
ENDBRANCH   1  13
BRANCH   1  17
ATOM     17  N   UNL d   1       0.692  -1.214   0.001  0.00  0.00    -0.248 NA
ATOM     18  H   UNL d   1       0.532  -1.308  -1.004  0.00  0.00     0.131 HD
BRANCH  17  19
ATOM     19  C   UNL d   1       0.957  -2.491   0.507  0.00  0.00     0.044 A 
ATOM     20  C   UNL d   1       0.108  -3.592   0.226  0.00  0.00     0.092 A 
ATOM     21  C   UNL d   1       0.419  -4.883   0.707  0.00  0.00     0.075 A 
ATOM     22  C   UNL d   1       1.567  -5.128   1.447  0.00  0.00     0.070 A 
ATOM     23  C   UNL d   1       2.394  -4.057   1.745  0.00  0.00     0.039 A 
ATOM     24  C   UNL d   1       2.068  -2.759   1.326  0.00  0.00     0.029 A 
BRANCH  20  25
ATOM     25  O   UNL d   1      -1.054  -3.640  -0.502  0.00  0.00    -0.354 OA
ATOM     26  C   UNL d   1      -1.669  -2.471  -1.008  0.00  0.00     0.210 C 
ENDBRANCH  20  25
BRANCH  22  27
ATOM     27  O   UNL d   1       1.979  -6.339   1.926  0.00  0.00    -0.356 OA
ATOM     28  C   UNL d   1       1.051  -7.414   1.827  0.00  0.00     0.210 C 
ENDBRANCH  22  27
ENDBRANCH  17  19
ENDBRANCH   1  17
BRANCH   1  29
ATOM     29  C   UNL d   1       3.011  -0.139   0.082  0.00  0.00     0.312 C 
ATOM     30  O   UNL d   1       3.863   0.318   0.836  0.00  0.00    -0.260 OA
BRANCH  29  31
ATOM     31  O   UNL d   1       3.303  -0.970  -0.973  0.00  0.00    -0.319 OA
BRANCH  31  32
ATOM     32  C   UNL d   1       4.681  -1.343  -1.099  0.00  0.00     0.174 C 
ATOM     33  C   UNL d   1       5.332  -0.448  -2.126  0.00  0.00     0.034 C 
ENDBRANCH  31  32
ENDBRANCH  29  31
ENDBRANCH   1  29
TORSDOF 10
