REMARK  6 active torsions:
REMARK  status: ('A' for Active; 'I' for Inactive)
REMARK       I    between atoms: N_3  and  C_1 
REMARK    1  A    between atoms: C_8  and  C_1 
REMARK    2  A    between atoms: O_15  and  C_2 
REMARK    3  A    between atoms: C_10  and  N_3 
REMARK    4  A    between atoms: O_17  and  C_4 
REMARK    5  A    between atoms: C_6  and  C_8 
REMARK    6  A    between atoms: C_14  and  C_10 
ROOT
ATOM      1  C   UNL d   1       0.956  -0.146   0.131  0.00  0.00     0.222 C 
ATOM      2  N   UNL d   1       0.191   0.984  -0.058  0.00  0.00    -0.357 N 
ATOM      3  O   UNL d   1       0.476  -1.257   0.344  0.00  0.00    -0.273 OA
ATOM      4  H   UNL d   1       0.634   1.891  -0.001  0.00  0.00     0.162 HD
ENDROOT
BRANCH   1   5
ATOM      5  C   UNL d   1       2.450   0.080  -0.018  0.00  0.00     0.141 C 
BRANCH   5   6
ATOM      6  C   UNL d   1       3.256   0.192   1.256  0.00  0.00    -0.047 A 
ATOM      7  C   UNL d   1       4.508   0.839   1.202  0.00  0.00     0.047 A 
ATOM      8  C   UNL d   1       5.379   0.881   2.306  0.00  0.00     0.102 A 
ATOM      9  C   UNL d   1       4.977   0.263   3.501  0.00  0.00     0.101 A 
ATOM     10  C   UNL d   1       3.732  -0.381   3.556  0.00  0.00     0.040 A 
ATOM     11  C   UNL d   1       2.881  -0.423   2.449  0.00  0.00     0.010 A 
BRANCH   8  12
ATOM     12  O   UNL d   1       6.616   1.466   2.259  0.00  0.00    -0.353 OA
ATOM     13  C   UNL d   1       7.032   2.082   1.048  0.00  0.00     0.210 C 
ENDBRANCH   8  12
BRANCH   9  14
ATOM     14  O   UNL d   1       5.667   0.155   4.682  0.00  0.00    -0.353 OA
ATOM     15  C   UNL d   1       6.817   0.962   4.878  0.00  0.00     0.210 C 
ENDBRANCH   9  14
ENDBRANCH   5   6
ENDBRANCH   1   5
BRANCH   2  16
ATOM     16  C   UNL d   1      -1.253   0.934  -0.062  0.00  0.00     0.161 C 
BRANCH  16  17
ATOM     17  C   UNL d   1      -1.828   1.261   1.289  0.00  0.00    -0.039 A 
ATOM     18  C   UNL d   1      -2.190   2.575   1.617  0.00  0.00     0.032 A 
ATOM     19  C   UNL d   1      -2.722   2.860   2.875  0.00  0.00     0.034 A 
ATOM     20 CL   UNL d   1      -3.174   4.475   3.262  0.00  0.00    -0.084 Cl
ATOM     21  C   UNL d   1      -2.891   1.849   3.819  0.00  0.00     0.024 A 
ATOM     22  C   UNL d   1      -2.523   0.542   3.504  0.00  0.00     0.002 A 
ATOM     23  C   UNL d   1      -1.990   0.251   2.249  0.00  0.00     0.009 A 
ENDBRANCH  16  17
ENDBRANCH   2  16
TORSDOF 6
