REMARK  6 active torsions:
REMARK  status: ('A' for Active; 'I' for Inactive)
REMARK    1  A    between atoms: C_15  and  N_1 
REMARK    2  A    between atoms: S_14  and  C_2 
REMARK    3  A    between atoms: C_3  and  C_12 
REMARK    4  A    between atoms: C_9  and  C_17 
REMARK    5  A    between atoms: C_12  and  C_18 
REMARK    6  A    between atoms: C_18  and  S_14 
ROOT
ATOM      1  N   UNL d   1      -0.196   1.176   0.110  0.00  0.00    -0.286 N 
ATOM      2  C   UNL d   1       1.145   0.817   0.036  0.00  0.00     0.167 A 
ATOM      3  N   UNL d   1       1.261  -0.492  -0.036  0.00  0.00    -0.279 N 
ATOM      4  HN  UNL d   1       2.133  -1.013  -0.132  1.00  0.00     0.189 HD
ATOM      5  N   UNL d   1       0.007  -1.031   0.042  0.00  0.00    -0.294 N 
ATOM      6  HN  UNL d   1      -0.226  -2.024   0.015  1.00  0.00     0.187 HD
ATOM      7  C   UNL d   1      -0.840  -0.038   0.155  0.00  0.00     0.207 A 
ENDROOT
BRANCH   2   8
ATOM      8  S   UNL d   1       2.501   1.886   0.227  0.00  0.00    -0.084 SA
BRANCH   8   9
ATOM      9  C   UNL d   1       3.899   0.757  -0.087  0.00  0.00     0.168 C 
BRANCH   9  10
ATOM     10  C   UNL d   1       5.197   1.530   0.091  0.00  0.00     0.192 C 
ATOM     11  O   UNL d   1       5.739   1.598   1.196  0.00  0.00    -0.289 OA
BRANCH  10  12
ATOM     12  C   UNL d   1       5.695   2.261  -1.058  0.00  0.00     0.123 A 
ATOM     13  O   UNL d   1       5.202   1.986  -2.303  0.00  0.00    -0.306 OA
ATOM     14  C   UNL d   1       5.722   2.910  -3.155  0.00  0.00     0.086 A 
ATOM     15  C   UNL d   1       5.415   3.022  -4.509  0.00  0.00     0.038 A 
ATOM     16  C   UNL d   1       6.574   3.771  -2.474  0.00  0.00     0.001 A 
ATOM     17  C   UNL d   1       5.955   4.124  -5.179  0.00  0.00     0.003 A 
ATOM     18  C   UNL d   1       6.796   5.028  -4.523  0.00  0.00     0.001 A 
ATOM     19  C   UNL d   1       7.141   4.849  -3.175  0.00  0.00     0.014 A 
ATOM     20  C   UNL d   1       6.608   3.298  -1.137  0.00  0.00     0.055 A 
ENDBRANCH  10  12
ENDBRANCH   9  10
ENDBRANCH   8   9
ENDBRANCH   2   8
BRANCH   1  21
ATOM     21  C   UNL d   1      -0.838   2.450   0.114  0.00  0.00     0.042 A 
ATOM     22  C   UNL d   1      -0.231   3.573  -0.458  0.00  0.00     0.031 A 
ATOM     23  C   UNL d   1      -0.881   4.812  -0.455  0.00  0.00     0.018 A 
ATOM     24  C   UNL d   1      -2.153   4.956   0.114  0.00  0.00     0.048 A 
ATOM     25  C   UNL d   1      -2.772   3.828   0.667  0.00  0.00     0.018 A 
ATOM     26  C   UNL d   1      -2.125   2.586   0.663  0.00  0.00     0.031 A 
BRANCH  24  27
ATOM     27  C   UNL d   1      -2.828   6.308   0.115  0.00  0.00     0.417 C 
ATOM     28  F   UNL d   1      -4.066   6.299   0.681  0.00  0.00    -0.166 F 
ATOM     29  F   UNL d   1      -2.114   7.245   0.796  0.00  0.00    -0.166 F 
ATOM     30  F   UNL d   1      -2.995   6.805  -1.141  0.00  0.00    -0.166 F 
ENDBRANCH  24  27
ENDBRANCH   1  21
TORSDOF 6
