REMARK  2 active torsions:
REMARK  status: ('A' for Active; 'I' for Inactive)
REMARK    1  A    between atoms: C_3  and  N_1 
REMARK    2  A    between atoms: C_2  and  C_3 
ROOT
ATOM      1  C   UNL d   1      -1.396   2.912   0.061  0.00  0.00    -0.022 A 
ATOM      2  C   UNL d   1      -2.043   3.727  -0.950  0.00  0.00    -0.009 A 
ATOM      3  C   UNL d   1      -2.221   2.727   1.156  0.00  0.00     0.060 A 
ATOM      4  S   UNL d   1      -3.761   3.421   0.956  0.00  0.00    -0.101 SA
ATOM      5  C   UNL d   1      -3.361   4.038  -0.597  0.00  0.00     0.015 A 
ATOM      6  C   UNL d   1      -1.567   4.212  -2.196  0.00  0.00     0.037 A 
ATOM      7  C   UNL d   1      -4.208   4.773  -1.452  0.00  0.00     0.021 A 
ATOM      8  C   UNL d   1      -2.395   4.970  -3.027  0.00  0.00     0.035 A 
ATOM      9  C   UNL d   1      -3.706   5.239  -2.667  0.00  0.00     0.025 A 
ATOM     10 CL   UNL d   1      -1.780   5.578  -4.515  0.00  0.00    -0.084 Cl
ENDROOT
BRANCH   1  11
ATOM     11  C   UNL d   1      -0.027   2.299  -0.071  0.00  0.00     0.175 C 
BRANCH  11  12
ATOM     12  N   UNL d   1       0.986   3.168   0.480  0.00  0.00    -0.277 N 
ATOM     13  C   UNL d   1       1.760   4.048  -0.208  0.00  0.00     0.250 A 
ATOM     14  C   UNL d   1       2.689   4.646   0.763  0.00  0.00     0.080 A 
ATOM     15  O   UNL d   1       1.745   4.334  -1.385  0.00  0.00    -0.268 OA
ATOM     16  C   UNL d   1       2.405   4.144   1.965  0.00  0.00     0.080 A 
ATOM     17  C   UNL d   1       1.300   3.200   1.797  0.00  0.00     0.250 A 
ATOM     18  O   UNL d   1       0.802   2.572   2.712  0.00  0.00    -0.268 OA
ENDBRANCH  11  12
ENDBRANCH   1  11
TORSDOF 2
