REMARK  5 active torsions:
REMARK  status: ('A' for Active; 'I' for Inactive)
REMARK    1  A    between atoms: C_3  and  C_1 
REMARK    2  A    between atoms: C_4  and  C_1 
REMARK    3  A    between atoms: C_5  and  C_2 
REMARK    4  A    between atoms: O_15  and  C_3 
REMARK    5  A    between atoms: N_6  and  C_4 
ROOT
ATOM      1  C   UNL d   1       0.980   0.056  -0.080  0.00  0.00     0.102 C 
ATOM      2  C   UNL d   1       0.298   0.158  -1.239  0.00  0.00     0.040 C 
ENDROOT
BRANCH   1   3
ATOM      3  C   UNL d   1       0.258  -0.061   1.206  0.00  0.00     0.302 C 
ATOM      4  O   UNL d   1      -0.959  -0.081   1.312  0.00  0.00    -0.259 OA
BRANCH   3   5
ATOM      5  O   UNL d   1       1.143  -0.120   2.232  0.00  0.00    -0.322 OA
ATOM      6  C   UNL d   1       0.555  -0.218   3.530  0.00  0.00     0.213 C 
ENDBRANCH   3   5
ENDBRANCH   1   3
BRANCH   1   7
ATOM      7  C   UNL d   1       2.500   0.056  -0.080  0.00  0.00    -0.031 C 
BRANCH   7   8
ATOM      8  N   UNL d   1       3.761   0.056  -0.080  0.00  0.00    -0.365 N 
ATOM      9  HN2 UNL d   1       2.741   0.056  -0.080  1.00  0.00     0.165 HD
ATOM     10  HN1 UNL d   1       4.781   0.056  -0.080  1.00  0.00     0.165 HD
ENDBRANCH   7   8
ENDBRANCH   1   7
BRANCH   2  11
ATOM     11  C   UNL d   1       0.972   0.307  -2.543  0.00  0.00    -0.013 A 
ATOM     12  C   UNL d   1       1.399  -0.788  -3.316  0.00  0.00     0.045 A 
ATOM     13  C   UNL d   1       2.139  -0.590  -4.487  0.00  0.00     0.048 A 
ATOM     14 CL   UNL d   1       1.052  -2.415  -2.845  0.00  0.00    -0.083 Cl
ATOM     15  C   UNL d   1       2.449   0.705  -4.893  0.00  0.00     0.035 A 
ATOM     16  C   UNL d   1       2.015   1.802  -4.152  0.00  0.00     0.024 A 
ATOM     17 CL   UNL d   1       3.384   0.954  -6.316  0.00  0.00    -0.084 Cl
ATOM     18  C   UNL d   1       1.278   1.604  -2.981  0.00  0.00     0.015 A 
ENDBRANCH   2  11
TORSDOF 5
