REMARK  3 active torsions:
REMARK  status: ('A' for Active; 'I' for Inactive)
REMARK    1  A    between atoms: C_8  and  C_3 
REMARK    2  A    between atoms: C_10  and  C_7 
REMARK    3  A    between atoms: O_13  and  C_12 
ROOT
ATOM      1  N   UNL d   1       1.576  -0.070   0.058  0.00  0.00    -0.331 N 
ATOM      2  HN  UNL d   1       2.522  -0.451   0.056  1.00  0.00     0.168 HD
ATOM      3  C   UNL d   1       1.204   1.169   0.039  0.00  0.00     0.162 A 
ATOM      4  C   UNL d   1       0.382  -0.744   0.083  0.00  0.00     0.111 A 
ATOM      5  O   UNL d   1      -0.122   1.431   0.069  0.00  0.00    -0.256 OA
ATOM      6  C   UNL d   1      -0.756   0.225   0.105  0.00  0.00     0.316 A 
ATOM      7  C   UNL d   1       0.294  -2.079   0.061  0.00  0.00     0.047 C 
ATOM      8  O   UNL d   1      -1.953   0.043   0.146  0.00  0.00    -0.257 OA
ENDROOT
BRANCH   7   9
ATOM      9  C   UNL d   1      -0.952  -2.841   0.045  0.00  0.00    -0.031 A 
ATOM     10  C   UNL d   1      -1.574  -3.189   1.250  0.00  0.00     0.048 A 
ATOM     11  C   UNL d   1      -2.765  -3.917   1.242  0.00  0.00     0.069 A 
ATOM     12  C   UNL d   1      -3.329  -4.293   0.020  0.00  0.00     0.037 A 
ATOM     13  C   UNL d   1      -2.715  -3.945  -1.184  0.00  0.00     0.004 A 
ATOM     14  C   UNL d   1      -1.525  -3.219  -1.173  0.00  0.00     0.011 A 
BRANCH  11  15
ATOM     15  O   UNL d   1      -3.463  -4.319   2.348  0.00  0.00    -0.356 OA
ATOM     16  C   UNL d   1      -2.926  -3.940   3.610  0.00  0.00     0.210 C 
ENDBRANCH  11  15
ENDBRANCH   7   9
BRANCH   3  17
ATOM     17  C   UNL d   1       2.072   2.351  -0.044  0.00  0.00     0.015 A 
ATOM     18  C   UNL d   1       3.458   2.168  -0.116  0.00  0.00     0.016 A 
ATOM     19  C   UNL d   1       4.300   3.271  -0.262  0.00  0.00     0.001 A 
ATOM     20  C   UNL d   1       3.760   4.555  -0.333  0.00  0.00     0.000 A 
ATOM     21  C   UNL d   1       2.381   4.742  -0.244  0.00  0.00     0.001 A 
ATOM     22  C   UNL d   1       1.535   3.642  -0.098  0.00  0.00     0.016 A 
ENDBRANCH   3  17
TORSDOF 3
