REMARK  6 active torsions:
REMARK  status: ('A' for Active; 'I' for Inactive)
REMARK    1  A    between atoms: C_2  and  S_1 
REMARK    2  A    between atoms: C_10  and  S_1 
REMARK    3  A    between atoms: C_3  and  C_6 
REMARK    4  A    between atoms: C_4  and  C_5 
REMARK    5  A    between atoms: N_14  and  C_7 
REMARK    6  A    between atoms: C_15  and  N_14 
ROOT
ATOM      1  C   UNL d   1       0.507  -1.245  -1.132  0.00  0.00     0.159 C 
ATOM      2  C   UNL d   1      -0.212  -2.267  -0.634  0.00  0.00     0.123 C 
ATOM      3  C   UNL d   1       0.948  -0.169  -0.330  0.00  0.00     0.113 C 
ATOM      4  N   UNL d   1       1.296   0.679   0.377  0.00  0.00    -0.191 NA
ENDROOT
BRANCH   1   5
ATOM      5  S   UNL d   1       0.853  -1.248  -2.828  0.00  0.00     0.218 S 
ATOM      6  O   UNL d   1      -0.232  -0.588  -3.531  0.00  0.00    -0.216 OA
ATOM      7  O   UNL d   1       1.264  -2.581  -3.233  0.00  0.00    -0.216 OA
BRANCH   5   8
ATOM      8  C   UNL d   1       2.292  -0.208  -3.024  0.00  0.00     0.065 A 
ATOM      9  C   UNL d   1       3.569  -0.779  -2.957  0.00  0.00     0.027 A 
ATOM     10  C   UNL d   1       4.689   0.028  -3.160  0.00  0.00     0.044 A 
ATOM     11  C   UNL d   1       4.522   1.382  -3.438  0.00  0.00     0.116 A 
ATOM     12  C   UNL d   1       3.254   1.949  -3.522  0.00  0.00     0.044 A 
ATOM     13  F   UNL d   1       5.601   2.149  -3.642  0.00  0.00    -0.206 F 
ATOM     14  C   UNL d   1       2.127   1.151  -3.323  0.00  0.00     0.027 A 
ENDBRANCH   5   8
ENDBRANCH   1   5
BRANCH   2  15
ATOM     15  N   UNL d   1      -0.675  -2.426   0.655  0.00  0.00    -0.364 N 
ATOM     16  H   UNL d   1      -0.620  -1.621   1.276  0.00  0.00     0.165 HD
BRANCH  15  17
ATOM     17  C   UNL d   1      -1.315  -3.550   1.203  0.00  0.00     0.033 A 
ATOM     18  C   UNL d   1      -1.063  -4.852   0.763  0.00  0.00     0.045 A 
ATOM     19  C   UNL d   1      -1.780  -5.949   1.271  0.00  0.00     0.050 A 
ATOM     20  C   UNL d   1      -2.786  -5.723   2.224  0.00  0.00     0.032 A 
ATOM     21  C   UNL d   1      -3.073  -4.425   2.667  0.00  0.00     0.050 A 
ATOM     22  C   UNL d   1      -2.318  -3.353   2.161  0.00  0.00     0.045 A 
BRANCH  19  23
ATOM     23  C   UNL d   1      -1.474  -7.336   0.760  0.00  0.00     0.417 C 
ATOM     24  F   UNL d   1      -2.271  -8.301   1.296  0.00  0.00    -0.166 F 
ATOM     25  F   UNL d   1      -1.625  -7.431  -0.589  0.00  0.00    -0.166 F 
ATOM     26  F   UNL d   1      -0.194  -7.717   1.023  0.00  0.00    -0.166 F 
ENDBRANCH  19  23
BRANCH  21  27
ATOM     27  C   UNL d   1      -4.199  -4.154   3.636  0.00  0.00     0.417 C 
ATOM     28  F   UNL d   1      -4.898  -5.270   3.982  0.00  0.00    -0.166 F 
ATOM     29  F   UNL d   1      -3.765  -3.604   4.803  0.00  0.00    -0.166 F 
ATOM     30  F   UNL d   1      -5.114  -3.283   3.129  0.00  0.00    -0.166 F 
ENDBRANCH  21  27
ENDBRANCH  15  17
ENDBRANCH   2  15
TORSDOF 6
