REMARK  8 active torsions:
REMARK  status: ('A' for Active; 'I' for Inactive)
REMARK    1  A    between atoms: N_2  and  C_1 
REMARK    2  A    between atoms: C_3  and  C_1 
REMARK    3  A    between atoms: N_4  and  C_1 
REMARK    4  A    between atoms: C_6  and  C_1 
REMARK       I    between atoms: C_5  and  N_2 
REMARK    5  A    between atoms: C_7  and  N_4 
REMARK    6  A    between atoms: C_11  and  C_5 
REMARK    7  A    between atoms: O_19  and  C_6 
REMARK    8  A    between atoms: C_24  and  O_19 
ROOT
ATOM      1  C   UNL d   1       1.088  -0.101  -0.063  0.00  0.00     0.297 C 
ENDROOT
BRANCH   1   2
ATOM      2  N   UNL d   1       0.662   0.367  -1.387  0.00  0.00    -0.315 N 
ATOM      3  C   UNL d   1       1.105   1.546  -1.939  0.00  0.00     0.254 C 
ATOM      4  O   UNL d   1       1.946   2.259  -1.415  0.00  0.00    -0.268 OA
ATOM      5  H   UNL d   1      -0.085  -0.160  -1.821  0.00  0.00     0.166 HD
BRANCH   3   6
ATOM      6  C   UNL d   1       0.535   1.893  -3.266  0.00  0.00     0.032 A 
ATOM      7  C   UNL d   1      -0.815   1.678  -3.565  0.00  0.00     0.017 A 
ATOM      8  C   UNL d   1      -1.312   2.036  -4.820  0.00  0.00     0.001 A 
ATOM      9  C   UNL d   1      -0.466   2.606  -5.773  0.00  0.00     0.000 A 
ATOM     10  C   UNL d   1       0.880   2.820  -5.476  0.00  0.00     0.001 A 
ATOM     11  C   UNL d   1       1.381   2.469  -4.222  0.00  0.00     0.017 A 
ENDBRANCH   3   6
ENDBRANCH   1   2
BRANCH   1  12
ATOM     12  C   UNL d   1       0.789  -1.630   0.216  0.00  0.00     0.442 C 
ATOM     13  F   UNL d   1       0.226  -2.217  -0.878  0.00  0.00    -0.166 F 
ATOM     14  F   UNL d   1       1.877  -2.372   0.533  0.00  0.00    -0.166 F 
ATOM     15  F   UNL d   1      -0.087  -1.818   1.238  0.00  0.00    -0.166 F 
ENDBRANCH   1  12
BRANCH   1  16
ATOM     16  N   UNL d   1       0.496   0.821   0.948  0.00  0.00    -0.345 N 
ATOM     17  H   UNL d   1       1.076   1.652   1.066  0.00  0.00     0.163 HD
BRANCH  16  18
ATOM     18  C   UNL d   1      -0.864   1.038   1.152  0.00  0.00     0.069 A 
ATOM     19  C   UNL d   1      -1.909   0.397   0.461  0.00  0.00     0.145 A 
ATOM     20  C   UNL d   1      -3.251   0.634   0.744  0.00  0.00     0.086 A 
ATOM     21  F   UNL d   1      -1.643  -0.461  -0.537  0.00  0.00    -0.204 F 
ATOM     22  C   UNL d   1      -3.577   1.506   1.767  0.00  0.00     0.119 A 
ATOM     23  C   UNL d   1      -2.585   2.123   2.515  0.00  0.00     0.044 A 
ATOM     24  F   UNL d   1      -4.865   1.751   2.039  0.00  0.00    -0.206 F 
ATOM     25  C   UNL d   1      -1.238   1.883   2.212  0.00  0.00     0.035 A 
ENDBRANCH  16  18
ENDBRANCH   1  16
BRANCH   1  26
ATOM     26  C   UNL d   1       2.638  -0.097  -0.039  0.00  0.00     0.318 C 
ATOM     27  O   UNL d   1       3.348  -0.651  -0.877  0.00  0.00    -0.260 OA
BRANCH  26  28
ATOM     28  O   UNL d   1       3.114   0.567   1.058  0.00  0.00    -0.318 OA
BRANCH  28  29
ATOM     29  C   UNL d   1       4.493   0.339   1.372  0.00  0.00     0.174 C 
ATOM     30  C   UNL d   1       4.527  -0.753   2.423  0.00  0.00     0.034 C 
ENDBRANCH  28  29
ENDBRANCH  26  28
ENDBRANCH   1  26
TORSDOF 8
