REMARK  5 active torsions:
REMARK  status: ('A' for Active; 'I' for Inactive)
REMARK    1  A    between atoms: N_4  and  S_1 
REMARK    2  A    between atoms: C_9  and  S_1 
REMARK    3  A    between atoms: C_2  and  N_4 
REMARK    4  A    between atoms: C_8  and  C_3 
REMARK    5  A    between atoms: O_15  and  C_8 
ROOT
ATOM      1  N   UNL d   1       0.707   1.200  -0.978  0.00  0.00    -0.180 NA
ATOM      2  H   UNL d   1      -0.289   1.442  -0.877  0.00  0.00     0.146 HD
ENDROOT
BRANCH   1   3
ATOM      3  C   UNL d   1       1.507   2.371  -0.807  0.00  0.00     0.047 A 
ATOM      4  C   UNL d   1       2.807   2.563  -1.417  0.00  0.00     0.072 A 
ATOM      5  C   UNL d   1       3.362   3.774  -1.001  0.00  0.00    -0.003 A 
ATOM      6  C   UNL d   1       4.693   4.399  -1.294  0.00  0.00     0.057 C 
ATOM      7  S   UNL d   1       2.289   4.675  -0.007  0.00  0.00    -0.104 SA
ATOM      8  C   UNL d   1       1.101   3.463  -0.073  0.00  0.00     0.075 A 
BRANCH   4   9
ATOM      9  C   UNL d   1       3.473   1.635  -2.345  0.00  0.00     0.179 C 
ATOM     10  O   UNL d   1       4.619   1.760  -2.752  0.00  0.00    -0.646 OA
BRANCH   9  11
ATOM     11  O   UNL d   1       2.694   0.614  -2.792  0.00  0.00    -0.773 OA
ATOM     12  H   UNL d   1       1.793   0.673  -2.417  0.00  0.00     0.167 HD
ENDBRANCH   9  11
ENDBRANCH   4   9
ENDBRANCH   1   3
BRANCH   1  13
ATOM     13  S   UNL d   1       0.901   0.002   0.272  0.00  0.00     0.245 S 
ATOM     14  O   UNL d   1      -0.114   0.301   1.259  0.00  0.00    -0.206 OA
ATOM     15  O   UNL d   1       2.303  -0.105   0.600  0.00  0.00    -0.206 OA
BRANCH  13  16
ATOM     16  C   UNL d   1       0.418  -1.464  -0.604  0.00  0.00     0.074 A 
ATOM     17  C   UNL d   1       1.383  -2.231  -1.260  0.00  0.00     0.025 A 
ATOM     18  C   UNL d   1       1.000  -3.402  -1.918  0.00  0.00     0.008 A 
ATOM     19  C   UNL d   1      -0.341  -3.813  -1.918  0.00  0.00    -0.062 A 
ATOM     20  C   UNL d   1      -1.296  -3.042  -1.244  0.00  0.00     0.008 A 
ATOM     21  C   UNL d   1      -0.734  -5.083  -2.618  0.00  0.00     0.048 C 
ATOM     22  C   UNL d   1      -0.919  -1.871  -0.582  0.00  0.00     0.025 A 
ENDBRANCH  13  16
ENDBRANCH   1  13
TORSDOF 5
