REMARK  7 active torsions:
REMARK  status: ('A' for Active; 'I' for Inactive)
REMARK    1  A    between atoms: C_5  and  C_1 
REMARK    2  A    between atoms: N_2  and  O_6 
REMARK    3  A    between atoms: C_4  and  C_7 
REMARK    4  A    between atoms: O_6  and  C_4 
REMARK    5  A    between atoms: C_9  and  C_11 
REMARK    6  A    between atoms: C_12  and  C_10 
REMARK    7  A    between atoms: C_27  and  C_10 
ROOT
ATOM      1  N   UNL d   1      -0.037  -2.788   5.843  0.00  0.00    -0.261 N 
ATOM      2  HN  UNL d   1       0.294  -3.504   5.196  1.00  0.00     0.194 HD
ATOM      3  C   UNL d   1      -0.352  -3.050   7.079  0.00  0.00     0.042 C 
ENDROOT
BRANCH   3   4
ATOM      4  C   UNL d   1      -0.285  -4.498   7.519  0.00  0.00    -0.012 A 
ATOM      5  C   UNL d   1      -0.003  -5.475   6.552  0.00  0.00     0.014 A 
ATOM      6  C   UNL d   1      -0.013  -6.844   6.871  0.00  0.00     0.013 A 
ATOM      7  C   UNL d   1      -0.293  -7.300   8.170  0.00  0.00    -0.023 A 
ATOM      8  C   UNL d   1      -0.527  -6.307   9.137  0.00  0.00     0.013 A 
ATOM      9  C   UNL d   1      -0.528  -4.932   8.822  0.00  0.00     0.014 A 
BRANCH   7  10
ATOM     10  C   UNL d   1      -0.352  -8.755   8.488  0.00  0.00     0.013 A 
ATOM     11  C   UNL d   1      -1.222  -9.285   9.461  0.00  0.00     0.127 A 
ATOM     12  F   UNL d   1      -2.043  -8.483  10.158  0.00  0.00    -0.205 F 
ATOM     13  C   UNL d   1      -1.292 -10.655   9.735  0.00  0.00     0.043 A 
ATOM     14  C   UNL d   1      -0.497 -11.549   9.029  0.00  0.00     0.003 A 
ATOM     15  C   UNL d   1       0.376 -11.065   8.060  0.00  0.00     0.001 A 
ATOM     16  C   UNL d   1       0.452  -9.689   7.802  0.00  0.00     0.015 A 
ENDBRANCH   7  10
ENDBRANCH   3   4
BRANCH   3  17
ATOM     17  C   UNL d   1      -0.827  -1.974   8.053  0.00  0.00     0.055 C 
ATOM     18  C   UNL d   1       0.290  -1.024   8.456  0.00  0.00     0.011 C 
ENDBRANCH   3  17
BRANCH   1  19
ATOM     19  O   UNL d   1      -0.188  -1.437   5.471  0.00  0.00    -0.195 OA
BRANCH  19  20
ATOM     20  C   UNL d   1       0.144  -1.298   4.149  0.00  0.00     0.315 C 
ATOM     21  O   UNL d   1       0.487  -2.192   3.380  0.00  0.00    -0.257 OA
BRANCH  20  22
ATOM     22  C   UNL d   1       0.053   0.121   3.698  0.00  0.00     0.042 A 
ATOM     23  C   UNL d   1      -0.341   1.180   4.529  0.00  0.00     0.034 A 
ATOM     24  C   UNL d   1      -0.401   2.498   4.026  0.00  0.00     0.048 A 
ATOM     25  C   UNL d   1      -0.054   2.739   2.686  0.00  0.00     0.016 A 
ATOM     26  C   UNL d   1       0.336   1.691   1.857  0.00  0.00     0.002 A 
ATOM     27  C   UNL d   1       0.387   0.392   2.361  0.00  0.00     0.018 A 
BRANCH  24  28
ATOM     28  C   UNL d   1      -0.826   3.659   4.895  0.00  0.00     0.417 C 
ATOM     29  F   UNL d   1      -1.182   3.292   6.157  0.00  0.00    -0.166 F 
ATOM     30  F   UNL d   1      -1.898   4.324   4.382  0.00  0.00    -0.166 F 
ATOM     31  F   UNL d   1       0.158   4.589   5.038  0.00  0.00    -0.166 F 
ENDBRANCH  24  28
ENDBRANCH  20  22
ENDBRANCH  19  20
ENDBRANCH   1  19
TORSDOF 7
