REMARK  5 active torsions:
REMARK  status: ('A' for Active; 'I' for Inactive)
REMARK    1  A    between atoms: C_4  and  C_1 
REMARK    2  A    between atoms: C_8  and  C_1 
REMARK    3  A    between atoms: N_5  and  N_2 
REMARK    4  A    between atoms: O_13  and  C_4 
REMARK       I    between atoms: C_6  and  N_5 
REMARK    5  A    between atoms: C_7  and  C_6 
ROOT
ATOM      1  C   UNL d   1       1.071   0.006  -0.215  0.00  0.00     0.132 C 
ATOM      2  N   UNL d   1       0.313  -1.065  -0.215  0.00  0.00    -0.291 N 
ATOM      3  HN  UNL d   1      -0.679  -0.989  -0.440  1.00  0.00     0.187 HD
ENDROOT
BRANCH   2   4
ATOM      4  N   UNL d   1       0.851  -2.273   0.087  0.00  0.00    -0.265 N 
ATOM      5  C   UNL d   1       0.312  -3.491  -0.278  0.00  0.00     0.270 C 
ATOM      6  O   UNL d   1       0.941  -4.529  -0.066  0.00  0.00    -0.266 OA
ATOM      7  H   UNL d   1       1.747  -2.328   0.566  0.00  0.00     0.190 HD
BRANCH   5   8
ATOM      8  C   UNL d   1      -0.994  -3.566  -0.993  0.00  0.00     0.033 A 
ATOM      9  C   UNL d   1      -1.143  -4.549  -1.985  0.00  0.00     0.019 A 
ATOM     10  C   UNL d   1      -2.359  -4.699  -2.658  0.00  0.00     0.025 A 
ATOM     11  C   UNL d   1      -3.433  -3.872  -2.334  0.00  0.00     0.034 A 
ATOM     12  C   UNL d   1      -3.301  -2.901  -1.341  0.00  0.00     0.025 A 
ATOM     13 CL   UNL d   1      -4.935  -4.064  -3.150  0.00  0.00    -0.084 Cl
ATOM     14  C   UNL d   1      -2.086  -2.754  -0.663  0.00  0.00     0.019 A 
ENDBRANCH   5   8
ENDBRANCH   2   4
BRANCH   1  15
ATOM     15  C   UNL d   1       0.264   1.316  -0.395  0.00  0.00     0.195 C 
ATOM     16  O   UNL d   1       0.632   2.418  -0.052  0.00  0.00    -0.645 OA
BRANCH  15  17
ATOM     17  O   UNL d   1      -0.925   1.049  -0.970  0.00  0.00    -0.772 OA
ATOM     18  H   UNL d   1      -1.015   0.073  -1.065  0.00  0.00     0.167 HD
ENDBRANCH  15  17
ENDBRANCH   1  15
BRANCH   1  19
ATOM     19  C   UNL d   1       2.563   0.084  -0.182  0.00  0.00    -0.001 A 
ATOM     20  C   UNL d   1       3.327  -0.885  -0.851  0.00  0.00     0.014 A 
ATOM     21  C   UNL d   1       4.721  -0.793  -0.894  0.00  0.00     0.001 A 
ATOM     22  C   UNL d   1       5.366   0.291  -0.305  0.00  0.00     0.000 A 
ATOM     23  C   UNL d   1       4.620   1.268   0.348  0.00  0.00     0.001 A 
ATOM     24  C   UNL d   1       3.227   1.159   0.423  0.00  0.00     0.014 A 
ENDBRANCH   1  19
TORSDOF 5
