REMARK  7 active torsions:
REMARK  status: ('A' for Active; 'I' for Inactive)
REMARK    1  A    between atoms: N_9  and  C_6 
REMARK    2  A    between atoms: C_14  and  N_9 
REMARK    3  A    between atoms: C_11  and  O_12 
REMARK    4  A    between atoms: O_12  and  C_15 
REMARK    5  A    between atoms: C_13  and  C_14 
REMARK    6  A    between atoms: C_15  and  C_13 
REMARK    7  A    between atoms: O_17  and  C_13 
ROOT
ATOM      1  C   UNL d   1       6.033   1.125   0.428  0.00  0.00     0.170 C 
ENDROOT
BRANCH   1   2
ATOM      2  C   UNL d   1       4.606   1.141  -0.162  0.00  0.00     0.303 C 
BRANCH   2   3
ATOM      3  N   UNL d   1       3.761   0.037   0.299  0.00  0.00     0.091 N 
ATOM      4  H   UNL d   1       4.157  -0.863   0.030  0.00  0.00     0.316 HD
BRANCH   3   5
ATOM      5  C   UNL d   1       2.394   0.116  -0.232  0.00  0.00     0.229 C 
ATOM      6  C   UNL d   1       1.620   1.401   0.148  0.00  0.00     0.075 C 
ATOM      7  C   UNL d   1       0.204   0.920   0.112  0.00  0.00    -0.050 A 
ATOM      8  C   UNL d   1       0.148  -0.474   0.191  0.00  0.00    -0.050 A 
ATOM      9  C   UNL d   1      -0.949   1.685   0.075  0.00  0.00     0.007 A 
ATOM     10  C   UNL d   1       1.523  -1.061   0.278  0.00  0.00     0.075 C 
ATOM     11  C   UNL d   1      -1.066  -1.137   0.240  0.00  0.00     0.007 A 
ATOM     12  C   UNL d   1      -2.236  -0.374   0.193  0.00  0.00     0.001 A 
ATOM     13  C   UNL d   1      -2.177   1.025   0.110  0.00  0.00     0.001 A 
ENDBRANCH   3   5
ENDBRANCH   2   3
ENDBRANCH   1   2
BRANCH   1  14
ATOM     14  C   UNL d   1       6.793  -0.148   0.033  0.00  0.00     0.209 C 
BRANCH  14  15
ATOM     15  O   UNL d   1       8.098  -0.152   0.616  0.00  0.00    -0.349 OA
BRANCH  15  16
ATOM     16  C   UNL d   1       8.890  -1.222   0.295  0.00  0.00     0.069 A 
ATOM     17  C   UNL d   1       8.501  -2.330  -0.462  0.00  0.00     0.044 A 
ATOM     18  C   UNL d   1       9.404  -3.365  -0.755  0.00  0.00    -0.053 A 
ATOM     19  C   UNL d   1       8.936  -4.529  -1.585  0.00  0.00     0.049 C 
ATOM     20  C   UNL d   1      10.724  -3.286  -0.274  0.00  0.00    -0.056 A 
ATOM     21  C   UNL d   1      11.103  -2.180   0.502  0.00  0.00     0.010 A 
ATOM     22  C   UNL d   1      11.735  -4.354  -0.582  0.00  0.00     0.049 C 
ATOM     23  C   UNL d   1      10.192  -1.161   0.785  0.00  0.00     0.037 A 
ENDBRANCH  15  16
ENDBRANCH  14  15
ENDBRANCH   1  14
BRANCH   1  24
ATOM     24  O   UNL d   1       6.719   2.297  -0.043  0.00  0.00    -0.392 OA
ATOM     25  H   UNL d   1       6.942   2.165  -0.980  0.00  0.00     0.210 HD
ENDBRANCH   1  24
TORSDOF 7
