REMARK  8 active torsions:
REMARK  status: ('A' for Active; 'I' for Inactive)
REMARK    1  A    between atoms: C_2  and  C_1 
REMARK    2  A    between atoms: C_4  and  C_1 
REMARK    3  A    between atoms: C_7  and  C_1 
REMARK    4  A    between atoms: O_17  and  C_1 
REMARK       I    between atoms: C_3  and  N_6 
REMARK    5  A    between atoms: C_5  and  C_3 
REMARK    6  A    between atoms: O_23  and  C_4 
REMARK    7  A    between atoms: N_6  and  C_21 
REMARK    8  A    between atoms: C_27  and  O_23 
ROOT
ATOM      1  C   UNL d   1       0.515  -0.043   1.378  0.00  0.00    -0.005 A 
ATOM      2  C   UNL d   1       0.152  -1.306   1.872  0.00  0.00     0.013 A 
ATOM      3  C   UNL d   1       0.444   1.041   2.272  0.00  0.00     0.013 A 
ATOM      4  C   UNL d   1      -0.265  -0.401   4.090  0.00  0.00     0.035 A 
ATOM      5  C   UNL d   1       0.062   0.865   3.611  0.00  0.00     0.030 A 
ATOM      6  C   UNL d   1      -0.235  -1.481   3.204  0.00  0.00     0.030 A 
ENDROOT
BRANCH   1   7
ATOM      7  C   UNL d   1       0.994   0.129  -0.076  0.00  0.00     0.271 C 
BRANCH   7   8
ATOM      8  C   UNL d   1      -0.032  -0.355  -1.131  0.00  0.00     0.432 C 
ATOM      9  F   UNL d   1       0.414  -1.390  -1.881  0.00  0.00    -0.167 F 
ATOM     10  F   UNL d   1      -1.218  -0.738  -0.603  0.00  0.00    -0.167 F 
ATOM     11  F   UNL d   1      -0.311   0.647  -2.010  0.00  0.00    -0.167 F 
ENDBRANCH   7   8
BRANCH   7  12
ATOM     12  C   UNL d   1       2.276  -0.694  -0.334  0.00  0.00     0.308 C 
ATOM     13  O   UNL d   1       2.514  -1.806   0.124  0.00  0.00    -0.261 OA
BRANCH  12  14
ATOM     14  O   UNL d   1       3.143  -0.006  -1.144  0.00  0.00    -0.319 OA
BRANCH  14  15
ATOM     15  C   UNL d   1       4.502  -0.478  -1.144  0.00  0.00     0.174 C 
ATOM     16  C   UNL d   1       4.835  -1.207  -2.430  0.00  0.00     0.034 C 
ENDBRANCH  14  15
ENDBRANCH  12  14
ENDBRANCH   7  12
BRANCH   7  17
ATOM     17  O   UNL d   1       1.307   1.540  -0.269  0.00  0.00    -0.368 OA
ATOM     18  H   UNL d   1       1.593   1.636  -1.198  0.00  0.00     0.212 HD
ENDBRANCH   7  17
ENDBRANCH   1   7
BRANCH   4  19
ATOM     19  N   UNL d   1      -0.630  -0.678   5.423  0.00  0.00    -0.323 N 
ATOM     20  C   UNL d   1      -0.659   0.197   6.492  0.00  0.00     0.256 C 
ATOM     21  O   UNL d   1      -0.374   1.391   6.483  0.00  0.00    -0.267 OA
ATOM     22  H   UNL d   1      -0.933  -1.629   5.590  0.00  0.00     0.169 HD
BRANCH  20  23
ATOM     23  C   UNL d   1      -1.145  -0.401   7.767  0.00  0.00     0.034 A 
ATOM     24  C   UNL d   1      -0.844  -1.720   8.131  0.00  0.00     0.042 A 
ATOM     25  C   UNL d   1      -1.414  -2.273   9.283  0.00  0.00     0.056 A 
ATOM     26 CL   UNL d   1      -1.040  -3.920   9.647  0.00  0.00    -0.083 Cl
ATOM     27  C   UNL d   1      -2.268  -1.504  10.084  0.00  0.00     0.055 A 
ATOM     28  C   UNL d   1      -2.519  -0.170   9.749  0.00  0.00     0.026 A 
ATOM     29 CL   UNL d   1      -3.054  -2.144  11.482  0.00  0.00    -0.083 Cl
ATOM     30  C   UNL d   1      -1.954   0.382   8.598  0.00  0.00     0.019 A 
ENDBRANCH  20  23
ENDBRANCH   4  19
TORSDOF 8
