REMARK  3 active torsions:
REMARK  status: ('A' for Active; 'I' for Inactive)
REMARK    1  A    between atoms: C_6  and  N_1 
REMARK    2  A    between atoms: C_5  and  C_2 
REMARK    3  A    between atoms: C_13  and  C_6 
ROOT
ATOM      1  N   UNL d   1      -0.558  -1.184   0.263  0.00  0.00    -0.330 N 
ATOM      2  C   UNL d   1       0.807  -1.353  -0.186  0.00  0.00     0.184 C 
ATOM      3  S   UNL d   1       1.506   0.305  -0.394  0.00  0.00    -0.129 SA
ATOM      4  C   UNL d   1      -1.079   0.098   0.241  0.00  0.00     0.230 C 
ATOM      5  C   UNL d   1      -0.088   1.130  -0.236  0.00  0.00     0.179 C 
ATOM      6  O   UNL d   1      -2.234   0.379   0.546  0.00  0.00    -0.272 OA
ENDROOT
BRANCH   1   7
ATOM      7  C   UNL d   1      -1.436  -2.333   0.443  0.00  0.00     0.167 C 
BRANCH   7   8
ATOM      8  C   UNL d   1      -2.201  -2.678  -0.808  0.00  0.00    -0.025 A 
ATOM      9  C   UNL d   1      -3.455  -2.118  -1.047  0.00  0.00     0.096 A 
ATOM     10  N   UNL d   1      -4.199  -2.358  -2.151  0.00  0.00    -0.375 N 
ATOM     11  C   UNL d   1      -3.670  -3.192  -3.070  0.00  0.00     0.087 A 
ATOM     12  HN  UNL d   1      -5.115  -1.929  -2.283  1.00  0.00     0.164 HD
ATOM     13  C   UNL d   1      -2.434  -3.801  -2.932  0.00  0.00     0.018 A 
ATOM     14  C   UNL d   1      -1.690  -3.540  -1.782  0.00  0.00     0.011 A 
ENDBRANCH   7   8
ENDBRANCH   1   7
BRANCH   2  15
ATOM     15  C   UNL d   1       1.643  -2.192   0.748  0.00  0.00    -0.010 A 
ATOM     16  C   UNL d   1       2.331  -3.302   0.268  0.00  0.00     0.097 A 
ATOM     17  N   UNL d   1       3.076  -4.132   1.035  0.00  0.00    -0.375 N 
ATOM     18  C   UNL d   1       3.158  -3.836   2.347  0.00  0.00     0.087 A 
ATOM     19  HN  UNL d   1       3.551  -4.943   0.639  1.00  0.00     0.164 HD
ATOM     20  C   UNL d   1       2.528  -2.752   2.932  0.00  0.00     0.018 A 
ATOM     21  C   UNL d   1       1.759  -1.921   2.121  0.00  0.00     0.013 A 
ENDBRANCH   2  15
TORSDOF 3
