REMARK  3 active torsions:
REMARK  status: ('A' for Active; 'I' for Inactive)
REMARK    1  A    between atoms: C_3  and  N_1 
REMARK    2  A    between atoms: C_2  and  O_4 
REMARK    3  A    between atoms: O_4  and  C_11 
ROOT
ATOM      1  C   UNL d   1       0.182   1.108  -0.288  0.00  0.00     0.103 A 
ATOM      2  C   UNL d   1       0.621   1.968  -1.304  0.00  0.00     0.039 A 
ATOM      3  C   UNL d   1      -0.977   1.403   0.442  0.00  0.00     0.039 A 
ATOM      4  C   UNL d   1      -1.209   3.471  -0.800  0.00  0.00     0.076 A 
ATOM      5  C   UNL d   1      -0.092   3.144  -1.574  0.00  0.00     0.040 A 
ATOM      6  C   UNL d   1      -1.671   2.584   0.175  0.00  0.00     0.040 A 
ENDROOT
BRANCH   4   7
ATOM      7  O   UNL d   1      -1.944   4.629  -0.924  0.00  0.00    -0.307 OA
BRANCH   7   8
ATOM      8  C   UNL d   1      -1.336   5.804  -1.309  0.00  0.00     0.119 A 
ATOM      9  C   UNL d   1      -2.017   6.575  -2.267  0.00  0.00     0.069 A 
ATOM     10 CL   UNL d   1      -3.512   6.041  -2.955  0.00  0.00    -0.081 Cl
ATOM     11  C   UNL d   1      -1.518   7.814  -2.680  0.00  0.00     0.027 A 
ATOM     12  C   UNL d   1      -0.329   8.300  -2.144  0.00  0.00     0.003 A 
ATOM     13  C   UNL d   1       0.339   7.562  -1.167  0.00  0.00     0.027 A 
ATOM     14  C   UNL d   1      -0.174   6.335  -0.726  0.00  0.00     0.069 A 
ATOM     15 CL   UNL d   1       0.651   5.595   0.603  0.00  0.00    -0.081 Cl
ENDBRANCH   7   8
ENDBRANCH   4   7
BRANCH   1  16
ATOM     16  N   UNL d   1       0.946  -0.106   0.026  0.00  0.00    -0.116 N 
ATOM     17  O   UNL d   1       1.991  -0.308  -0.608  0.00  0.00    -0.532 OA
ATOM     18  O   UNL d   1       0.503  -0.856   0.908  0.00  0.00    -0.532 OA
ENDBRANCH   1  16
TORSDOF 3
