REMARK  3 active torsions:
REMARK  status: ('A' for Active; 'I' for Inactive)
REMARK    1  A    between atoms: C_6  and  C_1 
REMARK    2  A    between atoms: C_7  and  C_2 
REMARK    3  A    between atoms: S_14  and  C_5 
REMARK       I    between atoms: N_8  and  C_6 
ROOT
ATOM      1  C   UNL d   1       1.146  -1.232  -0.130  0.00  0.00     0.087 C 
ATOM      2  C   UNL d   1      -0.249  -1.300  -0.052  0.00  0.00     0.026 C 
ATOM      3  C   UNL d   1      -0.834   0.030  -0.058  0.00  0.00     0.081 C 
ATOM      4  S   UNL d   1       1.612   0.342  -0.675  0.00  0.00    -0.075 SA
ATOM      5  C   UNL d   1       0.108   1.016  -0.271  0.00  0.00     0.063 C 
ATOM      6  C   UNL d   1      -2.207   0.360   0.207  0.00  0.00     0.102 C 
ATOM      7  N   UNL d   1      -3.310   0.661   0.407  0.00  0.00    -0.191 NA
ENDROOT
BRANCH   2   8
ATOM      8  C   UNL d   1      -1.068  -2.581   0.081  0.00  0.00     0.018 A 
ATOM      9  S   UNL d   1      -2.694  -2.712  -0.477  0.00  0.00    -0.101 SA
ATOM     10  C   UNL d   1      -2.839  -4.330   0.031  0.00  0.00     0.050 A 
ATOM     11  C   UNL d   1      -1.671  -4.788   0.598  0.00  0.00     0.008 A 
ATOM     12  C   UNL d   1      -0.649  -3.785   0.614  0.00  0.00     0.020 A 
ENDBRANCH   2   8
BRANCH   5  13
ATOM     13  S   UNL d   1      -0.074   2.764  -0.161  0.00  0.00    -0.126 SA
ATOM     14  C   UNL d   1      -0.996   3.117  -1.670  0.00  0.00     0.096 C 
ENDBRANCH   5  13
BRANCH   1  15
ATOM     15  C   UNL d   1       2.170  -2.280  -0.092  0.00  0.00     0.261 C 
ATOM     16  N   UNL d   1       3.340  -2.116   0.708  0.00  0.00    -0.347 N 
ATOM     17  C   UNL d   1       4.389  -3.122   0.513  0.00  0.00     0.126 C 
ATOM     18  C   UNL d   1       3.777  -0.827   1.259  0.00  0.00     0.126 C 
ATOM     19  C   UNL d   1       5.366  -3.226   1.684  0.00  0.00     0.020 C 
ATOM     20  C   UNL d   1       5.937  -1.864   2.048  0.00  0.00     0.003 C 
ATOM     21  C   UNL d   1       4.795  -0.923   2.392  0.00  0.00     0.020 C 
ATOM     22  O   UNL d   1       2.015  -3.323  -0.730  0.00  0.00    -0.267 OA
ENDBRANCH   1  15
TORSDOF 3
