REMARK  4 active torsions:
REMARK  status: ('A' for Active; 'I' for Inactive)
REMARK    1  A    between atoms: O_7  and  C_1 
REMARK    2  A    between atoms: C_15  and  C_2 
REMARK    3  A    between atoms: S_3  and  O_7 
REMARK    4  A    between atoms: C_9  and  S_3 
ROOT
ATOM      1  C   UNL d   1      -0.218  -1.869  -0.142  0.00  0.00     0.114 A 
ATOM      2  C   UNL d   1      -1.517  -1.514  -0.286  0.00  0.00     0.045 A 
ATOM      3  C   UNL d   1      -1.931  -0.071  -0.270  0.00  0.00     0.256 A 
ATOM      4  N   UNL d   1      -0.964   0.897  -0.098  0.00  0.00    -0.317 N 
ATOM      5  C   UNL d   1       0.829  -0.783  -0.064  0.00  0.00     0.026 A 
ATOM      6  C   UNL d   1       0.418   0.576  -0.006  0.00  0.00     0.050 A 
ATOM      7  O   UNL d   1      -3.126   0.216  -0.387  0.00  0.00    -0.267 OA
ATOM      8  C   UNL d   1      -1.470   2.262  -0.035  0.00  0.00     0.159 C 
ATOM      9  C   UNL d   1       2.224  -0.982  -0.081  0.00  0.00     0.016 A 
ATOM     10  C   UNL d   1       1.382   1.609   0.098  0.00  0.00     0.031 A 
ATOM     11  C   UNL d   1       3.167   0.047   0.011  0.00  0.00     0.001 A 
ATOM     12  C   UNL d   1       2.745   1.349   0.110  0.00  0.00     0.002 A 
ENDROOT
BRANCH   1  13
ATOM     13  O   UNL d   1       0.050  -3.255  -0.074  0.00  0.00    -0.227 OA
BRANCH  13  14
ATOM     14  S   UNL d   1       1.455  -4.030   0.179  0.00  0.00     0.303 S 
ATOM     15  O   UNL d   1       2.245  -3.923  -1.039  0.00  0.00    -0.193 OA
ATOM     16  O   UNL d   1       1.994  -3.632   1.464  0.00  0.00    -0.193 OA
BRANCH  14  17
ATOM     17  C   UNL d   1       1.109  -5.775   0.347  0.00  0.00     0.086 A 
ATOM     18  C   UNL d   1       1.764  -6.670  -0.514  0.00  0.00     0.027 A 
ATOM     19  C   UNL d   1       1.742  -8.039  -0.248  0.00  0.00     0.020 A 
ATOM     20  C   UNL d   1       1.064  -8.509   0.874  0.00  0.00     0.011 A 
ATOM     21  C   UNL d   1       0.391  -7.624   1.722  0.00  0.00     0.020 A 
ATOM     22 BR   UNL d   1       1.105 -10.356   1.275  0.00  0.00    -0.051 Br
ATOM     23  C   UNL d   1       0.416  -6.247   1.464  0.00  0.00     0.027 A 
ENDBRANCH  14  17
ENDBRANCH  13  14
ENDBRANCH   1  13
BRANCH   2  24
ATOM     24  C   UNL d   1      -2.745  -2.401  -0.467  0.00  0.00     0.043 C 
ATOM     25  C   UNL d   1      -2.631  -3.918  -0.461  0.00  0.00     0.010 C 
ENDBRANCH   2  24
TORSDOF 4
