REMARK  4 active torsions:
REMARK  status: ('A' for Active; 'I' for Inactive)
REMARK    1  A    between atoms: C_10  and  N_1 
REMARK    2  A    between atoms: O_13  and  C_11 
REMARK    3  A    between atoms: C_15  and  O_13 
REMARK    4  A    between atoms: C_16  and  C_15 
ROOT
ATOM      1  N   UNL d   1       0.020  -1.690  -0.100  0.00  0.00    -0.343 N 
ATOM      2  C   UNL d   1      -1.125  -0.919  -0.047  0.00  0.00     0.088 A 
ATOM      3  C   UNL d   1      -0.734   0.409  -0.055  0.00  0.00    -0.015 A 
ATOM      4  C   UNL d   1       0.675   0.447  -0.065  0.00  0.00     0.002 A 
ATOM      5  C   UNL d   1       1.141  -0.869  -0.088  0.00  0.00     0.046 A 
ATOM      6  C   UNL d   1      -2.514  -1.331   0.028  0.00  0.00     0.176 C 
ATOM      7  C   UNL d   1       2.518  -1.148  -0.081  0.00  0.00     0.033 A 
ATOM      8  C   UNL d   1       1.587   1.511  -0.020  0.00  0.00     0.051 A 
ATOM      9  O   UNL d   1      -2.897  -2.492  -0.054  0.00  0.00    -0.291 OA
ATOM     10  C   UNL d   1       2.952   1.250   0.071  0.00  0.00     0.070 A 
ATOM     11  C   UNL d   1      -1.682   1.557   0.015  0.00  0.00     0.042 C 
ATOM     12  C   UNL d   1       3.410  -0.065   0.007  0.00  0.00     0.039 A 
ATOM     13  C   UNL d   1      -3.490  -0.190   0.322  0.00  0.00     0.086 C 
ATOM     14  C   UNL d   1      -3.091   1.111  -0.385  0.00  0.00     0.012 C 
ENDROOT
BRANCH  10  15
ATOM     15  O   UNL d   1       3.897   2.227   0.238  0.00  0.00    -0.347 OA
BRANCH  15  16
ATOM     16  C   UNL d   1       3.397   3.442   0.812  0.00  0.00     0.214 C 
BRANCH  16  17
ATOM     17  C   UNL d   1       4.537   4.229   1.399  0.00  0.00    -0.034 A 
ATOM     18  C   UNL d   1       4.753   5.564   1.036  0.00  0.00     0.009 A 
ATOM     19  C   UNL d   1       5.807   6.283   1.600  0.00  0.00     0.001 A 
ATOM     20  C   UNL d   1       6.643   5.676   2.537  0.00  0.00     0.000 A 
ATOM     21  C   UNL d   1       6.421   4.355   2.921  0.00  0.00     0.001 A 
ATOM     22  C   UNL d   1       5.369   3.635   2.358  0.00  0.00     0.009 A 
ENDBRANCH  16  17
ENDBRANCH  15  16
ENDBRANCH  10  15
BRANCH   1  23
ATOM     23  C   UNL d   1       0.050  -3.145  -0.064  0.00  0.00     0.125 C 
ATOM     24  C   UNL d   1      -0.054  -3.774  -1.442  0.00  0.00     0.027 C 
ENDBRANCH   1  23
TORSDOF 4
