REMARK  2 active torsions:
REMARK  status: ('A' for Active; 'I' for Inactive)
REMARK    1  A    between atoms: C_2  and  C_1 
REMARK       I    between atoms: N_8  and  C_2 
REMARK    2  A    between atoms: C_12  and  N_8 
ROOT
ATOM      1  N   UNL d   1      -3.148   9.458  -1.374  0.00  0.00    -0.191 NA
ATOM      2  C   UNL d   1      -2.814   8.389  -1.075  0.00  0.00     0.099 C 
ATOM      3  C   UNL d   1      -1.611   4.405  -0.158  0.00  0.00     0.035 A 
ATOM      4  C   UNL d   1      -2.402   7.058  -0.727  0.00  0.00     0.044 A 
ATOM      5  C   UNL d   1      -0.704   5.331  -0.685  0.00  0.00     0.031 A 
ATOM      6  C   UNL d   1      -2.917   4.835   0.113  0.00  0.00     0.031 A 
ATOM      7  C   UNL d   1      -1.093   6.646  -0.970  0.00  0.00     0.025 A 
ATOM      8  C   UNL d   1      -3.310   6.154  -0.169  0.00  0.00     0.025 A 
ENDROOT
BRANCH   3   9
ATOM      9  N   UNL d   1      -1.300   3.038   0.059  0.00  0.00    -0.323 N 
ATOM     10  C   UNL d   1      -0.048   2.461  -0.073  0.00  0.00     0.260 C 
ATOM     11  O   UNL d   1       0.992   3.108  -0.165  0.00  0.00    -0.267 OA
ATOM     12  H   UNL d   1      -2.060   2.448   0.362  0.00  0.00     0.169 HD
BRANCH  10  13
ATOM     13  C   UNL d   1       0.011   1.003  -0.075  0.00  0.00     0.087 A 
ATOM     14  C   UNL d   1       1.207   0.304  -0.024  0.00  0.00     0.090 A 
ATOM     15  O   UNL d   1       0.971  -1.028  -0.055  0.00  0.00    -0.242 OA
ATOM     16  C   UNL d   1       2.628   0.709   0.034  0.00  0.00     0.080 C 
ATOM     17  N   UNL d   1      -0.382  -1.250  -0.152  0.00  0.00    -0.265 N 
ATOM     18  C   UNL d   1      -0.957  -0.040  -0.194  0.00  0.00     0.047 A 
ATOM     19  HN  UNL d   1      -0.854  -2.154  -0.185  1.00  0.00     0.194 HD
ATOM     20  C   UNL d   1      -2.427   0.008  -0.376  0.00  0.00     0.071 C 
ENDBRANCH  10  13
ENDBRANCH   3   9
TORSDOF 2
