REMARK  5 active torsions:
REMARK  status: ('A' for Active; 'I' for Inactive)
REMARK    1  A    between atoms: S_6  and  C_3 
REMARK    2  A    between atoms: N_4  and  C_8 
REMARK    3  A    between atoms: C_14  and  C_5 
REMARK    4  A    between atoms: C_7  and  S_6 
REMARK    5  A    between atoms: C_17  and  C_18 
ROOT
ATOM      1  N   UNL d   1       1.002   0.328   0.626  0.00  0.00    -0.320 N 
ATOM      2  HN  UNL d   1       1.854   0.580   1.127  1.00  0.00     0.169 HD
ATOM      3  C   UNL d   1      -0.074   1.122   0.337  0.00  0.00     0.167 A 
ATOM      4  C   UNL d   1       0.679  -0.842   0.104  0.00  0.00     0.132 A 
ATOM      5  N   UNL d   1      -1.070   0.505  -0.304  0.00  0.00    -0.278 N 
ATOM      6  HN  UNL d   1      -1.965   0.880  -0.619  1.00  0.00     0.189 HD
ATOM      7  N   UNL d   1      -0.581  -0.737  -0.421  0.00  0.00    -0.283 N 
ATOM      8  H   UNL d   1      -1.151  -1.458  -0.848  0.00  0.00     0.188 HD
ENDROOT
BRANCH   3   9
ATOM      9  S   UNL d   1      -0.111   2.822   0.701  0.00  0.00    -0.032 SA
BRANCH   9  10
ATOM     10  C   UNL d   1      -0.757   2.787   2.355  0.00  0.00     0.110 A 
ATOM     11  C   UNL d   1       0.003   2.753   3.515  0.00  0.00     0.136 A 
ATOM     12  C   UNL d   1      -0.617   2.744   4.774  0.00  0.00     0.040 A 
ATOM     13  C   UNL d   1      -2.004   2.783   4.836  0.00  0.00     0.020 A 
ATOM     14  C   UNL d   1      -2.706   2.827   3.645  0.00  0.00     0.089 A 
ATOM     15  N   UNL d   1      -2.118   2.833   2.426  0.00  0.00    -0.358 N 
ATOM     16  HN  UNL d   1      -2.682   2.870   1.577  1.00  0.00     0.166 HD
BRANCH  11  17
ATOM     17  N   UNL d   1       1.442   2.758   3.475  0.00  0.00    -0.113 N 
ATOM     18  O   UNL d   1       1.995   3.740   2.957  0.00  0.00    -0.532 OA
ATOM     19  O   UNL d   1       2.023   1.828   4.049  0.00  0.00    -0.532 OA
ENDBRANCH  11  17
ENDBRANCH   9  10
ENDBRANCH   3   9
BRANCH   4  20
ATOM     20  C   UNL d   1       1.471  -2.068   0.107  0.00  0.00     0.009 A 
ATOM     21  C   UNL d   1       2.405  -2.287   1.123  0.00  0.00     0.016 A 
ATOM     22  C   UNL d   1       3.159  -3.466   1.163  0.00  0.00     0.009 A 
ATOM     23  C   UNL d   1       3.027  -4.460   0.176  0.00  0.00    -0.051 A 
ATOM     24  C   UNL d   1       2.097  -4.221  -0.848  0.00  0.00     0.009 A 
ATOM     25  C   UNL d   1       1.332  -3.045  -0.884  0.00  0.00     0.016 A 
BRANCH  23  26
ATOM     26  C   UNL d   1       3.900  -5.728   0.225  0.00  0.00    -0.024 C 
ATOM     27  C   UNL d   1       3.649  -6.692  -0.957  0.00  0.00     0.019 C 
ATOM     28  C   UNL d   1       5.392  -5.331   0.184  0.00  0.00     0.019 C 
ATOM     29  C   UNL d   1       3.630  -6.519   1.523  0.00  0.00     0.019 C 
ENDBRANCH  23  26
ENDBRANCH   4  20
TORSDOF 5
