REMARK  8 active torsions:
REMARK  status: ('A' for Active; 'I' for Inactive)
REMARK    1  A    between atoms: N_2  and  C_1 
REMARK    2  A    between atoms: C_5  and  C_4 
REMARK       I    between atoms: N_7  and  C_5 
REMARK    3  A    between atoms: C_10  and  C_6 
REMARK    4  A    between atoms: C_8  and  N_7 
REMARK       I    between atoms: N_22  and  C_10 
REMARK    5  A    between atoms: N_14  and  C_24 
REMARK    6  A    between atoms: C_27  and  N_22 
REMARK    7  A    between atoms: C_24  and  C_25 
REMARK    8  A    between atoms: C_25  and  C_27 
ROOT
ATOM      1  C   UNL d   1      -2.920  -0.539  -0.938  0.00  0.00     0.058 A 
ATOM      2  C   UNL d   1      -3.087  -1.593  -0.013  0.00  0.00     0.050 A 
ATOM      3  C   UNL d   1      -3.921   0.450  -1.044  0.00  0.00     0.019 A 
ATOM      4  C   UNL d   1      -4.258  -1.634   0.764  0.00  0.00     0.030 A 
ATOM      5  C   UNL d   1      -5.043   0.428  -0.217  0.00  0.00     0.001 A 
ATOM      6  C   UNL d   1      -5.216  -0.621   0.678  0.00  0.00     0.002 A 
ENDROOT
BRANCH   1   7
ATOM      7  C   UNL d   1      -1.771  -0.531  -1.903  0.00  0.00     0.253 C 
ATOM      8  O   UNL d   1      -1.111  -1.546  -2.098  0.00  0.00    -0.268 OA
ATOM      9  N   UNL d   1      -1.512   0.660  -2.558  0.00  0.00    -0.357 N 
ATOM     10  H   UNL d   1      -1.928   1.514  -2.215  0.00  0.00     0.162 HD
BRANCH   9  11
ATOM     11  C   UNL d   1      -0.452   0.798  -3.539  0.00  0.00     0.124 C 
BRANCH  11  12
ATOM     12  C   UNL d   1      -0.713   0.028  -4.833  0.00  0.00     0.040 C 
BRANCH  12  13
ATOM     13  C   UNL d   1      -2.015   0.456  -5.506  0.00  0.00     0.130 C 
BRANCH  13  14
ATOM     14  N   UNL d   1      -2.286  -0.294  -6.715  0.00  0.00    -0.352 N 
ATOM     15  C   UNL d   1      -2.990  -1.462  -6.786  0.00  0.00     0.182 A 
ATOM     16  N   UNL d   1      -3.106  -1.875  -8.028  0.00  0.00    -0.361 N 
ATOM     17  C   UNL d   1      -2.448  -0.939  -8.783  0.00  0.00     0.106 A 
ATOM     18  HN  UNL d   1      -3.583  -2.713  -8.359  1.00  0.00     0.166 HD
ATOM     19  C   UNL d   1      -1.933   0.058  -7.987  0.00  0.00     0.108 A 
ENDBRANCH  13  14
ENDBRANCH  12  13
ENDBRANCH  11  12
ENDBRANCH   9  11
ENDBRANCH   1   7
BRANCH   2  20
ATOM     20  N   UNL d   1      -2.072  -2.564   0.215  0.00  0.00    -0.320 N 
ATOM     21  C   UNL d   1      -2.329  -3.926   0.289  0.00  0.00     0.280 C 
ATOM     22  O   UNL d   1      -3.454  -4.407   0.142  0.00  0.00    -0.265 OA
ATOM     23  H   UNL d   1      -1.128  -2.327  -0.085  0.00  0.00     0.169 HD
BRANCH  21  24
ATOM     24  C   UNL d   1      -1.168  -4.783   0.487  0.00  0.00     0.146 A 
ATOM     25  O   UNL d   1       0.070  -4.262   0.797  0.00  0.00    -0.283 OA
ATOM     26  C   UNL d   1       0.919  -5.329   0.888  0.00  0.00     0.215 A 
ATOM     27  C   UNL d   1       0.272  -6.520   0.657  0.00  0.00     0.066 A 
ATOM     28  C   UNL d   1      -1.078  -6.166   0.421  0.00  0.00     0.047 A 
BRANCH  26  29
ATOM     29  N   UNL d   1       2.292  -5.059   1.176  0.00  0.00    -0.090 N 
ATOM     30  O   UNL d   1       3.061  -6.030   1.148  0.00  0.00    -0.530 OA
ATOM     31  O   UNL d   1       2.599  -3.881   1.427  0.00  0.00    -0.530 OA
ENDBRANCH  26  29
ENDBRANCH  21  24
ENDBRANCH   2  20
TORSDOF 8
