REMARK  3 active torsions:
REMARK  status: ('A' for Active; 'I' for Inactive)
REMARK    1  A    between atoms: C_7  and  N_1 
REMARK    2  A    between atoms: C_6  and  O_10 
REMARK    3  A    between atoms: O_10  and  C_16 
ROOT
ATOM      1  C   UNL d   1      -2.567  -0.035  -0.701  0.00  0.00     0.046 A 
ATOM      2  C   UNL d   1      -3.039   0.790  -1.734  0.00  0.00     0.033 A 
ATOM      3  C   UNL d   1      -3.497  -0.865  -0.061  0.00  0.00     0.033 A 
ATOM      4  C   UNL d   1      -5.254  -0.183  -1.586  0.00  0.00     0.078 A 
ATOM      5  C   UNL d   1      -4.371   0.716  -2.178  0.00  0.00     0.039 A 
ATOM      6  C   UNL d   1      -4.826  -0.927  -0.491  0.00  0.00     0.039 A 
ENDROOT
BRANCH   1   7
ATOM      7  N   UNL d   1      -1.185  -0.077  -0.364  0.00  0.00    -0.245 N 
ATOM      8  C   UNL d   1      -0.256   0.874  -0.684  0.00  0.00     0.255 A 
ATOM      9  C   UNL d   1       1.059   0.364  -0.283  0.00  0.00     0.087 A 
ATOM     10  O   UNL d   1      -0.378   1.977  -1.190  0.00  0.00    -0.268 OA
ATOM     11  C   UNL d   1       0.888  -0.849   0.242  0.00  0.00     0.012 A 
ATOM     12  C   UNL d   1      -0.556  -1.136   0.240  0.00  0.00     0.261 A 
ATOM     13  C   UNL d   1       1.916  -1.807   0.709  0.00  0.00     0.054 C 
ATOM     14  O   UNL d   1      -1.005  -2.188   0.670  0.00  0.00    -0.267 OA
ENDBRANCH   1   7
BRANCH   4  15
ATOM     15  O   UNL d   1      -6.539  -0.416  -1.976  0.00  0.00    -0.255 OA
BRANCH  15  16
ATOM     16  C   UNL d   1      -6.844  -0.208  -3.347  0.00  0.00     0.530 C 
ATOM     17  F   UNL d   1      -5.820  -0.535  -4.164  0.00  0.00    -0.144 F 
ATOM     18  F   UNL d   1      -7.899  -0.987  -3.676  0.00  0.00    -0.144 F 
ATOM     19  F   UNL d   1      -7.188   1.081  -3.557  0.00  0.00    -0.144 F 
ENDBRANCH  15  16
ENDBRANCH   4  15
TORSDOF 3
