REMARK  2 active torsions:
REMARK  status: ('A' for Active; 'I' for Inactive)
REMARK    1  A    between atoms: N_9  and  C_2 
REMARK       I    between atoms: C_10  and  N_9 
REMARK    2  A    between atoms: C_13  and  C_10 
ROOT
ATOM      1  C   UNL d   1       0.586  -0.442  -0.143  0.00  0.00     0.089 A 
ATOM      2  C   UNL d   1      -1.999   0.544  -0.360  0.00  0.00     0.155 C 
ATOM      3  C   UNL d   1       0.280   0.840  -0.511  0.00  0.00     0.062 A 
ATOM      4  S   UNL d   1      -1.942  -1.191  -0.421  0.00  0.00    -0.010 SA
ATOM      5  C   UNL d   1      -0.346  -1.455   0.235  0.00  0.00     0.235 C 
ATOM      6  N   UNL d   1      -1.011   1.382  -0.433  0.00  0.00    -0.335 N 
ATOM      7  HN  UNL d   1      -1.166   2.390  -0.434  1.00  0.00     0.168 HD
ATOM      8  S   UNL d   1       2.260  -0.740  -0.187  0.00  0.00    -0.095 SA
ATOM      9  C   UNL d   1       1.421   1.595  -0.922  0.00  0.00    -0.027 A 
ATOM     10  C   UNL d   1       2.571   0.833  -0.784  0.00  0.00     0.059 A 
ATOM     11  O   UNL d   1      -0.097  -2.466   0.878  0.00  0.00    -0.279 OA
ATOM     12  C   UNL d   1       1.425   2.995  -1.433  0.00  0.00     0.051 C 
ENDROOT
BRANCH   2  13
ATOM     13  N   UNL d   1      -3.246   1.136  -0.215  0.00  0.00    -0.303 N 
ATOM     14  C   UNL d   1      -4.527   0.583  -0.175  0.00  0.00     0.258 C 
ATOM     15  O   UNL d   1      -4.813  -0.571  -0.468  0.00  0.00    -0.267 OA
ATOM     16  H   UNL d   1      -3.163   2.127  -0.047  0.00  0.00     0.171 HD
BRANCH  14  17
ATOM     17  C   UNL d   1      -5.636   1.510   0.199  0.00  0.00     0.038 A 
ATOM     18  C   UNL d   1      -6.684   1.076   1.040  0.00  0.00    -0.046 A 
ATOM     19  C   UNL d   1      -6.718  -0.288   1.677  0.00  0.00     0.049 C 
ATOM     20  C   UNL d   1      -7.780   1.929   1.253  0.00  0.00     0.007 A 
ATOM     21  C   UNL d   1      -7.820   3.200   0.679  0.00  0.00     0.001 A 
ATOM     22  C   UNL d   1      -6.767   3.635  -0.121  0.00  0.00     0.001 A 
ATOM     23  C   UNL d   1      -5.681   2.794  -0.370  0.00  0.00     0.017 A 
ENDBRANCH  14  17
ENDBRANCH   2  13
TORSDOF 2
