REMARK  5 active torsions:
REMARK  status: ('A' for Active; 'I' for Inactive)
REMARK    1  A    between atoms: C_10  and  N_1 
REMARK    2  A    between atoms: S_8  and  C_2 
REMARK    3  A    between atoms: C_7  and  C_9 
REMARK    4  A    between atoms: C_9  and  S_8 
REMARK    5  A    between atoms: N_14  and  C_13 
ROOT
ATOM      1  N   UNL d   1      -0.123  -1.362  -0.107  0.00  0.00    -0.219 N 
ATOM      2  C   UNL d   1       1.061  -0.674   0.107  0.00  0.00     0.177 A 
ATOM      3  N   UNL d   1       0.820   0.619   0.069  0.00  0.00    -0.264 N 
ATOM      4  HN  UNL d   1       1.488   1.372   0.234  1.00  0.00     0.186 HD
ATOM      5  N   UNL d   1      -0.504   0.749  -0.238  0.00  0.00    -0.006 NA
ATOM      6  N   UNL d   1      -1.074  -0.435  -0.402  0.00  0.00     0.001 NA
ENDROOT
BRANCH   2   7
ATOM      7  S   UNL d   1       2.647  -1.375   0.172  0.00  0.00    -0.086 SA
BRANCH   7   8
ATOM      8  C   UNL d   1       3.670   0.121   0.298  0.00  0.00     0.126 C 
BRANCH   8   9
ATOM      9  C   UNL d   1       5.138  -0.212   0.335  0.00  0.00     0.012 A 
ATOM     10  C   UNL d   1       5.958  -0.229  -0.803  0.00  0.00     0.044 A 
ATOM     11 CL   UNL d   1       5.340   0.116  -2.380  0.00  0.00    -0.084 Cl
ATOM     12  C   UNL d   1       7.320  -0.531  -0.699  0.00  0.00     0.024 A 
ATOM     13  C   UNL d   1       7.885  -0.837   0.539  0.00  0.00     0.005 A 
ATOM     14  C   UNL d   1       7.081  -0.846   1.674  0.00  0.00     0.043 A 
ATOM     15  C   UNL d   1       5.728  -0.538   1.563  0.00  0.00     0.125 A 
ATOM     16  F   UNL d   1       4.978  -0.557   2.675  0.00  0.00    -0.205 F 
ENDBRANCH   8   9
ENDBRANCH   7   8
ENDBRANCH   2   7
BRANCH   1  17
ATOM     17  C   UNL d   1      -0.453  -2.744  -0.064  0.00  0.00     0.057 A 
ATOM     18  C   UNL d   1       0.290  -3.664   0.675  0.00  0.00     0.033 A 
ATOM     19  C   UNL d   1      -0.067  -5.022   0.679  0.00  0.00     0.031 A 
ATOM     20  C   UNL d   1      -1.160  -5.508  -0.051  0.00  0.00     0.029 A 
ATOM     21  C   UNL d   1      -1.914  -4.553  -0.753  0.00  0.00     0.031 A 
ATOM     22  C   UNL d   1      -1.581  -3.192  -0.756  0.00  0.00     0.033 A 
BRANCH  20  23
ATOM     23  N   UNL d   1      -1.547  -6.845  -0.049  0.00  0.00    -0.390 N 
ATOM     24  C   UNL d   1      -1.892  -7.464  -1.329  0.00  0.00     0.149 C 
ATOM     25  C   UNL d   1      -1.040  -7.767   0.962  0.00  0.00     0.149 C 
ENDBRANCH  20  23
ENDBRANCH   1  17
TORSDOF 5
