REMARK  2 active torsions:
REMARK  status: ('A' for Active; 'I' for Inactive)
REMARK    1  A    between atoms: S_2  and  N_8 
REMARK    2  A    between atoms: N_8  and  C_15 
ROOT
ATOM      1  C   UNL d   1       0.011  -1.534   0.005  0.00  0.00     0.199 A 
ATOM      2  C   UNL d   1       1.253  -0.762   0.005  0.00  0.00     0.066 A 
ATOM      3  C   UNL d   1      -1.242  -0.772  -0.004  0.00  0.00     0.051 A 
ATOM      4  C   UNL d   1       1.188   0.623   0.008  0.00  0.00     0.162 A 
ATOM      5  O   UNL d   1       0.003   1.324   0.015  0.00  0.00    -0.292 OA
ATOM      6  C   UNL d   1      -1.174   0.619   0.005  0.00  0.00     0.092 A 
ATOM      7  N   UNL d   1       2.296   1.401   0.004  0.00  0.00    -0.346 N 
ATOM      8  HN  UNL d   1       2.230   2.419   0.004  1.00  0.00     0.167 HD
ATOM      9  C   UNL d   1      -2.471  -1.434  -0.024  0.00  0.00     0.042 A 
ATOM     10  O   UNL d   1       0.014  -2.758   0.011  0.00  0.00    -0.286 OA
ATOM     11  C   UNL d   1      -3.645  -0.689  -0.045  0.00  0.00     0.023 A 
ATOM     12  C   UNL d   1      -2.357   1.361   0.003  0.00  0.00     0.040 A 
ATOM     13  C   UNL d   1      -3.595   0.707  -0.019  0.00  0.00     0.027 A 
ATOM     14  C   UNL d   1       2.497  -1.391   0.001  0.00  0.00     0.021 A 
ATOM     15  C   UNL d   1       3.494   0.772   0.000  0.00  0.00     0.090 A 
ATOM     16  C   UNL d   1       3.644  -0.607  -0.001  0.00  0.00     0.018 A 
ENDROOT
BRANCH  11  17
ATOM     17  N   UNL d   1      -4.891  -1.376  -0.057  0.00  0.00    -0.186 NA
ATOM     18  H   UNL d   1      -5.577  -1.038  -0.735  0.00  0.00     0.145 HD
BRANCH  17  19
ATOM     19  S   UNL d   1      -5.656  -1.639   1.428  0.00  0.00     0.210 S 
ATOM     20  O   UNL d   1      -5.261  -0.614   2.369  0.00  0.00    -0.211 OA
ATOM     21  O   UNL d   1      -7.049  -1.861   1.104  0.00  0.00    -0.211 OA
ATOM     22  C   UNL d   1      -4.958  -3.199   1.927  0.00  0.00     0.180 C 
ENDBRANCH  17  19
ENDBRANCH  11  17
TORSDOF 2
