REMARK  4 active torsions:
REMARK  status: ('A' for Active; 'I' for Inactive)
REMARK    1  A    between atoms: C_6  and  N_3 
REMARK    2  A    between atoms: C_8  and  C_4 
REMARK    3  A    between atoms: N_15  and  C_7 
REMARK    4  A    between atoms: C_20  and  N_15 
ROOT
ATOM      1  S   UNL d   1       1.448   0.426   0.122  0.00  0.00     0.208 S 
ATOM      2  C   UNL d   1       0.647  -1.090   0.254  0.00  0.00     0.145 C 
ATOM      3  N   UNL d   1      -1.134   0.346  -0.359  0.00  0.00    -0.287 N 
ATOM      4  C   UNL d   1       0.030   1.115  -0.807  0.00  0.00     0.256 C 
ATOM      5  C   UNL d   1      -0.817  -0.951   0.074  0.00  0.00     0.272 C 
ATOM      6  C   UNL d   1       1.343  -2.223   0.376  0.00  0.00     0.117 C 
ATOM      7  O   UNL d   1       1.504   1.067   1.427  0.00  0.00    -0.220 OA
ATOM      8  O   UNL d   1       2.639   0.328  -0.700  0.00  0.00    -0.220 OA
ATOM      9  O   UNL d   1      -1.586  -1.889   0.212  0.00  0.00    -0.266 OA
ENDROOT
BRANCH   6  10
ATOM     10  N   UNL d   1       0.868  -3.511   0.396  0.00  0.00    -0.364 N 
ATOM     11  H   UNL d   1      -0.149  -3.619   0.374  0.00  0.00     0.165 HD
BRANCH  10  12
ATOM     12  C   UNL d   1       1.615  -4.701   0.374  0.00  0.00     0.031 A 
ATOM     13  C   UNL d   1       1.024  -5.879   0.848  0.00  0.00     0.030 A 
ATOM     14  C   UNL d   1       1.754  -7.070   0.935  0.00  0.00     0.009 A 
ATOM     15  C   UNL d   1       3.096  -7.109   0.547  0.00  0.00    -0.062 A 
ATOM     16  C   UNL d   1       3.694  -5.940   0.071  0.00  0.00     0.009 A 
ATOM     17  C   UNL d   1       3.873  -8.388   0.643  0.00  0.00     0.048 C 
ATOM     18  C   UNL d   1       2.962  -4.751  -0.005  0.00  0.00     0.030 A 
ENDBRANCH  10  12
ENDBRANCH   6  10
BRANCH   4  19
ATOM     19  C   UNL d   1       0.319   0.979  -2.290  0.00  0.00    -0.005 A 
ATOM     20  C   UNL d   1       0.951   2.021  -2.967  0.00  0.00     0.097 A 
ATOM     21  N   UNL d   1       1.259   1.999  -4.283  0.00  0.00    -0.375 N 
ATOM     22  C   UNL d   1       0.962   0.874  -4.967  0.00  0.00     0.087 A 
ATOM     23  HN  UNL d   1       1.698   2.799  -4.739  1.00  0.00     0.164 HD
ATOM     24  C   UNL d   1       0.354  -0.226  -4.395  0.00  0.00     0.018 A 
ATOM     25  C   UNL d   1       0.024  -0.169  -3.044  0.00  0.00     0.013 A 
ENDBRANCH   4  19
BRANCH   3  26
ATOM     26  C   UNL d   1      -2.406   0.960  -0.195  0.00  0.00     0.078 A 
ATOM     27  C   UNL d   1      -3.280   0.571   0.839  0.00  0.00     0.146 A 
ATOM     28  C   UNL d   1      -4.494   1.216   1.054  0.00  0.00     0.086 A 
ATOM     29  F   UNL d   1      -2.914  -0.354   1.738  0.00  0.00    -0.204 F 
ATOM     30  C   UNL d   1      -4.852   2.269   0.230  0.00  0.00     0.119 A 
ATOM     31  C   UNL d   1      -4.014   2.687  -0.796  0.00  0.00     0.044 A 
ATOM     32  F   UNL d   1      -6.010   2.908   0.438  0.00  0.00    -0.206 F 
ATOM     33  C   UNL d   1      -2.790   2.040  -1.007  0.00  0.00     0.036 A 
ENDBRANCH   3  26
TORSDOF 4
