REMARK  7 active torsions:
REMARK  status: ('A' for Active; 'I' for Inactive)
REMARK    1  A    between atoms: N_2  and  C_1 
REMARK    2  A    between atoms: C_3  and  C_6 
REMARK    3  A    between atoms: N_7  and  C_4 
REMARK    4  A    between atoms: C_10  and  N_7 
REMARK    5  A    between atoms: C_16  and  C_10 
REMARK    6  A    between atoms: C_18  and  C_16 
REMARK    7  A    between atoms: O_17  and  C_18 
ROOT
ATOM      1  C   UNL d   1      -0.285  -0.424   0.341  0.00  0.00     0.130 A 
ATOM      2  C   UNL d   1       0.855  -1.011  -0.265  0.00  0.00     0.062 A 
ATOM      3  C   UNL d   1      -0.582   0.952   0.199  0.00  0.00     0.054 A 
ATOM      4  C   UNL d   1       0.250   1.787  -0.554  0.00  0.00     0.050 A 
ATOM      5  C   UNL d   1       1.655  -0.143  -1.025  0.00  0.00     0.032 A 
ATOM      6  C   UNL d   1       1.366   1.219  -1.170  0.00  0.00     0.018 A 
ENDROOT
BRANCH   2   7
ATOM      7  N   UNL d   1       1.203  -2.340  -0.075  0.00  0.00    -0.379 N 
ATOM      8  H   UNL d   1       0.450  -2.923   0.308  0.00  0.00     0.160 HD
BRANCH   7   9
ATOM      9  C   UNL d   1       2.525  -2.992  -0.092  0.00  0.00     0.025 C 
ATOM     10  C   UNL d   1       2.363  -4.362   0.611  0.00  0.00     0.038 C 
ATOM     11  C   UNL d   1       2.952  -3.291  -1.540  0.00  0.00     0.038 C 
BRANCH   9  12
ATOM     12  C   UNL d   1       3.608  -2.170   0.644  0.00  0.00     0.056 C 
BRANCH  12  13
ATOM     13  C   UNL d   1       3.282  -1.825   2.094  0.00  0.00     0.166 C 
BRANCH  13  14
ATOM     14  O   UNL d   1       4.306  -0.972   2.599  0.00  0.00    -0.401 OA
ATOM     15  H   UNL d   1       4.035  -0.703   3.493  0.00  0.00     0.209 HD
ENDBRANCH  13  14
ENDBRANCH  12  13
ENDBRANCH   9  12
ENDBRANCH   7   9
ENDBRANCH   2   7
BRANCH   1  16
ATOM     16  N   UNL d   1      -1.195  -1.216   1.191  0.00  0.00    -0.113 N 
ATOM     17  O   UNL d   1      -1.165  -2.453   1.101  0.00  0.00    -0.532 OA
ATOM     18  O   UNL d   1      -1.949  -0.596   1.956  0.00  0.00    -0.532 OA
ENDBRANCH   1  16
BRANCH   4  19
ATOM     19  C   UNL d   1      -0.026   3.263  -0.704  0.00  0.00     0.417 C 
ATOM     20  F   UNL d   1      -1.141   3.676  -0.044  0.00  0.00    -0.166 F 
ATOM     21  F   UNL d   1       0.994   4.030  -0.233  0.00  0.00    -0.166 F 
ATOM     22  F   UNL d   1      -0.202   3.628  -2.003  0.00  0.00    -0.166 F 
ENDBRANCH   4  19
TORSDOF 7
