REMARK  4 active torsions:
REMARK  status: ('A' for Active; 'I' for Inactive)
REMARK    1  A    between atoms: O_2  and  C_1 
REMARK    2  A    between atoms: O_3  and  C_1 
REMARK    3  A    between atoms: C_8  and  O_2 
REMARK    4  A    between atoms: C_7  and  O_3 
ROOT
ATOM      1  C   UNL d   1       1.093  -0.019   0.032  0.00  0.00     0.417 C 
ATOM      2  O   UNL d   1       2.313   0.037   0.043  0.00  0.00    -0.229 OA
ENDROOT
BRANCH   1   3
ATOM      3  O   UNL d   1       0.218   1.064   0.068  0.00  0.00    -0.255 OA
BRANCH   3   4
ATOM      4  C   UNL d   1       0.628   2.405   0.247  0.00  0.00     0.082 A 
ATOM      5  C   UNL d   1      -0.238   3.371  -0.273  0.00  0.00     0.049 A 
ATOM      6  C   UNL d   1      -0.008   4.734  -0.032  0.00  0.00    -0.023 A 
ATOM      7  C   UNL d   1      -0.879   5.723  -0.518  0.00  0.00     0.012 A 
ATOM      8  C   UNL d   1       1.113   5.119   0.741  0.00  0.00    -0.026 A 
ATOM      9  C   UNL d   1      -0.661   7.071  -0.228  0.00  0.00     0.001 A 
ATOM     10  C   UNL d   1       0.433   7.449   0.544  0.00  0.00     0.001 A 
ATOM     11  C   UNL d   1       1.319   6.480   1.019  0.00  0.00     0.012 A 
ATOM     12  C   UNL d   1       1.985   4.130   1.228  0.00  0.00     0.015 A 
ATOM     13  C   UNL d   1       1.741   2.775   0.992  0.00  0.00     0.038 A 
ENDBRANCH   3   4
ENDBRANCH   1   3
BRANCH   1  14
ATOM     14  O   UNL d   1       0.311  -1.173  -0.037  0.00  0.00    -0.255 OA
BRANCH  14  15
ATOM     15  C   UNL d   1       0.761  -2.502  -0.231  0.00  0.00     0.082 A 
ATOM     16  C   UNL d   1      -0.257  -3.456  -0.336  0.00  0.00     0.049 A 
ATOM     17  C   UNL d   1       0.045  -4.796  -0.627  0.00  0.00    -0.023 A 
ATOM     18  C   UNL d   1      -0.962  -5.763  -0.774  0.00  0.00     0.012 A 
ATOM     19  C   UNL d   1       1.397  -5.172  -0.802  0.00  0.00    -0.026 A 
ATOM     20  C   UNL d   1      -0.642  -7.081  -1.110  0.00  0.00     0.001 A 
ATOM     21  C   UNL d   1       0.688  -7.447  -1.297  0.00  0.00     0.001 A 
ATOM     22  C   UNL d   1       1.701  -6.502  -1.136  0.00  0.00     0.012 A 
ATOM     23  C   UNL d   1       2.406  -4.207  -0.648  0.00  0.00     0.015 A 
ATOM     24  C   UNL d   1       2.093  -2.873  -0.365  0.00  0.00     0.038 A 
ENDBRANCH  14  15
ENDBRANCH   1  14
TORSDOF 4
