REMARK  9 active torsions:
REMARK  status: ('A' for Active; 'I' for Inactive)
REMARK    1  A    between atoms: C_4  and  C_1 
REMARK    2  A    between atoms: O_12  and  C_5 
REMARK    3  A    between atoms: S_6  and  C_13 
REMARK    4  A    between atoms: C_7  and  S_6 
REMARK    5  A    between atoms: N_15  and  C_8 
REMARK    6  A    between atoms: C_16  and  O_12 
REMARK    7  A    between atoms: C_13  and  C_14 
REMARK    8  A    between atoms: C_14  and  C_16 
REMARK    9  A    between atoms: O_17  and  C_14 
ROOT
ATOM      1  C   UNL d   1      -1.518   2.024  -6.389  0.00  0.00     0.152 C 
ENDROOT
BRANCH   1   2
ATOM      2  C   UNL d   1      -0.391   3.073  -6.362  0.00  0.00     0.113 C 
BRANCH   2   3
ATOM      3  S   UNL d   1      -0.973   4.637  -7.122  0.00  0.00    -0.126 SA
BRANCH   3   4
ATOM      4  C   UNL d   1       0.535   5.606  -7.068  0.00  0.00     0.021 A 
ATOM      5  C   UNL d   1       1.536   5.479  -8.054  0.00  0.00     0.022 A 
ATOM      6  C   UNL d   1       2.674   6.290  -7.971  0.00  0.00     0.024 A 
ATOM      7  C   UNL d   1       2.773   7.284  -6.994  0.00  0.00     0.002 A 
ATOM      8  C   UNL d   1       1.757   7.441  -6.056  0.00  0.00     0.001 A 
ATOM      9  C   UNL d   1       0.644   6.601  -6.088  0.00  0.00     0.020 A 
BRANCH   5  10
ATOM     10  N   UNL d   1       1.511   4.428  -8.996  0.00  0.00    -0.302 NA
ATOM     11  H   UNL d   1       0.551   4.134  -9.177  0.00  0.00     0.124 HD
ATOM     12  H   UNL d   1       2.007   4.654  -9.854  0.00  0.00     0.124 HD
ENDBRANCH   5  10
ENDBRANCH   3   4
ENDBRANCH   2   3
ENDBRANCH   1   2
BRANCH   1  13
ATOM     13  C   UNL d   1      -1.115   0.759  -5.612  0.00  0.00     0.209 C 
BRANCH  13  14
ATOM     14  O   UNL d   1      -2.241  -0.129  -5.575  0.00  0.00    -0.333 OA
BRANCH  14  15
ATOM     15  C   UNL d   1      -1.983  -1.319  -4.927  0.00  0.00     0.142 A 
ATOM     16  N   UNL d   1      -0.775  -1.525  -4.363  0.00  0.00    -0.333 N 
ATOM     17  C   UNL d   1      -0.570  -2.713  -3.725  0.00  0.00     0.118 A 
ATOM     18  HN  UNL d   1      -0.042  -0.818  -4.412  1.00  0.00     0.168 HD
ATOM     19  C   UNL d   1      -1.565  -3.690  -3.646  0.00  0.00     0.034 A 
ATOM     20  C   UNL d   1      -2.801  -3.448  -4.239  0.00  0.00     0.007 A 
ATOM     21  C   UNL d   1      -3.015  -2.240  -4.893  0.00  0.00     0.056 A 
BRANCH  17  22
ATOM     22  C   UNL d   1       0.777  -2.983  -3.071  0.00  0.00     0.432 C 
ATOM     23  F   UNL d   1       1.705  -2.006  -3.276  0.00  0.00    -0.165 F 
ATOM     24  F   UNL d   1       1.352  -4.139  -3.518  0.00  0.00    -0.165 F 
ATOM     25  F   UNL d   1       0.679  -3.127  -1.717  0.00  0.00    -0.165 F 
ENDBRANCH  17  22
ENDBRANCH  14  15
ENDBRANCH  13  14
ENDBRANCH   1  13
BRANCH   1  26
ATOM     26  O   UNL d   1      -1.836   1.670  -7.746  0.00  0.00    -0.393 OA
ATOM     27  H   UNL d   1      -1.074   1.198  -8.122  0.00  0.00     0.210 HD
ENDBRANCH   1  26
TORSDOF 9
