REMARK  1 active torsions:
REMARK  status: ('A' for Active; 'I' for Inactive)
REMARK    1  A    between atoms: O_15  and  C_11 
ROOT
ATOM      1  C   UNL d   1      -1.114   0.836   0.015  0.00  0.00     0.108 A 
ATOM      2  N   UNL d   1      -0.018   1.648   0.113  0.00  0.00    -0.351 N 
ATOM      3  C   UNL d   1      -0.680  -0.474   0.069  0.00  0.00    -0.012 A 
ATOM      4  C   UNL d   1       0.741  -0.455   0.088  0.00  0.00     0.002 A 
ATOM      5  C   UNL d   1       1.130   0.886   0.098  0.00  0.00     0.043 A 
ATOM      6  C   UNL d   1      -2.473   1.261  -0.182  0.00  0.00     0.268 C 
ATOM      7  N   UNL d   1      -3.365   0.218  -0.331  0.00  0.00    -0.355 N 
ATOM      8  C   UNL d   1       1.740  -1.447   0.050  0.00  0.00     0.051 A 
ATOM      9  O   UNL d   1      -2.828   2.429  -0.260  0.00  0.00    -0.266 OA
ATOM     10  C   UNL d   1       2.472   1.279   0.065  0.00  0.00     0.033 A 
ATOM     11  C   UNL d   1       3.091  -1.077  -0.007  0.00  0.00     0.069 A 
ATOM     12  C   UNL d   1      -1.637  -1.611  -0.026  0.00  0.00     0.061 C 
ATOM     13  C   UNL d   1      -3.086  -1.121   0.180  0.00  0.00     0.128 C 
ATOM     14  C   UNL d   1       3.445   0.272  -0.000  0.00  0.00     0.039 A 
ATOM     15  H   UNL d   1      -0.054   2.659   0.099  0.00  0.00     0.166 HD
ATOM     16  H   UNL d   1      -4.324   0.521  -0.424  0.00  0.00     0.162 HD
ENDROOT
BRANCH  11  17
ATOM     17  O   UNL d   1       3.961  -2.133  -0.080  0.00  0.00    -0.356 OA
ATOM     18  C   UNL d   1       5.345  -1.823  -0.164  0.00  0.00     0.210 C 
ENDBRANCH  11  17
TORSDOF 1
