REMARK  6 active torsions:
REMARK  status: ('A' for Active; 'I' for Inactive)
REMARK    1  A    between atoms: C_12  and  C_5 
REMARK    2  A    between atoms: N_21  and  C_8 
REMARK    3  A    between atoms: S_23  and  C_9 
REMARK    4  A    between atoms: C_11  and  C_10 
REMARK    5  A    between atoms: C_13  and  C_11 
REMARK    6  A    between atoms: C_14  and  N_21 
ROOT
ATOM      1  C   UNL d   1       0.064  -6.045   0.271  0.00  0.00     0.106 C 
ATOM      2  C   UNL d   1      -0.749  -4.977   0.172  0.00  0.00     0.132 C 
ATOM      3  C   UNL d   1       1.469  -5.888   0.308  0.00  0.00     0.104 C 
ATOM      4  N   UNL d   1       2.623  -5.742   0.342  0.00  0.00    -0.191 NA
ENDROOT
BRANCH   1   5
ATOM      5  C   UNL d   1      -0.542  -7.412   0.336  0.00  0.00     0.175 C 
ATOM      6  O   UNL d   1      -1.753  -7.593   0.395  0.00  0.00    -0.291 OA
BRANCH   5   7
ATOM      7  C   UNL d   1       0.393  -8.582   0.267  0.00  0.00     0.061 A 
ATOM      8  C   UNL d   1       0.258  -9.527  -0.907  0.00  0.00     0.013 A 
ATOM      9  C   UNL d   1      -0.073 -10.005   0.475  0.00  0.00     0.013 A 
ENDBRANCH   5   7
ENDBRANCH   1   5
BRANCH   2  10
ATOM     10  N   UNL d   1      -0.420  -3.640   0.108  0.00  0.00    -0.200 N 
ATOM     11  H   UNL d   1       0.546  -3.343   0.170  0.00  0.00     0.183 HD
BRANCH  10  12
ATOM     12  C   UNL d   1      -1.293  -2.554   0.031  0.00  0.00     0.685 A 
ATOM     13  N   UNL d   1      -2.597  -2.762  -0.058  0.00  0.00    -0.170 N 
ATOM     14  C   UNL d   1      -3.349  -1.671  -0.123  0.00  0.00     0.160 A 
ATOM     15  HN  UNL d   1      -2.998  -3.700  -0.074  1.00  0.00     0.186 HD
ATOM     16  N   UNL d   1      -2.890  -0.426  -0.101  0.00  0.00    -0.325 N 
ATOM     17  C   UNL d   1      -1.567  -0.303  -0.002  0.00  0.00     0.103 A 
ATOM     18  HN  UNL d   1      -3.509   0.383  -0.157  1.00  0.00     0.169 HD
ATOM     19  N   UNL d   1      -0.736  -1.349   0.056  0.00  0.00    -0.180 N 
ATOM     20  HN  UNL d   1       0.275  -1.227   0.116  1.00  0.00     0.185 HD
BRANCH  14  21
ATOM     21  S   UNL d   1      -5.100  -1.957  -0.240  0.00  0.00    -0.098 SA
ATOM     22  C   UNL d   1      -5.719  -0.260  -0.313  0.00  0.00     0.099 C 
ENDBRANCH  14  21
BRANCH  17  23
ATOM     23  C   UNL d   1      -0.979   1.089   0.043  0.00  0.00     0.054 A 
ATOM     24  C   UNL d   1      -0.133   1.523   1.221  0.00  0.00     0.013 A 
ATOM     25  C   UNL d   1      -1.504   2.101   1.039  0.00  0.00     0.013 A 
ENDBRANCH  17  23
ENDBRANCH  10  12
ENDBRANCH   2  10
TORSDOF 6
