REMARK  4 active torsions:
REMARK  status: ('A' for Active; 'I' for Inactive)
REMARK       I    between atoms: N_2  and  C_1 
REMARK    1  A    between atoms: C_5  and  C_1 
REMARK    2  A    between atoms: C_6  and  N_2 
REMARK    3  A    between atoms: C_7  and  N_3 
REMARK    4  A    between atoms: C_12  and  C_7 
ROOT
ATOM      1  N   UNL d   1       2.308   3.649  -0.644  0.00  0.00     0.092 N 
ATOM      2  C   UNL d   1       0.716   2.125   1.350  0.00  0.00     0.087 C 
ATOM      3  C   UNL d   1       0.171   3.386   0.672  0.00  0.00     0.055 C 
ATOM      4  C   UNL d   1       2.241   2.246   1.412  0.00  0.00     0.055 C 
ATOM      5  C   UNL d   1       0.836   3.674  -0.681  0.00  0.00     0.275 C 
ATOM      6  C   UNL d   1       2.821   2.435   0.017  0.00  0.00     0.275 C 
ENDROOT
BRANCH   2   7
ATOM      7  N   UNL d   1       0.267   0.887   0.693  0.00  0.00    -0.356 N 
ATOM      8  C   UNL d   1       0.530  -0.356   1.246  0.00  0.00     0.222 C 
ATOM      9  O   UNL d   1       1.153  -0.461   2.308  0.00  0.00    -0.273 OA
ATOM     10  H   UNL d   1      -0.344   0.950  -0.107  0.00  0.00     0.162 HD
BRANCH   8  11
ATOM     11  C   UNL d   1      -0.013  -1.596   0.515  0.00  0.00     0.078 C 
ATOM     12  C   UNL d   1       1.052  -2.568  -0.081  0.00  0.00     0.014 C 
ATOM     13  C   UNL d   1      -0.022  -2.982  -1.104  0.00  0.00     0.002 C 
ATOM     14  C   UNL d   1      -0.616  -1.567  -0.914  0.00  0.00     0.014 C 
ENDBRANCH   8  11
ENDBRANCH   2   7
BRANCH   1  15
ATOM     15  C   UNL d   1       2.881   3.694  -2.009  0.00  0.00     0.311 C 
BRANCH  15  16
ATOM     16  C   UNL d   1       2.657   4.981  -2.769  0.00  0.00    -0.030 A 
ATOM     17  C   UNL d   1       3.216   6.184  -2.316  0.00  0.00     0.009 A 
ATOM     18  C   UNL d   1       3.100   7.349  -3.080  0.00  0.00     0.001 A 
ATOM     19  C   UNL d   1       2.417   7.324  -4.295  0.00  0.00     0.000 A 
ATOM     20  C   UNL d   1       1.844   6.136  -4.747  0.00  0.00     0.001 A 
ATOM     21  C   UNL d   1       1.963   4.971  -3.988  0.00  0.00     0.009 A 
ENDBRANCH  15  16
ENDBRANCH   1  15
TORSDOF 4
