REMARK  6 active torsions:
REMARK  status: ('A' for Active; 'I' for Inactive)
REMARK    1  A    between atoms: O_11  and  C_1 
REMARK    2  A    between atoms: C_18  and  N_2 
REMARK    3  A    between atoms: O_13  and  C_4 
REMARK    4  A    between atoms: C_7  and  C_8 
REMARK    5  A    between atoms: O_19  and  C_9 
REMARK    6  A    between atoms: C_12  and  C_18 
ROOT
ATOM      1  N   UNL d   1      -2.319   2.725   0.565  0.00  0.00    -0.394 N 
ATOM      2  HN  UNL d   1      -2.928   1.907   0.585  1.00  0.00     0.159 HD
ATOM      3  C   UNL d   1      -1.058   2.617   0.310  0.00  0.00     0.094 C 
ENDROOT
BRANCH   1   4
ATOM      4  C   UNL d   1      -2.841   4.064   0.826  0.00  0.00     0.157 C 
BRANCH   4   5
ATOM      5  C   UNL d   1      -4.242   4.235   0.271  0.00  0.00    -0.040 A 
ATOM      6  C   UNL d   1      -5.088   3.133   0.076  0.00  0.00     0.011 A 
ATOM      7  C   UNL d   1      -6.375   3.301  -0.438  0.00  0.00     0.037 A 
ATOM      8  C   UNL d   1      -6.858   4.575  -0.732  0.00  0.00     0.068 A 
ATOM      9  C   UNL d   1      -6.034   5.682  -0.528  0.00  0.00     0.037 A 
ATOM     10  C   UNL d   1      -4.736   5.512  -0.025  0.00  0.00     0.011 A 
BRANCH   8  11
ATOM     11  O   UNL d   1      -8.122   4.611  -1.252  0.00  0.00    -0.356 OA
ATOM     12  C   UNL d   1      -8.854   5.806  -1.015  0.00  0.00     0.210 C 
ENDBRANCH   8  11
ENDBRANCH   4   5
ENDBRANCH   1   4
BRANCH   3  13
ATOM     13  C   UNL d   1      -0.489   1.298  -0.030  0.00  0.00    -0.018 A 
ATOM     14  C   UNL d   1      -1.326   0.178  -0.076  0.00  0.00     0.052 A 
ATOM     15  C   UNL d   1      -0.817  -1.101  -0.338  0.00  0.00     0.102 A 
ATOM     16  C   UNL d   1       0.545  -1.238  -0.646  0.00  0.00     0.101 A 
ATOM     17  C   UNL d   1       1.373  -0.101  -0.610  0.00  0.00     0.040 A 
ATOM     18  C   UNL d   1       0.870   1.163  -0.292  0.00  0.00     0.015 A 
BRANCH  15  19
ATOM     19  O   UNL d   1      -1.613  -2.214  -0.276  0.00  0.00    -0.353 OA
ATOM     20  C   UNL d   1      -2.773  -2.119   0.551  0.00  0.00     0.210 C 
ENDBRANCH  15  19
BRANCH  16  21
ATOM     21  O   UNL d   1       1.246  -2.389  -0.897  0.00  0.00    -0.353 OA
ATOM     22  C   UNL d   1       0.575  -3.490  -1.494  0.00  0.00     0.210 C 
ENDBRANCH  16  21
ENDBRANCH   3  13
TORSDOF 6
