REMARK  1 active torsions:
REMARK  status: ('A' for Active; 'I' for Inactive)
REMARK       I    between atoms: N_2  and  C_1 
REMARK    1  A    between atoms: C_3  and  C_1 
ROOT
ATOM      1  C   UNL d   1       0.849  -0.404  -0.021  0.00  0.00     0.266 C 
ATOM      2  N   UNL d   1       0.311   0.365  -1.097  0.00  0.00    -0.292 N 
ATOM      3  C   UNL d   1       0.798   0.221  -2.466  0.00  0.00     0.049 A 
ATOM      4  C   UNL d   1      -0.769   1.361  -0.855  0.00  0.00     0.223 C 
ATOM      5  C   UNL d   1      -1.099   1.615  -3.326  0.00  0.00     0.012 C 
ATOM      6  N   UNL d   1       0.012   3.401   0.628  0.00  0.00    -0.195 NA
ATOM      7  C   UNL d   1      -1.478   1.865  -2.075  0.00  0.00     0.014 C 
ATOM      8  C   UNL d   1      -0.305   2.517  -0.051  0.00  0.00     0.089 C 
ATOM      9  O   UNL d   1       1.715  -1.271  -0.124  0.00  0.00    -0.267 OA
ATOM     10  C   UNL d   1       0.102   0.823  -3.540  0.00  0.00    -0.009 A 
ATOM     11  C   UNL d   1       1.956  -0.502  -2.802  0.00  0.00     0.031 A 
ATOM     12  C   UNL d   1       0.527   0.666  -4.872  0.00  0.00     0.013 A 
ATOM     13  C   UNL d   1       2.384  -0.649  -4.129  0.00  0.00     0.002 A 
ATOM     14  C   UNL d   1       1.665  -0.070  -5.169  0.00  0.00     0.001 A 
ENDROOT
BRANCH   1  15
ATOM     15  C   UNL d   1       0.381  -0.212   1.373  0.00  0.00     0.109 A 
ATOM     16  C   UNL d   1      -0.945  -0.411   1.749  0.00  0.00     0.135 A 
ATOM     17  F   UNL d   1      -1.852  -0.849   0.864  0.00  0.00    -0.205 F 
ATOM     18  C   UNL d   1      -1.375  -0.159   3.053  0.00  0.00     0.043 A 
ATOM     19  C   UNL d   1      -0.449   0.187   4.033  0.00  0.00     0.006 A 
ATOM     20  C   UNL d   1       0.903   0.268   3.700  0.00  0.00     0.043 A 
ATOM     21  C   UNL d   1       1.309   0.079   2.376  0.00  0.00     0.135 A 
ATOM     22  F   UNL d   1       2.616   0.190   2.098  0.00  0.00    -0.205 F 
ENDBRANCH   1  15
TORSDOF 1
