REMARK  8 active torsions:
REMARK  status: ('A' for Active; 'I' for Inactive)
REMARK    1  A    between atoms: N_2  and  C_1 
REMARK    2  A    between atoms: C_3  and  C_1 
REMARK    3  A    between atoms: C_4  and  C_1 
REMARK    4  A    between atoms: N_7  and  C_1 
REMARK       I    between atoms: C_5  and  N_2 
REMARK    5  A    between atoms: C_6  and  C_5 
REMARK    6  A    between atoms: C_16  and  N_7 
REMARK    7  A    between atoms: O_22  and  C_9 
REMARK    8  A    between atoms: C_26  and  O_22 
ROOT
ATOM      1  C   UNL d   1       1.120   0.289   0.495  0.00  0.00     0.306 C 
ENDROOT
BRANCH   1   2
ATOM      2  N   UNL d   1      -0.005   0.512  -0.435  0.00  0.00    -0.315 N 
ATOM      3  C   UNL d   1       0.197   0.426  -1.799  0.00  0.00     0.256 C 
ATOM      4  O   UNL d   1       1.320   0.161  -2.201  0.00  0.00    -0.267 OA
ATOM      5  H   UNL d   1      -0.913   0.568  -0.005  0.00  0.00     0.165 HD
BRANCH   3   6
ATOM      6  C   UNL d   1      -0.955   0.684  -2.733  0.00  0.00     0.065 A 
ATOM      7  C   UNL d   1      -0.772   0.600  -4.135  0.00  0.00     0.084 A 
ATOM      8  C   UNL d   1      -1.835   0.909  -4.994  0.00  0.00     0.038 A 
ATOM      9  C   UNL d   1      -3.077   1.283  -4.485  0.00  0.00     0.003 A 
ATOM     10  C   UNL d   1      -3.270   1.352  -3.111  0.00  0.00     0.001 A 
ATOM     11  C   UNL d   1      -2.217   1.061  -2.239  0.00  0.00     0.020 A 
BRANCH   7  12
ATOM     12  O   UNL d   1       0.424   0.132  -4.609  0.00  0.00    -0.350 OA
BRANCH  12  13
ATOM     13  C   UNL d   1       0.891   0.576  -5.882  0.00  0.00     0.171 C 
ATOM     14  C   UNL d   1       0.675  -0.506  -6.927  0.00  0.00     0.034 C 
ENDBRANCH  12  13
ENDBRANCH   7  12
ENDBRANCH   3   6
ENDBRANCH   1   2
BRANCH   1  15
ATOM     15  C   UNL d   1       2.311   1.314   0.343  0.00  0.00     0.441 C 
ATOM     16  F   UNL d   1       2.945   1.369  -0.836  0.00  0.00    -0.166 F 
ATOM     17  F   UNL d   1       1.847   2.579   0.595  0.00  0.00    -0.166 F 
ATOM     18  F   UNL d   1       3.252   1.097   1.303  0.00  0.00    -0.166 F 
ENDBRANCH   1  15
BRANCH   1  19
ATOM     19  C   UNL d   1       1.816  -1.112   0.383  0.00  0.00     0.441 C 
ATOM     20  F   UNL d   1       1.186  -1.930  -0.498  0.00  0.00    -0.166 F 
ATOM     21  F   UNL d   1       3.117  -1.059   0.017  0.00  0.00    -0.166 F 
ATOM     22  F   UNL d   1       1.791  -1.782   1.566  0.00  0.00    -0.166 F 
ENDBRANCH   1  19
BRANCH   1  23
ATOM     23  N   UNL d   1       0.464   0.623   1.820  0.00  0.00    -0.349 N 
ATOM     24  H   UNL d   1       0.988   1.369   2.295  0.00  0.00     0.162 HD
BRANCH  23  25
ATOM     25  C   UNL d   1      -0.333  -0.080   2.684  0.00  0.00     0.030 A 
ATOM     26  C   UNL d   1      -1.075  -1.222   2.360  0.00  0.00     0.032 A 
ATOM     27  C   UNL d   1      -1.933  -1.807   3.296  0.00  0.00     0.044 A 
ATOM     28  C   UNL d   1      -2.053  -1.272   4.579  0.00  0.00     0.116 A 
ATOM     29  C   UNL d   1      -1.326  -0.155   4.937  0.00  0.00     0.044 A 
ATOM     30  F   UNL d   1      -2.877  -1.840   5.466  0.00  0.00    -0.206 F 
ATOM     31  C   UNL d   1      -0.482   0.436   3.988  0.00  0.00     0.032 A 
ENDBRANCH  23  25
ENDBRANCH   1  23
TORSDOF 8
