REMARK  8 active torsions:
REMARK  status: ('A' for Active; 'I' for Inactive)
REMARK    1  A    between atoms: C_12  and  C_1 
REMARK    2  A    between atoms: C_11  and  C_2 
REMARK    3  A    between atoms: C_4  and  C_3 
REMARK    4  A    between atoms: N_8  and  C_7 
REMARK    5  A    between atoms: O_20  and  C_11 
REMARK    6  A    between atoms: O_19  and  C_12 
REMARK    7  A    between atoms: C_23  and  O_19 
REMARK    8  A    between atoms: C_24  and  O_20 
ROOT
ATOM      1  C   UNL d   1       1.312  -1.062   0.146  0.00  0.00     0.053 C 
ATOM      2  C   UNL d   1      -1.255  -1.077   0.133  0.00  0.00     0.053 C 
ATOM      3  C   UNL d   1       0.034  -1.897  -0.093  0.00  0.00     0.108 C 
ATOM      4  C   UNL d   1       1.246   0.290   0.040  0.00  0.00     0.018 C 
ATOM      5  C   UNL d   1      -1.206   0.274   0.033  0.00  0.00     0.018 C 
ATOM      6  N   UNL d   1       0.014   0.895  -0.170  0.00  0.00    -0.362 N 
ATOM      7  C   UNL d   1      -2.395   1.199   0.121  0.00  0.00     0.069 C 
ATOM      8  C   UNL d   1       2.384   1.279   0.121  0.00  0.00     0.069 C 
ATOM      9  H   UNL d   1       0.011   1.913  -0.202  0.00  0.00     0.165 HD
ENDROOT
BRANCH   3  10
ATOM     10  C   UNL d   1       0.037  -2.479  -1.520  0.00  0.00    -0.002 A 
ATOM     11  S   UNL d   1       0.076  -4.171  -1.810  0.00  0.00    -0.070 SA
ATOM     12  C   UNL d   1       0.022  -3.947  -3.497  0.00  0.00     0.144 A 
ATOM     13  C   UNL d   1      -0.013  -2.619  -3.857  0.00  0.00     0.045 A 
ATOM     14  C   UNL d   1      -0.004  -1.772  -2.713  0.00  0.00     0.018 A 
BRANCH  12  15
ATOM     15  N   UNL d   1       0.020  -5.078  -4.395  0.00  0.00    -0.108 N 
ATOM     16  O   UNL d   1      -0.004  -4.813  -5.607  0.00  0.00    -0.531 OA
ATOM     17  O   UNL d   1       0.040  -6.212  -3.910  0.00  0.00    -0.531 OA
ENDBRANCH  12  15
ENDBRANCH   3  10
BRANCH   2  18
ATOM     18  C   UNL d   1      -2.531  -1.794   0.417  0.00  0.00     0.292 C 
ATOM     19  O   UNL d   1      -3.611  -1.254   0.597  0.00  0.00    -0.259 OA
BRANCH  18  20
ATOM     20  O   UNL d   1      -2.329  -3.135   0.460  0.00  0.00    -0.318 OA
BRANCH  20  21
ATOM     21  C   UNL d   1      -3.491  -3.941   0.722  0.00  0.00     0.174 C 
ATOM     22  C   UNL d   1      -4.279  -4.171  -0.555  0.00  0.00     0.034 C 
ENDBRANCH  20  21
ENDBRANCH  18  20
ENDBRANCH   2  18
BRANCH   1  23
ATOM     23  C   UNL d   1       2.597  -1.787   0.363  0.00  0.00     0.292 C 
ATOM     24  O   UNL d   1       3.701  -1.309   0.151  0.00  0.00    -0.259 OA
BRANCH  23  25
ATOM     25  O   UNL d   1       2.394  -3.074   0.753  0.00  0.00    -0.318 OA
BRANCH  25  26
ATOM     26  C   UNL d   1       3.526  -3.946   0.569  0.00  0.00     0.174 C 
ATOM     27  C   UNL d   1       4.160  -4.361   1.883  0.00  0.00     0.034 C 
ENDBRANCH  25  26
ENDBRANCH  23  25
ENDBRANCH   1  23
TORSDOF 8
