REMARK  4 active torsions:
REMARK  status: ('A' for Active; 'I' for Inactive)
REMARK    1  A    between atoms: C_3  and  C_1 
REMARK    2  A    between atoms: N_7  and  C_2 
REMARK       I    between atoms: N_9  and  C_3 
REMARK    3  A    between atoms: C_13  and  N_9 
REMARK    4  A    between atoms: O_19  and  C_17 
ROOT
ATOM      1  C   UNL d   1       1.357  -0.742  -0.201  0.00  0.00     0.095 A 
ATOM      2  C   UNL d   1       0.157  -1.069   0.419  0.00  0.00     0.145 A 
ATOM      3  N   UNL d   1      -0.130   0.955  -0.567  0.00  0.00    -0.307 N 
ATOM      4  HN  UNL d   1      -0.546   1.838  -0.864  1.00  0.00     0.186 HD
ATOM      5  N   UNL d   1      -0.709  -0.037   0.147  0.00  0.00    -0.280 N 
ATOM      6  C   UNL d   1       1.108   0.515  -0.793  0.00  0.00     0.128 A 
ATOM      7  C   UNL d   1      -2.055   0.190   0.620  0.00  0.00     0.179 C 
ENDROOT
BRANCH   1   8
ATOM      8  C   UNL d   1       2.543  -1.569  -0.343  0.00  0.00     0.261 C 
ATOM      9  N   UNL d   1       3.727  -0.878  -0.152  0.00  0.00    -0.323 N 
ATOM     10  H   UNL d   1       3.651   0.086   0.145  0.00  0.00     0.169 HD
ATOM     11  O   UNL d   1       2.436  -2.765  -0.589  0.00  0.00    -0.267 OA
BRANCH   9  12
ATOM     12  C   UNL d   1       5.032  -1.421  -0.187  0.00  0.00     0.037 A 
ATOM     13  C   UNL d   1       5.314  -2.731  -0.592  0.00  0.00     0.066 A 
ATOM     14  C   UNL d   1       6.619  -3.229  -0.560  0.00  0.00     0.070 A 
ATOM     15  C   UNL d   1       7.657  -2.398  -0.141  0.00  0.00     0.037 A 
ATOM     16  C   UNL d   1       7.396  -1.083   0.242  0.00  0.00     0.005 A 
ATOM     17  C   UNL d   1       6.088  -0.596   0.217  0.00  0.00     0.029 A 
BRANCH  14  18
ATOM     18  O   UNL d   1       6.998  -4.497  -0.911  0.00  0.00    -0.356 OA
ATOM     19  C   UNL d   1       5.953  -5.402  -1.257  0.00  0.00     0.210 C 
ENDBRANCH  14  18
ENDBRANCH   9  12
ENDBRANCH   1   8
BRANCH   2  20
ATOM     20  N   UNL d   1      -0.135  -2.195   1.194  0.00  0.00    -0.317 N 
ATOM     21  C   UNL d   1       0.760  -2.888   1.990  0.00  0.00     0.098 A 
ATOM     22  C   UNL d   1       0.106  -3.909   2.641  0.00  0.00     0.019 A 
ATOM     23  C   UNL d   1      -1.237  -3.873   2.221  0.00  0.00     0.019 A 
ATOM     24  C   UNL d   1      -1.358  -2.821   1.339  0.00  0.00     0.098 A 
ENDBRANCH   2  20
TORSDOF 4
