REMARK  3 active torsions:
REMARK  status: ('A' for Active; 'I' for Inactive)
REMARK    1  A    between atoms: C_4  and  C_1 
REMARK    2  A    between atoms: C_2  and  C_5 
REMARK    3  A    between atoms: N_3  and  C_6 
ROOT
ATOM      1  C   UNL d   1       0.606  -0.591  -1.264  0.00  0.00     0.050 A 
ATOM      2  C   UNL d   1       0.379  -2.717  -2.447  0.00  0.00     0.050 A 
ATOM      3  C   UNL d   1      -0.755  -0.725  -3.284  0.00  0.00     0.039 A 
ATOM      4  C   UNL d   1       0.900  -1.958  -1.387  0.00  0.00     0.032 A 
ATOM      5  C   UNL d   1      -0.205   0.025  -2.234  0.00  0.00     0.046 A 
ATOM      6  C   UNL d   1      -0.466  -2.092  -3.381  0.00  0.00     0.046 A 
ENDROOT
BRANCH   3   7
ATOM      7  N   UNL d   1      -1.620  -0.105  -4.232  0.00  0.00    -0.333 N 
ATOM      8  C   UNL d   1      -1.677   1.242  -4.534  0.00  0.00     0.096 A 
ATOM      9  C   UNL d   1      -2.654   1.451  -5.484  0.00  0.00     0.019 A 
ATOM     10  C   UNL d   1      -3.232   0.198  -5.770  0.00  0.00     0.019 A 
ATOM     11  C   UNL d   1      -2.570  -0.740  -5.009  0.00  0.00     0.096 A 
ENDBRANCH   3   7
BRANCH   1  12
ATOM     12  C   UNL d   1       1.124   0.220  -0.098  0.00  0.00     0.417 C 
ATOM     13  F   UNL d   1       1.839  -0.514   0.799  0.00  0.00    -0.166 F 
ATOM     14  F   UNL d   1       0.119   0.803   0.613  0.00  0.00    -0.166 F 
ATOM     15  F   UNL d   1       1.942   1.233  -0.492  0.00  0.00    -0.166 F 
ENDBRANCH   1  12
BRANCH   2  16
ATOM     16  C   UNL d   1       0.711  -4.183  -2.601  0.00  0.00     0.417 C 
ATOM     17  F   UNL d   1       1.528  -4.661  -1.623  0.00  0.00    -0.166 F 
ATOM     18  F   UNL d   1      -0.399  -4.971  -2.582  0.00  0.00    -0.166 F 
ATOM     19  F   UNL d   1       1.341  -4.450  -3.779  0.00  0.00    -0.166 F 
ENDBRANCH   2  16
TORSDOF 3
