REMARK  6 active torsions:
REMARK  status: ('A' for Active; 'I' for Inactive)
REMARK    1  A    between atoms: O_4  and  C_1 
REMARK    2  A    between atoms: C_3  and  C_2 
REMARK       I    between atoms: N_8  and  C_3 
REMARK    3  A    between atoms: C_9  and  O_4 
REMARK    4  A    between atoms: C_18  and  N_8 
REMARK    5  A    between atoms: C_11  and  C_20 
REMARK    6  A    between atoms: C_20  and  C_18 
ROOT
ATOM      1  C   UNL d   1      -0.526   1.020   0.265  0.00  0.00     0.163 A 
ATOM      2  C   UNL d   1       0.864   1.112   0.302  0.00  0.00     0.083 A 
ATOM      3  N   UNL d   1      -1.178  -0.159   0.054  0.00  0.00    -0.346 N 
ATOM      4  HN  UNL d   1      -2.197  -0.204   0.065  1.00  0.00     0.167 HD
ATOM      5  C   UNL d   1       1.602  -0.058   0.064  0.00  0.00     0.023 A 
ATOM      6  C   UNL d   1      -0.438  -1.261  -0.168  0.00  0.00     0.090 A 
ATOM      7  C   UNL d   1       0.943  -1.258  -0.189  0.00  0.00     0.018 A 
ENDROOT
BRANCH   2   8
ATOM      8  C   UNL d   1       1.562   2.374   0.655  0.00  0.00     0.255 C 
ATOM      9  O   UNL d   1       1.089   3.151   1.473  0.00  0.00    -0.268 OA
ATOM     10  N   UNL d   1       2.794   2.576   0.056  0.00  0.00    -0.356 N 
ATOM     11  H   UNL d   1       3.139   1.930  -0.639  0.00  0.00     0.162 HD
BRANCH  10  12
ATOM     12  C   UNL d   1       3.671   3.640   0.506  0.00  0.00     0.127 C 
BRANCH  12  13
ATOM     13  C   UNL d   1       5.005   3.684  -0.249  0.00  0.00     0.058 C 
BRANCH  13  14
ATOM     14  C   UNL d   1       5.861   2.444  -0.095  0.00  0.00    -0.057 A 
ATOM     15  C   UNL d   1       6.268   1.725  -1.228  0.00  0.00     0.009 A 
ATOM     16  C   UNL d   1       7.090   0.601  -1.100  0.00  0.00     0.024 A 
ATOM     17  C   UNL d   1       7.514   0.193   0.163  0.00  0.00     0.034 A 
ATOM     18  C   UNL d   1       7.123   0.900   1.297  0.00  0.00     0.024 A 
ATOM     19 CL   UNL d   1       8.531  -1.185   0.320  0.00  0.00    -0.084 Cl
ATOM     20  C   UNL d   1       6.300   2.025   1.171  0.00  0.00     0.009 A 
ENDBRANCH  13  14
ENDBRANCH  12  13
ENDBRANCH  10  12
ENDBRANCH   2   8
BRANCH   1  21
ATOM     21  O   UNL d   1      -1.289   2.170   0.426  0.00  0.00    -0.293 OA
BRANCH  21  22
ATOM     22  C   UNL d   1      -2.565   2.169  -0.099  0.00  0.00     0.077 A 
ATOM     23  C   UNL d   1      -3.588   2.685   0.699  0.00  0.00     0.037 A 
ATOM     24  C   UNL d   1      -4.900   2.709   0.222  0.00  0.00     0.003 A 
ATOM     25  C   UNL d   1      -5.188   2.232  -1.057  0.00  0.00     0.000 A 
ATOM     26  C   UNL d   1      -4.162   1.752  -1.870  0.00  0.00     0.003 A 
ATOM     27  C   UNL d   1      -2.849   1.739  -1.399  0.00  0.00     0.037 A 
ENDBRANCH  21  22
ENDBRANCH   1  21
TORSDOF 6
