REMARK  9 active torsions:
REMARK  status: ('A' for Active; 'I' for Inactive)
REMARK    1  A    between atoms: C_4  and  C_1 
REMARK    2  A    between atoms: C_5  and  N_2 
REMARK    3  A    between atoms: N_3  and  C_12 
REMARK    4  A    between atoms: C_16  and  C_5 
REMARK    5  A    between atoms: C_17  and  C_5 
REMARK    6  A    between atoms: C_6  and  O_10 
REMARK    7  A    between atoms: C_12  and  C_6 
REMARK    8  A    between atoms: O_20  and  C_6 
REMARK    9  A    between atoms: O_10  and  C_11 
ROOT
ATOM      1  N   UNL d   1       0.345  -0.554  -3.188  0.00  0.00     0.105 N 
ATOM      2  N   UNL d   1      -2.619  -0.986  -2.427  0.00  0.00     0.096 N 
ATOM      3  C   UNL d   1      -0.628   0.522  -2.925  0.00  0.00     0.304 C 
ATOM      4  C   UNL d   1      -0.322  -1.872  -3.300  0.00  0.00     0.304 C 
ATOM      5  C   UNL d   1      -1.703  -2.123  -2.609  0.00  0.00     0.302 C 
ATOM      6  C   UNL d   1      -1.790   0.158  -1.971  0.00  0.00     0.302 C 
ENDROOT
BRANCH   2   7
ATOM      7  C   UNL d   1      -3.408  -0.590  -3.621  0.00  0.00     0.333 C 
BRANCH   7   8
ATOM      8  C   UNL d   1      -4.547  -1.493  -4.231  0.00  0.00     0.291 C 
BRANCH   8   9
ATOM      9  O   UNL d   1      -5.399  -0.544  -4.893  0.00  0.00    -0.319 OA
BRANCH   9  10
ATOM     10  C   UNL d   1      -6.372  -0.880  -5.777  0.00  0.00     0.072 A 
ATOM     11  C   UNL d   1      -6.838  -2.150  -6.103  0.00  0.00     0.053 A 
ATOM     12  C   UNL d   1      -7.886  -2.303  -7.042  0.00  0.00     0.050 A 
ATOM     13  C   UNL d   1      -8.453  -1.166  -7.646  0.00  0.00     0.016 A 
ATOM     14  C   UNL d   1      -7.995   0.103  -7.318  0.00  0.00     0.004 A 
ATOM     15  C   UNL d   1      -6.968   0.238  -6.389  0.00  0.00     0.037 A 
BRANCH  12  16
ATOM     16  C   UNL d   1      -8.426  -3.658  -7.434  0.00  0.00     0.417 C 
ATOM     17  F   UNL d   1      -7.918  -4.690  -6.700  0.00  0.00    -0.166 F 
ATOM     18  F   UNL d   1      -8.163  -3.961  -8.736  0.00  0.00    -0.166 F 
ATOM     19  F   UNL d   1      -9.779  -3.737  -7.304  0.00  0.00    -0.166 F 
ENDBRANCH  12  16
ENDBRANCH   9  10
ENDBRANCH   8   9
BRANCH   8  20
ATOM     20  O   UNL d   1      -5.249  -2.203  -3.221  0.00  0.00    -0.369 OA
ATOM     21  H   UNL d   1      -4.985  -1.799  -2.377  0.00  0.00     0.212 HD
ENDBRANCH   8  20
ENDBRANCH   7   8
ENDBRANCH   2   7
BRANCH   1  22
ATOM     22  C   UNL d   1       1.556  -0.477  -2.319  0.00  0.00     0.289 C 
BRANCH  22  23
ATOM     23  C   UNL d   1       2.586  -1.603  -2.541  0.00  0.00    -0.021 A 
ATOM     24  C   UNL d   1       3.114  -1.873  -3.817  0.00  0.00     0.010 A 
ATOM     25  C   UNL d   1       4.149  -2.795  -3.987  0.00  0.00     0.001 A 
ATOM     26  C   UNL d   1       4.666  -3.472  -2.886  0.00  0.00     0.000 A 
ATOM     27  C   UNL d   1       4.150  -3.228  -1.615  0.00  0.00     0.001 A 
ATOM     28  C   UNL d   1       3.121  -2.297  -1.441  0.00  0.00     0.010 A 
ENDBRANCH  22  23
BRANCH  22  29
ATOM     29  C   UNL d   1       2.336   0.855  -2.476  0.00  0.00    -0.021 A 
ATOM     30  C   UNL d   1       3.014   1.411  -1.377  0.00  0.00     0.010 A 
ATOM     31  C   UNL d   1       3.846   2.526  -1.537  0.00  0.00     0.001 A 
ATOM     32  C   UNL d   1       4.016   3.100  -2.795  0.00  0.00     0.000 A 
ATOM     33  C   UNL d   1       3.345   2.574  -3.894  0.00  0.00     0.001 A 
ATOM     34  C   UNL d   1       2.506   1.464  -3.736  0.00  0.00     0.010 A 
ENDBRANCH  22  29
ENDBRANCH   1  22
TORSDOF 9
