REMARK  2 active torsions:
REMARK  status: ('A' for Active; 'I' for Inactive)
REMARK    1  A    between atoms: C_7  and  N_1 
REMARK    2  A    between atoms: C_5  and  C_2 
ROOT
ATOM      1  N   UNL d   1      -0.582  -1.203   0.274  0.00  0.00    -0.299 N 
ATOM      2  C   UNL d   1       0.799  -1.345  -0.148  0.00  0.00     0.190 C 
ATOM      3  S   UNL d   1       1.495   0.328  -0.239  0.00  0.00    -0.129 SA
ATOM      4  C   UNL d   1      -1.141   0.070   0.122  0.00  0.00     0.235 C 
ATOM      5  C   UNL d   1      -0.123   1.105  -0.298  0.00  0.00     0.179 C 
ATOM      6  O   UNL d   1      -2.329   0.360   0.241  0.00  0.00    -0.272 OA
ENDROOT
BRANCH   2   7
ATOM      7  C   UNL d   1       1.662  -2.231   0.721  0.00  0.00    -0.010 A 
ATOM      8  C   UNL d   1       1.735  -2.078   2.105  0.00  0.00     0.097 A 
ATOM      9  N   UNL d   1       2.540  -2.808   2.914  0.00  0.00    -0.375 N 
ATOM     10  C   UNL d   1       3.313  -3.744   2.321  0.00  0.00     0.087 A 
ATOM     11  HN  UNL d   1       2.561  -2.658   3.923  1.00  0.00     0.164 HD
ATOM     12  C   UNL d   1       3.307  -3.992   0.962  0.00  0.00     0.018 A 
ATOM     13  C   UNL d   1       2.471  -3.225   0.154  0.00  0.00     0.013 A 
ENDBRANCH   2   7
BRANCH   1  14
ATOM     14  C   UNL d   1      -1.403  -2.337   0.525  0.00  0.00     0.038 A 
ATOM     15  C   UNL d   1      -1.249  -3.524  -0.202  0.00  0.00     0.030 A 
ATOM     16  C   UNL d   1      -2.054  -4.634   0.070  0.00  0.00     0.002 A 
ATOM     17  C   UNL d   1      -2.995  -4.582   1.094  0.00  0.00     0.000 A 
ATOM     18  C   UNL d   1      -3.152  -3.409   1.830  0.00  0.00     0.002 A 
ATOM     19  C   UNL d   1      -2.373  -2.287   1.534  0.00  0.00     0.030 A 
ENDBRANCH   1  14
TORSDOF 2
