REMARK  5 active torsions:
REMARK  status: ('A' for Active; 'I' for Inactive)
REMARK    1  A    between atoms: C_10  and  C_1 
REMARK    2  A    between atoms: C_7  and  C_4 
REMARK    3  A    between atoms: O_20  and  C_5 
REMARK    4  A    between atoms: S_15  and  C_6 
REMARK    5  A    between atoms: C_14  and  C_10 
ROOT
ATOM      1  C   UNL d   1      -0.746   1.121  -0.083  0.00  0.00     0.029 A 
ATOM      2  N   UNL d   1       0.077  -0.524  -1.677  0.00  0.00    -0.317 N 
ATOM      3  HN  UNL d   1       0.205  -0.827  -2.643  1.00  0.00     0.170 HD
ATOM      4  C   UNL d   1      -0.275   0.292   0.929  0.00  0.00     0.129 A 
ATOM      5  C   UNL d   1      -0.526   0.623  -1.357  0.00  0.00     0.150 A 
ATOM      6  C   UNL d   1       0.500  -1.244  -0.639  0.00  0.00     0.143 A 
ATOM      7  N   UNL d   1       0.352  -0.889   0.641  0.00  0.00    -0.333 N 
ATOM      8  HN  UNL d   1       0.701  -1.488   1.389  1.00  0.00     0.168 HD
ENDROOT
BRANCH   1   9
ATOM      9  C   UNL d   1      -1.465   2.434   0.102  0.00  0.00     0.084 C 
BRANCH   9  10
ATOM     10  C   UNL d   1      -2.973   2.300   0.175  0.00  0.00    -0.052 A 
ATOM     11  C   UNL d   1      -3.641   2.252   1.408  0.00  0.00     0.033 A 
ATOM     12  C   UNL d   1      -5.029   2.062   1.468  0.00  0.00     0.056 A 
ATOM     13 CL   UNL d   1      -5.763   1.995   3.030  0.00  0.00    -0.083 Cl
ATOM     14  C   UNL d   1      -5.765   1.929   0.287  0.00  0.00     0.055 A 
ATOM     15  C   UNL d   1      -5.115   2.008  -0.944  0.00  0.00     0.026 A 
ATOM     16 CL   UNL d   1      -7.471   1.659   0.282  0.00  0.00    -0.083 Cl
ATOM     17  C   UNL d   1      -3.732   2.197  -1.000  0.00  0.00     0.009 A 
ENDBRANCH   9  10
ENDBRANCH   1   9
BRANCH   4  18
ATOM     18  C   UNL d   1      -0.396   0.590   2.417  0.00  0.00     0.433 C 
ATOM     19  F   UNL d   1      -0.924   1.804   2.731  0.00  0.00    -0.165 F 
ATOM     20  F   UNL d   1      -1.179  -0.319   3.068  0.00  0.00    -0.165 F 
ATOM     21  F   UNL d   1       0.812   0.564   3.052  0.00  0.00    -0.165 F 
ENDBRANCH   4  18
BRANCH   5  22
ATOM     22  O   UNL d   1      -0.930   1.311  -2.457  0.00  0.00    -0.346 OA
ATOM     23  H   UNL d   1      -0.660   0.699  -3.166  0.00  0.00     0.219 HD
ENDBRANCH   5  22
BRANCH   6  24
ATOM     24  S   UNL d   1       1.325  -2.763  -0.988  0.00  0.00    -0.107 SA
ATOM     25  H   UNL d   1       1.195  -2.641  -2.313  0.00  0.00     0.110 HD
ENDBRANCH   6  24
TORSDOF 5
