REMARK  5 active torsions:
REMARK  status: ('A' for Active; 'I' for Inactive)
REMARK    1  A    between atoms: C_5  and  N_1 
REMARK    2  A    between atoms: C_6  and  N_2 
REMARK    3  A    between atoms: C_4  and  C_3 
REMARK    4  A    between atoms: C_11  and  C_5 
REMARK    5  A    between atoms: C_12  and  C_6 
ROOT
ATOM      1  N   UNL d   1       1.200   0.646  -0.277  0.00  0.00     0.131 N 
ATOM      2  N   UNL d   1      -1.269   0.613  -0.246  0.00  0.00     0.131 N 
ATOM      3  C   UNL d   1      -0.038   1.358   0.142  0.00  0.00     0.491 C 
ATOM      4  C   UNL d   1      -1.241  -0.756   0.318  0.00  0.00     0.278 C 
ATOM      5  C   UNL d   1       1.244  -0.667   0.376  0.00  0.00     0.278 C 
ATOM      6  C   UNL d   1       0.041  -1.516   0.006  0.00  0.00     0.061 C 
ENDROOT
BRANCH   1   7
ATOM      7  C   UNL d   1       1.367   0.570  -1.740  0.00  0.00     0.314 C 
BRANCH   7   8
ATOM      8  C   UNL d   1       2.567  -0.215  -2.244  0.00  0.00    -0.030 A 
ATOM      9  C   UNL d   1       2.381  -1.330  -3.074  0.00  0.00     0.010 A 
ATOM     10  C   UNL d   1       3.481  -2.006  -3.612  0.00  0.00     0.024 A 
ATOM     11  C   UNL d   1       4.767  -1.564  -3.324  0.00  0.00     0.034 A 
ATOM     12  C   UNL d   1       4.971  -0.466  -2.491  0.00  0.00     0.024 A 
ATOM     13 CL   UNL d   1       6.120  -2.373  -4.018  0.00  0.00    -0.084 Cl
ATOM     14  C   UNL d   1       3.871   0.209  -1.948  0.00  0.00     0.010 A 
ENDBRANCH   7   8
ENDBRANCH   1   7
BRANCH   3  15
ATOM     15  C   UNL d   1      -0.030   2.832  -0.270  0.00  0.00     0.020 A 
ATOM     16  C   UNL d   1       0.181   3.821   0.692  0.00  0.00     0.098 A 
ATOM     17  N   UNL d   1       0.221   5.151   0.436  0.00  0.00    -0.375 N 
ATOM     18  C   UNL d   1       0.070   5.526  -0.851  0.00  0.00     0.087 A 
ATOM     19  HN  UNL d   1       0.359   5.835   1.180  1.00  0.00     0.164 HD
ATOM     20  C   UNL d   1      -0.159   4.637  -1.885  0.00  0.00     0.018 A 
ATOM     21  C   UNL d   1      -0.241   3.280  -1.582  0.00  0.00     0.014 A 
ENDBRANCH   3  15
BRANCH   2  22
ATOM     22  C   UNL d   1      -2.471   1.315   0.279  0.00  0.00     0.314 C 
BRANCH  22  23
ATOM     23  C   UNL d   1      -3.796   0.661  -0.068  0.00  0.00    -0.030 A 
ATOM     24  C   UNL d   1      -4.649   0.197   0.947  0.00  0.00     0.010 A 
ATOM     25  C   UNL d   1      -5.891  -0.359   0.632  0.00  0.00     0.024 A 
ATOM     26  C   UNL d   1      -6.287  -0.456  -0.701  0.00  0.00     0.034 A 
ATOM     27  C   UNL d   1      -5.447  -0.011  -1.720  0.00  0.00     0.024 A 
ATOM     28 CL   UNL d   1      -7.826  -1.121  -1.087  0.00  0.00    -0.084 Cl
ATOM     29  C   UNL d   1      -4.206   0.544  -1.405  0.00  0.00     0.010 A 
ENDBRANCH  22  23
ENDBRANCH   2  22
TORSDOF 5
