REMARK  4 active torsions:
REMARK  status: ('A' for Active; 'I' for Inactive)
REMARK    1  A    between atoms: C_9  and  N_1 
REMARK    2  A    between atoms: C_12  and  C_2 
REMARK    3  A    between atoms: C_3  and  C_12 
REMARK    4  A    between atoms: S_19  and  C_4 
ROOT
ATOM      1  N   UNL d   1      -0.809  -1.312   0.103  0.00  0.00    -0.279 N 
ATOM      2  C   UNL d   1       0.396  -0.620   0.211  0.00  0.00     0.109 A 
ATOM      3  C   UNL d   1      -1.757  -0.301  -0.050  0.00  0.00     0.164 A 
ATOM      4  N   UNL d   1       0.165   0.678   0.179  0.00  0.00    -0.286 N 
ATOM      5  HN  UNL d   1       0.866   1.412   0.284  1.00  0.00     0.188 HD
ATOM      6  N   UNL d   1      -1.171   0.873  -0.016  0.00  0.00    -0.278 N 
ATOM      7  HN  UNL d   1      -1.634   1.776  -0.119  1.00  0.00     0.189 HD
ENDROOT
BRANCH   2   8
ATOM      8  C   UNL d   1       1.727  -1.212   0.405  0.00  0.00     0.120 C 
BRANCH   8   9
ATOM      9  C   UNL d   1       2.712  -1.171  -0.716  0.00  0.00    -0.009 C 
ATOM     10  C   UNL d   1       3.112  -0.102  -1.499  0.00  0.00     0.057 C 
ATOM     11  O   UNL d   1       4.484  -0.028  -1.418  0.00  0.00    -0.314 OA
ATOM     12  C   UNL d   1       2.429   1.044  -2.133  0.00  0.00     0.077 C 
ATOM     13  C   UNL d   1       4.875  -1.147  -0.748  0.00  0.00     0.086 C 
ATOM     14  C   UNL d   1       3.841  -2.046  -0.681  0.00  0.00     0.007 C 
ATOM     15  C   UNL d   1       6.095  -1.346  -0.079  0.00  0.00     0.038 C 
ATOM     16  C   UNL d   1       4.055  -3.330  -0.153  0.00  0.00     0.015 C 
ATOM     17  C   UNL d   1       5.262  -3.568   0.506  0.00  0.00     0.001 C 
ATOM     18  C   UNL d   1       6.230  -2.566   0.602  0.00  0.00     0.003 C 
ENDBRANCH   8   9
ENDBRANCH   2   8
BRANCH   1  19
ATOM     19  C   UNL d   1      -1.003  -2.722   0.075  0.00  0.00     0.044 A 
ATOM     20  C   UNL d   1      -1.875  -3.292  -0.846  0.00  0.00     0.054 A 
ATOM     21  C   UNL d   1      -2.008  -4.683  -0.930  0.00  0.00     0.042 A 
ATOM     22 CL   UNL d   1      -3.141  -5.310  -2.074  0.00  0.00    -0.084 Cl
ATOM     23  C   UNL d   1      -1.250  -5.529  -0.107  0.00  0.00    -0.040 A 
ATOM     24  C   UNL d   1      -0.418  -4.949   0.856  0.00  0.00     0.011 A 
ATOM     25  C   UNL d   1      -1.333  -7.025  -0.209  0.00  0.00     0.050 C 
ATOM     26  C   UNL d   1      -0.319  -3.558   0.973  0.00  0.00     0.031 A 
ENDBRANCH   1  19
BRANCH   3  27
ATOM     27  S   UNL d   1      -3.477  -0.484  -0.059  0.00  0.00    -0.105 SA
ATOM     28  H   UNL d   1      -3.571  -1.653   0.572  0.00  0.00     0.110 HD
ENDBRANCH   3  27
TORSDOF 4
