REMARK  3 active torsions:
REMARK  status: ('A' for Active; 'I' for Inactive)
REMARK    1  A    between atoms: C_7  and  C_3 
REMARK    2  A    between atoms: C_9  and  C_4 
REMARK    3  A    between atoms: C_8  and  C_7 
REMARK       I    between atoms: N_11  and  C_8 
ROOT
ATOM      1  N   UNL d   1       1.452  -0.582  -0.118  0.00  0.00    -0.352 N 
ATOM      2  HN  UNL d   1       2.351  -1.048  -0.240  1.00  0.00     0.166 HD
ATOM      3  C   UNL d   1       0.289  -1.197  -0.023  0.00  0.00     0.060 A 
ATOM      4  C   UNL d   1       1.274   0.793  -0.028  0.00  0.00     0.049 A 
ATOM      5  S   UNL d   1      -1.080  -0.166   0.102  0.00  0.00    -0.086 SA
ATOM      6  C   UNL d   1      -0.043   1.198   0.071  0.00  0.00     0.081 A 
ENDROOT
BRANCH   3   7
ATOM      7  C   UNL d   1       0.128  -2.680  -0.008  0.00  0.00     0.167 C 
BRANCH   7   8
ATOM      8  C   UNL d   1      -0.011  -3.189  -1.424  0.00  0.00     0.221 C 
ATOM      9  O   UNL d   1      -1.023  -3.743  -1.843  0.00  0.00    -0.273 OA
ATOM     10  N   UNL d   1       1.092  -3.060  -2.220  0.00  0.00    -0.370 N 
ATOM     11  H   UNL d   1       1.812  -2.384  -1.988  0.00  0.00     0.159 HD
ATOM     12  H   UNL d   1       0.987  -3.321  -3.192  0.00  0.00     0.159 HD
ENDBRANCH   7   8
ENDBRANCH   3   7
BRANCH   4  13
ATOM     13  C   UNL d   1       2.410   1.708  -0.069  0.00  0.00    -0.009 A 
ATOM     14  C   UNL d   1       3.562   1.348  -0.782  0.00  0.00     0.014 A 
ATOM     15  C   UNL d   1       4.661   2.208  -0.845  0.00  0.00     0.001 A 
ATOM     16  C   UNL d   1       4.624   3.435  -0.186  0.00  0.00     0.000 A 
ATOM     17  C   UNL d   1       3.493   3.800   0.540  0.00  0.00     0.001 A 
ATOM     18  C   UNL d   1       2.391   2.941   0.600  0.00  0.00     0.014 A 
ENDBRANCH   4  13
TORSDOF 3
