REMARK  5 active torsions:
REMARK  status: ('A' for Active; 'I' for Inactive)
REMARK       I    between atoms: N_4  and  C_1 
REMARK    1  A    between atoms: C_6  and  C_1 
REMARK    2  A    between atoms: C_2  and  C_12 
REMARK    3  A    between atoms: C_7  and  N_4 
REMARK    4  A    between atoms: S_8  and  C_13 
REMARK    5  A    between atoms: C_12  and  S_8 
ROOT
ATOM      1  C   UNL d   1       1.056  -1.428   2.116  0.00  0.00     0.051 A 
ATOM      2  C   UNL d   1       0.410  -2.598   2.572  0.00  0.00     0.027 A 
ATOM      3  C   UNL d   1       2.346  -1.112   2.588  0.00  0.00     0.031 A 
ATOM      4  C   UNL d   1       1.131  -3.450   3.431  0.00  0.00     0.021 A 
ATOM      5  C   UNL d   1       3.010  -1.950   3.482  0.00  0.00     0.002 A 
ATOM      6  C   UNL d   1       2.411  -3.129   3.887  0.00  0.00     0.002 A 
ENDROOT
BRANCH   2   7
ATOM      7  S   UNL d   1      -1.260  -3.031   2.009  0.00  0.00    -0.123 SA
BRANCH   7   8
ATOM      8  C   UNL d   1      -1.502  -4.686   2.755  0.00  0.00     0.121 C 
BRANCH   8   9
ATOM      9  C   UNL d   1      -2.836  -5.328   2.468  0.00  0.00    -0.013 A 
ATOM     10  C   UNL d   1      -3.958  -5.088   3.279  0.00  0.00     0.087 A 
ATOM     11  C   UNL d   1      -5.172  -5.744   3.041  0.00  0.00     0.001 A 
ATOM     12  O   UNL d   1      -3.807  -4.229   4.336  0.00  0.00    -0.325 OA
ATOM     13  C   UNL d   1      -6.363  -5.447   3.902  0.00  0.00     0.212 C 
ATOM     14  C   UNL d   1      -5.273  -6.645   1.974  0.00  0.00     0.036 A 
ATOM     15  O   UNL d   1      -5.966  -4.846   5.128  0.00  0.00    -0.362 OA
ATOM     16  C   UNL d   1      -5.053  -3.788   4.874  0.00  0.00     0.345 C 
ATOM     17  C   UNL d   1      -4.164  -6.891   1.167  0.00  0.00     0.035 A 
ATOM     18  C   UNL d   1      -2.956  -6.237   1.404  0.00  0.00     0.034 A 
ATOM     19 CL   UNL d   1      -4.284  -8.021  -0.124  0.00  0.00    -0.084 Cl
ENDBRANCH   8   9
ENDBRANCH   7   8
ENDBRANCH   2   7
BRANCH   1  20
ATOM     20  N   UNL d   1       0.430  -0.535   1.206  0.00  0.00    -0.322 N 
ATOM     21  C   UNL d   1       1.096  -0.062   0.084  0.00  0.00     0.256 C 
ATOM     22  O   UNL d   1       2.227  -0.410  -0.269  0.00  0.00    -0.267 OA
ATOM     23  H   UNL d   1      -0.581  -0.594   1.147  0.00  0.00     0.169 HD
BRANCH  21  24
ATOM     24  C   UNL d   1       0.365   0.892  -0.785  0.00  0.00     0.034 A 
ATOM     25  C   UNL d   1       0.553   0.822  -2.174  0.00  0.00     0.041 A 
ATOM     26  C   UNL d   1      -0.025   1.782  -3.001  0.00  0.00     0.035 A 
ATOM     27 CL   UNL d   1       0.210   1.702  -4.704  0.00  0.00    -0.084 Cl
ATOM     28  C   UNL d   1      -0.780   2.820  -2.458  0.00  0.00     0.024 A 
ATOM     29  C   UNL d   1      -0.968   2.893  -1.076  0.00  0.00     0.003 A 
ATOM     30  C   UNL d   1      -0.400   1.930  -0.237  0.00  0.00     0.017 A 
ENDBRANCH  21  24
ENDBRANCH   1  20
TORSDOF 5
