REMARK  7 active torsions:
REMARK  status: ('A' for Active; 'I' for Inactive)
REMARK    1  A    between atoms: C_2  and  S_1 
REMARK    2  A    between atoms: N_6  and  S_1 
REMARK    3  A    between atoms: C_3  and  C_11 
REMARK    4  A    between atoms: C_16  and  N_6 
REMARK    5  A    between atoms: C_11  and  S_17 
REMARK    6  A    between atoms: C_24  and  C_16 
REMARK    7  A    between atoms: S_17  and  C_24 
ROOT
ATOM      1  N   UNL d   1       2.603  -0.070   0.098  0.00  0.00    -0.315 N 
ATOM      2  H   UNL d   1       2.933   0.899   0.169  0.00  0.00     0.172 HD
ENDROOT
BRANCH   1   3
ATOM      3  S   UNL d   1       0.929  -0.198  -0.106  0.00  0.00     0.264 S 
ATOM      4  O   UNL d   1       0.536   0.791  -1.084  0.00  0.00    -0.200 OA
ATOM      5  O   UNL d   1       0.642  -1.603  -0.308  0.00  0.00    -0.200 OA
BRANCH   3   6
ATOM      6  C   UNL d   1       0.292   0.314   1.442  0.00  0.00     0.156 A 
ATOM      7  C   UNL d   1       0.537   1.613   1.861  0.00  0.00     0.142 A 
ATOM      8  F   UNL d   1       1.218   2.464   1.083  0.00  0.00    -0.204 F 
ATOM      9  C   UNL d   1       0.099   2.062   3.107  0.00  0.00     0.044 A 
ATOM     10  C   UNL d   1      -0.631   1.207   3.929  0.00  0.00     0.006 A 
ATOM     11  C   UNL d   1      -0.922  -0.085   3.491  0.00  0.00     0.044 A 
ATOM     12  C   UNL d   1      -0.458  -0.527   2.249  0.00  0.00     0.142 A 
ATOM     13  F   UNL d   1      -0.760  -1.779   1.883  0.00  0.00    -0.204 F 
ENDBRANCH   3   6
ENDBRANCH   1   3
BRANCH   1  14
ATOM     14  C   UNL d   1       3.271  -1.077   0.940  0.00  0.00     0.142 C 
BRANCH  14  15
ATOM     15  C   UNL d   1       4.779  -0.834   1.032  0.00  0.00     0.094 C 
BRANCH  15  16
ATOM     16  S   UNL d   1       5.280   0.823   1.613  0.00  0.00    -0.163 SA
BRANCH  16  17
ATOM     17  C   UNL d   1       4.351   0.935   3.185  0.00  0.00     0.117 C 
BRANCH  17  18
ATOM     18  C   UNL d   1       4.512   2.298   3.805  0.00  0.00     0.011 A 
ATOM     19  C   UNL d   1       3.973   3.408   3.137  0.00  0.00     0.125 A 
ATOM     20  F   UNL d   1       3.300   3.228   1.992  0.00  0.00    -0.205 F 
ATOM     21  C   UNL d   1       4.119   4.707   3.606  0.00  0.00     0.043 A 
ATOM     22  C   UNL d   1       4.814   4.929   4.787  0.00  0.00     0.005 A 
ATOM     23  C   UNL d   1       5.336   3.844   5.492  0.00  0.00     0.024 A 
ATOM     24  C   UNL d   1       5.184   2.538   5.010  0.00  0.00     0.044 A 
ATOM     25 CL   UNL d   1       5.845   1.260   5.965  0.00  0.00    -0.084 Cl
ENDBRANCH  17  18
ENDBRANCH  16  17
ENDBRANCH  15  16
ENDBRANCH  14  15
ENDBRANCH   1  14
TORSDOF 7
