REMARK  2 active torsions:
REMARK  status: ('A' for Active; 'I' for Inactive)
REMARK    1  A    between atoms: N_4  and  C_1 
REMARK    2  A    between atoms: C_6  and  N_4 
ROOT
ATOM      1  C   UNL d   1       1.311   2.063   4.426  0.00  0.00     0.074 A 
ATOM      2  C   UNL d   1       0.692   1.364   3.387  0.00  0.00     0.056 A 
ATOM      3  C   UNL d   1       1.175   1.479   2.078  0.00  0.00     0.036 A 
ATOM      4  C   UNL d   1       2.382   2.909   4.154  0.00  0.00     0.138 A 
ATOM      5  C   UNL d   1       2.831   3.078   2.849  0.00  0.00     0.046 A 
ATOM      6 CL   UNL d   1       0.747   1.853   6.039  0.00  0.00    -0.081 Cl
ATOM      7  C   UNL d   1       2.222   2.369   1.811  0.00  0.00     0.032 A 
ATOM      8  F   UNL d   1       2.997   3.580   5.139  0.00  0.00    -0.204 F 
ENDROOT
BRANCH   3   9
ATOM      9  N   UNL d   1       0.545   0.704   1.086  0.00  0.00    -0.334 N 
ATOM     10  H   UNL d   1      -0.382   0.351   1.306  0.00  0.00     0.168 HD
BRANCH   9  11
ATOM     11  C   UNL d   1       0.986   0.297  -0.130  0.00  0.00     0.169 C 
ATOM     12  S   UNL d   1      -0.052  -0.419  -1.213  0.00  0.00    -0.041 SA
ATOM     13  N   UNL d   1       2.296   0.418  -0.431  0.00  0.00    -0.376 N 
ATOM     14  H   UNL d   1       2.962   0.371   0.328  0.00  0.00     0.158 HD
ATOM     15  H   UNL d   1       2.597  -0.029  -1.291  0.00  0.00     0.158 HD
ENDBRANCH   9  11
ENDBRANCH   3   9
TORSDOF 2
