REMARK  4 active torsions:
REMARK  status: ('A' for Active; 'I' for Inactive)
REMARK    1  A    between atoms: C_8  and  C_1 
REMARK    2  A    between atoms: C_4  and  C_9 
REMARK    3  A    between atoms: C_7  and  C_8 
REMARK       I    between atoms: N_10  and  C_7 
REMARK    4  A    between atoms: C_17  and  N_10 
ROOT
ATOM      1  C   UNL d   1       3.324  -2.154   0.823  0.00  0.00     0.226 C 
ATOM      2  N   UNL d   1       4.425  -2.889   0.407  0.00  0.00    -0.327 N 
ATOM      3  O   UNL d   1       3.340  -1.242   1.640  0.00  0.00    -0.273 OA
ATOM      4  H   UNL d   1       4.329  -3.441  -0.435  0.00  0.00     0.169 HD
ENDROOT
BRANCH   1   5
ATOM      5  C   UNL d   1       2.023  -2.642   0.218  0.00  0.00     0.145 C 
BRANCH   5   6
ATOM      6  C   UNL d   1       1.278  -1.610  -0.554  0.00  0.00    -0.007 C 
ATOM      7  C   UNL d   1       0.420  -0.636  -0.064  0.00  0.00     0.057 C 
ATOM      8  O   UNL d   1      -0.283  -0.068  -1.084  0.00  0.00    -0.314 OA
ATOM      9  C   UNL d   1       0.096  -0.137   1.290  0.00  0.00     0.077 C 
ATOM     10  C   UNL d   1       0.190  -0.600  -2.242  0.00  0.00     0.086 A 
ATOM     11  C   UNL d   1       1.236  -1.474  -1.976  0.00  0.00     0.007 A 
ATOM     12  C   UNL d   1      -0.293  -0.324  -3.518  0.00  0.00     0.038 A 
ATOM     13  C   UNL d   1       1.929  -2.037  -3.064  0.00  0.00     0.015 A 
ATOM     14  C   UNL d   1       1.499  -1.738  -4.364  0.00  0.00     0.001 A 
ATOM     15  C   UNL d   1       0.385  -0.925  -4.584  0.00  0.00     0.003 A 
ENDBRANCH   5   6
ENDBRANCH   1   5
BRANCH   2  16
ATOM     16  C   UNL d   1       5.684  -2.922   1.039  0.00  0.00     0.034 A 
ATOM     17  C   UNL d   1       5.914  -2.387   2.308  0.00  0.00     0.030 A 
ATOM     18  C   UNL d   1       7.158  -2.534   2.929  0.00  0.00     0.018 A 
ATOM     19  C   UNL d   1       8.198  -3.220   2.292  0.00  0.00     0.048 A 
ATOM     20  C   UNL d   1       7.978  -3.727   1.003  0.00  0.00     0.018 A 
ATOM     21  C   UNL d   1       6.728  -3.589   0.387  0.00  0.00     0.030 A 
BRANCH  19  22
ATOM     22  C   UNL d   1       9.522  -3.434   2.982  0.00  0.00     0.417 C 
ATOM     23  F   UNL d   1       9.552  -2.971   4.263  0.00  0.00    -0.166 F 
ATOM     24  F   UNL d   1       9.855  -4.753   3.059  0.00  0.00    -0.166 F 
ATOM     25  F   UNL d   1      10.556  -2.825   2.340  0.00  0.00    -0.166 F 
ENDBRANCH  19  22
ENDBRANCH   2  16
TORSDOF 4
