REMARK  8 active torsions:
REMARK  status: ('A' for Active; 'I' for Inactive)
REMARK    1  A    between atoms: N_2  and  C_1 
REMARK    2  A    between atoms: C_3  and  C_1 
REMARK    3  A    between atoms: C_5  and  C_1 
REMARK    4  A    between atoms: O_8  and  C_1 
REMARK       I    between atoms: C_4  and  N_2 
REMARK    5  A    between atoms: C_6  and  C_4 
REMARK    6  A    between atoms: O_15  and  C_5 
REMARK    7  A    between atoms: C_20  and  O_15 
REMARK    8  A    between atoms: O_19  and  C_16 
ROOT
ATOM      1  C   UNL d   1       0.977   0.113   0.048  0.00  0.00     0.325 C 
ENDROOT
BRANCH   1   2
ATOM      2  N   UNL d   1       0.578  -1.253  -0.314  0.00  0.00    -0.309 N 
ATOM      3  C   UNL d   1       0.904  -1.807  -1.525  0.00  0.00     0.254 C 
ATOM      4  O   UNL d   1       1.481  -1.163  -2.390  0.00  0.00    -0.268 OA
ATOM      5  H   UNL d   1      -0.013  -1.745   0.346  0.00  0.00     0.166 HD
BRANCH   3   6
ATOM      6  C   UNL d   1       0.427  -3.198  -1.756  0.00  0.00     0.032 A 
ATOM      7  C   UNL d   1       0.099  -3.586  -3.059  0.00  0.00     0.020 A 
ATOM      8  C   UNL d   1      -0.433  -4.858  -3.302  0.00  0.00     0.038 A 
ATOM      9  C   UNL d   1      -0.628  -5.747  -2.246  0.00  0.00     0.068 A 
ATOM     10  C   UNL d   1      -0.237  -5.385  -0.955  0.00  0.00     0.038 A 
ATOM     11  C   UNL d   1       0.284  -4.112  -0.705  0.00  0.00     0.020 A 
BRANCH   9  12
ATOM     12  O   UNL d   1      -1.147  -7.006  -2.369  0.00  0.00    -0.356 OA
ATOM     13  C   UNL d   1      -2.155  -7.147  -3.367  0.00  0.00     0.210 C 
ENDBRANCH   9  12
ENDBRANCH   3   6
ENDBRANCH   1   2
BRANCH   1  14
ATOM     14  C   UNL d   1       2.506   0.366   0.197  0.00  0.00     0.448 C 
ATOM     15  F   UNL d   1       3.244  -0.721  -0.141  0.00  0.00    -0.166 F 
ATOM     16  F   UNL d   1       2.917   1.381  -0.605  0.00  0.00    -0.166 F 
ATOM     17  F   UNL d   1       2.875   0.695   1.458  0.00  0.00    -0.166 F 
ENDBRANCH   1  14
BRANCH   1  18
ATOM     18  C   UNL d   1       0.370   0.351   1.443  0.00  0.00     0.325 C 
ATOM     19  O   UNL d   1       0.090  -0.560   2.222  0.00  0.00    -0.259 OA
BRANCH  18  20
ATOM     20  O   UNL d   1       0.088   1.667   1.656  0.00  0.00    -0.318 OA
BRANCH  20  21
ATOM     21  C   UNL d   1      -0.832   1.937   2.723  0.00  0.00     0.174 C 
ATOM     22  C   UNL d   1      -2.249   1.776   2.200  0.00  0.00     0.034 C 
ENDBRANCH  20  21
ENDBRANCH  18  20
ENDBRANCH   1  18
BRANCH   1  23
ATOM     23  O   UNL d   1       0.339   0.949  -0.920  0.00  0.00    -0.356 OA
ATOM     24  H   UNL d   1       0.758   0.699  -1.769  0.00  0.00     0.213 HD
ENDBRANCH   1  23
TORSDOF 8
