REMARK  6 active torsions:
REMARK  status: ('A' for Active; 'I' for Inactive)
REMARK    1  A    between atoms: C_3  and  C_1 
REMARK    2  A    between atoms: C_7  and  C_1 
REMARK    3  A    between atoms: C_8  and  C_2 
REMARK    4  A    between atoms: N_4  and  C_3 
REMARK    5  A    between atoms: O_19  and  C_11 
REMARK    6  A    between atoms: O_20  and  C_12 
ROOT
ATOM      1  C   UNL d   1       1.005  -0.083   0.055  0.00  0.00     0.037 C 
ATOM      2  C   UNL d   1       0.364  -1.273   0.051  0.00  0.00     0.033 C 
ENDROOT
BRANCH   1   3
ATOM      3  C   UNL d   1       2.525  -0.083   0.055  0.00  0.00    -0.036 C 
BRANCH   3   4
ATOM      4  N   UNL d   1       3.786  -0.083   0.055  0.00  0.00    -0.365 N 
ATOM      5  HN2 UNL d   1       2.766  -0.083   0.055  1.00  0.00     0.165 HD
ATOM      6  HN1 UNL d   1       4.806  -0.083   0.055  1.00  0.00     0.165 HD
ENDBRANCH   3   4
ENDBRANCH   1   3
BRANCH   1   7
ATOM      7  C   UNL d   1       0.264   1.204   0.024  0.00  0.00    -0.017 A 
ATOM      8  C   UNL d   1      -1.010   1.334   0.607  0.00  0.00     0.015 A 
ATOM      9  C   UNL d   1      -1.713   2.546   0.568  0.00  0.00     0.037 A 
ATOM     10  C   UNL d   1      -1.148   3.661  -0.042  0.00  0.00     0.068 A 
ATOM     11  C   UNL d   1       0.131   3.561  -0.589  0.00  0.00     0.037 A 
ATOM     12  C   UNL d   1       0.827   2.346  -0.565  0.00  0.00     0.015 A 
BRANCH  10  13
ATOM     13  O   UNL d   1      -1.725   4.897  -0.124  0.00  0.00    -0.356 OA
ATOM     14  C   UNL d   1      -3.149   4.919  -0.108  0.00  0.00     0.210 C 
ENDBRANCH  10  13
ENDBRANCH   1   7
BRANCH   2  15
ATOM     15  C   UNL d   1       1.041  -2.575   0.110  0.00  0.00    -0.035 A 
ATOM     16  C   UNL d   1       1.367  -3.144   1.347  0.00  0.00     0.014 A 
ATOM     17  C   UNL d   1       2.045  -4.365   1.409  0.00  0.00     0.037 A 
ATOM     18  C   UNL d   1       2.406  -5.025   0.234  0.00  0.00     0.068 A 
ATOM     19  C   UNL d   1       2.058  -4.471  -0.999  0.00  0.00     0.037 A 
ATOM     20  C   UNL d   1       1.387  -3.247  -1.065  0.00  0.00     0.014 A 
BRANCH  18  21
ATOM     21  O   UNL d   1       3.058  -6.227   0.174  0.00  0.00    -0.356 OA
ATOM     22  C   UNL d   1       3.945  -6.495   1.254  0.00  0.00     0.210 C 
ENDBRANCH  18  21
ENDBRANCH   2  15
TORSDOF 6
