REMARK  3 active torsions:
REMARK  status: ('A' for Active; 'I' for Inactive)
REMARK    1  A    between atoms: C_2  and  C_1 
REMARK       I    between atoms: N_4  and  C_2 
REMARK    2  A    between atoms: C_6  and  N_4 
REMARK    3  A    between atoms: O_22  and  C_17 
ROOT
ATOM      1  C   UNL d   1      -2.351  -0.255  -0.118  0.00  0.00     0.102 A 
ATOM      2  N   UNL d   1      -1.568   0.886  -0.106  0.00  0.00    -0.351 N 
ATOM      3  C   UNL d   1      -1.471  -1.310   0.046  0.00  0.00     0.049 A 
ATOM      4  C   UNL d   1      -0.142  -0.805   0.021  0.00  0.00    -0.004 A 
ATOM      5  C   UNL d   1      -0.232   0.579  -0.072  0.00  0.00     0.043 A 
ATOM      6  C   UNL d   1       1.137  -1.395   0.077  0.00  0.00     0.050 A 
ATOM      7  C   UNL d   1       0.888   1.410  -0.104  0.00  0.00     0.033 A 
ATOM      8  C   UNL d   1       2.280  -0.586   0.022  0.00  0.00     0.069 A 
ATOM      9  C   UNL d   1       2.152   0.800  -0.062  0.00  0.00     0.039 A 
ATOM     10  H   UNL d   1      -1.953   1.822  -0.139  0.00  0.00     0.166 HD
ENDROOT
BRANCH   1  11
ATOM     11  C   UNL d   1      -3.801  -0.131  -0.200  0.00  0.00     0.274 C 
ATOM     12  N   UNL d   1      -4.577  -1.214  -0.643  0.00  0.00    -0.314 N 
ATOM     13  C   UNL d   1      -4.041  -2.437  -1.236  0.00  0.00     0.160 C 
ATOM     14  O   UNL d   1      -4.301   0.946   0.130  0.00  0.00    -0.265 OA
BRANCH  12  15
ATOM     15  C   UNL d   1      -6.007  -1.132  -0.587  0.00  0.00     0.076 A 
ATOM     16  C   UNL d   1      -6.770  -2.197  -0.079  0.00  0.00     0.146 A 
ATOM     17  C   UNL d   1      -8.159  -2.129  -0.011  0.00  0.00     0.086 A 
ATOM     18  F   UNL d   1      -6.167  -3.295   0.405  0.00  0.00    -0.204 F 
ATOM     19  C   UNL d   1      -8.799  -0.995  -0.487  0.00  0.00     0.119 A 
ATOM     20  C   UNL d   1      -8.078   0.066  -1.021  0.00  0.00     0.044 A 
ATOM     21  F   UNL d   1     -10.135  -0.922  -0.437  0.00  0.00    -0.206 F 
ATOM     22  C   UNL d   1      -6.681   0.002  -1.062  0.00  0.00     0.036 A 
ENDBRANCH  12  15
ENDBRANCH   1  11
BRANCH   8  23
ATOM     23  O   UNL d   1       3.461  -1.282   0.056  0.00  0.00    -0.356 OA
ATOM     24  C   UNL d   1       4.657  -0.519  -0.061  0.00  0.00     0.210 C 
ENDBRANCH   8  23
TORSDOF 3
