REMARK  7 active torsions:
REMARK  status: ('A' for Active; 'I' for Inactive)
REMARK    1  A    between atoms: C_7  and  C_1 
REMARK    2  A    between atoms: O_9  and  C_2 
REMARK    3  A    between atoms: C_3  and  C_11 
REMARK       I    between atoms: C_4  and  N_5 
REMARK    4  A    between atoms: C_8  and  C_4 
REMARK    5  A    between atoms: N_5  and  C_6 
REMARK    6  A    between atoms: O_27  and  C_7 
REMARK    7  A    between atoms: C_12  and  O_9 
ROOT
ATOM      1  C   UNL d   1       2.143   3.139   0.952  0.00  0.00     0.070 C 
ATOM      2  C   UNL d   1       2.623   5.386   0.136  0.00  0.00     0.050 C 
ATOM      3  C   UNL d   1       2.143   2.686  -0.372  0.00  0.00     0.102 C 
ATOM      4  C   UNL d   1       2.329   4.511   1.193  0.00  0.00     0.048 C 
ATOM      5  C   UNL d   1       2.938   4.840  -1.113  0.00  0.00     0.019 C 
ATOM      6  C   UNL d   1       2.720   3.490  -1.358  0.00  0.00     0.040 C 
ENDROOT
BRANCH   3   7
ATOM      7  O   UNL d   1       1.613   1.456  -0.695  0.00  0.00    -0.307 OA
BRANCH   7   8
ATOM      8  C   UNL d   1       0.690   1.330  -1.709  0.00  0.00     0.099 A 
ATOM      9  C   UNL d   1       0.055   0.122  -1.960  0.00  0.00     0.114 A 
ATOM     10  S   UNL d   1      -1.107   0.266  -3.228  0.00  0.00    -0.093 SA
ATOM     11  C   UNL d   1      -0.711   1.891  -3.513  0.00  0.00     0.053 A 
ATOM     12  C   UNL d   1       0.233   2.346  -2.621  0.00  0.00     0.046 A 
BRANCH   9  13
ATOM     13  C   UNL d   1       0.209  -1.194  -1.365  0.00  0.00     0.302 C 
ATOM     14  O   UNL d   1      -0.529  -2.151  -1.537  0.00  0.00    -0.259 OA
BRANCH  13  15
ATOM     15  O   UNL d   1       1.347  -1.242  -0.619  0.00  0.00    -0.322 OA
ATOM     16  C   UNL d   1       1.671  -2.555  -0.152  0.00  0.00     0.213 C 
ENDBRANCH  13  15
ENDBRANCH   9  13
ENDBRANCH   7   8
ENDBRANCH   3   7
BRANCH   1  17
ATOM     17  N   UNL d   1       2.009   2.223   2.028  0.00  0.00    -0.320 N 
ATOM     18  C   UNL d   1       2.930   2.223   3.083  0.00  0.00     0.263 C 
ATOM     19  O   UNL d   1       3.795   3.093   3.208  0.00  0.00    -0.267 OA
ATOM     20  H   UNL d   1       1.621   1.312   1.807  0.00  0.00     0.169 HD
BRANCH  18  21
ATOM     21  C   UNL d   1       2.885   1.085   4.003  0.00  0.00     0.072 A 
ATOM     22  S   UNL d   1       1.628  -0.077   3.991  0.00  0.00    -0.097 SA
ATOM     23  C   UNL d   1       2.310  -0.936   5.308  0.00  0.00     0.050 A 
ATOM     24  C   UNL d   1       3.485  -0.368   5.744  0.00  0.00     0.009 A 
ATOM     25  C   UNL d   1       3.815   0.797   4.990  0.00  0.00     0.025 A 
ENDBRANCH  18  21
ENDBRANCH   1  17
BRANCH   2  26
ATOM     26  C   UNL d   1       2.560   6.885   0.284  0.00  0.00     0.417 C 
ATOM     27  F   UNL d   1       2.020   7.306   1.461  0.00  0.00    -0.166 F 
ATOM     28  F   UNL d   1       3.775   7.487   0.177  0.00  0.00    -0.166 F 
ATOM     29  F   UNL d   1       1.784   7.448  -0.692  0.00  0.00    -0.166 F 
ENDBRANCH   2  26
TORSDOF 7
