REMARK  9 active torsions:
REMARK  status: ('A' for Active; 'I' for Inactive)
REMARK    1  A    between atoms: N_14  and  C_3 
REMARK    2  A    between atoms: C_10  and  C_4 
REMARK    3  A    between atoms: C_11  and  C_5 
REMARK    4  A    between atoms: C_15  and  C_8 
REMARK    5  A    between atoms: O_20  and  C_10 
REMARK    6  A    between atoms: O_19  and  C_11 
REMARK    7  A    between atoms: C_18  and  C_12 
REMARK    8  A    between atoms: C_24  and  O_19 
REMARK    9  A    between atoms: C_23  and  O_20 
ROOT
ATOM      1  N   UNL d   1       0.056  -0.781   0.003  0.00  0.00    -0.260 N 
ATOM      2  C   UNL d   1       0.337   0.576  -0.031  0.00  0.00     0.099 A 
ATOM      3  C   UNL d   1      -1.261  -1.240  -0.056  0.00  0.00     0.101 A 
ATOM      4  C   UNL d   1      -0.615   1.526  -0.027  0.00  0.00     0.065 A 
ATOM      5  C   UNL d   1      -2.284  -0.356   0.012  0.00  0.00     0.069 A 
ATOM      6  C   UNL d   1       1.154  -1.639   0.065  0.00  0.00     0.271 A 
ATOM      7  S   UNL d   1       2.057   0.851  -0.103  0.00  0.00    -0.066 SA
ATOM      8  C   UNL d   1      -2.082   1.140   0.081  0.00  0.00     0.103 A 
ATOM      9  C   UNL d   1       2.406  -0.837  -0.005  0.00  0.00     0.076 A 
ATOM     10  C   UNL d   1       3.658  -1.317  -0.031  0.00  0.00     0.036 C 
ATOM     11  O   UNL d   1       1.110  -2.856   0.199  0.00  0.00    -0.266 OA
ENDROOT
BRANCH  10  12
ATOM     12  C   UNL d   1       3.979  -2.743  -0.090  0.00  0.00    -0.035 A 
ATOM     13  C   UNL d   1       4.090  -3.360  -1.341  0.00  0.00     0.011 A 
ATOM     14  C   UNL d   1       4.300  -4.736  -1.430  0.00  0.00     0.001 A 
ATOM     15  C   UNL d   1       4.402  -5.500  -0.269  0.00  0.00     0.000 A 
ATOM     16  C   UNL d   1       4.304  -4.889   0.982  0.00  0.00     0.001 A 
ATOM     17  C   UNL d   1       4.095  -3.511   1.074  0.00  0.00     0.011 A 
ENDBRANCH  10  12
BRANCH   3  18
ATOM     18  N   UNL d   1      -1.486  -2.596  -0.221  0.00  0.00    -0.287 NA
ATOM     19  H   UNL d   1      -0.696  -3.174   0.081  0.00  0.00     0.125 HD
ATOM     20  H   UNL d   1      -2.386  -2.929   0.145  0.00  0.00     0.125 HD
ENDBRANCH   3  18
BRANCH   4  21
ATOM     21  C   UNL d   1      -0.388   2.992  -0.167  0.00  0.00     0.293 C 
ATOM     22  O   UNL d   1      -1.200   3.738  -0.697  0.00  0.00    -0.259 OA
BRANCH  21  23
ATOM     23  O   UNL d   1       0.776   3.386   0.401  0.00  0.00    -0.318 OA
BRANCH  23  24
ATOM     24  C   UNL d   1       1.118   4.778   0.313  0.00  0.00     0.174 C 
ATOM     25  C   UNL d   1       1.567   5.160  -1.087  0.00  0.00     0.034 C 
ENDBRANCH  23  24
ENDBRANCH  21  23
ENDBRANCH   4  21
BRANCH   5  26
ATOM     26  C   UNL d   1      -3.673  -0.885  -0.003  0.00  0.00     0.293 C 
ATOM     27  O   UNL d   1      -3.989  -1.986   0.429  0.00  0.00    -0.259 OA
BRANCH  26  28
ATOM     28  O   UNL d   1      -4.502  -0.021  -0.638  0.00  0.00    -0.318 OA
BRANCH  28  29
ATOM     29  C   UNL d   1      -5.760  -0.578  -1.047  0.00  0.00     0.174 C 
ATOM     30  C   UNL d   1      -5.626  -0.965  -2.507  0.00  0.00     0.034 C 
ENDBRANCH  28  29
ENDBRANCH  26  28
ENDBRANCH   5  26
BRANCH   8  31
ATOM     31  C   UNL d   1      -2.700   1.737   1.347  0.00  0.00    -0.045 A 
ATOM     32  C   UNL d   1      -2.298   1.316   2.625  0.00  0.00     0.008 A 
ATOM     33  C   UNL d   1      -2.820   1.926   3.765  0.00  0.00     0.001 A 
ATOM     34  C   UNL d   1      -3.748   2.958   3.646  0.00  0.00     0.000 A 
ATOM     35  C   UNL d   1      -4.168   3.375   2.384  0.00  0.00     0.001 A 
ATOM     36  C   UNL d   1      -3.649   2.768   1.241  0.00  0.00     0.008 A 
ENDBRANCH   8  31
TORSDOF 9
