REMARK  6 active torsions:
REMARK  status: ('A' for Active; 'I' for Inactive)
REMARK    1  A    between atoms: O_12  and  C_1 
REMARK    2  A    between atoms: O_13  and  C_2 
REMARK    3  A    between atoms: O_14  and  C_3 
REMARK    4  A    between atoms: C_11  and  C_4 
REMARK    5  A    between atoms: C_15  and  C_11 
REMARK    6  A    between atoms: C_16  and  C_11 
ROOT
ATOM      1  N   UNL d   1      -6.299   0.262   0.288  0.00  0.00    -0.197 NA
ATOM      2  C   UNL d   1      -5.190  -0.068   0.385  0.00  0.00     0.059 C 
ATOM      3  C   UNL d   1      -3.784  -0.479   0.456  0.00  0.00     0.134 C 
ENDROOT
BRANCH   3   4
ATOM      4  C   UNL d   1      -2.860   0.499  -0.308  0.00  0.00     0.045 C 
BRANCH   4   5
ATOM      5  C   UNL d   1      -1.377   0.175  -0.141  0.00  0.00    -0.047 A 
ATOM      6  C   UNL d   1      -0.438   1.213  -0.090  0.00  0.00     0.047 A 
ATOM      7  C   UNL d   1       0.941   0.954  -0.065  0.00  0.00     0.104 A 
ATOM      8  C   UNL d   1       1.402  -0.372  -0.046  0.00  0.00     0.135 A 
ATOM      9  C   UNL d   1       0.464  -1.422   0.023  0.00  0.00     0.104 A 
ATOM     10  C   UNL d   1      -0.904  -1.142  -0.090  0.00  0.00     0.047 A 
BRANCH   7  11
ATOM     11  O   UNL d   1       1.694   2.099  -0.011  0.00  0.00    -0.353 OA
ATOM     12  C   UNL d   1       2.954   2.070  -0.667  0.00  0.00     0.210 C 
ENDBRANCH   7  11
BRANCH   8  13
ATOM     13  O   UNL d   1       2.750  -0.612   0.032  0.00  0.00    -0.351 OA
ATOM     14  C   UNL d   1       3.248  -1.506  -0.967  0.00  0.00     0.210 C 
ENDBRANCH   8  13
BRANCH   9  15
ATOM     15  O   UNL d   1       0.946  -2.698   0.198  0.00  0.00    -0.353 OA
ATOM     16  C   UNL d   1       0.031  -3.659   0.717  0.00  0.00     0.210 C 
ENDBRANCH   9  15
ENDBRANCH   4   5
BRANCH   4  17
ATOM     17  C   UNL d   1      -3.208   0.650  -1.809  0.00  0.00     0.134 C 
ATOM     18  C   UNL d   1      -3.106  -0.617  -2.547  0.00  0.00     0.059 C 
ATOM     19  N   UNL d   1      -3.027  -1.639  -3.091  0.00  0.00    -0.197 NA
ENDBRANCH   4  17
ENDBRANCH   3   4
TORSDOF 6
