REMARK  7 active torsions:
REMARK  status: ('A' for Active; 'I' for Inactive)
REMARK    1  A    between atoms: N_2  and  S_1 
REMARK    2  A    between atoms: C_12  and  S_1 
REMARK    3  A    between atoms: C_3  and  N_2 
REMARK    4  A    between atoms: N_4  and  C_5 
REMARK       I    between atoms: C_8  and  N_4 
REMARK    5  A    between atoms: C_5  and  N_18 
REMARK    6  A    between atoms: C_10  and  C_8 
REMARK    7  A    between atoms: N_18  and  C_23 
ROOT
ATOM      1  C   UNL d   1       0.281   0.706   1.981  0.00  0.00     0.075 A 
ATOM      2  C   UNL d   1       0.606  -0.463   2.655  0.00  0.00     0.027 A 
ATOM      3  C   UNL d   1      -0.420   1.716   2.648  0.00  0.00     0.027 A 
ATOM      4  C   UNL d   1      -0.617   0.322   4.630  0.00  0.00     0.034 A 
ATOM      5  C   UNL d   1      -0.848   1.523   3.982  0.00  0.00     0.031 A 
ATOM      6  C   UNL d   1       0.139  -0.655   3.954  0.00  0.00     0.031 A 
ENDROOT
BRANCH   1   7
ATOM      7  S   UNL d   1       0.913   0.922   0.337  0.00  0.00     0.247 S 
ATOM      8  O   UNL d   1       0.677   2.300  -0.047  0.00  0.00    -0.205 OA
ATOM      9  O   UNL d   1       2.247   0.366   0.274  0.00  0.00    -0.205 OA
BRANCH   7  10
ATOM     10  N   UNL d   1      -0.115   0.010  -0.648  0.00  0.00    -0.165 NA
ATOM     11  H   UNL d   1      -0.273   0.527  -1.510  0.00  0.00     0.147 HD
BRANCH  10  12
ATOM     12  C   UNL d   1       0.106  -1.360  -0.760  0.00  0.00     0.117 A 
ATOM     13  N   UNL d   1      -0.252  -2.219   0.197  0.00  0.00    -0.249 N 
ATOM     14  O   UNL d   1       0.091  -3.472  -0.272  0.00  0.00    -0.241 OA
ATOM     15  HN  UNL d   1      -0.690  -1.995   1.090  1.00  0.00     0.196 HD
ATOM     16  C   UNL d   1       0.641  -3.356  -1.510  0.00  0.00     0.075 A 
ATOM     17  C   UNL d   1       0.645  -2.031  -1.876  0.00  0.00     0.079 A 
ATOM     18  C   UNL d   1       1.084  -4.612  -2.145  0.00  0.00     0.079 C 
ENDBRANCH  10  12
ENDBRANCH   7  10
ENDBRANCH   1   7
BRANCH   4  19
ATOM     19  N   UNL d   1      -0.997  -0.048   5.924  0.00  0.00    -0.333 N 
ATOM     20  H   UNL d   1      -0.546  -0.928   6.173  0.00  0.00     0.168 HD
BRANCH  19  21
ATOM     21  C   UNL d   1      -1.737   0.251   6.976  0.00  0.00     0.178 C 
ATOM     22  S   UNL d   1      -1.542  -0.849   8.254  0.00  0.00    -0.040 SA
BRANCH  21  23
ATOM     23  N   UNL d   1      -2.673   1.196   7.229  0.00  0.00    -0.303 N 
ATOM     24  C   UNL d   1      -3.454   2.321   6.931  0.00  0.00     0.228 C 
ATOM     25  O   UNL d   1      -4.369   2.583   7.714  0.00  0.00    -0.273 OA
ATOM     26  H   UNL d   1      -3.059   0.928   8.133  0.00  0.00     0.171 HD
BRANCH  24  27
ATOM     27  C   UNL d   1      -3.203   3.211   5.788  0.00  0.00     0.078 A 
ATOM     28  C   UNL d   1      -2.406   4.484   6.005  0.00  0.00     0.015 A 
ATOM     29  C   UNL d   1      -3.878   4.577   5.762  0.00  0.00     0.015 A 
ENDBRANCH  24  27
ENDBRANCH  21  23
ENDBRANCH  19  21
ENDBRANCH   4  19
TORSDOF 7
