REMARK  2 active torsions:
REMARK  status: ('A' for Active; 'I' for Inactive)
REMARK    1  A    between atoms: C_7  and  C_4 
REMARK    2  A    between atoms: C_9  and  C_6 
ROOT
ATOM      1  N   UNL d   1       1.040   0.639   0.158  0.00  0.00    -0.306 N 
ATOM      2  HN  UNL d   1       1.864   1.239   0.189  1.00  0.00     0.186 HD
ATOM      3  N   UNL d   1      -0.252   1.006   0.270  0.00  0.00    -0.323 N 
ATOM      4  C   UNL d   1       1.000  -0.656  -0.001  0.00  0.00     0.038 C 
ATOM      5  C   UNL d   1      -0.389  -1.250   0.048  0.00  0.00     0.091 C 
ATOM      6  C   UNL d   1      -1.228   0.009  -0.159  0.00  0.00     0.140 C 
ATOM      7  C   UNL d   1      -0.682   2.371   0.438  0.00  0.00     0.171 C 
ENDROOT
BRANCH   4   8
ATOM      8  C   UNL d   1       2.205  -1.502  -0.170  0.00  0.00    -0.011 A 
ATOM      9  C   UNL d   1       2.103  -2.889  -0.319  0.00  0.00     0.025 A 
ATOM     10  C   UNL d   1       3.249  -3.685  -0.475  0.00  0.00    -0.025 A 
ATOM     11  C   UNL d   1       3.148  -5.077  -0.634  0.00  0.00     0.012 A 
ATOM     12  C   UNL d   1       4.524  -3.076  -0.469  0.00  0.00    -0.026 A 
ATOM     13  C   UNL d   1       4.293  -5.861  -0.776  0.00  0.00     0.001 A 
ATOM     14  C   UNL d   1       5.550  -5.265  -0.760  0.00  0.00     0.001 A 
ATOM     15  C   UNL d   1       5.666  -3.882  -0.610  0.00  0.00     0.012 A 
ATOM     16  C   UNL d   1       4.619  -1.684  -0.323  0.00  0.00     0.013 A 
ATOM     17  C   UNL d   1       3.469  -0.901  -0.177  0.00  0.00     0.014 A 
ENDBRANCH   4   8
BRANCH   6  18
ATOM     18  C   UNL d   1      -1.700   0.123  -1.605  0.00  0.00    -0.033 A 
ATOM     19  C   UNL d   1      -0.860   0.576  -2.640  0.00  0.00     0.012 A 
ATOM     20  C   UNL d   1      -1.322   0.656  -3.955  0.00  0.00     0.043 A 
ATOM     21  C   UNL d   1      -2.623   0.273  -4.248  0.00  0.00     0.116 A 
ATOM     22  C   UNL d   1      -3.468  -0.201  -3.252  0.00  0.00     0.043 A 
ATOM     23  F   UNL d   1      -3.071   0.360  -5.508  0.00  0.00    -0.206 F 
ATOM     24  C   UNL d   1      -3.007  -0.281  -1.935  0.00  0.00     0.012 A 
ENDBRANCH   6  18
TORSDOF 2
