REMARK  5 active torsions:
REMARK  status: ('A' for Active; 'I' for Inactive)
REMARK    1  A    between atoms: C_2  and  N_1 
REMARK    2  A    between atoms: N_6  and  C_2 
REMARK    3  A    between atoms: C_13  and  C_4 
REMARK    4  A    between atoms: C_9  and  N_6 
REMARK    5  A    between atoms: O_25  and  C_22 
ROOT
ATOM      1  N   UNL d   1      -2.595   0.254  -0.267  0.00  0.00    -0.345 N 
ATOM      2  C   UNL d   1      -0.217   0.691   0.222  0.00  0.00    -0.017 A 
ATOM      3  C   UNL d   1      -1.629   1.221   0.323  0.00  0.00     0.154 C 
ATOM      4  C   UNL d   1       0.065  -0.633  -0.067  0.00  0.00    -0.007 A 
ATOM      5  C   UNL d   1      -2.357  -1.170   0.076  0.00  0.00     0.131 C 
ATOM      6  S   UNL d   1       1.730  -0.970  -0.115  0.00  0.00    -0.106 SA
ATOM      7  C   UNL d   1      -0.968  -1.675  -0.337  0.00  0.00     0.067 C 
ATOM      8  C   UNL d   1       0.994   1.440   0.384  0.00  0.00     0.018 A 
ATOM      9  C   UNL d   1       2.118   0.657   0.235  0.00  0.00     0.051 A 
ENDROOT
BRANCH   1  10
ATOM     10  C   UNL d   1      -3.409   0.607  -1.324  0.00  0.00     0.175 C 
ATOM     11  S   UNL d   1      -3.028   1.779  -2.476  0.00  0.00    -0.041 SA
BRANCH  10  12
ATOM     12  N   UNL d   1      -4.588  -0.036  -1.556  0.00  0.00    -0.333 N 
ATOM     13  H   UNL d   1      -4.949   0.169  -2.484  0.00  0.00     0.168 HD
BRANCH  12  14
ATOM     14  C   UNL d   1      -5.458  -0.799  -0.748  0.00  0.00     0.035 C 
ATOM     15  C   UNL d   1      -5.338  -0.920   0.633  0.00  0.00     0.036 C 
ATOM     16  C   UNL d   1      -6.123  -1.840   1.341  0.00  0.00    -0.059 C 
ATOM     17  C   UNL d   1      -5.851  -2.114   2.790  0.00  0.00     0.048 C 
ATOM     18  C   UNL d   1      -7.132  -2.538   0.670  0.00  0.00     0.013 C 
ATOM     19  C   UNL d   1      -7.352  -2.337  -0.697  0.00  0.00    -0.059 C 
ATOM     20  C   UNL d   1      -6.499  -1.474  -1.401  0.00  0.00     0.036 C 
ATOM     21  C   UNL d   1      -8.449  -3.080  -1.398  0.00  0.00     0.048 C 
ENDBRANCH  12  14
ENDBRANCH  10  12
ENDBRANCH   1  10
BRANCH   3  22
ATOM     22  C   UNL d   1      -1.928   1.508   1.797  0.00  0.00    -0.031 A 
ATOM     23  C   UNL d   1      -2.772   2.592   2.109  0.00  0.00     0.012 A 
ATOM     24  C   UNL d   1      -3.082   2.914   3.438  0.00  0.00     0.037 A 
ATOM     25  C   UNL d   1      -2.564   2.148   4.480  0.00  0.00     0.068 A 
ATOM     26  C   UNL d   1      -1.761   1.050   4.186  0.00  0.00     0.037 A 
ATOM     27  C   UNL d   1      -1.444   0.734   2.863  0.00  0.00     0.012 A 
BRANCH  25  28
ATOM     28  O   UNL d   1      -2.809   2.347   5.809  0.00  0.00    -0.356 OA
ATOM     29  C   UNL d   1      -3.054   3.696   6.194  0.00  0.00     0.210 C 
ENDBRANCH  25  28
ENDBRANCH   3  22
TORSDOF 5
