REMARK  3 active torsions:
REMARK  status: ('A' for Active; 'I' for Inactive)
REMARK    1  A    between atoms: C_8  and  C_3 
REMARK    2  A    between atoms: C_7  and  C_4 
REMARK       I    between atoms: N_13  and  C_7 
REMARK    3  A    between atoms: N_14  and  N_13 
ROOT
ATOM      1  N   UNL d   1       1.281   0.093   0.180  0.00  0.00    -0.314 N 
ATOM      2  HN  UNL d   1       2.280   0.210   0.352  1.00  0.00     0.169 HD
ATOM      3  C   UNL d   1       0.316   1.067   0.005  0.00  0.00     0.141 A 
ATOM      4  C   UNL d   1       0.589  -1.023   0.070  0.00  0.00     0.241 A 
ATOM      5  N   UNL d   1      -0.913   0.565  -0.201  0.00  0.00    -0.242 N 
ATOM      6  HN  UNL d   1      -1.778   1.078  -0.370  1.00  0.00     0.196 HD
ATOM      7  O   UNL d   1      -0.739  -0.815  -0.132  0.00  0.00    -0.212 OA
ENDROOT
BRANCH   3   8
ATOM      8  C   UNL d   1       0.624   2.497   0.018  0.00  0.00     0.053 A 
ATOM      9  C   UNL d   1       1.823   2.991  -0.543  0.00  0.00     0.049 A 
ATOM     10 CL   UNL d   1       3.005   1.987  -1.321  0.00  0.00    -0.083 Cl
ATOM     11  C   UNL d   1       2.118   4.364  -0.532  0.00  0.00     0.025 A 
ATOM     12  C   UNL d   1       1.227   5.274   0.023  0.00  0.00     0.003 A 
ATOM     13  C   UNL d   1       0.040   4.813   0.577  0.00  0.00     0.025 A 
ATOM     14  C   UNL d   1      -0.260   3.441   0.586  0.00  0.00     0.049 A 
ATOM     15 CL   UNL d   1      -1.744   3.019   1.379  0.00  0.00    -0.083 Cl
ENDBRANCH   3   8
BRANCH   4  16
ATOM     16  C   UNL d   1       1.102  -2.370   0.133  0.00  0.00     0.309 C 
ATOM     17  O   UNL d   1       0.406  -3.392   0.141  0.00  0.00    -0.262 OA
ATOM     18  N   UNL d   1       2.497  -2.444   0.184  0.00  0.00    -0.287 N 
ATOM     19  H   UNL d   1       3.036  -1.588   0.050  0.00  0.00     0.183 HD
BRANCH  18  20
ATOM     20  N   UNL d   1       3.151  -3.700   0.196  0.00  0.00    -0.247 NA
ATOM     21  H   UNL d   1       2.425  -4.424   0.096  0.00  0.00     0.143 HD
ATOM     22  H   UNL d   1       3.530  -3.850   1.135  0.00  0.00     0.143 HD
ENDBRANCH  18  20
ENDBRANCH   4  16
TORSDOF 3
