REMARK  4 active torsions:
REMARK  status: ('A' for Active; 'I' for Inactive)
REMARK    1  A    between atoms: C_7  and  C_1 
REMARK    2  A    between atoms: C_8  and  C_4 
REMARK    3  A    between atoms: O_15  and  C_7 
REMARK    4  A    between atoms: C_18  and  O_15 
ROOT
ATOM      1  C   UNL d   1       1.299   0.791  -0.010  0.00  0.00     0.115 A 
ATOM      2  N   UNL d   1       1.395  -0.602  -0.008  0.00  0.00    -0.345 N 
ATOM      3  HN  UNL d   1       2.273  -1.120  -0.054  1.00  0.00     0.167 HD
ATOM      4  C   UNL d   1       0.201  -1.159   0.061  0.00  0.00     0.085 A 
ATOM      5  S   UNL d   1      -1.106  -0.031   0.116  0.00  0.00    -0.081 SA
ATOM      6  C   UNL d   1       0.003   1.266   0.058  0.00  0.00     0.087 A 
ENDROOT
BRANCH   4   7
ATOM      7  C   UNL d   1      -0.032  -2.612   0.036  0.00  0.00     0.000 A 
ATOM      8  C   UNL d   1      -1.196  -3.208   0.549  0.00  0.00     0.033 A 
ATOM      9  C   UNL d   1      -1.366  -4.593   0.497  0.00  0.00     0.013 A 
ATOM     10 BR   UNL d   1      -2.947  -5.363   1.195  0.00  0.00    -0.051 Br
ATOM     11  C   UNL d   1      -0.390  -5.413  -0.060  0.00  0.00     0.038 A 
ATOM     12  C   UNL d   1       0.771  -4.833  -0.562  0.00  0.00     0.013 A 
ATOM     13  C   UNL d   1       0.955  -3.450  -0.514  0.00  0.00     0.033 A 
ATOM     14 BR   UNL d   1       2.109  -5.931  -1.323  0.00  0.00    -0.051 Br
ENDBRANCH   4   7
BRANCH   1  15
ATOM     15  C   UNL d   1       2.467   1.663  -0.139  0.00  0.00     0.310 C 
ATOM     16  O   UNL d   1       2.384   2.883  -0.227  0.00  0.00    -0.258 OA
BRANCH  15  17
ATOM     17  O   UNL d   1       3.632   0.958  -0.224  0.00  0.00    -0.317 OA
BRANCH  17  18
ATOM     18  C   UNL d   1       4.771   1.690  -0.690  0.00  0.00     0.175 C 
ATOM     19  C   UNL d   1       4.804   1.607  -2.205  0.00  0.00     0.034 C 
ENDBRANCH  17  18
ENDBRANCH  15  17
ENDBRANCH   1  15
TORSDOF 4
