REMARK  5 active torsions:
REMARK  status: ('A' for Active; 'I' for Inactive)
REMARK    1  A    between atoms: C_5  and  C_1 
REMARK    2  A    between atoms: C_2  and  N_4 
REMARK    3  A    between atoms: N_7  and  C_2 
REMARK    4  A    between atoms: N_4  and  C_3 
REMARK    5  A    between atoms: C_16  and  N_7 
ROOT
ATOM      1  N   UNL d   1      -2.371   3.240  -1.989  0.00  0.00    -0.332 N 
ATOM      2  H   UNL d   1      -1.728   2.991  -2.733  0.00  0.00     0.168 HD
ENDROOT
BRANCH   1   3
ATOM      3  C   UNL d   1      -2.764   4.560  -2.057  0.00  0.00     0.172 C 
ATOM      4  S   UNL d   1      -4.335   5.146  -2.120  0.00  0.00    -0.041 SA
BRANCH   3   5
ATOM      5  N   UNL d   1      -1.783   5.494  -2.120  0.00  0.00    -0.362 N 
ATOM      6  H   UNL d   1      -2.168   6.432  -2.155  0.00  0.00     0.162 HD
BRANCH   5   7
ATOM      7  C   UNL d   1      -0.347   5.386  -1.865  0.00  0.00     0.083 C 
ATOM      8  C   UNL d   1      -0.036   5.090  -0.388  0.00  0.00     0.025 C 
ATOM      9  C   UNL d   1      -0.247   6.288   0.540  0.00  0.00     0.002 C 
ATOM     10  C   UNL d   1       0.468   7.538   0.040  0.00  0.00     0.000 C 
ATOM     11  C   UNL d   1       0.065   7.864  -1.392  0.00  0.00     0.002 C 
ATOM     12  C   UNL d   1       0.344   6.682  -2.325  0.00  0.00     0.025 C 
ENDBRANCH   5   7
ENDBRANCH   3   5
ENDBRANCH   1   3
BRANCH   1  13
ATOM     13  C   UNL d   1      -3.255   2.198  -1.586  0.00  0.00     0.057 A 
ATOM     14  C   UNL d   1      -3.936   2.326  -0.366  0.00  0.00     0.047 A 
ATOM     15  C   UNL d   1      -4.901   1.386   0.022  0.00  0.00     0.050 A 
ATOM     16  C   UNL d   1      -5.182   0.312  -0.834  0.00  0.00     0.018 A 
ATOM     17  C   UNL d   1      -4.451   0.137  -2.012  0.00  0.00     0.027 A 
ATOM     18  C   UNL d   1      -3.460   1.060  -2.372  0.00  0.00     0.060 A 
ATOM     19 CL   UNL d   1      -2.564   0.796  -3.821  0.00  0.00    -0.082 Cl
BRANCH  15  20
ATOM     20  C   UNL d   1      -5.631   1.537   1.336  0.00  0.00     0.417 C 
ATOM     21  F   UNL d   1      -5.133   2.531   2.123  0.00  0.00    -0.166 F 
ATOM     22  F   UNL d   1      -5.570   0.405   2.092  0.00  0.00    -0.166 F 
ATOM     23  F   UNL d   1      -6.953   1.808   1.174  0.00  0.00    -0.166 F 
ENDBRANCH  15  20
ENDBRANCH   1  13
TORSDOF 5
