REMARK  4 active torsions:
REMARK  status: ('A' for Active; 'I' for Inactive)
REMARK    1  A    between atoms: C_8  and  N_1 
REMARK    2  A    between atoms: C_3  and  C_4 
REMARK    3  A    between atoms: C_9  and  C_5 
REMARK    4  A    between atoms: O_17  and  C_10 
ROOT
ATOM      1  N   UNL d   1       0.974  -0.083  -0.043  0.00  0.00    -0.365 N 
ATOM      2  HN  UNL d   1       0.487   0.663   0.454  1.00  0.00     0.165 HD
ATOM      3  C   UNL d   1       0.306  -0.990  -0.681  0.00  0.00     0.099 C 
ENDROOT
BRANCH   1   4
ATOM      4  C   UNL d   1       2.381  -0.137  -0.043  0.00  0.00     0.031 A 
ATOM      5  C   UNL d   1       3.082   1.067  -0.029  0.00  0.00     0.030 A 
ATOM      6  C   UNL d   1       4.484   1.093  -0.051  0.00  0.00     0.010 A 
ATOM      7  C   UNL d   1       5.233  -0.094  -0.091  0.00  0.00    -0.051 A 
ATOM      8  C   UNL d   1       4.516  -1.302  -0.074  0.00  0.00     0.010 A 
ATOM      9  C   UNL d   1       3.116  -1.323  -0.034  0.00  0.00     0.030 A 
BRANCH   7  10
ATOM     10  C   UNL d   1       6.771  -0.057  -0.160  0.00  0.00    -0.024 C 
ATOM     11  C   UNL d   1       7.420  -1.460  -0.209  0.00  0.00     0.019 C 
ATOM     12  C   UNL d   1       7.218   0.698  -1.431  0.00  0.00     0.019 C 
ATOM     13  C   UNL d   1       7.343   0.665   1.079  0.00  0.00     0.019 C 
ENDBRANCH   7  10
ENDBRANCH   1   4
BRANCH   3  14
ATOM     14  C   UNL d   1      -1.166  -0.957  -0.782  0.00  0.00    -0.021 A 
ATOM     15  C   UNL d   1      -1.898   0.116  -0.269  0.00  0.00     0.015 A 
ATOM     16  C   UNL d   1      -3.287   0.154  -0.431  0.00  0.00     0.037 A 
ATOM     17  C   UNL d   1      -3.942  -0.884  -1.098  0.00  0.00     0.068 A 
ATOM     18  C   UNL d   1      -3.201  -1.950  -1.615  0.00  0.00     0.037 A 
ATOM     19  C   UNL d   1      -1.816  -1.995  -1.453  0.00  0.00     0.015 A 
BRANCH  17  20
ATOM     20  O   UNL d   1      -5.286  -0.939  -1.346  0.00  0.00    -0.356 OA
ATOM     21  C   UNL d   1      -6.111  -0.275  -0.396  0.00  0.00     0.210 C 
ENDBRANCH  17  20
ENDBRANCH   3  14
TORSDOF 4
