REMARK  5 active torsions:
REMARK  status: ('A' for Active; 'I' for Inactive)
REMARK    1  A    between atoms: C_18  and  N_9 
REMARK    2  A    between atoms: C_13  and  C_20 
REMARK    3  A    between atoms: O_17  and  C_13 
REMARK    4  A    between atoms: C_19  and  C_18 
REMARK    5  A    between atoms: C_20  and  C_19 
ROOT
ATOM      1  C   UNL d   1       0.036  -0.729   0.053  0.00  0.00     0.121 A 
ATOM      2  C   UNL d   1       0.021   0.615   0.072  0.00  0.00     0.082 A 
ATOM      3  N   UNL d   1       1.245  -1.391  -0.057  0.00  0.00    -0.289 N 
ATOM      4  N   UNL d   1       2.442   0.646  -0.009  0.00  0.00    -0.270 N 
ATOM      5  C   UNL d   1       2.479  -0.736  -0.091  0.00  0.00     0.332 A 
ATOM      6  C   UNL d   1       1.280   1.380   0.057  0.00  0.00     0.263 A 
ATOM      7  N   UNL d   1      -1.183  -1.392   0.147  0.00  0.00    -0.350 N 
ATOM      8  C   UNL d   1      -1.250   1.418   0.087  0.00  0.00     0.322 C 
ATOM      9  N   UNL d   1      -2.450   0.662  -0.362  0.00  0.00     0.110 N 
ATOM     10  C   UNL d   1      -2.410  -0.634   0.318  0.00  0.00     0.397 C 
ATOM     11  O   UNL d   1       3.540  -1.359  -0.182  0.00  0.00    -0.246 OA
ATOM     12  O   UNL d   1       1.249   2.610   0.111  0.00  0.00    -0.267 OA
ATOM     13  C   UNL d   1       1.316  -2.845  -0.081  0.00  0.00     0.163 C 
ATOM     14  C   UNL d   1       3.687   1.390   0.009  0.00  0.00     0.164 C 
ATOM     15  H   UNL d   1      -1.265  -2.141  -0.532  0.00  0.00     0.162 HD
ENDROOT
BRANCH   9  16
ATOM     16  C   UNL d   1      -3.686   1.394  -0.039  0.00  0.00     0.275 C 
BRANCH  16  17
ATOM     17  C   UNL d   1      -3.826   2.709  -0.826  0.00  0.00     0.040 C 
BRANCH  17  18
ATOM     18  C   UNL d   1      -3.670   2.559  -2.337  0.00  0.00     0.111 C 
BRANCH  18  19
ATOM     19  C   UNL d   1      -4.741   1.673  -2.915  0.00  0.00     0.139 C 
ATOM     20  O   UNL d   1      -5.831   2.073  -3.290  0.00  0.00    -0.650 OA
BRANCH  19  21
ATOM     21  O   UNL d   1      -4.395   0.365  -2.928  0.00  0.00    -0.776 OA
ATOM     22  H   UNL d   1      -3.514   0.208  -2.526  0.00  0.00     0.167 HD
ENDBRANCH  19  21
ENDBRANCH  18  19
ENDBRANCH  17  18
ENDBRANCH  16  17
ENDBRANCH   9  16
TORSDOF 5
