REMARK  4 active torsions:
REMARK  status: ('A' for Active; 'I' for Inactive)
REMARK    1  A    between atoms: N_3  and  C_1 
REMARK       I    between atoms: C_2  and  N_5 
REMARK    2  A    between atoms: C_6  and  C_2 
REMARK    3  A    between atoms: N_8  and  C_4 
REMARK       I    between atoms: N_5  and  C_7 
REMARK       I    between atoms: C_7  and  N_9 
REMARK    4  A    between atoms: N_9  and  N_8 
ROOT
ATOM      1  C   UNL d   1       5.230  -5.187  -0.303  0.00  0.00     0.263 C 
ATOM      2  N   UNL d   1       4.107  -4.612   0.264  0.00  0.00    -0.274 N 
ATOM      3  C   UNL d   1       3.724  -3.291   0.277  0.00  0.00     0.341 C 
ATOM      4  N   UNL d   1       4.646  -2.389  -0.219  0.00  0.00    -0.249 N 
ATOM      5  O   UNL d   1       6.015  -4.596  -1.034  0.00  0.00    -0.267 OA
ATOM      6  O   UNL d   1       2.630  -3.013   0.764  0.00  0.00    -0.245 OA
ATOM      7  H   UNL d   1       3.467  -5.188   0.791  0.00  0.00     0.173 HD
ATOM      8  H   UNL d   1       5.447  -2.739  -0.751  0.00  0.00     0.192 HD
ENDROOT
BRANCH   4   9
ATOM      9  N   UNL d   1       4.393  -0.986  -0.305  0.00  0.00    -0.290 N 
ATOM     10  C   UNL d   1       3.916  -0.546  -1.613  0.00  0.00     0.178 C 
BRANCH   9  11
ATOM     11  C   UNL d   1       3.826  -0.439   0.868  0.00  0.00     0.083 A 
ATOM     12  C   UNL d   1       4.466  -0.522   2.119  0.00  0.00     0.132 A 
ATOM     13  C   UNL d   1       3.862  -0.140   3.325  0.00  0.00     0.062 A 
ATOM     14  C   UNL d   1       2.571   0.367   3.284  0.00  0.00     0.036 A 
ATOM     15  C   UNL d   1       1.918   0.527   2.065  0.00  0.00     0.026 A 
ATOM     16 CL   UNL d   1       1.773   0.795   4.745  0.00  0.00    -0.084 Cl
ATOM     17  C   UNL d   1       2.543   0.140   0.871  0.00  0.00     0.035 A 
BRANCH  12  18
ATOM     18  N   UNL d   1       5.839  -0.985   2.192  0.00  0.00    -0.113 N 
ATOM     19  O   UNL d   1       6.712  -0.236   1.744  0.00  0.00    -0.532 OA
ATOM     20  O   UNL d   1       6.036  -2.063   2.775  0.00  0.00    -0.532 OA
ENDBRANCH  12  18
ENDBRANCH   9  11
ENDBRANCH   4   9
BRANCH   1  21
ATOM     21  C   UNL d   1       5.400  -6.630  -0.009  0.00  0.00     0.075 A 
ATOM     22  C   UNL d   1       5.391  -7.571  -1.049  0.00  0.00     0.051 A 
ATOM     23 CL   UNL d   1       5.138  -7.137  -2.703  0.00  0.00    -0.083 Cl
ATOM     24  C   UNL d   1       5.533  -8.936  -0.765  0.00  0.00     0.025 A 
ATOM     25  C   UNL d   1       5.683  -9.370   0.551  0.00  0.00     0.003 A 
ATOM     26  C   UNL d   1       5.698  -8.440   1.588  0.00  0.00     0.025 A 
ATOM     27  C   UNL d   1       5.564  -7.074   1.312  0.00  0.00     0.051 A 
ATOM     28 CL   UNL d   1       5.616  -5.995   2.661  0.00  0.00    -0.083 Cl
ENDBRANCH   1  21
TORSDOF 4
