REMARK  4 active torsions:
REMARK  status: ('A' for Active; 'I' for Inactive)
REMARK    1  A    between atoms: C_2  and  S_1 
REMARK    2  A    between atoms: N_6  and  S_1 
REMARK    3  A    between atoms: C_11  and  N_6 
REMARK    4  A    between atoms: C_12  and  C_11 
ROOT
ATOM      1  S   UNL d   1       1.353  -0.114  -0.396  0.00  0.00     0.265 S 
ATOM      2  O   UNL d   1       0.592   1.092  -0.171  0.00  0.00    -0.200 OA
ATOM      3  O   UNL d   1       2.756  -0.183  -0.037  0.00  0.00    -0.200 OA
ENDROOT
BRANCH   1   4
ATOM      4  C   UNL d   1       1.367  -0.296  -2.098  0.00  0.00     0.134 A 
ATOM      5  C   UNL d   1       2.359  -0.853  -2.874  0.00  0.00     0.098 A 
ATOM      6  O   UNL d   1       1.986  -0.793  -4.180  0.00  0.00    -0.241 OA
ATOM      7  C   UNL d   1       3.677  -1.471  -2.625  0.00  0.00     0.081 C 
ATOM      8  N   UNL d   1       0.740  -0.207  -4.279  0.00  0.00    -0.264 N 
ATOM      9  C   UNL d   1       0.375   0.105  -3.028  0.00  0.00     0.054 A 
ATOM     10  HN  UNL d   1       0.205  -0.045  -5.132  1.00  0.00     0.194 HD
ATOM     11  C   UNL d   1      -0.935   0.760  -2.812  0.00  0.00     0.072 C 
ENDBRANCH   1   4
BRANCH   1  12
ATOM     12  N   UNL d   1       0.580  -1.444   0.331  0.00  0.00    -0.307 N 
ATOM     13  C   UNL d   1       1.186  -2.758   0.038  0.00  0.00     0.163 C 
BRANCH  12  14
ATOM     14  C   UNL d   1      -0.893  -1.466   0.394  0.00  0.00     0.173 C 
BRANCH  14  15
ATOM     15  C   UNL d   1      -1.534  -0.458   1.323  0.00  0.00    -0.040 A 
ATOM     16  C   UNL d   1      -2.500   0.437   0.839  0.00  0.00     0.009 A 
ATOM     17  C   UNL d   1      -3.167   1.307   1.704  0.00  0.00     0.001 A 
ATOM     18  C   UNL d   1      -2.883   1.288   3.067  0.00  0.00     0.000 A 
ATOM     19  C   UNL d   1      -1.913   0.418   3.561  0.00  0.00     0.001 A 
ATOM     20  C   UNL d   1      -1.238  -0.447   2.695  0.00  0.00     0.009 A 
ENDBRANCH  14  15
ENDBRANCH  12  14
ENDBRANCH   1  12
TORSDOF 4
