REMARK  8 active torsions:
REMARK  status: ('A' for Active; 'I' for Inactive)
REMARK    1  A    between atoms: O_10  and  C_1 
REMARK    2  A    between atoms: C_2  and  N_5 
REMARK    3  A    between atoms: N_4  and  C_2 
REMARK       I    between atoms: C_3  and  N_8 
REMARK    4  A    between atoms: C_9  and  C_3 
REMARK    5  A    between atoms: N_8  and  N_4 
REMARK    6  A    between atoms: N_5  and  C_16 
REMARK    7  A    between atoms: C_6  and  C_9 
REMARK    8  A    between atoms: C_17  and  O_10 
ROOT
ATOM      1  C   UNL d   1       2.778   4.772   4.578  0.00  0.00     0.191 C 
ATOM      2  S   UNL d   1       3.123   6.035   5.611  0.00  0.00    -0.039 SA
ENDROOT
BRANCH   1   3
ATOM      3  N   UNL d   1       1.543   4.245   4.255  0.00  0.00    -0.332 N 
ATOM      4  H   UNL d   1       1.474   3.991   3.275  0.00  0.00     0.168 HD
BRANCH   3   5
ATOM      5  C   UNL d   1       0.353   4.210   5.004  0.00  0.00     0.034 A 
ATOM      6  C   UNL d   1      -0.855   4.027   4.325  0.00  0.00     0.032 A 
ATOM      7  C   UNL d   1      -2.066   3.938   5.026  0.00  0.00     0.039 A 
ATOM      8  C   UNL d   1      -2.078   4.016   6.418  0.00  0.00     0.078 A 
ATOM      9  C   UNL d   1      -0.865   4.152   7.094  0.00  0.00     0.039 A 
ATOM     10  C   UNL d   1       0.341   4.251   6.398  0.00  0.00     0.032 A 
BRANCH   8  11
ATOM     11  O   UNL d   1      -3.169   3.967   7.234  0.00  0.00    -0.255 OA
BRANCH  11  12
ATOM     12  C   UNL d   1      -4.452   4.016   6.637  0.00  0.00     0.530 C 
ATOM     13  F   UNL d   1      -4.565   5.052   5.778  0.00  0.00    -0.144 F 
ATOM     14  F   UNL d   1      -5.374   4.178   7.611  0.00  0.00    -0.144 F 
ATOM     15  F   UNL d   1      -4.720   2.863   5.988  0.00  0.00    -0.144 F 
ENDBRANCH  11  12
ENDBRANCH   8  11
ENDBRANCH   3   5
ENDBRANCH   1   3
BRANCH   1  16
ATOM     16  N   UNL d   1       3.815   4.168   3.899  0.00  0.00    -0.274 N 
ATOM     17  H   UNL d   1       4.775   4.465   4.088  0.00  0.00     0.189 HD
BRANCH  16  18
ATOM     18  N   UNL d   1       3.654   2.885   3.345  0.00  0.00    -0.268 N 
ATOM     19  C   UNL d   1       4.768   2.310   2.756  0.00  0.00     0.240 C 
ATOM     20  O   UNL d   1       5.831   2.909   2.606  0.00  0.00    -0.272 OA
ATOM     21  H   UNL d   1       3.004   2.276   3.842  0.00  0.00     0.190 HD
BRANCH  19  22
ATOM     22  C   UNL d   1       4.539   0.893   2.275  0.00  0.00     0.144 C 
BRANCH  22  23
ATOM     23  C   UNL d   1       5.429  -0.122   2.949  0.00  0.00    -0.028 A 
ATOM     24  C   UNL d   1       5.104  -0.718   4.177  0.00  0.00     0.040 A 
ATOM     25 CL   UNL d   1       3.665  -0.294   5.036  0.00  0.00    -0.084 Cl
ATOM     26  C   UNL d   1       5.943  -1.684   4.743  0.00  0.00     0.024 A 
ATOM     27  C   UNL d   1       7.124  -2.052   4.098  0.00  0.00     0.002 A 
ATOM     28  C   UNL d   1       7.474  -1.445   2.896  0.00  0.00     0.001 A 
ATOM     29  C   UNL d   1       6.636  -0.486   2.326  0.00  0.00     0.009 A 
ENDBRANCH  22  23
ENDBRANCH  19  22
ENDBRANCH  16  18
ENDBRANCH   1  16
TORSDOF 8
