REMARK  5 active torsions:
REMARK  status: ('A' for Active; 'I' for Inactive)
REMARK    1  A    between atoms: N_5  and  C_1 
REMARK    2  A    between atoms: C_7  and  C_4 
REMARK       I    between atoms: C_6  and  N_5 
REMARK    3  A    between atoms: C_9  and  C_6 
REMARK    4  A    between atoms: C_15  and  C_12 
REMARK    5  A    between atoms: O_22  and  C_15 
ROOT
ATOM      1  C   UNL d   1      -1.098  -2.878  -0.283  0.00  0.00     0.151 A 
ATOM      2  N   UNL d   1      -1.616  -4.026   0.057  0.00  0.00    -0.335 N 
ATOM      3  HN  UNL d   1      -1.121  -4.766   0.554  1.00  0.00     0.168 HD
ATOM      4  C   UNL d   1      -2.930  -4.092  -0.352  0.00  0.00     0.058 A 
ATOM      5  S   UNL d   1      -2.171  -1.742  -0.964  0.00  0.00    -0.063 SA
ATOM      6  C   UNL d   1      -3.420  -2.932  -0.918  0.00  0.00     0.084 A 
ENDROOT
BRANCH   1   7
ATOM      7  N   UNL d   1       0.210  -2.490  -0.196  0.00  0.00    -0.307 N 
ATOM      8  C   UNL d   1       1.187  -3.393   0.172  0.00  0.00     0.228 C 
ATOM      9  O   UNL d   1       0.990  -4.569   0.496  0.00  0.00    -0.273 OA
ATOM     10  H   UNL d   1       0.447  -1.567  -0.533  0.00  0.00     0.171 HD
BRANCH   8  11
ATOM     11  C   UNL d   1       2.624  -2.830   0.110  0.00  0.00     0.092 C 
ATOM     12  C   UNL d   1       3.530  -3.457  -1.002  0.00  0.00     0.096 C 
ATOM     13  C   UNL d   1       4.691  -3.420   0.017  0.00  0.00     0.017 C 
ATOM     14  C   UNL d   1       3.645  -3.377   1.142  0.00  0.00     0.016 C 
BRANCH  12  15
ATOM     15  C   UNL d   1       3.676  -2.639  -2.302  0.00  0.00     0.144 C 
ATOM     16  O   UNL d   1       3.126  -1.567  -2.529  0.00  0.00    -0.650 OA
BRANCH  15  17
ATOM     17  O   UNL d   1       4.487  -3.219  -3.224  0.00  0.00    -0.776 OA
ATOM     18  H   UNL d   1       4.849  -4.080  -2.933  0.00  0.00     0.167 HD
ENDBRANCH  15  17
ENDBRANCH  12  15
ENDBRANCH   8  11
ENDBRANCH   1   7
BRANCH   4  19
ATOM     19  C   UNL d   1      -3.670  -5.385  -0.210  0.00  0.00     0.033 A 
ATOM     20  S   UNL d   1      -5.221  -5.728  -0.830  0.00  0.00    -0.076 SA
ATOM     21  C   UNL d   1      -5.111  -7.343  -0.330  0.00  0.00     0.075 A 
ATOM     22 CL   UNL d   1      -6.380  -8.440  -0.697  0.00  0.00    -0.076 Cl
ATOM     23  C   UNL d   1      -3.956  -7.630   0.348  0.00  0.00     0.033 A 
ATOM     24  C   UNL d   1      -3.114  -6.483   0.422  0.00  0.00     0.023 A 
ENDBRANCH   4  19
TORSDOF 5
