REMARK  5 active torsions:
REMARK  status: ('A' for Active; 'I' for Inactive)
REMARK    1  A    between atoms: N_2  and  S_1 
REMARK    2  A    between atoms: C_9  and  S_1 
REMARK    3  A    between atoms: C_3  and  N_2 
REMARK       I    between atoms: C_7  and  N_13 
REMARK       I    between atoms: N_14  and  C_7 
REMARK    4  A    between atoms: N_13  and  C_18 
REMARK    5  A    between atoms: C_19  and  N_14 
ROOT
ATOM      1  C   UNL d   1       0.507   1.595  -0.285  0.00  0.00     0.075 A 
ATOM      2  C   UNL d   1      -0.827   1.793   0.082  0.00  0.00     0.027 A 
ATOM      3  C   UNL d   1       1.379   2.674  -0.357  0.00  0.00     0.027 A 
ATOM      4  C   UNL d   1      -0.380   4.160   0.453  0.00  0.00     0.036 A 
ATOM      5  C   UNL d   1      -1.269   3.076   0.442  0.00  0.00     0.031 A 
ATOM      6  C   UNL d   1       0.928   3.948  -0.004  0.00  0.00     0.031 A 
ENDROOT
BRANCH   4   7
ATOM      7  N   UNL d   1      -0.830   5.393   0.993  0.00  0.00    -0.309 N 
ATOM      8  C   UNL d   1      -0.028   6.502   1.244  0.00  0.00     0.325 C 
ATOM      9  N   UNL d   1      -0.686   7.481   1.974  0.00  0.00    -0.309 N 
ATOM     10  O   UNL d   1       1.144   6.583   0.902  0.00  0.00    -0.247 OA
ATOM     11  H   UNL d   1      -1.644   7.307   2.231  0.00  0.00     0.170 HD
ATOM     12  H   UNL d   1      -1.778   5.417   1.329  0.00  0.00     0.170 HD
BRANCH   9  13
ATOM     13  C   UNL d   1      -0.085   8.649   2.513  0.00  0.00     0.036 A 
ATOM     14  C   UNL d   1       1.242   9.028   2.265  0.00  0.00     0.032 A 
ATOM     15  C   UNL d   1       1.809  10.138   2.896  0.00  0.00     0.044 A 
ATOM     16  C   UNL d   1       1.043  10.888   3.771  0.00  0.00     0.116 A 
ATOM     17  C   UNL d   1      -0.286  10.561   4.006  0.00  0.00     0.044 A 
ATOM     18  F   UNL d   1       1.592  11.936   4.398  0.00  0.00    -0.206 F 
ATOM     19  C   UNL d   1      -0.853   9.447   3.373  0.00  0.00     0.032 A 
ENDBRANCH   9  13
ENDBRANCH   4   7
BRANCH   1  20
ATOM     20  S   UNL d   1       1.152  -0.047  -0.448  0.00  0.00     0.247 S 
ATOM     21  O   UNL d   1       2.569  -0.003  -0.153  0.00  0.00    -0.205 OA
ATOM     22  O   UNL d   1       0.289  -0.960   0.273  0.00  0.00    -0.205 OA
BRANCH  20  23
ATOM     23  N   UNL d   1       1.054  -0.358  -2.104  0.00  0.00    -0.165 NA
ATOM     24  H   UNL d   1       1.944  -0.770  -2.380  0.00  0.00     0.147 HD
BRANCH  23  25
ATOM     25  C   UNL d   1      -0.092  -0.995  -2.551  0.00  0.00     0.117 A 
ATOM     26  N   UNL d   1      -1.172  -0.315  -2.936  0.00  0.00    -0.249 N 
ATOM     27  O   UNL d   1      -2.095  -1.274  -3.321  0.00  0.00    -0.241 OA
ATOM     28  HN  UNL d   1      -1.294   0.697  -2.946  1.00  0.00     0.196 HD
ATOM     29  C   UNL d   1      -1.558  -2.511  -3.148  0.00  0.00     0.075 A 
ATOM     30  C   UNL d   1      -0.272  -2.386  -2.682  0.00  0.00     0.079 A 
ATOM     31  C   UNL d   1      -2.431  -3.652  -3.470  0.00  0.00     0.079 C 
ENDBRANCH  23  25
ENDBRANCH  20  23
ENDBRANCH   1  20
TORSDOF 5
