REMARK  5 active torsions:
REMARK  status: ('A' for Active; 'I' for Inactive)
REMARK    1  A    between atoms: N_4  and  C_1 
REMARK    2  A    between atoms: N_5  and  C_2 
REMARK    3  A    between atoms: O_10  and  C_3 
REMARK    4  A    between atoms: C_6  and  C_7 
REMARK    5  A    between atoms: C_18  and  O_10 
ROOT
ATOM      1  C   UNL d   1       1.381  -0.048   0.003  0.00  0.00     0.140 A 
ATOM      2  C   UNL d   1      -0.768  -1.068  -0.018  0.00  0.00     0.140 A 
ATOM      3  C   UNL d   1       0.625  -1.225  -0.092  0.00  0.00     0.142 A 
ATOM      4  C   UNL d   1      -0.618   1.352   0.165  0.00  0.00     0.052 A 
ATOM      5  C   UNL d   1      -1.393   0.187   0.111  0.00  0.00     0.055 A 
ATOM      6  C   UNL d   1       0.777   1.224   0.102  0.00  0.00     0.055 A 
ENDROOT
BRANCH   3   7
ATOM      7  O   UNL d   1       1.091  -2.516  -0.133  0.00  0.00    -0.306 OA
BRANCH   7   8
ATOM      8  C   UNL d   1       2.205  -2.850  -0.860  0.00  0.00     0.076 A 
ATOM      9  C   UNL d   1       3.007  -3.847  -0.304  0.00  0.00     0.038 A 
ATOM     10  C   UNL d   1       4.231  -4.168  -0.887  0.00  0.00     0.009 A 
ATOM     11  C   UNL d   1       4.661  -3.493  -2.035  0.00  0.00    -0.062 A 
ATOM     12  C   UNL d   1       3.804  -2.567  -2.643  0.00  0.00     0.009 A 
ATOM     13  C   UNL d   1       6.040  -3.740  -2.570  0.00  0.00     0.048 C 
ATOM     14  C   UNL d   1       2.563  -2.268  -2.076  0.00  0.00     0.038 A 
ENDBRANCH   7   8
ENDBRANCH   3   7
BRANCH   2  15
ATOM     15  N   UNL d   1      -1.629  -2.236  -0.050  0.00  0.00    -0.113 N 
ATOM     16  O   UNL d   1      -1.608  -2.927  -1.077  0.00  0.00    -0.532 OA
ATOM     17  O   UNL d   1      -2.362  -2.412   0.932  0.00  0.00    -0.532 OA
ENDBRANCH   2  15
BRANCH   1  18
ATOM     18  N   UNL d   1       2.830  -0.056   0.087  0.00  0.00    -0.113 N 
ATOM     19  O   UNL d   1       3.336  -0.620   1.067  0.00  0.00    -0.532 OA
ATOM     20  O   UNL d   1       3.439   0.583  -0.781  0.00  0.00    -0.532 OA
ENDBRANCH   1  18
BRANCH   4  21
ATOM     21  C   UNL d   1      -1.246   2.719   0.319  0.00  0.00     0.417 C 
ATOM     22  F   UNL d   1      -2.601   2.681   0.417  0.00  0.00    -0.166 F 
ATOM     23  F   UNL d   1      -0.801   3.363   1.430  0.00  0.00    -0.166 F 
ATOM     24  F   UNL d   1      -0.962   3.532  -0.733  0.00  0.00    -0.166 F 
ENDBRANCH   4  21
TORSDOF 5
