REMARK  4 active torsions:
REMARK  status: ('A' for Active; 'I' for Inactive)
REMARK    1  A    between atoms: C_8  and  C_1 
REMARK    2  A    between atoms: C_10  and  C_2 
REMARK    3  A    between atoms: O_14  and  C_8 
REMARK    4  A    between atoms: C_20  and  O_14 
ROOT
ATOM      1  C   UNL d   1      -2.714  -1.376   0.115  0.00  0.00     0.073 A 
ATOM      2  C   UNL d   1      -1.360  -1.742  -0.077  0.00  0.00     0.005 A 
ATOM      3  C   UNL d   1      -0.387  -0.693  -0.186  0.00  0.00     0.004 A 
ATOM      4  N   UNL d   1      -2.127   0.962   0.095  0.00  0.00    -0.358 N 
ATOM      5  HN  UNL d   1      -2.410   1.940   0.148  1.00  0.00     0.166 HD
ATOM      6  C   UNL d   1      -3.055  -0.022   0.178  0.00  0.00     0.023 A 
ATOM      7  C   UNL d   1      -0.841   0.640  -0.056  0.00  0.00     0.043 A 
ATOM      8  C   UNL d   1       1.005  -0.883  -0.411  0.00  0.00     0.038 A 
ATOM      9  C   UNL d   1       0.069   1.688  -0.081  0.00  0.00     0.032 A 
ATOM     10  C   UNL d   1       1.901   0.185  -0.419  0.00  0.00     0.035 A 
ATOM     11  C   UNL d   1       1.437   1.476  -0.241  0.00  0.00     0.026 A 
ATOM     12 CL   UNL d   1       3.582  -0.102  -0.633  0.00  0.00    -0.084 Cl
ATOM     13  C   UNL d   1      -4.465   0.472   0.338  0.00  0.00     0.069 C 
ENDROOT
BRANCH   2  14
ATOM     14  C   UNL d   1      -0.950  -3.174  -0.164  0.00  0.00    -0.024 A 
ATOM     15  C   UNL d   1      -1.509  -4.038  -1.123  0.00  0.00     0.012 A 
ATOM     16  C   UNL d   1      -1.107  -5.376  -1.213  0.00  0.00     0.001 A 
ATOM     17  C   UNL d   1      -0.116  -5.868  -0.368  0.00  0.00     0.000 A 
ATOM     18  C   UNL d   1       0.452  -5.033   0.588  0.00  0.00     0.001 A 
ATOM     19  C   UNL d   1       0.020  -3.708   0.705  0.00  0.00     0.012 A 
ENDBRANCH   2  14
BRANCH   1  20
ATOM     20  C   UNL d   1      -3.755  -2.397   0.366  0.00  0.00     0.296 C 
ATOM     21  O   UNL d   1      -3.676  -3.244   1.236  0.00  0.00    -0.259 OA
BRANCH  20  22
ATOM     22  O   UNL d   1      -4.773  -2.225  -0.510  0.00  0.00    -0.318 OA
BRANCH  22  23
ATOM     23  C   UNL d   1      -5.891  -3.121  -0.362  0.00  0.00     0.174 C 
ATOM     24  C   UNL d   1      -6.713  -2.805   0.877  0.00  0.00     0.034 C 
ENDBRANCH  22  23
ENDBRANCH  20  22
ENDBRANCH   1  20
TORSDOF 4
