REMARK  3 active torsions:
REMARK  status: ('A' for Active; 'I' for Inactive)
REMARK       I    between atoms: N_2  and  C_1 
REMARK    1  A    between atoms: C_4  and  C_1 
REMARK    2  A    between atoms: C_3  and  N_2 
REMARK    3  A    between atoms: C_7  and  C_8 
ROOT
ATOM      1  C   UNL d   1       0.960  -0.025   0.032  0.00  0.00     0.256 C 
ATOM      2  N   UNL d   1       2.329   0.172   0.093  0.00  0.00    -0.323 N 
ATOM      3  O   UNL d   1       0.385  -1.078  -0.219  0.00  0.00    -0.267 OA
ATOM      4  H   UNL d   1       2.646   1.045   0.495  0.00  0.00     0.169 HD
ENDROOT
BRANCH   1   5
ATOM      5  C   UNL d   1       0.136   1.159   0.396  0.00  0.00     0.032 A 
ATOM      6  C   UNL d   1       0.506   2.458   0.047  0.00  0.00     0.017 A 
ATOM      7  C   UNL d   1      -0.294   3.538   0.444  0.00  0.00     0.009 A 
ATOM      8  C   UNL d   1      -1.472   3.348   1.193  0.00  0.00    -0.051 A 
ATOM      9  C   UNL d   1      -1.836   2.028   1.503  0.00  0.00     0.009 A 
ATOM     10  C   UNL d   1      -1.045   0.945   1.106  0.00  0.00     0.017 A 
BRANCH   8  11
ATOM     11  C   UNL d   1      -2.303   4.560   1.654  0.00  0.00    -0.024 C 
ATOM     12  C   UNL d   1      -3.555   4.175   2.475  0.00  0.00     0.019 C 
ATOM     13  C   UNL d   1      -1.431   5.467   2.549  0.00  0.00     0.019 C 
ATOM     14  C   UNL d   1      -2.788   5.369   0.433  0.00  0.00     0.019 C 
ENDBRANCH   8  11
ENDBRANCH   1   5
BRANCH   2  15
ATOM     15  C   UNL d   1       3.323  -0.800  -0.154  0.00  0.00     0.038 A 
ATOM     16  C   UNL d   1       3.063  -2.034  -0.756  0.00  0.00     0.053 A 
ATOM     17  C   UNL d   1       4.091  -2.965  -0.922  0.00  0.00     0.037 A 
ATOM     18 CL   UNL d   1       3.753  -4.486  -1.655  0.00  0.00    -0.084 Cl
ATOM     19  C   UNL d   1       5.384  -2.681  -0.497  0.00  0.00     0.048 A 
ATOM     20  C   UNL d   1       5.648  -1.443   0.078  0.00  0.00     0.037 A 
ATOM     21  C   UNL d   1       4.631  -0.499   0.241  0.00  0.00     0.053 A 
ATOM     22 CL   UNL d   1       7.242  -1.075   0.613  0.00  0.00    -0.084 Cl
ENDBRANCH   2  15
TORSDOF 3
