REMARK  4 active torsions:
REMARK  status: ('A' for Active; 'I' for Inactive)
REMARK    1  A    between atoms: N_2  and  C_1 
REMARK       I    between atoms: C_3  and  N_2 
REMARK    2  A    between atoms: C_8  and  C_3 
REMARK    3  A    between atoms: S_6  and  C_8 
REMARK    4  A    between atoms: C_9  and  S_6 
ROOT
ATOM      1  N   UNL d   1       2.028   2.590   1.137  0.00  0.00    -0.321 N 
ATOM      2  C   UNL d   1       1.358   3.171   0.076  0.00  0.00     0.231 C 
ATOM      3  O   UNL d   1       0.738   2.585  -0.806  0.00  0.00    -0.272 OA
ATOM      4  H   UNL d   1       2.441   3.227   1.814  0.00  0.00     0.169 HD
ENDROOT
BRANCH   2   5
ATOM      5  C   UNL d   1       1.368   4.699   0.104  0.00  0.00     0.182 C 
BRANCH   5   6
ATOM      6  S   UNL d   1       3.088   5.307   0.052  0.00  0.00    -0.121 SA
BRANCH   6   7
ATOM      7  C   UNL d   1       2.902   7.083  -0.004  0.00  0.00     0.001 A 
ATOM      8  C   UNL d   1       3.912   7.840   0.608  0.00  0.00     0.020 A 
ATOM      9  C   UNL d   1       3.905   9.237   0.543  0.00  0.00     0.025 A 
ATOM     10  C   UNL d   1       2.885   9.889  -0.143  0.00  0.00     0.034 A 
ATOM     11  C   UNL d   1       1.872   9.154  -0.754  0.00  0.00     0.025 A 
ATOM     12 CL   UNL d   1       2.891  11.605  -0.253  0.00  0.00    -0.084 Cl
ATOM     13  C   UNL d   1       1.881   7.753  -0.688  0.00  0.00     0.020 A 
ENDBRANCH   6   7
ENDBRANCH   5   6
ENDBRANCH   2   5
BRANCH   1  14
ATOM     14  C   UNL d   1       2.285   1.216   1.388  0.00  0.00     0.112 A 
ATOM     15  C   UNL d   1       1.950   0.133   0.571  0.00  0.00     0.146 A 
ATOM     16  F   UNL d   1       1.317   0.281  -0.597  0.00  0.00    -0.204 F 
ATOM     17  C   UNL d   1       2.291  -1.178   0.925  0.00  0.00     0.045 A 
ATOM     18  C   UNL d   1       2.977  -1.440   2.110  0.00  0.00     0.006 A 
ATOM     19  C   UNL d   1       3.320  -0.380   2.942  0.00  0.00     0.045 A 
ATOM     20  C   UNL d   1       2.975   0.922   2.576  0.00  0.00     0.146 A 
ATOM     21  F   UNL d   1       3.322   1.928   3.398  0.00  0.00    -0.204 F 
ENDBRANCH   1  14
TORSDOF 4
