REMARK  3 active torsions:
REMARK  status: ('A' for Active; 'I' for Inactive)
REMARK    1  A    between atoms: C_15  and  N_9 
REMARK    2  A    between atoms: C_17  and  C_15 
REMARK    3  A    between atoms: N_16  and  C_17 
ROOT
ATOM      1  C   UNL d   1       0.070  -0.750   0.080  0.00  0.00     0.101 A 
ATOM      2  C   UNL d   1       0.055   0.593   0.101  0.00  0.00     0.077 A 
ATOM      3  N   UNL d   1       1.279  -1.411  -0.037  0.00  0.00    -0.293 N 
ATOM      4  N   UNL d   1       2.473   0.629   0.006  0.00  0.00    -0.270 N 
ATOM      5  C   UNL d   1       2.511  -0.754  -0.079  0.00  0.00     0.332 A 
ATOM      6  C   UNL d   1       1.311   1.361   0.084  0.00  0.00     0.262 A 
ATOM      7  N   UNL d   1      -1.147  -1.421   0.170  0.00  0.00    -0.252 NA
ATOM      8  C   UNL d   1      -1.214   1.397   0.103  0.00  0.00     0.321 C 
ATOM      9  N   UNL d   1      -2.404   0.639  -0.333  0.00  0.00     0.107 N 
ATOM     10  C   UNL d   1      -2.376  -0.656   0.335  0.00  0.00     0.368 C 
ATOM     11  O   UNL d   1       3.572  -1.375  -0.178  0.00  0.00    -0.246 OA
ATOM     12  O   UNL d   1       1.282   2.593   0.149  0.00  0.00    -0.267 OA
ATOM     13  C   UNL d   1       1.344  -2.864  -0.081  0.00  0.00     0.162 C 
ATOM     14  C   UNL d   1       3.717   1.374   0.015  0.00  0.00     0.164 C 
ATOM     15  H   UNL d   1      -1.235  -2.113  -0.568  0.00  0.00     0.130 HD
ENDROOT
BRANCH   9  16
ATOM     16  C   UNL d   1      -3.655   1.366  -0.052  0.00  0.00     0.304 C 
BRANCH  16  17
ATOM     17  C   UNL d   1      -3.752   2.712  -0.818  0.00  0.00     0.301 C 
BRANCH  17  18
ATOM     18  N   UNL d   1      -5.002   3.470  -0.605  0.00  0.00     0.081 N 
ATOM     19  C   UNL d   1      -5.185   3.840   0.800  0.00  0.00     0.309 C 
ATOM     20  C   UNL d   1      -4.960   4.689  -1.425  0.00  0.00     0.309 C 
ENDBRANCH  17  18
ENDBRANCH  16  17
ENDBRANCH   9  16
TORSDOF 3
