REMARK  5 active torsions:
REMARK  status: ('A' for Active; 'I' for Inactive)
REMARK    1  A    between atoms: C_3  and  S_1 
REMARK    2  A    between atoms: N_8  and  S_1 
REMARK    3  A    between atoms: C_2  and  N_6 
REMARK    4  A    between atoms: N_6  and  N_9 
REMARK    5  A    between atoms: N_9  and  C_13 
ROOT
ATOM      1  C   UNL d   1       0.460  -1.752   0.324  0.00  0.00     0.074 A 
ATOM      2  C   UNL d   1       1.126  -2.790  -0.331  0.00  0.00     0.026 A 
ATOM      3  C   UNL d   1      -0.547  -2.031   1.246  0.00  0.00     0.026 A 
ATOM      4  C   UNL d   1      -0.245  -4.426   0.850  0.00  0.00     0.027 A 
ATOM      5  C   UNL d   1      -0.886  -3.362   1.510  0.00  0.00     0.026 A 
ATOM      6  C   UNL d   1       0.777  -4.119  -0.059  0.00  0.00     0.026 A 
ENDROOT
BRANCH   4   7
ATOM      7  N   UNL d   1      -0.538  -5.745   1.274  0.00  0.00    -0.204 NA
ATOM      8  H   UNL d   1      -1.479  -5.805   1.680  0.00  0.00     0.153 HD
BRANCH   7   9
ATOM      9  N   UNL d   1      -0.340  -6.757   0.312  0.00  0.00    -0.293 N 
ATOM     10  H   UNL d   1       0.633  -6.920   0.085  0.00  0.00     0.183 HD
BRANCH   9  11
ATOM     11  C   UNL d   1      -1.171  -7.857   0.363  0.00  0.00     0.180 C 
ATOM     12  S   UNL d   1      -2.678  -7.929   1.075  0.00  0.00    -0.040 SA
ATOM     13  N   UNL d   1      -0.684  -8.947  -0.287  0.00  0.00    -0.375 N 
ATOM     14  H   UNL d   1       0.284  -9.027  -0.561  0.00  0.00     0.158 HD
ATOM     15  H   UNL d   1      -1.216  -9.807  -0.220  0.00  0.00     0.158 HD
ENDBRANCH   9  11
ENDBRANCH   7   9
ENDBRANCH   4   7
BRANCH   1  16
ATOM     16  S   UNL d   1       0.937  -0.075   0.036  0.00  0.00     0.239 S 
ATOM     17  O   UNL d   1       1.949  -0.035  -0.997  0.00  0.00    -0.206 OA
ATOM     18  O   UNL d   1       1.097   0.588   1.307  0.00  0.00    -0.206 OA
BRANCH  16  19
ATOM     19  N   UNL d   1      -0.440   0.579  -0.668  0.00  0.00    -0.225 NA
ATOM     20  H   UNL d   1      -0.256   0.799  -1.648  0.00  0.00     0.136 HD
ATOM     21  H   UNL d   1      -0.751   1.385  -0.120  0.00  0.00     0.136 HD
ENDBRANCH  16  19
ENDBRANCH   1  16
TORSDOF 5
