REMARK  5 active torsions:
REMARK  status: ('A' for Active; 'I' for Inactive)
REMARK    1  A    between atoms: N_9  and  S_1 
REMARK    2  A    between atoms: C_12  and  S_1 
REMARK    3  A    between atoms: C_4  and  C_8 
REMARK    4  A    between atoms: C_15  and  C_5 
REMARK    5  A    between atoms: C_11  and  N_9 
ROOT
ATOM      1  C   UNL d   1       2.282   2.802  -1.036  0.00  0.00     0.039 A 
ATOM      2  C   UNL d   1       0.993   2.316  -1.322  0.00  0.00     0.037 A 
ATOM      3  C   UNL d   1       2.459   4.197  -0.918  0.00  0.00     0.018 A 
ATOM      4  C   UNL d   1      -0.078   3.214  -1.469  0.00  0.00     0.025 A 
ATOM      5  C   UNL d   1       1.395   5.083  -1.089  0.00  0.00     0.001 A 
ATOM      6  C   UNL d   1       0.126   4.590  -1.365  0.00  0.00     0.002 A 
ENDROOT
BRANCH   1   7
ATOM      7  C   UNL d   1       3.467   1.965  -0.892  0.00  0.00     0.184 A 
ATOM      8  N   UNL d   1       4.621   2.259  -0.333  0.00  0.00    -0.318 N 
ATOM      9  C   UNL d   1       5.389   1.153  -0.619  0.00  0.00     0.138 A 
ATOM     10  HN  UNL d   1       4.881   3.097   0.186  1.00  0.00     0.169 HD
ATOM     11  N   UNL d   1       4.753   0.219  -1.346  0.00  0.00    -0.242 N 
ATOM     12  O   UNL d   1       3.478   0.757  -1.527  0.00  0.00    -0.217 OA
ATOM     13  HN  UNL d   1       5.116  -0.672  -1.685  1.00  0.00     0.196 HD
BRANCH   9  14
ATOM     14  C   UNL d   1       6.784   1.064  -0.203  0.00  0.00     0.010 A 
ATOM     15  C   UNL d   1       7.300   1.981   0.727  0.00  0.00     0.017 A 
ATOM     16  C   UNL d   1       8.643   1.927   1.114  0.00  0.00     0.025 A 
ATOM     17  C   UNL d   1       9.480   0.956   0.569  0.00  0.00     0.034 A 
ATOM     18  C   UNL d   1       8.984   0.036  -0.352  0.00  0.00     0.025 A 
ATOM     19 CL   UNL d   1      11.136   0.898   1.031  0.00  0.00    -0.084 Cl
ATOM     20  C   UNL d   1       7.640   0.087  -0.735  0.00  0.00     0.017 A 
ENDBRANCH   9  14
ENDBRANCH   1   7
BRANCH   2  21
ATOM     21  N   UNL d   1       0.688   0.906  -1.372  0.00  0.00    -0.180 NA
ATOM     22  H   UNL d   1      -0.065   0.697  -2.030  0.00  0.00     0.146 HD
BRANCH  21  23
ATOM     23  S   UNL d   1       0.282   0.238   0.148  0.00  0.00     0.245 S 
ATOM     24  O   UNL d   1      -1.000   0.799   0.527  0.00  0.00    -0.206 OA
ATOM     25  O   UNL d   1       1.431   0.311   1.022  0.00  0.00    -0.206 OA
BRANCH  23  26
ATOM     26  C   UNL d   1       0.010  -1.466  -0.282  0.00  0.00     0.074 A 
ATOM     27  C   UNL d   1       1.080  -2.362  -0.277  0.00  0.00     0.025 A 
ATOM     28  C   UNL d   1       0.844  -3.716  -0.535  0.00  0.00     0.008 A 
ATOM     29  C   UNL d   1      -0.456  -4.178  -0.790  0.00  0.00    -0.062 A 
ATOM     30  C   UNL d   1      -1.519  -3.265  -0.799  0.00  0.00     0.008 A 
ATOM     31  C   UNL d   1      -0.701  -5.641  -1.022  0.00  0.00     0.048 C 
ATOM     32  C   UNL d   1      -1.290  -1.912  -0.540  0.00  0.00     0.025 A 
ENDBRANCH  23  26
ENDBRANCH  21  23
ENDBRANCH   2  21
TORSDOF 5
