REMARK  2 active torsions:
REMARK  status: ('A' for Active; 'I' for Inactive)
REMARK    1  A    between atoms: C_6  and  N_1 
REMARK    2  A    between atoms: N_7  and  C_4 
ROOT
ATOM      1  N   UNL d   1       0.059   0.884  -0.038  0.00  0.00    -0.249 N 
ATOM      2  C   UNL d   1      -1.109   0.163   0.027  0.00  0.00     0.265 A 
ATOM      3  C   UNL d   1       1.182   0.092  -0.007  0.00  0.00     0.233 A 
ATOM      4  C   UNL d   1      -0.757  -1.319  -0.006  0.00  0.00     0.323 A 
ATOM      5  C   UNL d   1       0.770  -1.348   0.050  0.00  0.00     0.149 A 
ATOM      6  O   UNL d   1      -2.248   0.603   0.086  0.00  0.00    -0.270 OA
ATOM      7  O   UNL d   1       2.353   0.448   0.014  0.00  0.00    -0.273 OA
ENDROOT
BRANCH   1   8
ATOM      8  C   UNL d   1       0.097   2.294  -0.094  0.00  0.00     0.057 A 
ATOM      9  C   UNL d   1      -0.487   3.071   0.936  0.00  0.00    -0.034 A 
ATOM     10  C   UNL d   1      -0.447   4.473   0.847  0.00  0.00     0.009 A 
ATOM     11  C   UNL d   1      -1.117   2.501   2.182  0.00  0.00     0.050 C 
ATOM     12  C   UNL d   1       0.165   5.106  -0.228  0.00  0.00     0.001 A 
ATOM     13  C   UNL d   1       0.738   4.347  -1.241  0.00  0.00     0.009 A 
ATOM     14  C   UNL d   1       0.705   2.942  -1.199  0.00  0.00    -0.034 A 
ATOM     15  C   UNL d   1       1.280   2.224  -2.393  0.00  0.00     0.050 C 
ENDBRANCH   1   8
BRANCH   4  16
ATOM     16  N   UNL d   1      -1.353  -2.067  -1.150  0.00  0.00     0.104 N 
ATOM     17  C   UNL d   1      -0.961  -1.544  -2.477  0.00  0.00     0.283 C 
ATOM     18  C   UNL d   1      -1.422  -2.425  -3.647  0.00  0.00     0.104 C 
ATOM     19  S   UNL d   1      -3.230  -2.541  -3.751  0.00  0.00    -0.166 SA
ATOM     20  C   UNL d   1      -3.521  -3.055  -2.032  0.00  0.00     0.104 C 
ATOM     21  C   UNL d   1      -2.832  -2.122  -1.028  0.00  0.00     0.283 C 
ENDBRANCH   4  16
TORSDOF 2
