REMARK  3 active torsions:
REMARK  status: ('A' for Active; 'I' for Inactive)
REMARK    1  A    between atoms: N_2  and  C_1 
REMARK    2  A    between atoms: C_5  and  C_11 
REMARK    3  A    between atoms: N_13  and  C_7 
ROOT
ATOM      1  C   UNL d   1       1.396  -0.463  -0.195  0.00  0.00     0.130 C 
ATOM      2  C   UNL d   1       0.523  -1.567  -0.176  0.00  0.00     0.063 C 
ATOM      3  C   UNL d   1       0.947   0.862  -0.170  0.00  0.00     0.052 C 
ATOM      4  C   UNL d   1      -0.421   1.110  -0.076  0.00  0.00    -0.005 C 
ATOM      5  C   UNL d   1      -0.852  -1.250  -0.267  0.00  0.00     0.033 C 
ATOM      6  C   UNL d   1      -1.329   0.068  -0.205  0.00  0.00     0.016 C 
ENDROOT
BRANCH   4   7
ATOM      7  C   UNL d   1      -0.875   2.484   0.244  0.00  0.00     0.069 C 
ATOM      8  N   UNL d   1      -1.748   3.047  -0.533  0.00  0.00    -0.296 N 
ATOM      9  N   UNL d   1      -2.004   4.374  -0.334  0.00  0.00    -0.265 N 
ATOM     10  HN  UNL d   1      -2.224   2.520  -1.265  1.00  0.00     0.187 HD
ATOM     11  C   UNL d   1      -1.265   5.219   0.464  0.00  0.00     0.271 C 
ATOM     12  H   UNL d   1      -2.651   4.808  -0.986  0.00  0.00     0.190 HD
ATOM     13  C   UNL d   1      -0.337   4.571   1.406  0.00  0.00     0.046 A 
ATOM     14  O   UNL d   1      -1.398   6.435   0.439  0.00  0.00    -0.266 OA
ATOM     15  C   UNL d   1      -0.246   3.188   1.394  0.00  0.00     0.009 A 
ATOM     16  C   UNL d   1       0.394   5.316   2.336  0.00  0.00     0.018 A 
ATOM     17  C   UNL d   1       0.456   2.528   2.413  0.00  0.00     0.015 A 
ATOM     18  C   UNL d   1       1.167   3.265   3.359  0.00  0.00     0.001 A 
ATOM     19  C   UNL d   1       1.164   4.659   3.299  0.00  0.00     0.001 A 
ENDBRANCH   4   7
BRANCH   1  20
ATOM     20  N   UNL d   1       2.829  -0.615  -0.067  0.00  0.00    -0.113 N 
ATOM     21  O   UNL d   1       3.275  -0.897   1.055  0.00  0.00    -0.532 OA
ATOM     22  O   UNL d   1       3.509  -0.361  -1.071  0.00  0.00    -0.532 OA
ENDBRANCH   1  20
BRANCH   2  23
ATOM     23  N   UNL d   1       0.926  -2.879   0.040  0.00  0.00    -0.379 N 
ATOM     24  C   UNL d   1       0.022  -3.804   0.739  0.00  0.00     0.123 C 
ATOM     25  C   UNL d   1       0.840  -4.745   1.620  0.00  0.00     0.020 C 
ATOM     26  C   UNL d   1       1.923  -5.459   0.819  0.00  0.00     0.003 C 
ATOM     27  C   UNL d   1       2.791  -4.455   0.062  0.00  0.00     0.020 C 
ATOM     28  C   UNL d   1       1.936  -3.527  -0.806  0.00  0.00     0.123 C 
ENDBRANCH   2  23
TORSDOF 3
