REMARK  3 active torsions:
REMARK  status: ('A' for Active; 'I' for Inactive)
REMARK    1  A    between atoms: N_7  and  C_4 
REMARK    2  A    between atoms: C_8  and  N_7 
REMARK    3  A    between atoms: O_19  and  C_14 
ROOT
ATOM      1  C   UNL d   1      -2.392  -0.714   0.164  0.00  0.00     0.098 A 
ATOM      2  C   UNL d   1      -1.266  -1.682   0.032  0.00  0.00     0.199 A 
ATOM      3  C   UNL d   1      -1.801   0.645   0.337  0.00  0.00     0.199 A 
ATOM      4  C   UNL d   1      -3.703  -1.016   0.110  0.00  0.00     0.113 C 
ATOM      5  C   UNL d   1      -0.042  -0.876   0.038  0.00  0.00     0.029 A 
ATOM      6  C   UNL d   1      -0.352   0.470   0.193  0.00  0.00     0.029 A 
ATOM      7  C   UNL d   1      -4.137  -2.382   0.020  0.00  0.00     0.113 C 
ATOM      8  N   UNL d   1      -4.595  -3.447  -0.059  0.00  0.00    -0.190 NA
ATOM      9  O   UNL d   1      -2.346   1.695   0.600  0.00  0.00    -0.286 OA
ATOM     10  O   UNL d   1      -1.315  -2.886  -0.085  0.00  0.00    -0.286 OA
ATOM     11  C   UNL d   1       0.631   1.445   0.201  0.00  0.00     0.016 A 
ATOM     12  C   UNL d   1       1.265  -1.309  -0.105  0.00  0.00     0.016 A 
ATOM     13  C   UNL d   1       1.957   1.027   0.048  0.00  0.00     0.001 A 
ATOM     14  C   UNL d   1       2.272  -0.338  -0.098  0.00  0.00     0.001 A 
ENDROOT
BRANCH   4  15
ATOM     15  N   UNL d   1      -4.786  -0.126   0.137  0.00  0.00    -0.247 NA
ATOM     16  H   UNL d   1      -5.690  -0.611   0.167  0.00  0.00     0.134 HD
BRANCH  15  17
ATOM     17  C   UNL d   1      -4.906   0.954  -0.787  0.00  0.00     0.048 A 
ATOM     18  C   UNL d   1      -4.389   0.901  -2.087  0.00  0.00     0.050 A 
ATOM     19  C   UNL d   1      -4.516   2.004  -2.935  0.00  0.00     0.035 A 
ATOM     20 CL   UNL d   1      -3.819   1.946  -4.508  0.00  0.00    -0.084 Cl
ATOM     21  C   UNL d   1      -5.193   3.150  -2.520  0.00  0.00     0.026 A 
ATOM     22  C   UNL d   1      -5.780   3.184  -1.256  0.00  0.00     0.040 A 
ATOM     23  C   UNL d   1      -5.640   2.090  -0.410  0.00  0.00     0.087 A 
BRANCH  23  24
ATOM     24  O   UNL d   1      -6.202   2.165   0.834  0.00  0.00    -0.359 OA
ATOM     25  H   UNL d   1      -5.746   1.487   1.367  0.00  0.00     0.217 HD
ENDBRANCH  23  24
ENDBRANCH  15  17
ENDBRANCH   4  15
TORSDOF 3
