REMARK  4 active torsions:
REMARK  status: ('A' for Active; 'I' for Inactive)
REMARK    1  A    between atoms: C_10  and  C_3 
REMARK    2  A    between atoms: C_14  and  C_4 
REMARK    3  A    between atoms: N_7  and  C_12 
REMARK    4  A    between atoms: N_9  and  C_11 
ROOT
ATOM      1  N   UNL d   1       0.671   0.208  -0.936  0.00  0.00    -0.319 N 
ATOM      2  HN  UNL d   1       1.219   0.413  -1.772  1.00  0.00     0.169 HD
ATOM      3  C   UNL d   1       0.234   1.077   0.044  0.00  0.00     0.138 A 
ATOM      4  C   UNL d   1       0.205  -0.950  -0.524  0.00  0.00     0.182 A 
ATOM      5  N   UNL d   1      -0.470   0.483   1.021  0.00  0.00    -0.242 N 
ATOM      6  HN  UNL d   1      -0.891   0.913   1.845  1.00  0.00     0.196 HD
ATOM      7  O   UNL d   1      -0.489  -0.856   0.647  0.00  0.00    -0.217 OA
ENDROOT
BRANCH   3   8
ATOM      8  C   UNL d   1       0.515   2.509   0.006  0.00  0.00     0.012 A 
ATOM      9  C   UNL d   1       1.228   3.060  -1.073  0.00  0.00     0.045 A 
ATOM     10  C   UNL d   1       1.502   4.437  -1.135  0.00  0.00     0.039 A 
ATOM     11  C   UNL d   1       1.061   5.260  -0.088  0.00  0.00     0.030 A 
ATOM     12  C   UNL d   1       0.351   4.721   0.987  0.00  0.00     0.003 A 
ATOM     13  C   UNL d   1       0.077   3.355   1.033  0.00  0.00     0.015 A 
BRANCH  10  14
ATOM     14  N   UNL d   1       2.204   4.989  -2.252  0.00  0.00    -0.333 N 
ATOM     15  C   UNL d   1       2.582   6.311  -2.421  0.00  0.00     0.096 A 
ATOM     16  C   UNL d   1       3.209   6.458  -3.639  0.00  0.00     0.019 A 
ATOM     17  C   UNL d   1       3.235   5.191  -4.249  0.00  0.00     0.019 A 
ATOM     18  C   UNL d   1       2.626   4.310  -3.382  0.00  0.00     0.096 A 
ENDBRANCH  10  14
ENDBRANCH   3   8
BRANCH   4  19
ATOM     19  C   UNL d   1       0.324  -2.279  -1.113  0.00  0.00     0.017 A 
ATOM     20  C   UNL d   1       1.069  -2.463  -2.291  0.00  0.00     0.018 A 
ATOM     21  C   UNL d   1       1.201  -3.732  -2.869  0.00  0.00     0.037 A 
ATOM     22  C   UNL d   1       0.581  -4.833  -2.266  0.00  0.00     0.102 A 
ATOM     23  C   UNL d   1      -0.169  -4.670  -1.096  0.00  0.00     0.037 A 
ATOM     24  C   UNL d   1      -0.293  -3.398  -0.527  0.00  0.00     0.018 A 
BRANCH  22  25
ATOM     25  N   UNL d   1       0.716  -6.169  -2.861  0.00  0.00    -0.116 N 
ATOM     26  O   UNL d   1       1.391  -6.272  -3.896  0.00  0.00    -0.532 OA
ATOM     27  O   UNL d   1       0.149  -7.113  -2.293  0.00  0.00    -0.532 OA
ENDBRANCH  22  25
ENDBRANCH   4  19
TORSDOF 4
