REMARK  4 active torsions:
REMARK  status: ('A' for Active; 'I' for Inactive)
REMARK    1  A    between atoms: O_6  and  C_1 
REMARK    2  A    between atoms: O_7  and  C_1 
REMARK    3  A    between atoms: C_4  and  O_6 
REMARK    4  A    between atoms: C_5  and  O_7 
ROOT
ATOM      1  C   UNL d   1       1.050  -0.085   0.041  0.00  0.00     0.351 C 
ENDROOT
BRANCH   1   2
ATOM      2  O   UNL d   1       0.567   1.146   0.593  0.00  0.00    -0.326 OA
BRANCH   2   3
ATOM      3  C   UNL d   1      -0.797   1.225   0.702  0.00  0.00     0.071 A 
ATOM      4  C   UNL d   1      -1.275   2.005   1.757  0.00  0.00     0.038 A 
ATOM      5  C   UNL d   1      -2.651   2.158   1.957  0.00  0.00     0.026 A 
ATOM      6  C   UNL d   1      -3.547   1.541   1.088  0.00  0.00     0.034 A 
ATOM      7  C   UNL d   1      -3.080   0.780   0.020  0.00  0.00     0.026 A 
ATOM      8 CL   UNL d   1      -5.240   1.727   1.327  0.00  0.00    -0.084 Cl
ATOM      9  C   UNL d   1      -1.704   0.624  -0.176  0.00  0.00     0.038 A 
ENDBRANCH   2   3
ENDBRANCH   1   2
BRANCH   1  10
ATOM     10  O   UNL d   1       2.480  -0.137   0.116  0.00  0.00    -0.326 OA
BRANCH  10  11
ATOM     11  C   UNL d   1       3.045  -1.210  -0.523  0.00  0.00     0.071 A 
ATOM     12  C   UNL d   1       4.319  -0.995  -1.054  0.00  0.00     0.038 A 
ATOM     13  C   UNL d   1       4.990  -2.024  -1.721  0.00  0.00     0.026 A 
ATOM     14  C   UNL d   1       4.391  -3.275  -1.841  0.00  0.00     0.034 A 
ATOM     15  C   UNL d   1       3.130  -3.505  -1.296  0.00  0.00     0.026 A 
ATOM     16 CL   UNL d   1       5.212  -4.547  -2.656  0.00  0.00    -0.084 Cl
ATOM     17  C   UNL d   1       2.458  -2.474  -0.633  0.00  0.00     0.038 A 
ENDBRANCH  10  11
ENDBRANCH   1  10
TORSDOF 4
