REMARK  3 active torsions:
REMARK  status: ('A' for Active; 'I' for Inactive)
REMARK    1  A    between atoms: C_10  and  C_5 
REMARK    2  A    between atoms: C_11  and  C_7 
REMARK    3  A    between atoms: C_12  and  C_8 
ROOT
ATOM      1  N   UNL d   1      -0.268   1.508  -0.045  0.00  0.00    -0.300 N 
ATOM      2  HN  UNL d   1      -0.429   2.514  -0.096  1.00  0.00     0.187 HD
ATOM      3  N   UNL d   1       1.049   1.131  -0.042  0.00  0.00    -0.303 N 
ATOM      4  HN  UNL d   1       1.719   1.899  -0.009  1.00  0.00     0.186 HD
ATOM      5  C   UNL d   1      -0.556  -1.596  -0.025  0.00  0.00    -0.040 A 
ATOM      6  C   UNL d   1      -1.520  -0.679   0.014  0.00  0.00     0.040 A 
ATOM      7  C   UNL d   1      -1.333   0.789   0.006  0.00  0.00     0.059 A 
ATOM      8  C   UNL d   1       1.569  -0.048  -0.075  0.00  0.00     0.040 A 
ATOM      9  C   UNL d   1       0.904  -1.404  -0.141  0.00  0.00     0.099 A 
ENDROOT
BRANCH   5  10
ATOM     10  C   UNL d   1      -0.977  -3.010   0.004  0.00  0.00    -0.029 A 
ATOM     11  C   UNL d   1      -1.228  -3.693  -1.192  0.00  0.00     0.013 A 
ATOM     12  C   UNL d   1      -1.629  -5.030  -1.164  0.00  0.00     0.024 A 
ATOM     13  C   UNL d   1      -1.779  -5.682   0.059  0.00  0.00     0.034 A 
ATOM     14  C   UNL d   1      -1.532  -5.011   1.255  0.00  0.00     0.024 A 
ATOM     15 CL   UNL d   1      -2.276  -7.328   0.091  0.00  0.00    -0.084 Cl
ATOM     16  C   UNL d   1      -1.131  -3.673   1.228  0.00  0.00     0.013 A 
ENDBRANCH   5  10
BRANCH   7  17
ATOM     17  C   UNL d   1      -2.638   1.561   0.065  0.00  0.00    -0.008 A 
ATOM     18  C   UNL d   1      -3.765   1.078   0.752  0.00  0.00     0.014 A 
ATOM     19  C   UNL d   1      -4.951   1.814   0.780  0.00  0.00     0.001 A 
ATOM     20  C   UNL d   1      -5.016   3.055   0.152  0.00  0.00     0.000 A 
ATOM     21  C   UNL d   1      -3.895   3.561  -0.506  0.00  0.00     0.001 A 
ATOM     22  C   UNL d   1      -2.712   2.817  -0.551  0.00  0.00     0.014 A 
ENDBRANCH   7  17
BRANCH   8  23
ATOM     23  C   UNL d   1       3.082  -0.113  -0.021  0.00  0.00    -0.012 A 
ATOM     24  C   UNL d   1       3.793   0.902   0.632  0.00  0.00     0.013 A 
ATOM     25  C   UNL d   1       5.181   0.808   0.775  0.00  0.00     0.001 A 
ATOM     26  C   UNL d   1       5.868  -0.290   0.261  0.00  0.00     0.000 A 
ATOM     27  C   UNL d   1       5.174  -1.288  -0.417  0.00  0.00     0.001 A 
ATOM     28  C   UNL d   1       3.789  -1.198  -0.564  0.00  0.00     0.013 A 
ENDBRANCH   8  23
TORSDOF 3
