REMARK  4 active torsions:
REMARK  status: ('A' for Active; 'I' for Inactive)
REMARK    1  A    between atoms: C_8  and  N_1 
REMARK    2  A    between atoms: C_7  and  C_9 
REMARK    3  A    between atoms: O_15  and  C_7 
REMARK    4  A    between atoms: C_18  and  O_15 
ROOT
ATOM      1  C   UNL d   1       2.133  -1.390  -0.010  0.00  0.00     0.056 A 
ATOM      2  C   UNL d   1       4.454  -2.970  -0.136  0.00  0.00     0.039 A 
ATOM      3  C   UNL d   1       2.289  -2.337  -1.034  0.00  0.00     0.032 A 
ATOM      4  C   UNL d   1       3.123  -1.267   0.970  0.00  0.00     0.032 A 
ATOM      5  C   UNL d   1       3.453  -3.112  -1.104  0.00  0.00     0.020 A 
ATOM      6  C   UNL d   1       4.279  -2.045   0.904  0.00  0.00     0.020 A 
ENDROOT
BRANCH   1   7
ATOM      7  N   UNL d   1       0.950  -0.603   0.047  0.00  0.00    -0.261 N 
ATOM      8  N   UNL d   1      -0.204  -1.086  -0.488  0.00  0.00    -0.298 N 
ATOM      9  C   UNL d   1      -1.157  -0.248  -0.073  0.00  0.00     0.024 C 
ATOM     10  HN  UNL d   1      -0.316  -1.911  -1.078  1.00  0.00     0.187 HD
ATOM     11  C   UNL d   1      -2.586  -0.509  -0.365  0.00  0.00     0.070 C 
ATOM     12  C   UNL d   1      -0.613   0.858   0.603  0.00  0.00     0.052 C 
ATOM     13  C   UNL d   1       0.750   0.650   0.614  0.00  0.00     0.032 C 
ATOM     14  C   UNL d   1       1.810   1.593   1.056  0.00  0.00     0.070 C 
ENDBRANCH   1   7
BRANCH   2  15
ATOM     15  C   UNL d   1       5.637  -3.867  -0.188  0.00  0.00     0.293 C 
ATOM     16  O   UNL d   1       5.780  -4.763  -1.006  0.00  0.00    -0.259 OA
BRANCH  15  17
ATOM     17  O   UNL d   1       6.455  -3.599   0.860  0.00  0.00    -0.318 OA
BRANCH  17  18
ATOM     18  C   UNL d   1       7.399  -4.621   1.202  0.00  0.00     0.174 C 
ATOM     19  C   UNL d   1       6.731  -5.569   2.181  0.00  0.00     0.034 C 
ENDBRANCH  17  18
ENDBRANCH  15  17
ENDBRANCH   2  15
TORSDOF 4
