REMARK  4 active torsions:
REMARK  status: ('A' for Active; 'I' for Inactive)
REMARK    1  A    between atoms: C_2  and  N_1 
REMARK       I    between atoms: C_3  and  N_1 
REMARK    2  A    between atoms: C_4  and  C_3 
REMARK    3  A    between atoms: C_12  and  C_5 
REMARK    4  A    between atoms: C_16  and  C_9 
ROOT
ATOM      1  C   UNL d   1       0.473   0.252   1.322  0.00  0.00     0.048 A 
ATOM      2  C   UNL d   1       0.808   1.348   2.156  0.00  0.00    -0.027 A 
ATOM      3  C   UNL d   1      -0.691  -0.515   1.565  0.00  0.00    -0.031 A 
ATOM      4  C   UNL d   1      -0.084   1.682   3.192  0.00  0.00     0.010 A 
ATOM      5  C   UNL d   1      -1.254   0.957   3.410  0.00  0.00     0.001 A 
ATOM      6  C   UNL d   1      -1.550  -0.139   2.606  0.00  0.00     0.009 A 
ENDROOT
BRANCH   1   7
ATOM      7  N   UNL d   1       1.195   0.018   0.139  0.00  0.00    -0.322 N 
ATOM      8  C   UNL d   1       2.426  -0.627   0.108  0.00  0.00     0.263 C 
ATOM      9  O   UNL d   1       3.003  -1.034   1.110  0.00  0.00    -0.267 OA
ATOM     10  H   UNL d   1       0.645  -0.158  -0.692  0.00  0.00     0.169 HD
BRANCH   8  11
ATOM     11  C   UNL d   1       2.963  -0.823  -1.241  0.00  0.00     0.072 A 
ATOM     12  S   UNL d   1       2.282  -0.037  -2.610  0.00  0.00    -0.097 SA
ATOM     13  C   UNL d   1       3.463  -0.679  -3.661  0.00  0.00     0.050 A 
ATOM     14  C   UNL d   1       4.346  -1.502  -3.002  0.00  0.00     0.009 A 
ATOM     15  C   UNL d   1       4.057  -1.590  -1.608  0.00  0.00     0.025 A 
ENDBRANCH   8  11
ENDBRANCH   1   7
BRANCH   2  16
ATOM     16  C   UNL d   1       2.032   2.230   1.911  0.00  0.00     0.013 C 
ATOM     17  C   UNL d   1       1.669   3.407   1.000  0.00  0.00     0.015 C 
ATOM     18  C   UNL d   1       2.693   2.754   3.196  0.00  0.00     0.015 C 
ENDBRANCH   2  16
BRANCH   3  19
ATOM     19  C   UNL d   1      -1.001  -1.795   0.817  0.00  0.00     0.036 C 
ATOM     20  C   UNL d   1      -1.924  -1.614  -0.376  0.00  0.00     0.010 C 
ENDBRANCH   3  19
TORSDOF 4
