REMARK  2 active torsions:
REMARK  status: ('A' for Active; 'I' for Inactive)
REMARK    1  A    between atoms: C_6  and  C_1 
REMARK    2  A    between atoms: O_10  and  C_6 
ROOT
ATOM      1  C   UNL d   1      -0.000  -1.485  -0.039  0.00  0.00     0.062 A 
ATOM      2  N   UNL d   1      -0.006   1.266   0.079  0.00  0.00    -0.355 N 
ATOM      3  HN  UNL d   1      -0.009   2.285   0.129  1.00  0.00     0.166 HD
ATOM      4  C   UNL d   1      -1.241  -0.800  -0.044  0.00  0.00     0.008 A 
ATOM      5  C   UNL d   1       1.237  -0.798   0.018  0.00  0.00     0.008 A 
ATOM      6  C   UNL d   1      -1.168   0.599   0.028  0.00  0.00     0.044 A 
ATOM      7  C   UNL d   1       1.159   0.602   0.065  0.00  0.00     0.044 A 
ATOM      8  C   UNL d   1      -2.520  -1.414  -0.118  0.00  0.00     0.015 A 
ATOM      9  C   UNL d   1       2.518  -1.411   0.043  0.00  0.00     0.015 A 
ATOM     10  C   UNL d   1       2.333   1.342   0.107  0.00  0.00     0.030 A 
ATOM     11  C   UNL d   1      -2.344   1.335   0.052  0.00  0.00     0.030 A 
ATOM     12  C   UNL d   1       3.683  -0.647   0.097  0.00  0.00     0.001 A 
ATOM     13  C   UNL d   1      -3.688  -0.654  -0.085  0.00  0.00     0.001 A 
ATOM     14  C   UNL d   1       3.590   0.737   0.123  0.00  0.00     0.002 A 
ATOM     15  C   UNL d   1      -3.599   0.726   0.004  0.00  0.00     0.002 A 
ENDROOT
BRANCH   1  16
ATOM     16  C   UNL d   1       0.012  -2.960  -0.102  0.00  0.00     0.178 C 
ATOM     17  O   UNL d   1       0.482  -3.592  -1.028  0.00  0.00    -0.646 OA
BRANCH  16  18
ATOM     18  O   UNL d   1      -0.518  -3.524   1.007  0.00  0.00    -0.773 OA
ATOM     19  H   UNL d   1      -0.818  -2.888   1.685  0.00  0.00     0.167 HD
ENDBRANCH  16  18
ENDBRANCH   1  16
TORSDOF 2
