REMARK  5 active torsions:
REMARK  status: ('A' for Active; 'I' for Inactive)
REMARK    1  A    between atoms: N_2  and  S_1 
REMARK    2  A    between atoms: C_10  and  S_1 
REMARK    3  A    between atoms: C_3  and  N_2 
REMARK       I    between atoms: C_4  and  N_11 
REMARK    4  A    between atoms: C_8  and  C_4 
REMARK    5  A    between atoms: N_11  and  C_19 
ROOT
ATOM      1  C   UNL d   1       0.375   0.351   1.416  0.00  0.00     0.075 A 
ATOM      2  C   UNL d   1      -0.160  -0.741   2.103  0.00  0.00     0.027 A 
ATOM      3  C   UNL d   1       0.478   1.594   2.039  0.00  0.00     0.027 A 
ATOM      4  C   UNL d   1      -0.448   0.647   4.079  0.00  0.00     0.035 A 
ATOM      5  C   UNL d   1      -0.583  -0.586   3.427  0.00  0.00     0.031 A 
ATOM      6  C   UNL d   1       0.059   1.738   3.365  0.00  0.00     0.031 A 
ENDROOT
BRANCH   1   7
ATOM      7  S   UNL d   1       1.067   0.117  -0.199  0.00  0.00     0.247 S 
ATOM      8  O   UNL d   1       2.017   1.183  -0.441  0.00  0.00    -0.205 OA
ATOM      9  O   UNL d   1       1.471  -1.267  -0.340  0.00  0.00    -0.205 OA
BRANCH   7  10
ATOM     10  N   UNL d   1      -0.228   0.437  -1.232  0.00  0.00    -0.165 NA
ATOM     11  H   UNL d   1       0.124   1.022  -1.986  0.00  0.00     0.147 HD
BRANCH  10  12
ATOM     12  C   UNL d   1      -1.032  -0.635  -1.591  0.00  0.00     0.117 A 
ATOM     13  N   UNL d   1      -2.077  -1.016  -0.855  0.00  0.00    -0.249 N 
ATOM     14  O   UNL d   1      -2.646  -2.077  -1.537  0.00  0.00    -0.241 OA
ATOM     15  HN  UNL d   1      -2.391  -0.610   0.026  1.00  0.00     0.196 HD
ATOM     16  C   UNL d   1      -1.926  -2.325  -2.665  0.00  0.00     0.075 A 
ATOM     17  C   UNL d   1      -0.895  -1.422  -2.751  0.00  0.00     0.079 A 
ATOM     18  C   UNL d   1      -2.386  -3.450  -3.498  0.00  0.00     0.079 C 
ENDBRANCH  10  12
ENDBRANCH   7  10
ENDBRANCH   1   7
BRANCH   4  19
ATOM     19  N   UNL d   1      -0.816   0.704   5.440  0.00  0.00    -0.323 N 
ATOM     20  C   UNL d   1      -0.614   1.755   6.316  0.00  0.00     0.257 C 
ATOM     21  O   UNL d   1      -0.111   2.843   6.045  0.00  0.00    -0.267 OA
ATOM     22  H   UNL d   1      -1.188  -0.153   5.831  0.00  0.00     0.169 HD
BRANCH  20  23
ATOM     23  C   UNL d   1      -1.113   1.556   7.705  0.00  0.00     0.054 A 
ATOM     24  C   UNL d   1      -1.052   0.350   8.415  0.00  0.00     0.049 A 
ATOM     25 CL   UNL d   1      -0.263  -1.067   7.816  0.00  0.00    -0.083 Cl
ATOM     26  C   UNL d   1      -1.619   0.262   9.693  0.00  0.00     0.025 A 
ATOM     27  C   UNL d   1      -2.226   1.375  10.277  0.00  0.00     0.002 A 
ATOM     28  C   UNL d   1      -2.245   2.590   9.599  0.00  0.00     0.001 A 
ATOM     29  C   UNL d   1      -1.687   2.682   8.323  0.00  0.00     0.019 A 
ENDBRANCH  20  23
ENDBRANCH   4  19
TORSDOF 5
