REMARK  6 active torsions:
REMARK  status: ('A' for Active; 'I' for Inactive)
REMARK    1  A    between atoms: C_4  and  C_1 
REMARK       I    between atoms: N_8  and  C_4 
REMARK    2  A    between atoms: C_7  and  N_9 
REMARK    3  A    between atoms: N_10  and  C_7 
REMARK    4  A    between atoms: N_9  and  N_8 
REMARK    5  A    between atoms: C_13  and  N_10 
REMARK    6  A    between atoms: O_19  and  C_16 
ROOT
ATOM      1  C   UNL d   1       3.585  -0.326  -0.679  0.00  0.00     0.278 C 
ATOM      2  N   UNL d   1       4.299  -1.483  -0.950  0.00  0.00    -0.263 N 
ATOM      3  O   UNL d   1       2.709  -0.352   0.191  0.00  0.00    -0.265 OA
ATOM      4  H   UNL d   1       5.121  -1.476  -1.551  0.00  0.00     0.190 HD
ENDROOT
BRANCH   2   5
ATOM      5  N   UNL d   1       4.239  -2.509   0.008  0.00  0.00    -0.273 N 
ATOM      6  H   UNL d   1       3.492  -2.434   0.700  0.00  0.00     0.189 HD
BRANCH   5   7
ATOM      7  C   UNL d   1       5.031  -3.618  -0.049  0.00  0.00     0.191 C 
ATOM      8  S   UNL d   1       5.809  -4.149  -1.434  0.00  0.00    -0.039 SA
BRANCH   7   9
ATOM      9  N   UNL d   1       5.200  -4.337   1.103  0.00  0.00    -0.332 N 
ATOM     10  H   UNL d   1       5.605  -5.253   0.935  0.00  0.00     0.168 HD
BRANCH   9  11
ATOM     11  C   UNL d   1       5.308  -3.882   2.443  0.00  0.00     0.036 A 
ATOM     12  C   UNL d   1       5.179  -2.546   2.840  0.00  0.00     0.066 A 
ATOM     13  C   UNL d   1       5.446  -2.158   4.158  0.00  0.00     0.070 A 
ATOM     14  C   UNL d   1       5.841  -3.117   5.089  0.00  0.00     0.037 A 
ATOM     15  C   UNL d   1       5.959  -4.454   4.714  0.00  0.00     0.005 A 
ATOM     16  C   UNL d   1       5.689  -4.833   3.398  0.00  0.00     0.029 A 
BRANCH  13  17
ATOM     17  O   UNL d   1       5.389  -0.877   4.640  0.00  0.00    -0.356 OA
ATOM     18  C   UNL d   1       5.006   0.143   3.723  0.00  0.00     0.210 C 
ENDBRANCH  13  17
ENDBRANCH   9  11
ENDBRANCH   7   9
ENDBRANCH   5   7
ENDBRANCH   2   5
BRANCH   1  19
ATOM     19  C   UNL d   1       3.951   0.870  -1.428  0.00  0.00     0.097 A 
ATOM     20  S   UNL d   1       2.953   2.252  -1.234  0.00  0.00    -0.082 SA
ATOM     21  C   UNL d   1       3.940   3.232  -2.234  0.00  0.00     0.017 A 
ATOM     22  C   UNL d   1       3.740   4.594  -2.538  0.00  0.00     0.020 A 
ATOM     23  C   UNL d   1       5.024   2.514  -2.741  0.00  0.00     0.004 A 
ATOM     24  C   UNL d   1       4.655   5.247  -3.365  0.00  0.00     0.001 A 
ATOM     25  C   UNL d   1       5.743   4.564  -3.883  0.00  0.00     0.001 A 
ATOM     26  C   UNL d   1       5.934   3.211  -3.584  0.00  0.00     0.014 A 
ATOM     27  C   UNL d   1       5.006   1.147  -2.272  0.00  0.00     0.068 A 
ATOM     28 CL   UNL d   1       6.251   0.047  -2.732  0.00  0.00    -0.082 Cl
ENDBRANCH   1  19
TORSDOF 6
