REMARK  6 active torsions:
REMARK  status: ('A' for Active; 'I' for Inactive)
REMARK    1  A    between atoms: N_2  and  C_1 
REMARK    2  A    between atoms: N_5  and  C_3 
REMARK    3  A    between atoms: C_4  and  C_9 
REMARK       I    between atoms: C_8  and  N_7 
REMARK    4  A    between atoms: C_17  and  C_8 
REMARK    5  A    between atoms: S_20  and  C_17 
REMARK    6  A    between atoms: C_24  and  S_20 
ROOT
ATOM      1  N   UNL d   1       0.906  -2.686   0.024  0.00  0.00    -0.376 N 
ATOM      2  N   UNL d   1       2.175  -5.017  -1.059  0.00  0.00    -0.348 N 
ATOM      3  C   UNL d   1       2.211  -6.399  -1.094  0.00  0.00     0.229 C 
ATOM      4  C   UNL d   1       1.848  -3.438   0.890  0.00  0.00     0.143 C 
ATOM      5  C   UNL d   1       0.244  -3.529  -0.993  0.00  0.00     0.143 C 
ATOM      6  C   UNL d   1       2.840  -4.294   0.043  0.00  0.00     0.145 C 
ATOM      7  C   UNL d   1       1.323  -4.154  -1.880  0.00  0.00     0.145 C 
ATOM      8  O   UNL d   1       2.929  -7.031  -0.311  0.00  0.00    -0.273 OA
ENDROOT
BRANCH   1   9
ATOM      9  C   UNL d   1       0.654  -1.327   0.075  0.00  0.00     0.063 A 
ATOM     10  C   UNL d   1       0.630  -0.503   1.218  0.00  0.00     0.130 A 
ATOM     11  C   UNL d   1       0.294   0.871   1.172  0.00  0.00     0.054 A 
ATOM     12  C   UNL d   1      -0.030   1.485  -0.041  0.00  0.00     0.050 A 
ATOM     13  C   UNL d   1       0.027   0.708  -1.199  0.00  0.00     0.018 A 
ATOM     14  C   UNL d   1       0.373  -0.648  -1.133  0.00  0.00     0.032 A 
BRANCH  10  15
ATOM     15  N   UNL d   1       0.885  -1.026   2.542  0.00  0.00    -0.113 N 
ATOM     16  O   UNL d   1       0.107  -1.883   2.990  0.00  0.00    -0.532 OA
ATOM     17  O   UNL d   1       1.839  -0.536   3.168  0.00  0.00    -0.532 OA
ENDBRANCH  10  15
BRANCH  12  18
ATOM     18  C   UNL d   1      -0.444   2.930  -0.132  0.00  0.00     0.417 C 
ATOM     19  F   UNL d   1      -0.491   3.558   1.074  0.00  0.00    -0.166 F 
ATOM     20  F   UNL d   1       0.400   3.662  -0.909  0.00  0.00    -0.166 F 
ATOM     21  F   UNL d   1      -1.681   3.078  -0.681  0.00  0.00    -0.166 F 
ENDBRANCH  12  18
ENDBRANCH   1   9
BRANCH   3  22
ATOM     22  C   UNL d   1       1.273  -7.181  -2.006  0.00  0.00     0.182 C 
BRANCH  22  23
ATOM     23  S   UNL d   1       1.457  -6.951  -3.798  0.00  0.00    -0.121 SA
BRANCH  23  24
ATOM     24  C   UNL d   1       3.107  -7.454  -4.231  0.00  0.00     0.001 A 
ATOM     25  C   UNL d   1       4.078  -7.952  -3.361  0.00  0.00     0.020 A 
ATOM     26  C   UNL d   1       5.361  -8.263  -3.832  0.00  0.00     0.025 A 
ATOM     27  C   UNL d   1       5.672  -8.098  -5.180  0.00  0.00     0.034 A 
ATOM     28  C   UNL d   1       4.709  -7.633  -6.066  0.00  0.00     0.025 A 
ATOM     29 CL   UNL d   1       7.250  -8.472  -5.752  0.00  0.00    -0.084 Cl
ATOM     30  C   UNL d   1       3.436  -7.312  -5.590  0.00  0.00     0.020 A 
ENDBRANCH  23  24
ENDBRANCH  22  23
ENDBRANCH   3  22
TORSDOF 6
