REMARK  13 active torsions:
REMARK  status: ('A' for Active; 'I' for Inactive)
REMARK       I    between atoms: N_20  and  C1_1 
REMARK    1  A    between atoms: O1_4  and  C1_1 
REMARK    2  A    between atoms: C5_2  and  C6_3 
REMARK    3  A    between atoms: C6_3  and  O1_4 
REMARK    4  A    between atoms: O8_12  and  C11_9 
REMARK    5  A    between atoms: O7_11  and  C12_10 
REMARK    6  A    between atoms: C_17  and  C_18 
REMARK    7  A    between atoms: C_19  and  C_17 
REMARK    8  A    between atoms: C_18  and  N_20 
REMARK    9  A    between atoms: C_18  and  C_21 
REMARK   10  A    between atoms: O_22  and  C_19 
REMARK   11  A    between atoms: O_26  and  C_21 
REMARK   12  A    between atoms: C_25  and  O_22 
REMARK   13  A    between atoms: C_33  and  N_32 
ROOT
ATOM      1  C   UNL d   1      -0.419  -0.327  -0.317  0.00  0.00     0.218 C 
ATOM      2  C   UNL d   1       0.075  -1.719   0.098  0.00  0.00     0.035 C 
ATOM      3  C   UNL d   1       0.098   0.773   0.614  0.00  0.00     0.035 C 
ATOM      4  C   UNL d   1       1.616   0.720   0.748  0.00  0.00     0.002 C 
ATOM      5  C   UNL d   1       1.580  -1.776   0.361  0.00  0.00     0.002 C 
ATOM      6  C   UNL d   1       2.073  -0.642   1.255  0.00  0.00     0.000 C 
ENDROOT
BRANCH   1   7
ATOM      7  N   UNL d   1      -1.883  -0.312  -0.320  0.00  0.00     0.082 N 
ATOM      8  H   UNL d   1      -2.232  -0.958  -1.026  0.00  0.00     0.313 HD
ATOM      9  H   UNL d   1      -2.221   0.614  -0.576  0.00  0.00     0.313 HD
ENDBRANCH   1   7
TORSDOF 13
