REMARK  10 active torsions:
REMARK  status: ('A' for Active; 'I' for Inactive)
REMARK    1  A    between atoms: C_3  and  C_1 
REMARK    2  A    between atoms: N_4  and  C_2 
REMARK    3  A    between atoms: O_16  and  C_3 
REMARK       I    between atoms: C_9  and  N_4 
REMARK    4  A    between atoms: C_5  and  C_6 
REMARK    5  A    between atoms: O_17  and  C_5 
REMARK    6  A    between atoms: C_20  and  C_9 
REMARK    7  A    between atoms: C_10  and  C_21 
REMARK    8  A    between atoms: O_19  and  C_10 
REMARK    9  A    between atoms: O_18  and  C_20 
REMARK   10  A    between atoms: C_21  and  O_18 
ROOT
ATOM      1  C   UNL d   1       1.454  -0.236   0.085  0.00  0.00     0.066 A 
ATOM      2  C   UNL d   1       0.581  -1.347   0.113  0.00  0.00     0.052 A 
ATOM      3  C   UNL d   1      -1.332   0.164  -0.010  0.00  0.00     0.041 A 
ATOM      4  C   UNL d   1      -0.806  -1.135   0.053  0.00  0.00     0.048 A 
ATOM      5  C   UNL d   1       0.920   1.062   0.059  0.00  0.00     0.021 A 
ATOM      6  C   UNL d   1      -0.461   1.258   0.013  0.00  0.00     0.019 A 
ENDROOT
BRANCH   2   7
ATOM      7  N   UNL d   1       1.111  -2.658   0.162  0.00  0.00    -0.324 N 
ATOM      8  C   UNL d   1       0.510  -3.754   0.753  0.00  0.00     0.245 C 
ATOM      9  O   UNL d   1      -0.567  -3.755   1.341  0.00  0.00    -0.271 OA
ATOM     10  H   UNL d   1       2.123  -2.744   0.030  0.00  0.00     0.169 HD
BRANCH   8  11
ATOM     11  C   UNL d   1       1.339  -5.035   0.600  0.00  0.00     0.271 C 
BRANCH  11  12
ATOM     12  O   UNL d   1       2.755  -4.861   0.559  0.00  0.00    -0.372 OA
BRANCH  12  13
ATOM     13  C   UNL d   1       3.303  -4.603   1.866  0.00  0.00     0.277 C 
BRANCH  13  14
ATOM     14  C   UNL d   1       4.826  -4.618   1.775  0.00  0.00     0.164 C 
ATOM     15  O   UNL d   1       5.577  -4.368   2.703  0.00  0.00    -0.648 OA
BRANCH  14  16
ATOM     16  O   UNL d   1       5.262  -4.987   0.544  0.00  0.00    -0.775 OA
ATOM     17  H   UNL d   1       4.474  -5.126  -0.027  0.00  0.00     0.167 HD
ENDBRANCH  14  16
ENDBRANCH  13  14
ENDBRANCH  12  13
ENDBRANCH  11  12
ENDBRANCH   8  11
ENDBRANCH   2   7
BRANCH   1  18
ATOM     18  C   UNL d   1       2.934  -0.437   0.144  0.00  0.00     0.295 C 
ATOM     19  O   UNL d   1       3.455  -1.520   0.371  0.00  0.00    -0.259 OA
BRANCH  18  20
ATOM     20  O   UNL d   1       3.589   0.719  -0.122  0.00  0.00    -0.322 OA
ATOM     21  C   UNL d   1       5.013   0.611  -0.078  0.00  0.00     0.213 C 
ENDBRANCH  18  20
ENDBRANCH   1  18
BRANCH   3  22
ATOM     22  C   UNL d   1      -2.790   0.444  -0.114  0.00  0.00     0.293 C 
ATOM     23  O   UNL d   1      -3.250   1.576  -0.101  0.00  0.00    -0.259 OA
BRANCH  22  24
ATOM     24  O   UNL d   1      -3.503  -0.699  -0.256  0.00  0.00    -0.323 OA
ATOM     25  C   UNL d   1      -4.910  -0.484  -0.395  0.00  0.00     0.213 C 
ENDBRANCH  22  24
ENDBRANCH   3  22
TORSDOF 10
