REMARK  8 active torsions:
REMARK  status: ('A' for Active; 'I' for Inactive)
REMARK    1  A    between atoms: C_3  and  C_1 
REMARK    2  A    between atoms: C_4  and  C_1 
REMARK    3  A    between atoms: C_8  and  C_2 
REMARK    4  A    between atoms: O_14  and  C_3 
REMARK    5  A    between atoms: O_13  and  C_4 
REMARK    6  A    between atoms: O_15  and  C_5 
REMARK    7  A    between atoms: O_17  and  C_6 
REMARK    8  A    between atoms: O_16  and  C_7 
ROOT
ATOM      1  C   UNL d   1       2.395  -1.937  -4.632  0.00  0.00     0.135 A 
ATOM      2  C   UNL d   1       2.897  -2.225  -3.344  0.00  0.00     0.105 A 
ATOM      3  C   UNL d   1       1.301  -1.069  -4.773  0.00  0.00     0.105 A 
ATOM      4  C   UNL d   1       1.131  -0.881  -2.358  0.00  0.00    -0.029 A 
ATOM      5  C   UNL d   1       0.684  -0.539  -3.635  0.00  0.00     0.051 A 
ATOM      6  C   UNL d   1       2.235  -1.726  -2.214  0.00  0.00     0.051 A 
ENDROOT
BRANCH   4   7
ATOM      7  C   UNL d   1       0.467  -0.330  -1.172  0.00  0.00     0.037 C 
ATOM      8  C   UNL d   1      -0.561  -0.884  -0.489  0.00  0.00     0.111 C 
BRANCH   8   9
ATOM      9  C   UNL d   1      -1.065  -0.172   0.708  0.00  0.00     0.183 C 
ATOM     10  O   UNL d   1      -1.558  -0.784   1.647  0.00  0.00    -0.646 OA
BRANCH   9  11
ATOM     11  O   UNL d   1      -1.005   1.174   0.680  0.00  0.00    -0.772 OA
ATOM     12  H   UNL d   1      -0.795   1.584  -0.179  0.00  0.00     0.167 HD
ENDBRANCH   9  11
ENDBRANCH   8   9
BRANCH   8  13
ATOM     13  C   UNL d   1      -1.127  -2.223  -0.835  0.00  0.00     0.183 C 
ATOM     14  O   UNL d   1      -0.908  -2.812  -1.881  0.00  0.00    -0.646 OA
BRANCH  13  15
ATOM     15  O   UNL d   1      -1.938  -2.760   0.105  0.00  0.00    -0.772 OA
ATOM     16  H   UNL d   1      -2.021  -2.251   0.948  0.00  0.00     0.167 HD
ENDBRANCH  13  15
ENDBRANCH   8  13
ENDBRANCH   4   7
BRANCH   3  17
ATOM     17  O   UNL d   1       0.775  -0.594  -5.948  0.00  0.00    -0.353 OA
ATOM     18  C   UNL d   1       0.679  -1.536  -7.010  0.00  0.00     0.210 C 
ENDBRANCH   3  17
BRANCH   2  19
ATOM     19  O   UNL d   1       4.039  -2.988  -3.277  0.00  0.00    -0.353 OA
ATOM     20  C   UNL d   1       4.736  -3.013  -2.039  0.00  0.00     0.210 C 
ENDBRANCH   2  19
BRANCH   1  21
ATOM     21  O   UNL d   1       3.055  -2.367  -5.756  0.00  0.00    -0.351 OA
ATOM     22  C   UNL d   1       3.107  -3.789  -5.877  0.00  0.00     0.210 C 
ENDBRANCH   1  21
TORSDOF 8
