REMARK  7 active torsions:
REMARK  status: ('A' for Active; 'I' for Inactive)
REMARK    1  A    between atoms: C_2  and  S_1 
REMARK    2  A    between atoms: C_5  and  S_1 
REMARK    3  A    between atoms: C_4  and  C_2 
REMARK    4  A    between atoms: N_8  and  C_3 
REMARK    5  A    between atoms: O_18  and  C_4 
REMARK    6  A    between atoms: C_9  and  N_8 
REMARK    7  A    between atoms: C_25  and  O_18 
ROOT
ATOM      1  C   UNL d   1       0.449   1.518   0.825  0.00  0.00     0.154 C 
ATOM      2  C   UNL d   1      -0.275   2.402   0.109  0.00  0.00     0.118 C 
ENDROOT
BRANCH   1   3
ATOM      3  S   UNL d   1       0.761   1.865   2.498  0.00  0.00     0.214 S 
ATOM      4  O   UNL d   1       0.200   0.824   3.338  0.00  0.00    -0.217 OA
ATOM      5  O   UNL d   1       0.420   3.250   2.783  0.00  0.00    -0.217 OA
BRANCH   3   6
ATOM      6  C   UNL d   1       2.546   1.781   2.678  0.00  0.00     0.064 A 
ATOM      7  C   UNL d   1       3.300   2.956   2.564  0.00  0.00     0.025 A 
ATOM      8  C   UNL d   1       4.667   2.936   2.856  0.00  0.00     0.025 A 
ATOM      9  C   UNL d   1       5.275   1.747   3.259  0.00  0.00     0.034 A 
ATOM     10  C   UNL d   1       4.528   0.574   3.372  0.00  0.00     0.025 A 
ATOM     11 CL   UNL d   1       6.950   1.736   3.653  0.00  0.00    -0.084 Cl
ATOM     12  C   UNL d   1       3.157   0.591   3.095  0.00  0.00     0.025 A 
ENDBRANCH   3   6
ENDBRANCH   1   3
BRANCH   1  13
ATOM     13  C   UNL d   1       0.965   0.244   0.310  0.00  0.00     0.306 C 
ATOM     14  O   UNL d   1       1.343  -0.688   1.000  0.00  0.00    -0.258 OA
BRANCH  13  15
ATOM     15  O   UNL d   1       1.108   0.305  -1.043  0.00  0.00    -0.317 OA
BRANCH  15  16
ATOM     16  C   UNL d   1       2.112  -0.565  -1.588  0.00  0.00     0.174 C 
ATOM     17  C   UNL d   1       3.459   0.121  -1.434  0.00  0.00     0.034 C 
ENDBRANCH  15  16
ENDBRANCH  13  15
ENDBRANCH   1  13
BRANCH   2  18
ATOM     18  N   UNL d   1      -0.758   2.288  -1.178  0.00  0.00    -0.364 N 
ATOM     19  H   UNL d   1      -0.639   1.382  -1.628  0.00  0.00     0.165 HD
BRANCH  18  20
ATOM     20  C   UNL d   1      -1.410   3.264  -1.951  0.00  0.00     0.035 A 
ATOM     21  C   UNL d   1      -1.140   4.631  -1.830  0.00  0.00     0.053 A 
ATOM     22  C   UNL d   1      -1.843   5.562  -2.600  0.00  0.00     0.037 A 
ATOM     23 CL   UNL d   1      -1.448   7.235  -2.478  0.00  0.00    -0.084 Cl
ATOM     24  C   UNL d   1      -2.847   5.158  -3.468  0.00  0.00     0.048 A 
ATOM     25  C   UNL d   1      -3.144   3.803  -3.572  0.00  0.00     0.037 A 
ATOM     26  C   UNL d   1      -2.430   2.862  -2.826  0.00  0.00     0.053 A 
ATOM     27 CL   UNL d   1      -4.408   3.282  -4.615  0.00  0.00    -0.084 Cl
ENDBRANCH  18  20
ENDBRANCH   2  18
TORSDOF 7
