REMARK  4 active torsions:
REMARK  status: ('A' for Active; 'I' for Inactive)
REMARK    1  A    between atoms: C_7  and  C_4 
REMARK    2  A    between atoms: C_8  and  C_6 
REMARK    3  A    between atoms: C_9  and  O_14 
REMARK    4  A    between atoms: O_14  and  C_12 
ROOT
ATOM      1  C   UNL d   1      -5.936  -1.083  -2.747  0.00  0.00     0.089 A 
ATOM      2  O   UNL d   1      -4.810  -0.326  -2.852  0.00  0.00    -0.310 OA
ATOM      3  C   UNL d   1      -4.549   0.233  -1.626  0.00  0.00     0.076 A 
ATOM      4  C   UNL d   1      -6.439  -0.995  -1.467  0.00  0.00     0.041 A 
ATOM      5  C   UNL d   1      -5.556  -0.157  -0.753  0.00  0.00     0.040 A 
ENDROOT
BRANCH   3   6
ATOM      6  C   UNL d   1      -3.400   1.015  -1.353  0.00  0.00     0.049 C 
ATOM      7  C   UNL d   1      -3.426   2.355  -1.359  0.00  0.00     0.005 C 
ATOM      8  C   UNL d   1      -2.163   3.031  -0.953  0.00  0.00     0.190 C 
ATOM      9  C   UNL d   1      -4.553   3.256  -1.730  0.00  0.00     0.122 C 
ATOM     10  C   UNL d   1      -2.272   4.263  -0.122  0.00  0.00     0.033 A 
ATOM     11  O   UNL d   1      -1.069   2.578  -1.257  0.00  0.00    -0.287 OA
ATOM     12  C   UNL d   1      -1.076   4.847   0.326  0.00  0.00     0.040 A 
ATOM     13  C   UNL d   1      -3.507   4.806   0.267  0.00  0.00     0.015 A 
ATOM     14  C   UNL d   1      -1.114   5.953   1.171  0.00  0.00     0.035 A 
ATOM     15 CL   UNL d   1       0.352   6.657   1.727  0.00  0.00    -0.084 Cl
ATOM     16  C   UNL d   1      -2.333   6.483   1.581  0.00  0.00     0.025 A 
ATOM     17  C   UNL d   1      -3.525   5.912   1.129  0.00  0.00     0.021 A 
ATOM     18  S   UNL d   1      -5.089   4.164  -0.257  0.00  0.00    -0.124 SA
ENDBRANCH   3   6
BRANCH   1  19
ATOM     19  C   UNL d   1      -6.314  -1.860  -3.919  0.00  0.00     0.031 A 
ATOM     20  C   UNL d   1      -6.216  -1.415  -5.249  0.00  0.00     0.091 A 
ATOM     21  C   UNL d   1      -6.484  -2.315  -6.297  0.00  0.00     0.038 A 
ATOM     22  C   UNL d   1      -6.866  -3.633  -6.042  0.00  0.00     0.003 A 
ATOM     23  C   UNL d   1      -6.997  -4.069  -4.731  0.00  0.00     0.001 A 
ATOM     24  C   UNL d   1      -6.735  -3.187  -3.684  0.00  0.00     0.017 A 
BRANCH  20  25
ATOM     25  O   UNL d   1      -5.713  -0.217  -5.671  0.00  0.00    -0.254 OA
BRANCH  25  26
ATOM     26  C   UNL d   1      -6.285   0.988  -5.182  0.00  0.00     0.530 C 
ATOM     27  F   UNL d   1      -7.141   0.837  -4.153  0.00  0.00    -0.144 F 
ATOM     28  F   UNL d   1      -5.291   1.827  -4.808  0.00  0.00    -0.144 F 
ATOM     29  F   UNL d   1      -6.963   1.590  -6.189  0.00  0.00    -0.144 F 
ENDBRANCH  25  26
ENDBRANCH  20  25
ENDBRANCH   1  19
TORSDOF 4
