REMARK  4 active torsions:
REMARK  status: ('A' for Active; 'I' for Inactive)
REMARK    1  A    between atoms: C_9  and  C_3 
REMARK    2  A    between atoms: C_10  and  N_4 
REMARK    3  A    between atoms: C_8  and  C_10 
REMARK       I    between atoms: N_11  and  C_8 
REMARK    4  A    between atoms: N_18  and  N_11 
ROOT
ATOM      1  N   UNL d   1      -0.178  -0.830   0.130  0.00  0.00    -0.268 N 
ATOM      2  HN  UNL d   1      -0.349  -1.797   0.407  1.00  0.00     0.190 HD
ATOM      3  C   UNL d   1       0.951  -0.101   0.198  0.00  0.00     0.144 A 
ATOM      4  N   UNL d   1      -1.024   0.077  -0.410  0.00  0.00    -0.207 N 
ATOM      5  N   UNL d   1       0.787   1.171  -0.292  0.00  0.00    -0.266 N 
ATOM      6  HN  UNL d   1       1.502   1.896  -0.350  1.00  0.00     0.186 HD
ATOM      7  N   UNL d   1      -0.475   1.276  -0.676  0.00  0.00    -0.002 NA
ENDROOT
BRANCH   3   8
ATOM      8  C   UNL d   1       2.198  -0.561   0.793  0.00  0.00     0.014 A 
ATOM      9  C   UNL d   1       2.417  -1.923   1.041  0.00  0.00     0.039 A 
ATOM     10  C   UNL d   1       3.592  -2.342   1.666  0.00  0.00     0.036 A 
ATOM     11 CL   UNL d   1       3.841  -4.016   1.976  0.00  0.00    -0.084 Cl
ATOM     12  C   UNL d   1       4.561  -1.420   2.052  0.00  0.00     0.047 A 
ATOM     13  C   UNL d   1       4.351  -0.068   1.795  0.00  0.00     0.036 A 
ATOM     14  C   UNL d   1       3.184   0.365   1.165  0.00  0.00     0.039 A 
ATOM     15 CL   UNL d   1       5.536   1.083   2.278  0.00  0.00    -0.084 Cl
ENDBRANCH   3   8
BRANCH   4  16
ATOM     16  C   UNL d   1      -2.465  -0.072  -0.450  0.00  0.00     0.271 C 
BRANCH  16  17
ATOM     17  C   UNL d   1      -3.062  -1.457  -0.388  0.00  0.00     0.253 C 
ATOM     18  N   UNL d   1      -2.207  -2.538  -0.257  0.00  0.00    -0.288 N 
ATOM     19  H   UNL d   1      -1.211  -2.360  -0.087  0.00  0.00     0.184 HD
ATOM     20  O   UNL d   1      -4.293  -1.566  -0.449  0.00  0.00    -0.270 OA
BRANCH  18  21
ATOM     21  N   UNL d   1      -2.647  -3.869  -0.059  0.00  0.00    -0.237 NA
ATOM     22  C   UNL d   1      -3.353  -4.046   1.212  0.00  0.00     0.135 C 
ATOM     23  C   UNL d   1      -3.429  -4.391  -1.180  0.00  0.00     0.135 C 
ENDBRANCH  18  21
ENDBRANCH  16  17
ENDBRANCH   4  16
TORSDOF 4
