REMARK  2 active torsions:
REMARK  status: ('A' for Active; 'I' for Inactive)
REMARK    1  A    between atoms: C_6  and  N_1 
REMARK    2  A    between atoms: C_9  and  C_4 
ROOT
ATOM      1  N   UNL d   1      -0.002   0.873  -0.048  0.00  0.00    -0.252 N 
ATOM      2  C   UNL d   1      -1.130   0.102   0.152  0.00  0.00     0.240 C 
ATOM      3  C   UNL d   1       1.128   0.091  -0.162  0.00  0.00     0.232 C 
ATOM      4  C   UNL d   1      -0.753  -1.355   0.033  0.00  0.00     0.120 C 
ATOM      5  C   UNL d   1       0.762  -1.349   0.027  0.00  0.00     0.122 C 
ATOM      6  O   UNL d   1      -2.284   0.464   0.347  0.00  0.00    -0.272 OA
ATOM      7  O   UNL d   1       2.294   0.432  -0.311  0.00  0.00    -0.273 OA
ENDROOT
BRANCH   1   8
ATOM      8  C   UNL d   1       0.001   2.300  -0.119  0.00  0.00     0.045 A 
ATOM      9  C   UNL d   1      -1.050   3.064   0.417  0.00  0.00     0.031 A 
ATOM     10  C   UNL d   1      -1.049   4.463   0.345  0.00  0.00     0.020 A 
ATOM     11  C   UNL d   1      -0.001   5.125  -0.282  0.00  0.00     0.006 A 
ATOM     12  C   UNL d   1       1.049   4.397  -0.828  0.00  0.00     0.020 A 
ATOM     13  I   UNL d   1      -0.006   7.196  -0.406  0.00  0.00    -0.045 I 
ATOM     14  C   UNL d   1       1.050   2.999  -0.739  0.00  0.00     0.031 A 
ENDBRANCH   1   8
BRANCH   4  15
ATOM     15  C   UNL d   1      -1.341  -2.022  -1.195  0.00  0.00    -0.045 A 
ATOM     16  C   UNL d   1      -1.055  -1.570  -2.495  0.00  0.00     0.008 A 
ATOM     17  C   UNL d   1      -1.567  -2.238  -3.608  0.00  0.00     0.001 A 
ATOM     18  C   UNL d   1      -2.375  -3.359  -3.439  0.00  0.00     0.000 A 
ATOM     19  C   UNL d   1      -2.683  -3.807  -2.157  0.00  0.00     0.001 A 
ATOM     20  C   UNL d   1      -2.172  -3.142  -1.042  0.00  0.00     0.008 A 
ENDBRANCH   4  15
TORSDOF 2
