REMARK  4 active torsions:
REMARK  status: ('A' for Active; 'I' for Inactive)
REMARK    1  A    between atoms: C_6  and  C_1 
REMARK    2  A    between atoms: O_18  and  C_1 
REMARK    3  A    between atoms: C_2  and  C_4 
REMARK    4  A    between atoms: C_3  and  C_5 
ROOT
ATOM      1  C   UNL d   1       1.127   3.869   2.002  0.00  0.00     0.049 A 
ATOM      2  C   UNL d   1      -1.184   3.333   2.563  0.00  0.00     0.049 A 
ATOM      3  C   UNL d   1      -0.021   2.044   0.819  0.00  0.00    -0.022 A 
ATOM      4  C   UNL d   1      -0.033   4.111   2.751  0.00  0.00     0.032 A 
ATOM      5  C   UNL d   1      -1.161   2.311   1.598  0.00  0.00     0.026 A 
ATOM      6  C   UNL d   1       1.119   2.830   1.056  0.00  0.00     0.026 A 
ENDROOT
BRANCH   3   7
ATOM      7  C   UNL d   1      -0.021   0.940  -0.212  0.00  0.00     0.085 A 
ATOM      8  C   UNL d   1      -0.962   1.020  -1.389  0.00  0.00     0.046 A 
ATOM      9  C   UNL d   1       0.511   1.190  -1.603  0.00  0.00     0.046 A 
BRANCH   7  10
ATOM     10  O   UNL d   1       0.215  -0.394   0.270  0.00  0.00    -0.385 OA
ATOM     11  H   UNL d   1       0.155  -0.436   1.240  0.00  0.00     0.211 HD
ENDBRANCH   7  10
ENDBRANCH   3   7
BRANCH   2  12
ATOM     12  C   UNL d   1      -2.433   3.573   3.377  0.00  0.00     0.417 C 
ATOM     13  F   UNL d   1      -2.314   4.599   4.264  0.00  0.00    -0.166 F 
ATOM     14  F   UNL d   1      -3.511   3.871   2.602  0.00  0.00    -0.166 F 
ATOM     15  F   UNL d   1      -2.788   2.483   4.112  0.00  0.00    -0.166 F 
ENDBRANCH   2  12
BRANCH   1  16
ATOM     16  C   UNL d   1       2.374   4.701   2.192  0.00  0.00     0.417 C 
ATOM     17  F   UNL d   1       2.226   5.697   3.108  0.00  0.00    -0.166 F 
ATOM     18  F   UNL d   1       3.434   3.958   2.614  0.00  0.00    -0.166 F 
ATOM     19  F   UNL d   1       2.773   5.308   1.041  0.00  0.00    -0.166 F 
ENDBRANCH   1  16
TORSDOF 4
