REMARK  3 active torsions:
REMARK  status: ('A' for Active; 'I' for Inactive)
REMARK    1  A    between atoms: C_6  and  C_1 
REMARK    2  A    between atoms: C_9  and  C_2 
REMARK    3  A    between atoms: C_8  and  C_6 
ROOT
ATOM      1  C   UNL d   1      -2.306  -0.354   0.094  0.00  0.00     0.032 A 
ATOM      2  C   UNL d   1      -1.803  -1.598  -0.034  0.00  0.00     0.097 A 
ATOM      3  C   UNL d   1      -1.335   0.762   0.236  0.00  0.00     0.194 A 
ATOM      4  O   UNL d   1      -0.459  -1.927  -0.007  0.00  0.00    -0.308 OA
ATOM      5  C   UNL d   1       0.091   0.426   0.130  0.00  0.00     0.048 A 
ATOM      6  C   UNL d   1       0.457  -0.910   0.027  0.00  0.00     0.090 A 
ATOM      7  O   UNL d   1      -1.694   1.920   0.428  0.00  0.00    -0.287 OA
ATOM      8  C   UNL d   1       1.068   1.428   0.125  0.00  0.00     0.018 A 
ATOM      9  C   UNL d   1       1.804  -1.262  -0.056  0.00  0.00     0.038 A 
ATOM     10  C   UNL d   1       2.416   1.078   0.022  0.00  0.00     0.001 A 
ATOM     11  C   UNL d   1       2.783  -0.267  -0.062  0.00  0.00     0.003 A 
ENDROOT
BRANCH   1  12
ATOM     12  C   UNL d   1      -3.768   0.023   0.057  0.00  0.00     0.085 C 
BRANCH  12  13
ATOM     13  C   UNL d   1      -4.503   0.075   1.388  0.00  0.00    -0.036 A 
ATOM     14  C   UNL d   1      -5.882   0.364   1.436  0.00  0.00     0.017 A 
ATOM     15 BR   UNL d   1      -6.918   0.646  -0.136  0.00  0.00    -0.051 Br
ATOM     16  C   UNL d   1      -6.558   0.458   2.659  0.00  0.00     0.019 A 
ATOM     17  C   UNL d   1      -5.875   0.254   3.855  0.00  0.00     0.001 A 
ATOM     18  C   UNL d   1      -4.519  -0.050   3.831  0.00  0.00     0.001 A 
ATOM     19  C   UNL d   1      -3.841  -0.135   2.613  0.00  0.00     0.009 A 
ENDBRANCH  12  13
ENDBRANCH   1  12
BRANCH   2  20
ATOM     20  C   UNL d   1      -2.662  -2.779  -0.195  0.00  0.00    -0.002 A 
ATOM     21  C   UNL d   1      -3.050  -3.199  -1.473  0.00  0.00     0.014 A 
ATOM     22  C   UNL d   1      -3.883  -4.309  -1.624  0.00  0.00     0.001 A 
ATOM     23  C   UNL d   1      -4.327  -5.006  -0.501  0.00  0.00     0.000 A 
ATOM     24  C   UNL d   1      -3.939  -4.596   0.774  0.00  0.00     0.001 A 
ATOM     25  C   UNL d   1      -3.107  -3.486   0.928  0.00  0.00     0.014 A 
ENDBRANCH   2  20
TORSDOF 3
