REMARK  4 active torsions:
REMARK  status: ('A' for Active; 'I' for Inactive)
REMARK    1  A    between atoms: C_9  and  N_1 
REMARK    2  A    between atoms: N_5  and  C_2 
REMARK    3  A    between atoms: N_8  and  C_3 
REMARK       I    between atoms: C_7  and  N_6 
REMARK    4  A    between atoms: C_21  and  C_7 
ROOT
ATOM      1  C   UNL d   1       0.055  -3.296   0.854  0.00  0.00     0.067 A 
ATOM      2  C   UNL d   1      -0.829  -3.648  -0.209  0.00  0.00     0.058 A 
ATOM      3  C   UNL d   1       0.600  -2.003   0.954  0.00  0.00     0.068 A 
ATOM      4  C   UNL d   1       0.333  -1.060  -0.043  0.00  0.00     0.105 A 
ATOM      5  C   UNL d   1      -1.059  -2.672  -1.196  0.00  0.00     0.034 A 
ATOM      6  C   UNL d   1      -0.485  -1.394  -1.125  0.00  0.00     0.038 A 
ENDROOT
BRANCH   2   7
ATOM      7  N   UNL d   1      -1.490  -4.873  -0.251  0.00  0.00    -0.376 N 
ATOM      8  C   UNL d   1      -1.957  -5.484  -1.511  0.00  0.00     0.143 C 
ATOM      9  C   UNL d   1      -2.034  -7.021  -1.333  0.00  0.00     0.145 C 
ATOM     10  N   UNL d   1      -2.781  -7.439  -0.127  0.00  0.00    -0.349 N 
ATOM     11  C   UNL d   1      -2.435  -6.698   1.096  0.00  0.00     0.145 C 
ATOM     12  C   UNL d   1      -3.400  -8.685  -0.136  0.00  0.00     0.224 C 
ATOM     13  C   UNL d   1      -2.404  -5.177   0.871  0.00  0.00     0.143 C 
ATOM     14  O   UNL d   1      -3.481  -9.343  -1.172  0.00  0.00    -0.273 OA
BRANCH  12  15
ATOM     15  C   UNL d   1      -4.003  -9.208   1.188  0.00  0.00     0.078 C 
ATOM     16  C   UNL d   1      -2.946  -9.746   2.164  0.00  0.00     0.014 C 
ATOM     17  C   UNL d   1      -2.385 -11.105   1.755  0.00  0.00     0.001 C 
ATOM     18  C   UNL d   1      -3.477 -12.140   1.506  0.00  0.00     0.000 C 
ATOM     19  C   UNL d   1      -4.570 -11.638   0.572  0.00  0.00     0.001 C 
ATOM     20  C   UNL d   1      -5.099 -10.260   0.963  0.00  0.00     0.014 C 
ENDBRANCH  12  15
ENDBRANCH   2   7
BRANCH   1  21
ATOM     21  N   UNL d   1       0.469  -4.251   1.830  0.00  0.00    -0.331 N 
ATOM     22  C   UNL d   1       0.700  -4.003   3.171  0.00  0.00     0.097 C 
ATOM     23  C   UNL d   1       0.914  -5.204   3.816  0.00  0.00     0.019 C 
ATOM     24  C   UNL d   1       0.917  -6.213   2.833  0.00  0.00     0.019 C 
ATOM     25  C   UNL d   1       0.709  -5.595   1.621  0.00  0.00     0.097 C 
ENDBRANCH   1  21
BRANCH   4  26
ATOM     26  N   UNL d   1       0.945   0.270   0.037  0.00  0.00    -0.116 N 
ATOM     27  O   UNL d   1       1.643   0.526   1.027  0.00  0.00    -0.532 OA
ATOM     28  O   UNL d   1       0.726   1.059  -0.896  0.00  0.00    -0.532 OA
ENDBRANCH   4  26
TORSDOF 4
