REMARK  1 active torsions:
REMARK  status: ('A' for Active; 'I' for Inactive)
REMARK    1  A    between atoms: N_4  and  C_1 
REMARK       I    between atoms: C_6  and  N_4 
ROOT
ATOM      1  C   UNL d   1      -0.367   1.821   0.015  0.00  0.00     0.016 C 
ATOM      2  C   UNL d   1      -1.431   1.005   0.103  0.00  0.00     0.075 C 
ATOM      3  C   UNL d   1      -1.336  -0.449  -0.156  0.00  0.00     0.151 C 
ATOM      4  C   UNL d   1       1.192  -0.221   0.012  0.00  0.00    -0.036 C 
ATOM      5  C   UNL d   1       1.002   1.270  -0.360  0.00  0.00     0.066 C 
ATOM      6  O   UNL d   1      -2.353  -1.137  -0.129  0.00  0.00    -0.293 OA
ATOM      7  C   UNL d   1       0.004  -1.043  -0.516  0.00  0.00     0.092 C 
ATOM      8  C   UNL d   1       2.479  -0.770  -0.632  0.00  0.00     0.015 C 
ATOM      9  C   UNL d   1       1.324  -0.375   1.542  0.00  0.00     0.015 C 
ENDROOT
BRANCH   1  10
ATOM     10  N   UNL d   1      -0.421   3.185   0.268  0.00  0.00    -0.331 N 
ATOM     11  C   UNL d   1      -1.526   3.932   0.660  0.00  0.00     0.217 C 
ATOM     12  O   UNL d   1      -2.665   3.509   0.832  0.00  0.00    -0.274 OA
ATOM     13  C   UNL d   1      -1.231   5.393   0.887  0.00  0.00     0.117 C 
ATOM     14  H   UNL d   1       0.451   3.691   0.171  0.00  0.00     0.168 HD
ENDBRANCH   1  10
TORSDOF 1
