REMARK  6 active torsions:
REMARK  status: ('A' for Active; 'I' for Inactive)
REMARK    1  A    between atoms: C_8  and  N_1 
REMARK    2  A    between atoms: O_9  and  C_2 
REMARK    3  A    between atoms: C_3  and  C_4 
REMARK       I    between atoms: C_4  and  N_6 
REMARK    4  A    between atoms: C_5  and  C_14 
REMARK       I    between atoms: N_7  and  C_5 
REMARK    5  A    between atoms: N_6  and  N_7 
REMARK    6  A    between atoms: C_21  and  O_9 
ROOT
ATOM      1  C   UNL d   1      -5.162   3.256  -3.417  0.00  0.00     0.274 C 
ATOM      2  N   UNL d   1      -5.503   1.942  -3.110  0.00  0.00    -0.263 N 
ATOM      3  O   UNL d   1      -4.539   3.975  -2.646  0.00  0.00    -0.266 OA
ATOM      4  H   UNL d   1      -6.054   1.352  -3.719  0.00  0.00     0.190 HD
ENDROOT
BRANCH   1   5
ATOM      5  C   UNL d   1      -5.663   3.754  -4.737  0.00  0.00     0.085 A 
ATOM      6  C   UNL d   1      -5.848   5.112  -4.996  0.00  0.00     0.164 A 
ATOM      7  N   UNL d   1      -6.440   5.572  -6.137  0.00  0.00    -0.346 N 
ATOM      8  C   UNL d   1      -6.777   4.684  -7.085  0.00  0.00     0.090 A 
ATOM      9  HN  UNL d   1      -6.621   6.567  -6.266  1.00  0.00     0.167 HD
ATOM     10  C   UNL d   1      -6.550   3.329  -6.962  0.00  0.00     0.018 A 
ATOM     11  C   UNL d   1      -5.985   2.861  -5.774  0.00  0.00     0.023 A 
BRANCH   6  12
ATOM     12  O   UNL d   1      -5.462   6.057  -4.057  0.00  0.00    -0.293 OA
BRANCH  12  13
ATOM     13  C   UNL d   1      -5.093   7.304  -4.521  0.00  0.00     0.077 A 
ATOM     14  C   UNL d   1      -5.515   8.405  -3.775  0.00  0.00     0.037 A 
ATOM     15  C   UNL d   1      -5.189   9.698  -4.191  0.00  0.00     0.003 A 
ATOM     16  C   UNL d   1      -4.429   9.892  -5.345  0.00  0.00     0.000 A 
ATOM     17  C   UNL d   1      -3.972   8.793  -6.070  0.00  0.00     0.003 A 
ATOM     18  C   UNL d   1      -4.287   7.499  -5.649  0.00  0.00     0.037 A 
ENDBRANCH  12  13
ENDBRANCH   6  12
ENDBRANCH   1   5
BRANCH   2  19
ATOM     19  N   UNL d   1      -4.997   1.329  -1.954  0.00  0.00    -0.263 N 
ATOM     20  C   UNL d   1      -3.663   0.955  -1.913  0.00  0.00     0.270 C 
ATOM     21  O   UNL d   1      -2.876   1.064  -2.847  0.00  0.00    -0.266 OA
ATOM     22  H   UNL d   1      -5.540   1.442  -1.104  0.00  0.00     0.190 HD
BRANCH  20  23
ATOM     23  C   UNL d   1      -3.207   0.348  -0.631  0.00  0.00     0.033 A 
ATOM     24  C   UNL d   1      -4.042  -0.501   0.111  0.00  0.00     0.019 A 
ATOM     25  C   UNL d   1      -3.562  -1.127   1.268  0.00  0.00     0.037 A 
ATOM     26  C   UNL d   1      -2.243  -0.899   1.685  0.00  0.00     0.102 A 
ATOM     27  C   UNL d   1      -1.404  -0.051   0.951  0.00  0.00     0.037 A 
ATOM     28  C   UNL d   1      -1.888   0.566  -0.208  0.00  0.00     0.019 A 
BRANCH  26  29
ATOM     29  N   UNL d   1      -1.736  -1.572   2.889  0.00  0.00    -0.116 N 
ATOM     30  O   UNL d   1      -0.556  -1.388   3.200  0.00  0.00    -0.532 OA
ATOM     31  O   UNL d   1      -2.529  -2.289   3.525  0.00  0.00    -0.532 OA
ENDBRANCH  26  29
ENDBRANCH  20  23
ENDBRANCH   2  19
TORSDOF 6
