REMARK  5 active torsions:
REMARK  status: ('A' for Active; 'I' for Inactive)
REMARK    1  A    between atoms: C_10  and  C_4 
REMARK    2  A    between atoms: C_11  and  C_4 
REMARK    3  A    between atoms: C_8  and  N_6 
REMARK    4  A    between atoms: O_18  and  C_10 
REMARK    5  A    between atoms: O_17  and  C_11 
ROOT
ATOM      1  C   UNL d   1      -0.254  -1.165   0.075  0.00  0.00     0.141 C 
ATOM      2  N   UNL d   1      -1.411  -0.594   0.037  0.00  0.00    -0.356 N 
ATOM      3  HN  UNL d   1      -2.295  -1.090   0.159  1.00  0.00     0.162 HD
ATOM      4  C   UNL d   1      -1.308   0.873  -0.205  0.00  0.00     0.083 C 
ATOM      5  S   UNL d   1       1.129  -0.121  -0.178  0.00  0.00    -0.091 SA
ATOM      6  N   UNL d   1       0.025  -2.477   0.295  0.00  0.00    -0.337 N 
ATOM      7  C   UNL d   1       0.106   1.333   0.170  0.00  0.00     0.117 C 
ATOM      8  H   UNL d   1       0.997  -2.741   0.210  0.00  0.00     0.168 HD
ENDROOT
BRANCH   6   9
ATOM      9  C   UNL d   1      -0.801  -3.413   0.946  0.00  0.00     0.034 A 
ATOM     10  C   UNL d   1      -2.005  -3.063   1.581  0.00  0.00     0.032 A 
ATOM     11  C   UNL d   1      -2.830  -4.023   2.169  0.00  0.00     0.044 A 
ATOM     12  C   UNL d   1      -2.465  -5.356   2.112  0.00  0.00     0.116 A 
ATOM     13  C   UNL d   1      -1.290  -5.742   1.481  0.00  0.00     0.044 A 
ATOM     14  F   UNL d   1      -3.256  -6.281   2.668  0.00  0.00    -0.206 F 
ATOM     15  C   UNL d   1      -0.464  -4.774   0.895  0.00  0.00     0.032 A 
ENDBRANCH   6   9
BRANCH   4  16
ATOM     16  C   UNL d   1      -2.376   1.537   0.692  0.00  0.00     0.198 C 
BRANCH  16  17
ATOM     17  O   UNL d   1      -2.122   1.250   2.070  0.00  0.00    -0.398 OA
ATOM     18  H   UNL d   1      -2.070   0.277   2.122  0.00  0.00     0.209 HD
ENDBRANCH  16  17
ENDBRANCH   4  16
BRANCH   4  19
ATOM     19  C   UNL d   1      -1.615   1.150  -1.693  0.00  0.00     0.198 C 
BRANCH  19  20
ATOM     20  O   UNL d   1      -2.896   0.639  -2.059  0.00  0.00    -0.398 OA
ATOM     21  H   UNL d   1      -2.891  -0.300  -1.787  0.00  0.00     0.209 HD
ENDBRANCH  19  20
ENDBRANCH   4  19
TORSDOF 5
