REMARK  4 active torsions:
REMARK  status: ('A' for Active; 'I' for Inactive)
REMARK    1  A    between atoms: C_2  and  C_1 
REMARK    2  A    between atoms: C_8  and  C_2 
REMARK    3  A    between atoms: C_11  and  C_8 
REMARK    4  A    between atoms: C_10  and  C_11 
ROOT
ATOM      1  C   UNL d   1      -0.613   2.527   0.015  0.00  0.00     0.183 C 
ATOM      2  O   UNL d   1      -1.705   2.698  -0.530  0.00  0.00    -0.290 OA
ENDROOT
BRANCH   1   3
ATOM      3  C   UNL d   1      -0.244   1.284   0.658  0.00  0.00     0.120 A 
ATOM      4  O   UNL d   1       1.007   1.151   1.197  0.00  0.00    -0.319 OA
ATOM      5  C   UNL d   1       1.076  -0.082   1.758  0.00  0.00     0.142 A 
ATOM      6  C   UNL d   1      -0.103  -0.762   1.571  0.00  0.00     0.027 A 
ATOM      7  C   UNL d   1      -0.955   0.116   0.858  0.00  0.00     0.043 A 
ENDBRANCH   1   3
BRANCH   1   8
ATOM      8  C   UNL d   1       0.442   3.625  -0.012  0.00  0.00     0.093 C 
BRANCH   8   9
ATOM      9  C   UNL d   1      -0.190   5.011  -0.058  0.00  0.00     0.085 C 
BRANCH   9  10
ATOM     10  C   UNL d   1      -1.048   5.266   1.167  0.00  0.00     0.123 C 
ATOM     11  O   UNL d   1      -0.808   4.733   2.250  0.00  0.00    -0.298 OA
ATOM     12  C   UNL d   1      -2.175   6.250   1.009  0.00  0.00     0.091 C 
ENDBRANCH   9  10
ENDBRANCH   8   9
ENDBRANCH   1   8
TORSDOF 4
