REMARK  6 active torsions:
REMARK  status: ('A' for Active; 'I' for Inactive)
REMARK    1  A    between atoms: N_13  and  C_2 
REMARK    2  A    between atoms: C_10  and  C_5 
REMARK    3  A    between atoms: C_15  and  C_6 
REMARK    4  A    between atoms: N_8  and  N_13 
REMARK    5  A    between atoms: O_16  and  C_10 
REMARK    6  A    between atoms: C_19  and  O_16 
ROOT
ATOM      1  C   UNL d   1       5.820   0.327  -0.630  0.00  0.00     0.204 C 
ATOM      2  N   UNL d   1       4.734   1.050  -0.570  0.00  0.00    -0.284 N 
ATOM      3  HN  UNL d   1       4.728   1.992  -0.961  1.00  0.00     0.188 HD
ATOM      4  C   UNL d   1       5.837  -0.972  -0.015  0.00  0.00     0.125 C 
ATOM      5  N   UNL d   1       5.796  -2.012   0.509  0.00  0.00    -0.190 NA
ENDROOT
BRANCH   1   6
ATOM      6  C   UNL d   1       7.072   0.851  -1.284  0.00  0.00     0.322 C 
ATOM      7  O   UNL d   1       7.926   0.101  -1.722  0.00  0.00    -0.257 OA
BRANCH   6   8
ATOM      8  O   UNL d   1       7.140   2.190  -1.148  0.00  0.00    -0.316 OA
BRANCH   8   9
ATOM      9  C   UNL d   1       8.459   2.742  -1.237  0.00  0.00     0.175 C 
ATOM     10  C   UNL d   1       9.050   2.727   0.161  0.00  0.00     0.034 C 
ENDBRANCH   8   9
ENDBRANCH   6   8
ENDBRANCH   1   6
BRANCH   2  11
ATOM     11  N   UNL d   1       3.606   0.547   0.018  0.00  0.00    -0.283 N 
ATOM     12  H   UNL d   1       3.536  -0.449   0.253  0.00  0.00     0.188 HD
BRANCH  11  13
ATOM     13  C   UNL d   1       2.447   1.240  -0.012  0.00  0.00     0.136 A 
ATOM     14  C   UNL d   1       1.137   0.844   0.061  0.00  0.00     0.083 A 
ATOM     15  C   UNL d   1       0.371   2.043  -0.011  0.00  0.00     0.062 A 
ATOM     16  N   UNL d   1       1.175   3.115  -0.128  0.00  0.00    -0.298 N 
ATOM     17  N   UNL d   1       2.416   2.598  -0.123  0.00  0.00    -0.284 N 
ATOM     18  HN  UNL d   1       0.904   4.096  -0.203  1.00  0.00     0.187 HD
ATOM     19  H   UNL d   1       3.215   3.218  -0.176  0.00  0.00     0.188 HD
BRANCH  15  20
ATOM     20  C   UNL d   1      -1.086   2.171   0.033  0.00  0.00    -0.008 A 
ATOM     21  C   UNL d   1      -1.724   3.261  -0.576  0.00  0.00     0.014 A 
ATOM     22  C   UNL d   1      -3.115   3.388  -0.530  0.00  0.00     0.001 A 
ATOM     23  C   UNL d   1      -3.881   2.428   0.129  0.00  0.00     0.000 A 
ATOM     24  C   UNL d   1      -3.260   1.341   0.739  0.00  0.00     0.001 A 
ATOM     25  C   UNL d   1      -1.870   1.211   0.690  0.00  0.00     0.014 A 
ENDBRANCH  15  20
ENDBRANCH  11  13
ENDBRANCH   2  11
TORSDOF 6
