REMARK  10 active torsions:
REMARK  status: ('A' for Active; 'I' for Inactive)
REMARK    1  A    between atoms: C_4  and  C_1 
REMARK       I    between atoms: N_11  and  C_1 
REMARK    2  A    between atoms: C_2  and  C_7 
REMARK    3  A    between atoms: C_3  and  C_6 
REMARK    4  A    between atoms: C_14  and  C_5 
REMARK    5  A    between atoms: C_9  and  C_16 
REMARK    6  A    between atoms: C_17  and  C_10 
REMARK    7  A    between atoms: C_16  and  N_11 
REMARK    8  A    between atoms: C_12  and  C_14 
REMARK    9  A    between atoms: C_13  and  C_12 
REMARK   10  A    between atoms: O_31  and  C_13 
ROOT
ATOM      1  C   UNL d   1       1.343   0.383   0.160  0.00  0.00     0.254 C 
ATOM      2  N   UNL d   1       0.430  -0.189   1.030  0.00  0.00    -0.338 N 
ATOM      3  O   UNL d   1       2.557   0.264   0.231  0.00  0.00    -0.268 OA
ATOM      4  H   UNL d   1      -0.545   0.022   0.864  0.00  0.00     0.164 HD
ENDROOT
BRANCH   2   5
ATOM      5  C   UNL d   1       0.707  -0.890   2.297  0.00  0.00     0.090 C 
ATOM      6  C   UNL d   1      -0.271  -2.078   2.392  0.00  0.00     0.053 C 
ATOM      7  C   UNL d   1       2.134  -1.446   2.420  0.00  0.00     0.053 C 
BRANCH   5   8
ATOM      8  C   UNL d   1       0.444   0.022   3.443  0.00  0.00    -0.070 C 
ATOM      9  C   UNL d   1       0.256   0.698   4.426  0.00  0.00    -0.064 C 
BRANCH   9  10
ATOM     10  C   UNL d   1       0.060   1.474   5.617  0.00  0.00     0.019 A 
ATOM     11  C   UNL d   1       0.953   1.358   6.690  0.00  0.00     0.036 A 
ATOM     12  C   UNL d   1       0.786   2.128   7.856  0.00  0.00     0.050 A 
ATOM     13  C   UNL d   1      -0.300   3.015   7.933  0.00  0.00     0.032 A 
ATOM     14  C   UNL d   1      -1.208   3.140   6.868  0.00  0.00     0.050 A 
ATOM     15  C   UNL d   1      -1.020   2.356   5.715  0.00  0.00     0.036 A 
BRANCH  12  16
ATOM     16  C   UNL d   1       1.764   2.000   9.002  0.00  0.00     0.417 C 
ATOM     17  F   UNL d   1       1.505   2.852  10.033  0.00  0.00    -0.166 F 
ATOM     18  F   UNL d   1       1.771   0.751   9.544  0.00  0.00    -0.166 F 
ATOM     19  F   UNL d   1       3.046   2.254   8.623  0.00  0.00    -0.166 F 
ENDBRANCH  12  16
BRANCH  14  20
ATOM     20  C   UNL d   1      -2.372   4.100   6.949  0.00  0.00     0.417 C 
ATOM     21  F   UNL d   1      -2.355   4.880   8.066  0.00  0.00    -0.166 F 
ATOM     22  F   UNL d   1      -2.411   4.961   5.895  0.00  0.00    -0.166 F 
ATOM     23  F   UNL d   1      -3.573   3.461   6.958  0.00  0.00    -0.166 F 
ENDBRANCH  14  20
ENDBRANCH   9  10
ENDBRANCH   5   8
ENDBRANCH   2   5
BRANCH   1  24
ATOM     24  C   UNL d   1       0.719   1.167  -0.959  0.00  0.00     0.044 C 
ATOM     25  C   UNL d   1       1.014   0.895  -2.318  0.00  0.00    -0.040 C 
ATOM     26  C   UNL d   1       0.216   1.498  -3.313  0.00  0.00     0.015 C 
ATOM     27  C   UNL d   1      -0.790   2.416  -2.990  0.00  0.00    -0.061 C 
ATOM     28  C   UNL d   1      -0.947   2.798  -1.658  0.00  0.00     0.014 C 
ATOM     29  C   UNL d   1      -1.576   3.098  -4.072  0.00  0.00     0.048 C 
ATOM     30  C   UNL d   1      -0.186   2.204  -0.637  0.00  0.00    -0.045 C 
ATOM     31  C   UNL d   1      -0.210   2.874   0.713  0.00  0.00     0.049 C 
BRANCH  25  32
ATOM     32  C   UNL d   1       2.271   0.172  -2.777  0.00  0.00     0.059 C 
BRANCH  32  33
ATOM     33  C   UNL d   1       2.251  -1.322  -3.172  0.00  0.00     0.042 C 
ATOM     34  C   UNL d   1       3.721  -1.798  -3.257  0.00  0.00     0.026 C 
ATOM     35  C   UNL d   1       1.554  -2.212  -2.132  0.00  0.00     0.026 C 
BRANCH  33  36
ATOM     36  C   UNL d   1       1.514  -1.485  -4.508  0.00  0.00     0.148 C 
ATOM     37  O   UNL d   1       0.301  -1.627  -4.598  0.00  0.00    -0.649 OA
BRANCH  36  38
ATOM     38  O   UNL d   1       2.272  -1.412  -5.623  0.00  0.00    -0.776 OA
ATOM     39  H   UNL d   1       3.229  -1.290  -5.503  0.00  0.00     0.167 HD
ENDBRANCH  36  38
ENDBRANCH  33  36
ENDBRANCH  32  33
ENDBRANCH  25  32
ENDBRANCH   1  24
TORSDOF 10
