REMARK  2 active torsions:
REMARK  status: ('A' for Active; 'I' for Inactive)
REMARK    1  A    between atoms: C_2  and  C_1 
REMARK       I    between atoms: N_9  and  C_2 
REMARK    2  A    between atoms: C_12  and  N_9 
ROOT
ATOM      1  C   UNL d   1       0.329  -4.501  -0.928  0.00  0.00     0.266 C 
ATOM      2  N   UNL d   1       0.871  -3.484  -0.153  0.00  0.00    -0.322 N 
ATOM      3  O   UNL d   1       1.011  -5.294  -1.571  0.00  0.00    -0.267 OA
ATOM      4  H   UNL d   1       0.225  -2.969   0.430  0.00  0.00     0.169 HD
ENDROOT
BRANCH   1   5
ATOM      5  C   UNL d   1      -1.120  -4.585  -0.927  0.00  0.00     0.114 A 
ATOM      6  C   UNL d   1      -1.967  -5.518  -1.518  0.00  0.00     0.046 A 
ATOM      7  N   UNL d   1      -3.325  -5.262  -1.337  0.00  0.00    -0.298 N 
ATOM      8  C   UNL d   1      -1.618  -6.728  -2.307  0.00  0.00     0.071 C 
ATOM      9  N   UNL d   1      -3.536  -4.166  -0.633  0.00  0.00    -0.269 N 
ATOM     10  HN  UNL d   1      -4.069  -5.853  -1.707  1.00  0.00     0.187 HD
ATOM     11  S   UNL d   1      -2.125  -3.417  -0.170  0.00  0.00     0.009 SA
ATOM     12  HN  UNL d   1      -4.465  -3.816  -0.399  1.00  0.00     0.195 HD
ENDBRANCH   1   5
BRANCH   2  13
ATOM     13  C   UNL d   1       2.222  -3.078  -0.086  0.00  0.00     0.036 A 
ATOM     14  C   UNL d   1       3.233  -3.583  -0.905  0.00  0.00     0.053 A 
ATOM     15  C   UNL d   1       4.541  -3.090  -0.811  0.00  0.00     0.042 A 
ATOM     16 CL   UNL d   1       5.730  -3.750  -1.878  0.00  0.00    -0.084 Cl
ATOM     17  C   UNL d   1       4.866  -2.085   0.111  0.00  0.00    -0.040 A 
ATOM     18  C   UNL d   1       3.852  -1.589   0.940  0.00  0.00     0.011 A 
ATOM     19  C   UNL d   1       6.258  -1.528   0.218  0.00  0.00     0.050 C 
ATOM     20  C   UNL d   1       2.544  -2.078   0.839  0.00  0.00     0.030 A 
ENDBRANCH   2  13
TORSDOF 2
