REMARK  2 active torsions:
REMARK  status: ('A' for Active; 'I' for Inactive)
REMARK    1  A    between atoms: C_13  and  C_7 
REMARK    2  A    between atoms: N_11  and  C_13 
ROOT
ATOM      1  C   UNL d   1      -0.291   0.504  -0.742  0.00  0.00     0.091 A 
ATOM      2  C   UNL d   1      -0.710  -0.050   0.453  0.00  0.00     0.072 A 
ATOM      3  C   UNL d   1      -0.081   0.448   1.662  0.00  0.00     0.260 A 
ATOM      4  N   UNL d   1       0.596   1.519  -0.908  0.00  0.00    -0.338 N 
ATOM      5  HN  UNL d   1       0.844   1.891  -1.825  1.00  0.00     0.168 HD
ATOM      6  N   UNL d   1       0.819   1.466   1.444  0.00  0.00    -0.311 N 
ATOM      7  C   UNL d   1       1.101   1.978   0.197  0.00  0.00     0.113 A 
ATOM      8  S   UNL d   1      -1.055  -0.221  -2.082  0.00  0.00    -0.083 SA
ATOM      9  C   UNL d   1      -1.752  -1.028   0.274  0.00  0.00    -0.037 A 
ATOM     10  C   UNL d   1      -2.003  -1.222  -1.074  0.00  0.00     0.059 A 
ATOM     11  O   UNL d   1      -0.309   0.027   2.793  0.00  0.00    -0.267 OA
ATOM     12  C   UNL d   1      -2.492  -1.748   1.354  0.00  0.00     0.050 C 
ATOM     13  H   UNL d   1       1.309   1.816   2.257  0.00  0.00     0.170 HD
ENDROOT
BRANCH   7  14
ATOM     14  C   UNL d   1       2.030   3.184   0.172  0.00  0.00     0.348 C 
BRANCH  14  15
ATOM     15  N   UNL d   1       3.436   2.792   0.400  0.00  0.00     0.099 N 
ATOM     16  C   UNL d   1       4.293   4.004   0.473  0.00  0.00     0.299 C 
ATOM     17  C   UNL d   1       4.483   4.728  -0.875  0.00  0.00     0.198 C 
ATOM     18  O   UNL d   1       4.999   3.844  -1.875  0.00  0.00    -0.388 OA
ATOM     19  C   UNL d   1       4.158   2.693  -2.035  0.00  0.00     0.198 C 
ATOM     20  C   UNL d   1       3.974   1.949  -0.701  0.00  0.00     0.299 C 
ENDBRANCH  14  15
ENDBRANCH   7  14
TORSDOF 2
