REMARK  4 active torsions:
REMARK  status: ('A' for Active; 'I' for Inactive)
REMARK    1  A    between atoms: N_4  and  C_3 
REMARK       I    between atoms: C_5  and  N_4 
REMARK    2  A    between atoms: C_6  and  C_5 
REMARK    3  A    between atoms: C_7  and  C_8 
REMARK    4  A    between atoms: O_17  and  C_7 
ROOT
ATOM      1  N   UNL d   1      -4.887   2.413  -0.332  0.00  0.00    -0.321 N 
ATOM      2  C   UNL d   1      -5.053   1.053  -0.309  0.00  0.00     0.246 C 
ATOM      3  O   UNL d   1      -6.202   0.617  -0.339  0.00  0.00    -0.268 OA
ATOM      4  H   UNL d   1      -5.797   2.860  -0.296  0.00  0.00     0.169 HD
ENDROOT
BRANCH   1   5
ATOM      5  C   UNL d   1      -3.762   3.264  -0.291  0.00  0.00     0.077 A 
ATOM      6  C   UNL d   1      -2.448   2.918  -0.630  0.00  0.00     0.184 A 
ATOM      7  C   UNL d   1      -1.404   3.825  -0.456  0.00  0.00     0.195 A 
ATOM      8  F   UNL d   1      -2.158   1.734  -1.186  0.00  0.00    -0.200 F 
ATOM      9  C   UNL d   1      -1.661   5.100   0.022  0.00  0.00     0.158 A 
ATOM     10  F   UNL d   1      -0.147   3.459  -0.749  0.00  0.00    -0.199 F 
ATOM     11  F   UNL d   1      -0.656   5.966   0.213  0.00  0.00    -0.203 F 
ATOM     12  C   UNL d   1      -2.963   5.496   0.298  0.00  0.00     0.048 A 
ATOM     13  C   UNL d   1      -4.011   4.583   0.130  0.00  0.00     0.036 A 
ENDBRANCH   1   5
BRANCH   2  14
ATOM     14  C   UNL d   1      -3.906   0.162  -0.057  0.00  0.00     0.081 C 
ATOM     15  C   UNL d   1      -3.823  -1.126  -0.415  0.00  0.00     0.086 C 
BRANCH  15  16
ATOM     16  C   UNL d   1      -4.806  -1.880  -1.203  0.00  0.00     0.165 C 
ATOM     17  O   UNL d   1      -5.540  -1.487  -2.084  0.00  0.00    -0.647 OA
BRANCH  16  18
ATOM     18  O   UNL d   1      -4.740  -3.177  -0.849  0.00  0.00    -0.773 OA
ATOM     19  H   UNL d   1      -5.422  -3.602  -1.409  0.00  0.00     0.167 HD
ENDBRANCH  16  18
ENDBRANCH  15  16
ENDBRANCH   2  14
TORSDOF 4
