REMARK  5 active torsions:
REMARK  status: ('A' for Active; 'I' for Inactive)
REMARK    1  A    between atoms: C_2  and  C_1 
REMARK    2  A    between atoms: C_3  and  C_2 
REMARK    3  A    between atoms: C_8  and  C_3 
REMARK    4  A    between atoms: N_9  and  C_5 
REMARK       I    between atoms: C_12  and  N_9 
REMARK    5  A    between atoms: C_13  and  C_12 
ROOT
ATOM      1  C   UNL d   1      -0.167   1.095   0.040  0.00  0.00     0.148 A 
ATOM      2  S   UNL d   1       1.154  -0.002  -0.038  0.00  0.00    -0.031 SA
ATOM      3  C   UNL d   1       0.018  -1.268  -0.142  0.00  0.00     0.168 A 
ATOM      4  N   UNL d   1      -1.344   0.511  -0.057  0.00  0.00    -0.290 N 
ATOM      5  HN  UNL d   1      -2.233   1.012  -0.046  1.00  0.00     0.187 HD
ATOM      6  N   UNL d   1      -1.233  -0.861  -0.173  0.00  0.00    -0.279 N 
ATOM      7  HN  UNL d   1      -2.031  -1.489  -0.272  1.00  0.00     0.189 HD
ENDROOT
BRANCH   3   8
ATOM      8  N   UNL d   1       0.375  -2.596  -0.225  0.00  0.00    -0.302 N 
ATOM      9  C   UNL d   1       1.643  -3.097  -0.058  0.00  0.00     0.257 C 
ATOM     10  O   UNL d   1       2.650  -2.467   0.266  0.00  0.00    -0.267 OA
ATOM     11  H   UNL d   1      -0.411  -3.221  -0.321  0.00  0.00     0.171 HD
BRANCH   9  12
ATOM     12  C   UNL d   1       1.784  -4.571  -0.247  0.00  0.00     0.032 A 
ATOM     13  C   UNL d   1       1.003  -5.283  -1.169  0.00  0.00     0.023 A 
ATOM     14  C   UNL d   1       1.194  -6.661  -1.339  0.00  0.00    -0.061 A 
ATOM     15  C   UNL d   1       0.380  -7.441  -2.330  0.00  0.00     0.048 C 
ATOM     16  C   UNL d   1       2.184  -7.314  -0.592  0.00  0.00     0.007 A 
ATOM     17  C   UNL d   1       2.969  -6.606   0.317  0.00  0.00     0.002 A 
ATOM     18  C   UNL d   1       2.771  -5.238   0.487  0.00  0.00     0.017 A 
ENDBRANCH   9  12
ENDBRANCH   3   8
BRANCH   1  19
ATOM     19  C   UNL d   1       0.093   2.554   0.216  0.00  0.00     0.366 C 
ATOM     20  F   UNL d   1       0.963   2.762   1.255  0.00  0.00    -0.191 F 
ATOM     21  F   UNL d   1       0.754   3.034  -0.886  0.00  0.00    -0.191 F 
BRANCH  19  22
ATOM     22  C   UNL d   1      -1.141   3.403   0.442  0.00  0.00     0.409 C 
ATOM     23  F   UNL d   1      -0.742   4.715   0.547  0.00  0.00    -0.189 F 
ATOM     24  F   UNL d   1      -1.974   3.384  -0.638  0.00  0.00    -0.189 F 
BRANCH  22  25
ATOM     25  C   UNL d   1      -1.870   2.994   1.713  0.00  0.00     0.461 C 
ATOM     26  F   UNL d   1      -1.154   2.168   2.508  0.00  0.00    -0.165 F 
ATOM     27  F   UNL d   1      -2.186   4.077   2.469  0.00  0.00    -0.165 F 
ATOM     28  F   UNL d   1      -3.043   2.371   1.446  0.00  0.00    -0.165 F 
ENDBRANCH  22  25
ENDBRANCH  19  22
ENDBRANCH   1  19
TORSDOF 5
