REMARK  7 active torsions:
REMARK  status: ('A' for Active; 'I' for Inactive)
REMARK    1  A    between atoms: C_2  and  N_1 
REMARK    2  A    between atoms: S_10  and  C_3 
REMARK    3  A    between atoms: C_4  and  C_7 
REMARK    4  A    between atoms: C_5  and  C_4 
REMARK    5  A    between atoms: C_8  and  C_6 
REMARK    6  A    between atoms: O_18  and  C_8 
REMARK    7  A    between atoms: C_17  and  S_10 
ROOT
ATOM      1  C   UNL d   1       0.230  -0.827   0.701  0.00  0.00     0.120 A 
ATOM      2  C   UNL d   1       0.789  -0.865   1.987  0.00  0.00     0.039 A 
ATOM      3  C   UNL d   1      -1.261  -1.940   2.776  0.00  0.00     0.016 A 
ATOM      4  C   UNL d   1       0.036  -1.461   3.011  0.00  0.00     0.036 A 
ATOM      5  C   UNL d   1      -1.062  -1.309   0.444  0.00  0.00     0.038 A 
ATOM      6  C   UNL d   1      -1.806  -1.862   1.486  0.00  0.00     0.018 A 
ENDROOT
BRANCH   3   7
ATOM      7  C   UNL d   1      -2.096  -2.544   3.856  0.00  0.00     0.193 C 
ATOM      8  O   UNL d   1      -3.014  -3.301   3.551  0.00  0.00    -0.287 OA
BRANCH   7   9
ATOM      9  C   UNL d   1      -1.930  -2.198   5.287  0.00  0.00     0.032 A 
ATOM     10  C   UNL d   1      -2.064  -3.132   6.330  0.00  0.00     0.051 A 
ATOM     11  C   UNL d   1      -1.913  -2.679   7.659  0.00  0.00     0.019 A 
ATOM     12  C   UNL d   1      -1.641  -1.341   7.949  0.00  0.00     0.001 A 
ATOM     13  C   UNL d   1      -1.527  -0.422   6.916  0.00  0.00     0.001 A 
ATOM     14  C   UNL d   1      -1.690  -0.842   5.597  0.00  0.00     0.016 A 
BRANCH  10  15
ATOM     15  C   UNL d   1      -2.268  -4.609   6.212  0.00  0.00     0.177 C 
ATOM     16  O   UNL d   1      -1.798  -5.367   7.046  0.00  0.00    -0.646 OA
BRANCH  15  17
ATOM     17  O   UNL d   1      -3.063  -5.061   5.228  0.00  0.00    -0.773 OA
ATOM     18  H   UNL d   1      -3.338  -4.404   4.546  0.00  0.00     0.167 HD
ENDBRANCH  15  17
ENDBRANCH  10  15
ENDBRANCH   7   9
ENDBRANCH   3   7
BRANCH   2  19
ATOM     19  S   UNL d   1       2.400  -0.247   2.431  0.00  0.00    -0.088 SA
BRANCH  19  20
ATOM     20  C   UNL d   1       2.171   1.486   2.817  0.00  0.00     0.005 A 
ATOM     21  C   UNL d   1       0.973   2.192   2.668  0.00  0.00     0.019 A 
ATOM     22  C   UNL d   1       0.929   3.576   2.886  0.00  0.00     0.008 A 
ATOM     23  C   UNL d   1       2.078   4.279   3.266  0.00  0.00    -0.062 A 
ATOM     24  C   UNL d   1       3.262   3.569   3.471  0.00  0.00     0.008 A 
ATOM     25  C   UNL d   1       2.048   5.776   3.370  0.00  0.00     0.048 C 
ATOM     26  C   UNL d   1       3.304   2.188   3.252  0.00  0.00     0.019 A 
ENDBRANCH  19  20
ENDBRANCH   2  19
BRANCH   1  27
ATOM     27  N   UNL d   1       0.975  -0.307  -0.427  0.00  0.00    -0.114 N 
ATOM     28  O   UNL d   1       1.979  -0.939  -0.785  0.00  0.00    -0.532 OA
ATOM     29  O   UNL d   1       0.507   0.691  -0.989  0.00  0.00    -0.532 OA
ENDBRANCH   1  27
TORSDOF 7
