REMARK  4 active torsions:
REMARK  status: ('A' for Active; 'I' for Inactive)
REMARK    1  A    between atoms: C_5  and  C_1 
REMARK    2  A    between atoms: C_13  and  C_4 
REMARK       I    between atoms: N_11  and  C_5 
REMARK       I    between atoms: C_8  and  N_12 
REMARK    3  A    between atoms: C_9  and  C_8 
REMARK    4  A    between atoms: N_12  and  N_11 
ROOT
ATOM      1  C   UNL d   1       0.618  -1.011  -0.009  0.00  0.00     0.241 A 
ATOM      2  N   UNL d   1       1.309   0.110  -0.072  0.00  0.00    -0.315 N 
ATOM      3  HN  UNL d   1       2.318   0.236  -0.153  1.00  0.00     0.169 HD
ATOM      4  C   UNL d   1       0.315   1.076  -0.003  0.00  0.00     0.138 A 
ATOM      5  N   UNL d   1      -0.926   0.568   0.086  0.00  0.00    -0.242 N 
ATOM      6  HN  UNL d   1      -1.809   1.074   0.142  1.00  0.00     0.196 HD
ATOM      7  O   UNL d   1      -0.726  -0.811   0.082  0.00  0.00    -0.212 OA
ENDROOT
BRANCH   1   8
ATOM      8  C   UNL d   1       1.128  -2.369  -0.009  0.00  0.00     0.313 C 
ATOM      9  N   UNL d   1       2.512  -2.478  -0.089  0.00  0.00    -0.260 N 
ATOM     10  H   UNL d   1       3.124  -1.664  -0.164  0.00  0.00     0.190 HD
ATOM     11  O   UNL d   1       0.430  -3.381   0.062  0.00  0.00    -0.262 OA
BRANCH   9  12
ATOM     12  N   UNL d   1       3.101  -3.758  -0.093  0.00  0.00    -0.263 N 
ATOM     13  C   UNL d   1       4.485  -3.869  -0.132  0.00  0.00     0.290 C 
ATOM     14  O   UNL d   1       5.178  -2.844  -0.160  0.00  0.00    -0.267 OA
ATOM     15  H   UNL d   1       2.471  -4.560  -0.004  0.00  0.00     0.190 HD
BRANCH  13  16
ATOM     16  C   UNL d   1       5.083  -5.299  -0.165  0.00  0.00     0.271 C 
ATOM     17 CL   UNL d   1       3.819  -6.556  -0.036  0.00  0.00    -0.073 Cl
ATOM     18 CL   UNL d   1       5.948  -5.500  -1.712  0.00  0.00    -0.073 Cl
ATOM     19 CL   UNL d   1       6.217  -5.474   1.199  0.00  0.00    -0.073 Cl
ENDBRANCH  13  16
ENDBRANCH   9  12
ENDBRANCH   1   8
BRANCH   4  20
ATOM     20  C   UNL d   1       0.609   2.510  -0.013  0.00  0.00     0.010 A 
ATOM     21  C   UNL d   1       1.934   2.953  -0.139  0.00  0.00     0.022 A 
ATOM     22  C   UNL d   1       2.247   4.321  -0.148  0.00  0.00    -0.061 A 
ATOM     23  C   UNL d   1       3.668   4.781  -0.284  0.00  0.00     0.048 C 
ATOM     24  C   UNL d   1       1.215   5.256  -0.022  0.00  0.00     0.007 A 
ATOM     25  C   UNL d   1      -0.107   4.834   0.103  0.00  0.00     0.002 A 
ATOM     26  C   UNL d   1      -0.409   3.469   0.107  0.00  0.00     0.015 A 
ENDBRANCH   4  20
TORSDOF 4
