REMARK  6 active torsions:
REMARK  status: ('A' for Active; 'I' for Inactive)
REMARK    1  A    between atoms: C_2  and  C_1 
REMARK       I    between atoms: N_8  and  C_2 
REMARK    2  A    between atoms: S_14  and  C_5 
REMARK    3  A    between atoms: C_12  and  N_8 
REMARK    4  A    between atoms: S_16  and  C_13 
REMARK    5  A    between atoms: C_19  and  S_14 
REMARK    6  A    between atoms: C_20  and  S_16 
ROOT
ATOM      1  N   UNL d   1      -4.675   2.610  -0.665  0.00  0.00    -0.343 N 
ATOM      2  HN  UNL d   1      -5.344   2.917  -1.370  1.00  0.00     0.167 HD
ATOM      3  C   UNL d   1      -3.435   3.153  -0.595  0.00  0.00     0.102 C 
ATOM      4  C   UNL d   1      -2.474   2.742   0.340  0.00  0.00     0.069 C 
ATOM      5  C   UNL d   1      -4.996   1.647   0.231  0.00  0.00     0.075 C 
ATOM      6  C   UNL d   1      -2.892   1.845   1.327  0.00  0.00     0.035 C 
ATOM      7  C   UNL d   1      -4.164   1.285   1.274  0.00  0.00     0.039 C 
ENDROOT
BRANCH   4   8
ATOM      8  N   UNL d   1      -1.113   3.166   0.270  0.00  0.00    -0.320 N 
ATOM      9  C   UNL d   1      -0.075   2.292   0.578  0.00  0.00     0.260 C 
ATOM     10  O   UNL d   1      -0.261   1.122   0.906  0.00  0.00    -0.267 OA
ATOM     11  H   UNL d   1      -0.908   3.924  -0.373  0.00  0.00     0.169 HD
BRANCH   9  12
ATOM     12  C   UNL d   1       1.276   2.784   0.413  0.00  0.00     0.087 A 
ATOM     13  C   UNL d   1       2.362   1.942   0.226  0.00  0.00     0.090 A 
ATOM     14  O   UNL d   1       3.500   2.671   0.136  0.00  0.00    -0.242 OA
ATOM     15  C   UNL d   1       2.510   0.475   0.119  0.00  0.00     0.080 C 
ATOM     16  N   UNL d   1       3.199   4.008   0.281  0.00  0.00    -0.265 N 
ATOM     17  C   UNL d   1       1.874   4.072   0.473  0.00  0.00     0.047 A 
ATOM     18  HN  UNL d   1       3.852   4.791   0.248  1.00  0.00     0.194 HD
ATOM     19  C   UNL d   1       1.271   5.397   0.749  0.00  0.00     0.071 C 
ENDBRANCH   9  12
ENDBRANCH   4   8
BRANCH   3  20
ATOM     20  S   UNL d   1      -3.088   4.415  -1.809  0.00  0.00    -0.070 SA
BRANCH  20  21
ATOM     21  C   UNL d   1      -2.530   3.451  -3.203  0.00  0.00     0.007 A 
ATOM     22  C   UNL d   1      -3.257   2.369  -3.716  0.00  0.00     0.019 A 
ATOM     23  C   UNL d   1      -2.781   1.661  -4.823  0.00  0.00     0.001 A 
ATOM     24  C   UNL d   1      -1.585   2.037  -5.432  0.00  0.00     0.000 A 
ATOM     25  C   UNL d   1      -0.869   3.127  -4.943  0.00  0.00     0.001 A 
ATOM     26  C   UNL d   1      -1.342   3.833  -3.836  0.00  0.00     0.019 A 
ENDBRANCH  20  21
ENDBRANCH   3  20
BRANCH   5  27
ATOM     27  S   UNL d   1      -6.505   0.754  -0.048  0.00  0.00    -0.073 SA
BRANCH  27  28
ATOM     28  C   UNL d   1      -5.987  -0.648  -1.044  0.00  0.00     0.007 A 
ATOM     29  C   UNL d   1      -4.696  -0.822  -1.562  0.00  0.00     0.019 A 
ATOM     30  C   UNL d   1      -4.378  -1.939  -2.343  0.00  0.00     0.001 A 
ATOM     31  C   UNL d   1      -5.349  -2.898  -2.620  0.00  0.00     0.000 A 
ATOM     32  C   UNL d   1      -6.636  -2.741  -2.113  0.00  0.00     0.001 A 
ATOM     33  C   UNL d   1      -6.952  -1.625  -1.330  0.00  0.00     0.019 A 
ENDBRANCH  27  28
ENDBRANCH   5  27
TORSDOF 6
