REMARK  8 active torsions:
REMARK  status: ('A' for Active; 'I' for Inactive)
REMARK    1  A    between atoms: C_6  and  C_1 
REMARK    2  A    between atoms: C_8  and  C_2 
REMARK    3  A    between atoms: C_11  and  C_2 
REMARK    4  A    between atoms: N_7  and  C_3 
REMARK    5  A    between atoms: N_4  and  N_7 
REMARK    6  A    between atoms: O_16  and  C_6 
REMARK    7  A    between atoms: O_17  and  C_8 
REMARK    8  A    between atoms: C_19  and  O_17 
ROOT
ATOM      1  C   UNL d   1       3.884   3.478   0.143  0.00  0.00     0.169 C 
ATOM      2  N   UNL d   1       2.723   2.891   0.269  0.00  0.00    -0.292 N 
ATOM      3  HN  UNL d   1       1.907   3.441   0.536  1.00  0.00     0.187 HD
ENDROOT
BRANCH   2   4
ATOM      4  N   UNL d   1       2.590   1.552   0.045  0.00  0.00    -0.299 N 
ATOM      5  H   UNL d   1       3.418   0.945   0.113  0.00  0.00     0.187 HD
BRANCH   4   6
ATOM      6  C   UNL d   1       1.357   0.970   0.003  0.00  0.00     0.071 A 
ATOM      7  C   UNL d   1       1.088  -0.388  -0.079  0.00  0.00     0.108 A 
ATOM      8  S   UNL d   1      -0.619  -0.674  -0.090  0.00  0.00    -0.094 SA
ATOM      9  C   UNL d   1      -0.984   0.983   0.008  0.00  0.00     0.053 A 
ATOM     10  C   UNL d   1       0.154   1.751   0.047  0.00  0.00     0.039 A 
BRANCH   7  11
ATOM     11  C   UNL d   1       1.935  -1.564  -0.156  0.00  0.00     0.302 C 
ATOM     12  O   UNL d   1       1.545  -2.725  -0.238  0.00  0.00    -0.259 OA
BRANCH  11  13
ATOM     13  O   UNL d   1       3.265  -1.230  -0.130  0.00  0.00    -0.322 OA
ATOM     14  C   UNL d   1       4.111  -2.384  -0.206  0.00  0.00     0.213 C 
ENDBRANCH  11  13
ENDBRANCH   7  11
ENDBRANCH   4   6
ENDBRANCH   2   4
BRANCH   1  15
ATOM     15  C   UNL d   1       5.168   2.801  -0.272  0.00  0.00     0.315 C 
ATOM     16  O   UNL d   1       5.910   3.301  -1.097  0.00  0.00    -0.257 OA
BRANCH  15  17
ATOM     17  O   UNL d   1       5.298   1.607   0.343  0.00  0.00    -0.317 OA
BRANCH  17  18
ATOM     18  C   UNL d   1       6.404   0.798  -0.081  0.00  0.00     0.175 C 
ATOM     19  C   UNL d   1       7.175   0.346   1.143  0.00  0.00     0.034 C 
ENDBRANCH  17  18
ENDBRANCH  15  17
ENDBRANCH   1  15
BRANCH   1  20
ATOM     20  C   UNL d   1       3.887   4.973   0.369  0.00  0.00     0.179 C 
ATOM     21  O   UNL d   1       4.749   5.461   1.089  0.00  0.00    -0.291 OA
ATOM     22  C   UNL d   1       2.782   5.761  -0.274  0.00  0.00     0.099 C 
ENDBRANCH   1  20
TORSDOF 8
