REMARK  4 active torsions:
REMARK  status: ('A' for Active; 'I' for Inactive)
REMARK    1  A    between atoms: C_12  and  C_3 
REMARK    2  A    between atoms: N_9  and  C_4 
REMARK    3  A    between atoms: C_20  and  N_9 
REMARK    4  A    between atoms: C_14  and  C_15 
ROOT
ATOM      1  C   UNL d   1      -0.022  -0.503   0.039  0.00  0.00     0.076 A 
ATOM      2  S   UNL d   1       1.668  -0.795   0.080  0.00  0.00    -0.084 SA
ATOM      3  C   UNL d   1       2.059   0.878   0.013  0.00  0.00     0.018 A 
ATOM      4  C   UNL d   1      -1.090  -1.409   0.045  0.00  0.00     0.126 A 
ATOM      5  C   UNL d   1       0.907   1.638  -0.044  0.00  0.00     0.050 A 
ATOM      6  C   UNL d   1      -0.286   0.858  -0.034  0.00  0.00     0.055 A 
ATOM      7  N   UNL d   1      -2.340  -0.890  -0.033  0.00  0.00    -0.337 N 
ATOM      8  HN  UNL d   1      -3.153  -1.506  -0.055  1.00  0.00     0.168 HD
ATOM      9  N   UNL d   1      -1.539   1.367  -0.087  0.00  0.00    -0.351 N 
ATOM     10  HN  UNL d   1      -1.732   2.367  -0.128  1.00  0.00     0.166 HD
ATOM     11  C   UNL d   1      -2.498   0.437  -0.082  0.00  0.00     0.182 A 
ENDROOT
BRANCH   3  12
ATOM     12  C   UNL d   1       3.463   1.329  -0.001  0.00  0.00    -0.019 A 
ATOM     13  C   UNL d   1       3.823   2.525  -0.639  0.00  0.00     0.013 A 
ATOM     14  C   UNL d   1       5.156   2.961  -0.660  0.00  0.00     0.009 A 
ATOM     15  C   UNL d   1       6.182   2.219  -0.050  0.00  0.00    -0.051 A 
ATOM     16  C   UNL d   1       5.810   1.033   0.598  0.00  0.00     0.009 A 
ATOM     17  C   UNL d   1       4.479   0.600   0.625  0.00  0.00     0.013 A 
BRANCH  15  18
ATOM     18  C   UNL d   1       7.643   2.695  -0.121  0.00  0.00    -0.024 C 
ATOM     19  C   UNL d   1       8.638   1.739   0.578  0.00  0.00     0.019 C 
ATOM     20  C   UNL d   1       8.078   2.803  -1.599  0.00  0.00     0.019 C 
ATOM     21  C   UNL d   1       7.785   4.075   0.552  0.00  0.00     0.019 C 
ENDBRANCH  15  18
ENDBRANCH   3  12
BRANCH   4  22
ATOM     22  N   UNL d   1      -0.911  -2.792   0.164  0.00  0.00    -0.341 N 
ATOM     23  H   UNL d   1       0.022  -3.084   0.424  0.00  0.00     0.167 HD
BRANCH  22  24
ATOM     24  C   UNL d   1      -1.730  -3.811  -0.350  0.00  0.00     0.033 A 
ATOM     25  C   UNL d   1      -2.516  -3.622  -1.494  0.00  0.00     0.031 A 
ATOM     26  C   UNL d   1      -3.359  -4.629  -1.967  0.00  0.00     0.020 A 
ATOM     27  C   UNL d   1      -3.444  -5.834  -1.277  0.00  0.00     0.006 A 
ATOM     28  C   UNL d   1      -2.677  -6.042  -0.131  0.00  0.00     0.020 A 
ATOM     29  I   UNL d   1      -4.735  -7.317  -1.948  0.00  0.00    -0.045 I 
ATOM     30  C   UNL d   1      -1.817  -5.036   0.323  0.00  0.00     0.031 A 
ENDBRANCH  22  24
ENDBRANCH   4  22
TORSDOF 4
