REMARK  7 active torsions:
REMARK  status: ('A' for Active; 'I' for Inactive)
REMARK    1  A    between atoms: C_3  and  C_1 
REMARK    2  A    between atoms: O_5  and  C_1 
REMARK    3  A    between atoms: C_2  and  O_6 
REMARK    4  A    between atoms: C_4  and  C_2 
REMARK    5  A    between atoms: C_17  and  O_5 
REMARK    6  A    between atoms: O_6  and  C_18 
REMARK    7  A    between atoms: C_12  and  C_11 
ROOT
ATOM      1  C   UNL d   1      -3.755   0.925   1.001  0.00  0.00    -0.026 A 
ATOM      2  C   UNL d   1      -3.024   2.112   0.803  0.00  0.00     0.015 A 
ATOM      3  C   UNL d   1      -3.010  -0.258   1.175  0.00  0.00     0.015 A 
ATOM      4  C   UNL d   1      -0.919   0.922   1.005  0.00  0.00     0.079 A 
ATOM      5  C   UNL d   1      -1.620   2.110   0.798  0.00  0.00     0.038 A 
ATOM      6  C   UNL d   1      -1.612  -0.267   1.180  0.00  0.00     0.038 A 
ENDROOT
BRANCH   1   7
ATOM      7  C   UNL d   1      -5.238   0.892   1.060  0.00  0.00    -0.026 A 
ATOM      8  C   UNL d   1      -5.894  -0.017   1.913  0.00  0.00     0.015 A 
ATOM      9  C   UNL d   1      -7.286  -0.092   2.004  0.00  0.00     0.038 A 
ATOM     10  C   UNL d   1      -8.068   0.772   1.253  0.00  0.00     0.079 A 
ATOM     11  C   UNL d   1      -7.460   1.683   0.387  0.00  0.00     0.038 A 
ATOM     12  C   UNL d   1      -6.060   1.739   0.289  0.00  0.00     0.015 A 
BRANCH  10  13
ATOM     13  O   UNL d   1      -9.479   0.853   1.359  0.00  0.00    -0.275 OA
BRANCH  13  14
ATOM     14  C   UNL d   1     -10.280   0.016   2.130  0.00  0.00     0.300 C 
ATOM     15  O   UNL d   1      -9.950  -0.971   2.764  0.00  0.00    -0.259 OA
BRANCH  14  16
ATOM     16  C   UNL d   1     -11.626   0.613   2.249  0.00  0.00     0.061 A 
ATOM     17  C   UNL d   1     -12.358   1.116   1.169  0.00  0.00     0.050 A 
ATOM     18 CL   UNL d   1     -11.838   0.978  -0.472  0.00  0.00    -0.083 Cl
ATOM     19  C   UNL d   1     -13.602   1.717   1.399  0.00  0.00     0.025 A 
ATOM     20  C   UNL d   1     -14.126   1.795   2.692  0.00  0.00     0.002 A 
ATOM     21  C   UNL d   1     -13.421   1.252   3.762  0.00  0.00     0.001 A 
ATOM     22  C   UNL d   1     -12.176   0.660   3.543  0.00  0.00     0.019 A 
ENDBRANCH  14  16
ENDBRANCH  13  14
ENDBRANCH  10  13
ENDBRANCH   1   7
BRANCH   4  23
ATOM     23  O   UNL d   1       0.491   0.995   0.926  0.00  0.00    -0.275 OA
BRANCH  23  24
ATOM     24  C   UNL d   1       1.321   0.037   1.483  0.00  0.00     0.300 C 
ATOM     25  O   UNL d   1       1.022  -0.840   2.281  0.00  0.00    -0.259 OA
BRANCH  24  26
ATOM     26  C   UNL d   1       2.729   0.284   1.076  0.00  0.00     0.061 A 
ATOM     27  C   UNL d   1       3.128   0.656  -0.215  0.00  0.00     0.050 A 
ATOM     28 CL   UNL d   1       2.038   0.809  -1.548  0.00  0.00    -0.083 Cl
ATOM     29  C   UNL d   1       4.487   0.863  -0.490  0.00  0.00     0.025 A 
ATOM     30  C   UNL d   1       5.450   0.678   0.504  0.00  0.00     0.002 A 
ATOM     31  C   UNL d   1       5.062   0.274   1.778  0.00  0.00     0.001 A 
ATOM     32  C   UNL d   1       3.710   0.074   2.062  0.00  0.00     0.019 A 
ENDBRANCH  24  26
ENDBRANCH  23  24
ENDBRANCH   4  23
TORSDOF 7
