REMARK  6 active torsions:
REMARK  status: ('A' for Active; 'I' for Inactive)
REMARK    1  A    between atoms: C_10  and  N_1 
REMARK    2  A    between atoms: S_9  and  C_2 
REMARK    3  A    between atoms: C_7  and  C_11 
REMARK    4  A    between atoms: C_14  and  S_9 
REMARK    5  A    between atoms: C_12  and  C_14 
REMARK    6  A    between atoms: C_13  and  C_12 
ROOT
ATOM      1  N   UNL d   1      -0.251   1.108  -0.083  0.00  0.00    -0.286 N 
ATOM      2  C   UNL d   1       1.025   0.619  -0.323  0.00  0.00     0.167 A 
ATOM      3  N   UNL d   1       1.036  -0.692  -0.236  0.00  0.00    -0.279 N 
ATOM      4  HN  UNL d   1       1.853  -1.294  -0.337  1.00  0.00     0.189 HD
ATOM      5  N   UNL d   1      -0.247  -1.106   0.015  0.00  0.00    -0.294 N 
ATOM      6  HN  UNL d   1      -0.556  -2.070   0.134  1.00  0.00     0.187 HD
ATOM      7  C   UNL d   1      -1.006  -0.033   0.073  0.00  0.00     0.207 A 
ENDROOT
BRANCH   2   8
ATOM      8  S   UNL d   1       2.349   1.581  -0.882  0.00  0.00    -0.084 SA
BRANCH   8   9
ATOM      9  C   UNL d   1       3.705   0.381  -1.015  0.00  0.00     0.166 C 
BRANCH   9  10
ATOM     10  C   UNL d   1       5.007   1.107  -1.340  0.00  0.00     0.169 C 
ATOM     11  O   UNL d   1       5.090   2.331  -1.466  0.00  0.00    -0.291 OA
BRANCH  10  12
ATOM     12  C   UNL d   1       6.262   0.315  -1.501  0.00  0.00     0.011 A 
ATOM     13  C   UNL d   1       6.299  -1.079  -1.384  0.00  0.00     0.018 A 
ATOM     14  C   UNL d   1       7.514  -1.756  -1.529  0.00  0.00     0.043 A 
ATOM     15  C   UNL d   1       8.682  -1.045  -1.790  0.00  0.00     0.116 A 
ATOM     16  C   UNL d   1       8.660   0.338  -1.916  0.00  0.00     0.043 A 
ATOM     17  F   UNL d   1       9.841  -1.701  -1.918  0.00  0.00    -0.206 F 
ATOM     18  C   UNL d   1       7.451   1.018  -1.773  0.00  0.00     0.018 A 
ENDBRANCH  10  12
ENDBRANCH   9  10
ENDBRANCH   8   9
ENDBRANCH   2   8
BRANCH   1  19
ATOM     19  C   UNL d   1      -0.739   2.444   0.015  0.00  0.00     0.042 A 
ATOM     20  C   UNL d   1      -2.077   2.728  -0.300  0.00  0.00     0.031 A 
ATOM     21  C   UNL d   1      -2.563   4.038  -0.199  0.00  0.00     0.018 A 
ATOM     22  C   UNL d   1      -1.732   5.081   0.234  0.00  0.00     0.048 A 
ATOM     23  C   UNL d   1      -0.402   4.789   0.558  0.00  0.00     0.018 A 
ATOM     24  C   UNL d   1       0.088   3.484   0.456  0.00  0.00     0.031 A 
BRANCH  22  25
ATOM     25  C   UNL d   1      -2.241   6.495   0.378  0.00  0.00     0.417 C 
ATOM     26  F   UNL d   1      -3.545   6.645   0.012  0.00  0.00    -0.166 F 
ATOM     27  F   UNL d   1      -2.160   6.944   1.661  0.00  0.00    -0.166 F 
ATOM     28  F   UNL d   1      -1.536   7.384  -0.375  0.00  0.00    -0.166 F 
ENDBRANCH  22  25
ENDBRANCH   1  19
TORSDOF 6
