REMARK  6 active torsions:
REMARK  status: ('A' for Active; 'I' for Inactive)
REMARK    1  A    between atoms: N_2  and  S_1 
REMARK    2  A    between atoms: C_12  and  S_1 
REMARK       I    between atoms: N_5  and  C_4 
REMARK       I    between atoms: N_8  and  C_4 
REMARK    3  A    between atoms: C_6  and  N_14 
REMARK    4  A    between atoms: N_9  and  C_6 
REMARK    5  A    between atoms: C_7  and  N_9 
REMARK    6  A    between atoms: N_14  and  N_8 
ROOT
ATOM      1  N   UNL d   1       0.132  -0.566  -1.461  0.00  0.00    -0.255 N 
ATOM      2  HN  UNL d   1       0.440   0.169  -0.824  1.00  0.00     0.181 HD
ATOM      3  C   UNL d   1       0.468  -0.471  -2.704  0.00  0.00     0.183 C 
ATOM      4  N   UNL d   1       1.173   0.628  -3.160  0.00  0.00    -0.356 N 
ATOM      5  N   UNL d   1       0.242  -1.312  -3.775  0.00  0.00    -0.173 NA
ATOM      6  C   UNL d   1       0.652   1.969  -2.897  0.00  0.00     0.125 C 
ATOM      7  C   UNL d   1       2.629   0.675  -2.917  0.00  0.00     0.125 C 
ATOM      8  C   UNL d   1       1.742   2.856  -3.471  0.00  0.00     0.021 C 
ATOM      9  C   UNL d   1       3.013   2.156  -3.017  0.00  0.00     0.021 C 
ATOM     10  H   UNL d   1       0.534  -0.849  -4.637  0.00  0.00     0.156 HD
ENDROOT
BRANCH   1  11
ATOM     11  S   UNL d   1      -0.745  -1.778  -0.852  0.00  0.00     0.265 S 
ATOM     12  O   UNL d   1      -0.772  -1.633   0.593  0.00  0.00    -0.200 OA
ATOM     13  O   UNL d   1      -0.320  -3.049  -1.413  0.00  0.00    -0.200 OA
BRANCH  11  14
ATOM     14  C   UNL d   1      -2.422  -1.463  -1.373  0.00  0.00     0.079 A 
ATOM     15  C   UNL d   1      -3.200  -2.487  -1.913  0.00  0.00     0.025 A 
ATOM     16  C   UNL d   1      -4.536  -2.232  -2.240  0.00  0.00     0.002 A 
ATOM     17  C   UNL d   1      -5.080  -0.963  -2.030  0.00  0.00     0.000 A 
ATOM     18  C   UNL d   1      -4.293   0.059  -1.495  0.00  0.00     0.002 A 
ATOM     19  C   UNL d   1      -2.962  -0.189  -1.163  0.00  0.00     0.025 A 
ENDBRANCH  11  14
ENDBRANCH   1  11
BRANCH   5  20
ATOM     20  N   UNL d   1       0.925  -2.550  -3.667  0.00  0.00    -0.291 N 
ATOM     21  H   UNL d   1       0.823  -2.964  -2.733  0.00  0.00     0.183 HD
BRANCH  20  22
ATOM     22  C   UNL d   1       0.864  -3.477  -4.688  0.00  0.00     0.187 C 
ATOM     23  S   UNL d   1       0.143  -3.240  -6.177  0.00  0.00    -0.040 SA
BRANCH  22  24
ATOM     24  N   UNL d   1       1.416  -4.707  -4.398  0.00  0.00    -0.331 N 
ATOM     25  H   UNL d   1       1.024  -5.481  -4.929  0.00  0.00     0.168 HD
BRANCH  24  26
ATOM     26  C   UNL d   1       2.239  -5.038  -3.293  0.00  0.00     0.057 A 
ATOM     27  C   UNL d   1       3.162  -4.116  -2.782  0.00  0.00     0.055 A 
ATOM     28  C   UNL d   1       3.870  -4.401  -1.618  0.00  0.00     0.036 A 
ATOM     29 CL   UNL d   1       4.959  -3.233  -0.980  0.00  0.00    -0.084 Cl
ATOM     30  C   UNL d   1       3.688  -5.616  -0.964  0.00  0.00     0.026 A 
ATOM     31  C   UNL d   1       2.831  -6.575  -1.511  0.00  0.00     0.028 A 
ATOM     32  C   UNL d   1       2.128  -6.298  -2.688  0.00  0.00     0.060 A 
ATOM     33 CL   UNL d   1       1.072  -7.509  -3.323  0.00  0.00    -0.082 Cl
ENDBRANCH  24  26
ENDBRANCH  22  24
ENDBRANCH  20  22
ENDBRANCH   5  20
TORSDOF 6
