REMARK  4 active torsions:
REMARK  status: ('A' for Active; 'I' for Inactive)
REMARK    1  A    between atoms: N_2  and  S_1 
REMARK    2  A    between atoms: C_3  and  S_1 
REMARK    3  A    between atoms: C_6  and  C_9 
REMARK    4  A    between atoms: O_19  and  C_10 
ROOT
ATOM      1  N   UNL d   1       0.345   1.505   0.031  0.00  0.00    -0.307 N 
ATOM      2  C   UNL d   1       1.248   2.496   0.616  0.00  0.00     0.136 C 
ATOM      3  C   UNL d   1      -1.005   1.834  -0.428  0.00  0.00     0.136 C 
ATOM      4  C   UNL d   1      -0.128   4.223  -0.774  0.00  0.00     0.024 C 
ATOM      5  C   UNL d   1       0.987   3.952   0.236  0.00  0.00     0.030 C 
ATOM      6  C   UNL d   1      -1.319   3.319  -0.462  0.00  0.00     0.030 C 
ENDROOT
BRANCH   1   7
ATOM      7  S   UNL d   1       0.795  -0.128   0.075  0.00  0.00     0.260 S 
ATOM      8  O   UNL d   1      -0.404  -0.938   0.064  0.00  0.00    -0.200 OA
ATOM      9  O   UNL d   1       1.813  -0.296   1.091  0.00  0.00    -0.200 OA
BRANCH   7  10
ATOM     10  C   UNL d   1       1.593  -0.355  -1.507  0.00  0.00     0.079 A 
ATOM     11  C   UNL d   1       2.978  -0.189  -1.615  0.00  0.00     0.027 A 
ATOM     12  C   UNL d   1       3.611  -0.433  -2.838  0.00  0.00     0.025 A 
ATOM     13  C   UNL d   1       2.859  -0.855  -3.937  0.00  0.00     0.034 A 
ATOM     14  C   UNL d   1       1.481  -1.035  -3.825  0.00  0.00     0.025 A 
ATOM     15 CL   UNL d   1       3.643  -1.168  -5.436  0.00  0.00    -0.084 Cl
ATOM     16  C   UNL d   1       0.843  -0.791  -2.606  0.00  0.00     0.027 A 
ENDBRANCH   7  10
ENDBRANCH   1   7
BRANCH   4  17
ATOM     17  C   UNL d   1       0.287   4.233  -2.239  0.00  0.00    -0.021 A 
ATOM     18  C   UNL d   1      -0.155   5.235  -3.125  0.00  0.00     0.074 A 
ATOM     19  C   UNL d   1       0.300   5.287  -4.448  0.00  0.00     0.037 A 
ATOM     20  C   UNL d   1       1.184   4.324  -4.926  0.00  0.00     0.003 A 
ATOM     21  C   UNL d   1       1.619   3.313  -4.077  0.00  0.00     0.001 A 
ATOM     22  C   UNL d   1       1.176   3.272  -2.752  0.00  0.00     0.010 A 
BRANCH  18  23
ATOM     23  O   UNL d   1      -0.932   6.295  -2.725  0.00  0.00    -0.355 OA
ATOM     24  C   UNL d   1      -2.291   5.934  -2.496  0.00  0.00     0.210 C 
ENDBRANCH  18  23
ENDBRANCH   4  17
TORSDOF 4
