REMARK  3 active torsions:
REMARK  status: ('A' for Active; 'I' for Inactive)
REMARK    1  A    between atoms: C_6  and  C_1 
REMARK    2  A    between atoms: C_8  and  N_3 
REMARK    3  A    between atoms: C_9  and  C_4 
REMARK       I    between atoms: N_7  and  C_6 
ROOT
ATOM      1  C   UNL d   1      -0.271   1.151  -0.061  0.00  0.00     0.057 C 
ATOM      2  C   UNL d   1       1.040   0.694   0.064  0.00  0.00     0.029 C 
ATOM      3  N   UNL d   1       1.043  -0.708   0.037  0.00  0.00    -0.314 N 
ATOM      4  C   UNL d   1      -0.295  -1.137  -0.083  0.00  0.00     0.051 C 
ATOM      5  C   UNL d   1      -1.061  -0.006  -0.252  0.00  0.00     0.050 C 
ATOM      6  C   UNL d   1       2.270   1.524   0.286  0.00  0.00     0.070 C 
ENDROOT
BRANCH   1   7
ATOM      7  C   UNL d   1      -0.693   2.557  -0.069  0.00  0.00     0.255 C 
ATOM      8  N   UNL d   1      -1.900   2.903   0.563  0.00  0.00    -0.348 N 
ATOM      9  C   UNL d   1      -2.464   4.228   0.303  0.00  0.00     0.126 C 
ATOM     10  C   UNL d   1      -2.732   2.013   1.375  0.00  0.00     0.126 C 
ATOM     11  C   UNL d   1      -2.900   4.920   1.591  0.00  0.00     0.020 C 
ATOM     12  C   UNL d   1      -3.844   4.036   2.400  0.00  0.00     0.003 C 
ATOM     13  C   UNL d   1      -3.200   2.682   2.665  0.00  0.00     0.020 C 
ATOM     14  O   UNL d   1       0.008   3.407  -0.618  0.00  0.00    -0.267 OA
ENDBRANCH   1   7
BRANCH   3  15
ATOM     15  C   UNL d   1       2.207  -1.542   0.073  0.00  0.00     0.039 A 
ATOM     16  C   UNL d   1       2.214  -2.742   0.797  0.00  0.00     0.030 A 
ATOM     17  C   UNL d   1       3.249  -3.665   0.627  0.00  0.00     0.002 A 
ATOM     18  C   UNL d   1       4.322  -3.365  -0.209  0.00  0.00     0.000 A 
ATOM     19  C   UNL d   1       4.368  -2.135  -0.860  0.00  0.00     0.002 A 
ATOM     20  C   UNL d   1       3.312  -1.230  -0.731  0.00  0.00     0.030 A 
ENDBRANCH   3  15
BRANCH   4  21
ATOM     21  C   UNL d   1      -0.798  -2.527  -0.079  0.00  0.00    -0.009 C 
ATOM     22  C   UNL d   1      -0.168  -3.561  -0.777  0.00  0.00     0.014 C 
ATOM     23  C   UNL d   1      -0.541  -4.895  -0.575  0.00  0.00     0.001 C 
ATOM     24  C   UNL d   1      -1.622  -5.197   0.249  0.00  0.00     0.000 C 
ATOM     25  C   UNL d   1      -2.342  -4.171   0.848  0.00  0.00     0.001 C 
ATOM     26  C   UNL d   1      -1.930  -2.842   0.692  0.00  0.00     0.014 C 
ENDBRANCH   4  21
TORSDOF 3
