REMARK  7 active torsions:
REMARK  status: ('A' for Active; 'I' for Inactive)
REMARK    1  A    between atoms: C_8  and  C_1 
REMARK    2  A    between atoms: N_6  and  C_2 
REMARK    3  A    between atoms: C_9  and  C_4 
REMARK       I    between atoms: C_7  and  N_6 
REMARK    4  A    between atoms: C_10  and  C_7 
REMARK    5  A    between atoms: O_22  and  C_8 
REMARK    6  A    between atoms: O_23  and  C_13 
REMARK    7  A    between atoms: O_24  and  C_15 
ROOT
ATOM      1  C   UNL d   1       0.338   1.377  -0.684  0.00  0.00     0.107 A 
ATOM      2  C   UNL d   1       1.575   0.869  -0.316  0.00  0.00     0.059 A 
ATOM      3  S   UNL d   1      -0.912   0.213  -0.430  0.00  0.00    -0.081 SA
ATOM      4  C   UNL d   1       0.191  -1.022   0.019  0.00  0.00     0.025 A 
ATOM      5  C   UNL d   1       1.479  -0.514   0.026  0.00  0.00     0.051 A 
ENDROOT
BRANCH   2   6
ATOM      6  N   UNL d   1       2.820   1.503  -0.309  0.00  0.00    -0.321 N 
ATOM      7  C   UNL d   1       3.036   2.853  -0.109  0.00  0.00     0.256 C 
ATOM      8  O   UNL d   1       2.197   3.651   0.298  0.00  0.00    -0.267 OA
ATOM      9  H   UNL d   1       3.625   0.892  -0.231  0.00  0.00     0.169 HD
BRANCH   7  10
ATOM     10  C   UNL d   1       4.429   3.334  -0.366  0.00  0.00     0.035 A 
ATOM     11  C   UNL d   1       4.861   4.513   0.260  0.00  0.00     0.056 A 
ATOM     12  C   UNL d   1       6.132   5.055  -0.002  0.00  0.00     0.102 A 
ATOM     13  C   UNL d   1       6.998   4.385  -0.880  0.00  0.00     0.101 A 
ATOM     14  C   UNL d   1       6.557   3.208  -1.504  0.00  0.00     0.040 A 
ATOM     15  C   UNL d   1       5.283   2.686  -1.261  0.00  0.00     0.020 A 
BRANCH  12  16
ATOM     16  O   UNL d   1       6.561   6.202   0.611  0.00  0.00    -0.353 OA
ATOM     17  C   UNL d   1       5.562   7.185   0.868  0.00  0.00     0.210 C 
ENDBRANCH  12  16
BRANCH  13  18
ATOM     18  O   UNL d   1       8.263   4.735  -1.275  0.00  0.00    -0.353 OA
ATOM     19  C   UNL d   1       8.892   5.857  -0.673  0.00  0.00     0.210 C 
ENDBRANCH  13  18
ENDBRANCH   7  10
ENDBRANCH   2   6
BRANCH   1  20
ATOM     20  C   UNL d   1      -0.014   2.650  -1.287  0.00  0.00     0.302 C 
ATOM     21  O   UNL d   1      -1.058   3.279  -1.132  0.00  0.00    -0.259 OA
BRANCH  20  22
ATOM     22  O   UNL d   1       0.984   3.020  -2.148  0.00  0.00    -0.322 OA
ATOM     23  C   UNL d   1       0.939   4.377  -2.588  0.00  0.00     0.213 C 
ENDBRANCH  20  22
ENDBRANCH   1  20
BRANCH   4  24
ATOM     24  C   UNL d   1      -0.202  -2.385   0.340  0.00  0.00     0.022 A 
ATOM     25  S   UNL d   1       0.975  -3.537   0.869  0.00  0.00    -0.101 SA
ATOM     26  C   UNL d   1      -0.170  -4.788   1.003  0.00  0.00     0.050 A 
ATOM     27  C   UNL d   1      -1.433  -4.362   0.665  0.00  0.00     0.008 A 
ATOM     28  C   UNL d   1      -1.450  -2.979   0.286  0.00  0.00     0.021 A 
ENDBRANCH   4  24
TORSDOF 7
