REMARK  2 active torsions:
REMARK  status: ('A' for Active; 'I' for Inactive)
REMARK    1  A    between atoms: S_8  and  C_3 
REMARK    2  A    between atoms: C_7  and  N_4 
ROOT
ATOM      1  N   UNL d   1      -0.896  -1.204  -0.437  0.00  0.00    -0.346 N 
ATOM      2  HN  UNL d   1      -0.558  -2.099  -0.789  1.00  0.00     0.163 HD
ATOM      3  C   UNL d   1      -2.121  -0.789  -0.265  0.00  0.00     0.156 C 
ATOM      4  N   UNL d   1      -2.323   0.458   0.281  0.00  0.00    -0.254 N 
ATOM      5  N   UNL d   1      -1.041   0.989   0.590  0.00  0.00    -0.202 NA
ATOM      6  C   UNL d   1      -0.132  -0.022   0.016  0.00  0.00     0.103 C 
ATOM      7  C   UNL d   1       0.669   0.526  -1.183  0.00  0.00     0.049 C 
ATOM      8  C   UNL d   1       0.931  -0.447   1.050  0.00  0.00     0.049 C 
ATOM      9  C   UNL d   1       1.998   0.958  -0.587  0.00  0.00     0.004 C 
ATOM     10  C   UNL d   1       2.287  -0.153   0.407  0.00  0.00     0.004 C 
ATOM     11  H   UNL d   1      -0.909   1.876   0.104  0.00  0.00     0.150 HD
ENDROOT
BRANCH   4  12
ATOM     12  C   UNL d   1      -3.331   1.388  -0.087  0.00  0.00     0.053 A 
ATOM     13  C   UNL d   1      -3.760   2.348   0.845  0.00  0.00     0.031 A 
ATOM     14  C   UNL d   1      -4.766   3.264   0.525  0.00  0.00     0.002 A 
ATOM     15  C   UNL d   1      -5.345   3.249  -0.742  0.00  0.00     0.000 A 
ATOM     16  C   UNL d   1      -4.912   2.327  -1.690  0.00  0.00     0.002 A 
ATOM     17  C   UNL d   1      -3.910   1.406  -1.366  0.00  0.00     0.031 A 
ENDBRANCH   4  12
BRANCH   3  18
ATOM     18  S   UNL d   1      -3.418  -1.886  -0.654  0.00  0.00    -0.106 SA
ATOM     19  H   UNL d   1      -2.605  -2.890  -1.005  0.00  0.00     0.110 HD
ENDBRANCH   3  18
TORSDOF 2
