REMARK  6 active torsions:
REMARK  status: ('A' for Active; 'I' for Inactive)
REMARK    1  A    between atoms: C_3  and  S_1 
REMARK    2  A    between atoms: C_8  and  S_1 
REMARK    3  A    between atoms: C_6  and  C_2 
REMARK    4  A    between atoms: N_4  and  C_7 
REMARK    5  A    between atoms: O_17  and  C_6 
REMARK    6  A    between atoms: C_16  and  C_8 
ROOT
ATOM      1  C   UNL d   1       0.456   2.125  -1.380  0.00  0.00     0.063 A 
ATOM      2  C   UNL d   1       0.277   0.727  -1.327  0.00  0.00     0.075 A 
ATOM      3  C   UNL d   1       0.145   2.811  -2.576  0.00  0.00     0.055 A 
ATOM      4  C   UNL d   1      -0.359   2.121  -3.683  0.00  0.00     0.103 A 
ATOM      5  C   UNL d   1      -0.263   0.052  -2.438  0.00  0.00     0.027 A 
ATOM      6  C   UNL d   1      -0.581   0.745  -3.611  0.00  0.00     0.037 A 
ENDROOT
BRANCH   2   7
ATOM      7  S   UNL d   1       0.727  -0.211   0.132  0.00  0.00     0.180 S 
ATOM      8  O   UNL d   1      -0.091   0.322   1.205  0.00  0.00    -0.222 OA
ATOM      9  O   UNL d   1       2.179  -0.197   0.156  0.00  0.00    -0.222 OA
BRANCH   7  10
ATOM     10  C   UNL d   1       0.233  -1.908  -0.133  0.00  0.00     0.184 C 
BRANCH  10  11
ATOM     11  C   UNL d   1       0.712  -2.764   1.017  0.00  0.00    -0.044 A 
ATOM     12  C   UNL d   1      -0.116  -3.014   2.121  0.00  0.00     0.010 A 
ATOM     13  C   UNL d   1       0.340  -3.798   3.186  0.00  0.00     0.024 A 
ATOM     14  C   UNL d   1       1.626  -4.334   3.155  0.00  0.00     0.034 A 
ATOM     15  C   UNL d   1       2.459  -4.098   2.065  0.00  0.00     0.024 A 
ATOM     16 CL   UNL d   1       2.190  -5.287   4.471  0.00  0.00    -0.084 Cl
ATOM     17  C   UNL d   1       2.004  -3.316   1.000  0.00  0.00     0.010 A 
ENDBRANCH  10  11
ENDBRANCH   7  10
ENDBRANCH   2   7
BRANCH   1  18
ATOM     18  C   UNL d   1       0.884   3.021  -0.264  0.00  0.00     0.294 C 
ATOM     19  O   UNL d   1       0.524   4.188  -0.204  0.00  0.00    -0.259 OA
BRANCH  18  20
ATOM     20  O   UNL d   1       1.731   2.420   0.585  0.00  0.00    -0.322 OA
ATOM     21  C   UNL d   1       2.080   3.179   1.745  0.00  0.00     0.213 C 
ENDBRANCH  18  20
ENDBRANCH   1  18
BRANCH   4  22
ATOM     22  N   UNL d   1      -0.663   2.843  -4.927  0.00  0.00    -0.116 N 
ATOM     23  O   UNL d   1      -0.431   4.059  -4.960  0.00  0.00    -0.532 OA
ATOM     24  O   UNL d   1      -1.128   2.187  -5.869  0.00  0.00    -0.532 OA
ENDBRANCH   4  22
TORSDOF 6
