REMARK  3 active torsions:
REMARK  status: ('A' for Active; 'I' for Inactive)
REMARK    1  A    between atoms: S_17  and  C_6 
REMARK    2  A    between atoms: C_14  and  C_8 
REMARK    3  A    between atoms: N_16  and  C_15 
ROOT
ATOM      1  N   UNL d   1      -1.570  -4.988   0.104  0.00  0.00    -0.236 N 
ATOM      2  C   UNL d   1      -2.342  -3.897   0.381  0.00  0.00     0.144 A 
ATOM      3  N   UNL d   1      -1.863  -2.737   0.024  0.00  0.00    -0.351 N 
ATOM      4  HN  UNL d   1      -2.335  -1.844  -0.113  1.00  0.00     0.163 HD
ATOM      5  N   UNL d   1      -0.322  -4.559  -0.372  0.00  0.00    -0.202 NA
ATOM      6  C   UNL d   1      -1.913  -6.267   0.477  0.00  0.00     0.162 A 
ATOM      7  C   UNL d   1      -3.611  -4.117   1.099  0.00  0.00     0.105 A 
ATOM      8  C   UNL d   1      -0.418  -3.099  -0.124  0.00  0.00     0.209 C 
ATOM      9  N   UNL d   1      -3.027  -6.504   1.125  0.00  0.00    -0.344 N 
ATOM     10  HN  UNL d   1      -3.303  -7.452   1.382  1.00  0.00     0.167 HD
ATOM     11  C   UNL d   1      -3.816  -5.404   1.445  0.00  0.00     0.116 A 
ATOM     12  C   UNL d   1      -4.398  -3.038   1.553  0.00  0.00     0.104 C 
ATOM     13  N   UNL d   1      -5.057  -2.172   1.965  0.00  0.00    -0.191 NA
ATOM     14  H   UNL d   1      -0.305  -4.691  -1.383  0.00  0.00     0.150 HD
ENDROOT
BRANCH   6  15
ATOM     15  S   UNL d   1      -0.871  -7.609   0.027  0.00  0.00    -0.097 SA
ATOM     16  C   UNL d   1      -1.681  -8.965   0.899  0.00  0.00     0.099 C 
ENDBRANCH   6  15
BRANCH   8  17
ATOM     17  C   UNL d   1       0.297  -2.668   1.159  0.00  0.00    -0.020 A 
ATOM     18  C   UNL d   1       1.288  -3.425   1.786  0.00  0.00     0.013 A 
ATOM     19  C   UNL d   1       1.889  -2.975   2.976  0.00  0.00     0.030 A 
ATOM     20  C   UNL d   1       1.554  -1.752   3.584  0.00  0.00     0.029 A 
ATOM     21  C   UNL d   1       0.541  -1.023   2.950  0.00  0.00     0.030 A 
ATOM     22  C   UNL d   1      -0.068  -1.460   1.768  0.00  0.00     0.013 A 
BRANCH  20  23
ATOM     23  N   UNL d   1       2.211  -1.270   4.705  0.00  0.00    -0.390 N 
ATOM     24  C   UNL d   1       1.600  -0.316   5.627  0.00  0.00     0.149 C 
ATOM     25  C   UNL d   1       3.485  -1.822   5.150  0.00  0.00     0.149 C 
ENDBRANCH  20  23
ENDBRANCH   8  17
TORSDOF 3
