REMARK  6 active torsions:
REMARK  status: ('A' for Active; 'I' for Inactive)
REMARK    1  A    between atoms: N_5  and  C_1 
REMARK    2  A    between atoms: C_7  and  C_3 
REMARK    3  A    between atoms: C_9  and  C_7 
REMARK    4  A    between atoms: C_10  and  C_7 
REMARK    5  A    between atoms: O_17  and  C_9 
REMARK    6  A    between atoms: O_18  and  C_10 
ROOT
ATOM      1  C   UNL d   1      -1.562  -1.571   0.326  0.00  0.00     0.179 A 
ATOM      2  C   UNL d   1      -1.997  -0.156   0.373  0.00  0.00     0.281 A 
ATOM      3  C   UNL d   1      -0.293  -1.997   0.110  0.00  0.00     0.016 A 
ATOM      4  N   UNL d   1      -1.010   0.797   0.142  0.00  0.00    -0.316 N 
ATOM      5  C   UNL d   1       0.746  -0.918  -0.016  0.00  0.00     0.001 A 
ATOM      6  C   UNL d   1       0.366   0.444   0.017  0.00  0.00     0.048 A 
ATOM      7  O   UNL d   1      -3.160   0.158   0.616  0.00  0.00    -0.265 OA
ATOM      8  C   UNL d   1      -1.412   2.199   0.095  0.00  0.00     0.159 C 
ATOM      9  C   UNL d   1       2.122  -1.206  -0.138  0.00  0.00     0.014 A 
ATOM     10  C   UNL d   1       1.353   1.448  -0.049  0.00  0.00     0.030 A 
ATOM     11  C   UNL d   1       3.087  -0.198  -0.217  0.00  0.00     0.001 A 
ATOM     12  C   UNL d   1       2.704   1.130  -0.162  0.00  0.00     0.002 A 
ENDROOT
BRANCH   3  13
ATOM     13  C   UNL d   1       0.176  -3.467   0.017  0.00  0.00     0.221 C 
BRANCH  13  14
ATOM     14  C   UNL d   1       0.588  -3.978   1.390  0.00  0.00     0.277 C 
ATOM     15  O   UNL d   1       0.431  -3.372   2.443  0.00  0.00    -0.264 OA
BRANCH  14  16
ATOM     16  O   UNL d   1       1.267  -5.158   1.285  0.00  0.00    -0.326 OA
ATOM     17  C   UNL d   1       1.616  -5.755   2.536  0.00  0.00     0.213 C 
ENDBRANCH  14  16
ENDBRANCH  13  14
BRANCH  13  18
ATOM     18  C   UNL d   1      -0.754  -4.364  -0.788  0.00  0.00     0.277 C 
ATOM     19  O   UNL d   1      -1.341  -3.962  -1.788  0.00  0.00    -0.264 OA
BRANCH  18  20
ATOM     20  O   UNL d   1      -0.793  -5.640  -0.337  0.00  0.00    -0.326 OA
ATOM     21  C   UNL d   1      -1.605  -6.559  -1.074  0.00  0.00     0.213 C 
ENDBRANCH  18  20
ENDBRANCH  13  18
ENDBRANCH   3  13
BRANCH   1  22
ATOM     22  N   UNL d   1      -2.614  -2.532   0.591  0.00  0.00    -0.109 N 
ATOM     23  O   UNL d   1      -2.404  -3.371   1.476  0.00  0.00    -0.532 OA
ATOM     24  O   UNL d   1      -3.621  -2.503  -0.126  0.00  0.00    -0.532 OA
ENDBRANCH   1  22
TORSDOF 6
