REMARK  1 active torsions:
REMARK  status: ('A' for Active; 'I' for Inactive)
REMARK    1  A    between atoms: C_9  and  C_5 
ROOT
ATOM      1  C   UNL d   1      -0.269  -1.102  -0.029  0.00  0.00     0.243 A 
ATOM      2  O   UNL d   1      -1.131  -0.037  -0.071  0.00  0.00    -0.259 OA
ATOM      3  N   UNL d   1       0.992  -0.722  -0.085  0.00  0.00    -0.263 N 
ATOM      4  HN  UNL d   1       1.811  -1.331  -0.074  1.00  0.00     0.190 HD
ATOM      5  C   UNL d   1      -0.269   1.025  -0.124  0.00  0.00     0.176 A 
ATOM      6  N   UNL d   1       0.994   0.651  -0.162  0.00  0.00    -0.276 N 
ATOM      7  HN  UNL d   1       1.810   1.259  -0.233  1.00  0.00     0.189 HD
ATOM      8  N   UNL d   1      -0.794  -2.335   0.154  0.00  0.00    -0.342 N 
ATOM      9  O   UNL d   1      -1.719  -5.030   0.150  0.00  0.00    -0.388 OA
ATOM     10  C   UNL d   1       0.158  -3.455   0.208  0.00  0.00     0.152 C 
ATOM     11  C   UNL d   1      -2.059  -2.679  -0.505  0.00  0.00     0.152 C 
ATOM     12  C   UNL d   1      -2.654  -3.939   0.146  0.00  0.00     0.187 C 
ATOM     13  C   UNL d   1      -0.525  -4.664   0.862  0.00  0.00     0.187 C 
ENDROOT
BRANCH   5  14
ATOM     14  C   UNL d   1      -0.831   2.369  -0.074  0.00  0.00     0.018 A 
ATOM     15  C   UNL d   1      -2.213   2.602  -0.018  0.00  0.00     0.041 A 
ATOM     16  C   UNL d   1      -2.715   3.907   0.069  0.00  0.00     0.056 A 
ATOM     17 CL   UNL d   1      -4.430   4.102   0.145  0.00  0.00    -0.083 Cl
ATOM     18  C   UNL d   1      -1.838   4.997   0.100  0.00  0.00     0.055 A 
ATOM     19  C   UNL d   1      -0.461   4.776   0.040  0.00  0.00     0.026 A 
ATOM     20 CL   UNL d   1      -2.386   6.630   0.218  0.00  0.00    -0.083 Cl
ATOM     21  C   UNL d   1       0.036   3.473  -0.047  0.00  0.00     0.017 A 
ENDBRANCH   5  14
TORSDOF 1
