REMARK  5 active torsions:
REMARK  status: ('A' for Active; 'I' for Inactive)
REMARK    1  A    between atoms: C_3  and  N_1 
REMARK    2  A    between atoms: C_2  and  N_9 
REMARK    3  A    between atoms: N_13  and  C_2 
REMARK    4  A    between atoms: N_9  and  N_5 
REMARK    5  A    between atoms: C_12  and  C_7 
ROOT
ATOM      1  C   UNL d   1      -0.984  -3.036   4.959  0.00  0.00     0.042 A 
ATOM      2  C   UNL d   1      -2.040  -2.391   4.264  0.00  0.00     0.007 A 
ATOM      3  C   UNL d   1      -1.292  -3.672   6.173  0.00  0.00     0.030 A 
ATOM      4  C   UNL d   1      -3.356  -2.480   4.740  0.00  0.00     0.015 A 
ATOM      5  C   UNL d   1      -2.597  -3.704   6.670  0.00  0.00     0.002 A 
ATOM      6  C   UNL d   1      -3.632  -3.123   5.945  0.00  0.00     0.001 A 
ENDROOT
BRANCH   2   7
ATOM      7  C   UNL d   1      -1.718  -1.607   3.042  0.00  0.00     0.120 C 
ATOM      8  N   UNL d   1      -2.345  -0.640   2.424  0.00  0.00    -0.309 N 
ATOM      9  HN  UNL d   1      -1.980  -0.298   1.535  1.00  0.00     0.186 HD
BRANCH   8  10
ATOM     10  N   UNL d   1      -3.474  -0.080   2.942  0.00  0.00    -0.277 N 
ATOM     11  H   UNL d   1      -4.108   0.199   2.200  0.00  0.00     0.189 HD
BRANCH  10  12
ATOM     12  C   UNL d   1      -3.453   0.837   3.985  0.00  0.00     0.184 C 
ATOM     13  S   UNL d   1      -2.248   1.158   5.088  0.00  0.00    -0.040 SA
BRANCH  12  14
ATOM     14  N   UNL d   1      -4.649   1.492   4.123  0.00  0.00    -0.375 N 
ATOM     15  H   UNL d   1      -5.298   1.578   3.353  0.00  0.00     0.158 HD
ATOM     16  H   UNL d   1      -4.692   2.211   4.834  0.00  0.00     0.158 HD
ENDBRANCH  12  14
ENDBRANCH  10  12
ENDBRANCH   8  10
ENDBRANCH   2   7
BRANCH   1  17
ATOM     17  N   UNL d   1       0.318  -3.050   4.467  0.00  0.00    -0.377 N 
ATOM     18  C   UNL d   1       1.433  -2.598   5.312  0.00  0.00     0.153 C 
ATOM     19  C   UNL d   1       2.381  -3.749   5.720  0.00  0.00     0.291 C 
ATOM     20  N   UNL d   1       2.825  -4.544   4.556  0.00  0.00     0.087 N 
ATOM     21  C   UNL d   1       1.631  -5.119   3.901  0.00  0.00     0.291 C 
ATOM     22  C   UNL d   1       3.769  -5.583   4.949  0.00  0.00     0.310 C 
ATOM     23  C   UNL d   1       0.646  -4.031   3.416  0.00  0.00     0.153 C 
ENDBRANCH   1  17
TORSDOF 5
