REMARK  5 active torsions:
REMARK  status: ('A' for Active; 'I' for Inactive)
REMARK    1  A    between atoms: C_9  and  C_3 
REMARK    2  A    between atoms: C_11  and  C_4 
REMARK    3  A    between atoms: C_8  and  C_10 
REMARK    4  A    between atoms: C_24  and  C_23 
REMARK    5  A    between atoms: C_25  and  C_24 
ROOT
ATOM      1  N   UNL d   1       0.757   0.060   0.713  0.00  0.00    -0.319 N 
ATOM      2  HN  UNL d   1       1.385   0.129   1.514  1.00  0.00     0.169 HD
ATOM      3  C   UNL d   1      -0.059   1.029   0.173  0.00  0.00     0.138 A 
ATOM      4  C   UNL d   1       0.525  -0.975  -0.061  0.00  0.00     0.182 A 
ATOM      5  N   UNL d   1      -0.760   0.621  -0.895  0.00  0.00    -0.242 N 
ATOM      6  HN  UNL d   1      -1.421   1.157  -1.459  1.00  0.00     0.196 HD
ATOM      7  O   UNL d   1      -0.373  -0.709  -1.054  0.00  0.00    -0.217 OA
ENDROOT
BRANCH   3   8
ATOM      8  C   UNL d   1      -0.134   2.370   0.743  0.00  0.00     0.010 A 
ATOM      9  C   UNL d   1       0.687   2.720   1.825  0.00  0.00     0.016 A 
ATOM     10  C   UNL d   1       0.627   4.000   2.382  0.00  0.00     0.017 A 
ATOM     11  C   UNL d   1      -0.257   4.958   1.868  0.00  0.00     0.048 A 
ATOM     12  C   UNL d   1      -1.083   4.607   0.789  0.00  0.00     0.017 A 
ATOM     13  C   UNL d   1      -1.021   3.327   0.231  0.00  0.00     0.016 A 
BRANCH  11  14
ATOM     14  C   UNL d   1      -0.329   6.348   2.452  0.00  0.00     0.417 C 
ATOM     15  F   UNL d   1       0.523   6.546   3.497  0.00  0.00    -0.166 F 
ATOM     16  F   UNL d   1      -0.029   7.311   1.538  0.00  0.00    -0.166 F 
ATOM     17  F   UNL d   1      -1.571   6.652   2.921  0.00  0.00    -0.166 F 
ENDBRANCH  11  14
ENDBRANCH   3   8
BRANCH   4  18
ATOM     18  C   UNL d   1       1.064  -2.325   0.013  0.00  0.00     0.017 A 
ATOM     19  C   UNL d   1       1.917  -2.667   1.073  0.00  0.00     0.016 A 
ATOM     20  C   UNL d   1       2.450  -3.954   1.176  0.00  0.00     0.008 A 
ATOM     21  C   UNL d   1       2.144  -4.927   0.218  0.00  0.00    -0.058 A 
ATOM     22  C   UNL d   1       1.281  -4.593  -0.834  0.00  0.00     0.008 A 
ATOM     23  C   UNL d   1       0.753  -3.304  -0.939  0.00  0.00     0.016 A 
BRANCH  21  24
ATOM     24  C   UNL d   1       2.743  -6.309   0.316  0.00  0.00     0.038 C 
BRANCH  24  25
ATOM     25  C   UNL d   1       3.608  -6.694  -0.889  0.00  0.00     0.000 C 
ATOM     26  C   UNL d   1       4.820  -5.789  -1.072  0.00  0.00     0.005 C 
ENDBRANCH  24  25
ENDBRANCH  21  24
ENDBRANCH   4  18
TORSDOF 5
