REMARK  2 active torsions:
REMARK  status: ('A' for Active; 'I' for Inactive)
REMARK    1  A    between atoms: C_5  and  C_1 
REMARK    2  A    between atoms: C_6  and  C_2 
REMARK       I    between atoms: N_9  and  C_5 
ROOT
ATOM      1  C   UNL d   1      -0.148  -1.379   0.091  0.00  0.00     0.092 A 
ATOM      2  C   UNL d   1      -1.466  -0.807   0.078  0.00  0.00     0.086 A 
ATOM      3  N   UNL d   1      -1.400   0.511  -0.158  0.00  0.00    -0.259 N 
ATOM      4  HN  UNL d   1      -2.189   1.149  -0.265  1.00  0.00     0.195 HD
ATOM      5  O   UNL d   1      -0.071   0.840  -0.228  0.00  0.00    -0.241 OA
ATOM      6  C   UNL d   1       0.675  -0.277  -0.077  0.00  0.00     0.090 A 
ATOM      7  C   UNL d   1       2.141  -0.090  -0.126  0.00  0.00     0.080 C 
ENDROOT
BRANCH   2   8
ATOM      8  C   UNL d   1      -2.793  -1.410   0.277  0.00  0.00     0.037 A 
ATOM      9  C   UNL d   1      -3.669  -0.891   1.261  0.00  0.00     0.048 A 
ATOM     10 CL   UNL d   1      -3.257   0.436   2.304  0.00  0.00    -0.083 Cl
ATOM     11  C   UNL d   1      -4.926  -1.463   1.488  0.00  0.00     0.025 A 
ATOM     12  C   UNL d   1      -5.330  -2.576   0.761  0.00  0.00     0.003 A 
ATOM     13  C   UNL d   1      -4.489  -3.095  -0.220  0.00  0.00     0.025 A 
ATOM     14  C   UNL d   1      -3.243  -2.506  -0.481  0.00  0.00     0.048 A 
ATOM     15 CL   UNL d   1      -2.335  -3.185  -1.788  0.00  0.00    -0.083 Cl
ENDBRANCH   2   8
BRANCH   1  16
ATOM     16  C   UNL d   1       0.396  -2.730   0.143  0.00  0.00     0.258 C 
ATOM     17  N   UNL d   1      -0.215  -3.736   0.895  0.00  0.00    -0.356 N 
ATOM     18  C   UNL d   1       0.274  -5.095   0.716  0.00  0.00     0.152 C 
ATOM     19  C   UNL d   1      -1.058  -3.524   2.057  0.00  0.00     0.152 C 
ATOM     20  O   UNL d   1       1.415  -2.983  -0.505  0.00  0.00    -0.267 OA
ENDBRANCH   1  16
TORSDOF 2
