REMARK  4 active torsions:
REMARK  status: ('A' for Active; 'I' for Inactive)
REMARK    1  A    between atoms: C_13  and  C_1 
REMARK    2  A    between atoms: O_7  and  C_3 
REMARK    3  A    between atoms: S_4  and  O_7 
REMARK    4  A    between atoms: C_9  and  S_4 
ROOT
ATOM      1  C   UNL d   1      -1.670  -1.698  -0.204  0.00  0.00     0.078 A 
ATOM      2  C   UNL d   1      -2.051  -0.233  -0.185  0.00  0.00     0.261 A 
ATOM      3  C   UNL d   1      -0.376  -2.068  -0.042  0.00  0.00     0.118 A 
ATOM      4  N   UNL d   1      -1.046   0.710  -0.046  0.00  0.00    -0.317 N 
ATOM      5  C   UNL d   1       0.673  -1.015   0.018  0.00  0.00     0.027 A 
ATOM      6  C   UNL d   1       0.324   0.344   0.018  0.00  0.00     0.050 A 
ATOM      7  O   UNL d   1      -3.235   0.091  -0.302  0.00  0.00    -0.267 OA
ATOM      8  C   UNL d   1      -1.429   2.117  -0.031  0.00  0.00     0.159 C 
ATOM      9  C   UNL d   1       2.039  -1.357   0.036  0.00  0.00     0.017 A 
ATOM     10  C   UNL d   1       1.336   1.323   0.049  0.00  0.00     0.031 A 
ATOM     11  C   UNL d   1       3.036  -0.376   0.050  0.00  0.00     0.001 A 
ATOM     12  C   UNL d   1       2.683   0.965   0.059  0.00  0.00     0.002 A 
ENDROOT
BRANCH   3  13
ATOM     13  O   UNL d   1       0.162  -3.355  -0.017  0.00  0.00    -0.227 OA
BRANCH  13  14
ATOM     14  S   UNL d   1      -0.579  -4.729   0.459  0.00  0.00     0.303 S 
ATOM     15  O   UNL d   1      -1.284  -4.484   1.703  0.00  0.00    -0.193 OA
ATOM     16  O   UNL d   1      -1.212  -5.342  -0.692  0.00  0.00    -0.193 OA
BRANCH  14  17
ATOM     17  C   UNL d   1       0.762  -5.849   0.856  0.00  0.00     0.086 A 
ATOM     18  C   UNL d   1       0.745  -6.546   2.070  0.00  0.00     0.027 A 
ATOM     19  C   UNL d   1       1.660  -7.582   2.284  0.00  0.00     0.020 A 
ATOM     20  C   UNL d   1       2.582  -7.907   1.289  0.00  0.00     0.011 A 
ATOM     21  C   UNL d   1       2.627  -7.184   0.096  0.00  0.00     0.020 A 
ATOM     22 BR   UNL d   1       3.740  -9.383   1.534  0.00  0.00    -0.051 Br
ATOM     23  C   UNL d   1       1.712  -6.148  -0.127  0.00  0.00     0.027 A 
ENDBRANCH  14  17
ENDBRANCH  13  14
ENDBRANCH   3  13
BRANCH   1  24
ATOM     24  C   UNL d   1      -2.791  -2.622  -0.483  0.00  0.00    -0.018 A 
ATOM     25  C   UNL d   1      -3.753  -2.902   0.498  0.00  0.00     0.012 A 
ATOM     26  C   UNL d   1      -4.867  -3.686   0.192  0.00  0.00     0.001 A 
ATOM     27  C   UNL d   1      -5.033  -4.190  -1.097  0.00  0.00     0.000 A 
ATOM     28  C   UNL d   1      -4.085  -3.913  -2.080  0.00  0.00     0.001 A 
ATOM     29  C   UNL d   1      -2.972  -3.126  -1.778  0.00  0.00     0.012 A 
ENDBRANCH   1  24
TORSDOF 4
