REMARK  3 active torsions:
REMARK  status: ('A' for Active; 'I' for Inactive)
REMARK    1  A    between atoms: N_2  and  C_1 
REMARK    2  A    between atoms: C_9  and  C_3 
REMARK    3  A    between atoms: O_16  and  C_13 
ROOT
ATOM      1  C   UNL d   1       2.318  -0.830   0.073  0.00  0.00     0.115 C 
ATOM      2  C   UNL d   1       2.311   0.598  -0.379  0.00  0.00     0.218 C 
ATOM      3  C   UNL d   1       1.211  -1.517   0.397  0.00  0.00     0.049 C 
ATOM      4  O   UNL d   1       1.165   1.328   0.151  0.00  0.00    -0.334 OA
ATOM      5  C   UNL d   1      -0.011   0.619   0.167  0.00  0.00     0.080 A 
ATOM      6  C   UNL d   1      -0.043  -0.781   0.259  0.00  0.00    -0.001 A 
ATOM      7  C   UNL d   1      -1.189   1.356   0.084  0.00  0.00     0.037 A 
ATOM      8  C   UNL d   1      -1.273  -1.440   0.203  0.00  0.00     0.014 A 
ATOM      9  C   UNL d   1      -2.413   0.692   0.027  0.00  0.00     0.003 A 
ATOM     10  C   UNL d   1      -2.454  -0.703   0.072  0.00  0.00     0.001 A 
ENDROOT
BRANCH   2  11
ATOM     11  C   UNL d   1       2.315   0.797  -1.896  0.00  0.00    -0.023 A 
ATOM     12  C   UNL d   1       1.706  -0.118  -2.775  0.00  0.00     0.013 A 
ATOM     13  C   UNL d   1       1.671   0.114  -4.152  0.00  0.00     0.037 A 
ATOM     14  C   UNL d   1       2.240   1.268  -4.681  0.00  0.00     0.068 A 
ATOM     15  C   UNL d   1       2.819   2.200  -3.820  0.00  0.00     0.037 A 
ATOM     16  C   UNL d   1       2.862   1.968  -2.441  0.00  0.00     0.013 A 
BRANCH  14  17
ATOM     17  O   UNL d   1       2.245   1.601  -6.008  0.00  0.00    -0.356 OA
ATOM     18  C   UNL d   1       2.190   0.502  -6.912  0.00  0.00     0.210 C 
ENDBRANCH  14  17
ENDBRANCH   2  11
BRANCH   1  19
ATOM     19  N   UNL d   1       3.606  -1.489   0.134  0.00  0.00    -0.117 N 
ATOM     20  O   UNL d   1       4.608  -0.808  -0.124  0.00  0.00    -0.532 OA
ATOM     21  O   UNL d   1       3.635  -2.687   0.439  0.00  0.00    -0.532 OA
ENDBRANCH   1  19
TORSDOF 3
