REMARK  7 active torsions:
REMARK  status: ('A' for Active; 'I' for Inactive)
REMARK    1  A    between atoms: C_8  and  C_1 
REMARK    2  A    between atoms: N_7  and  C_2 
REMARK    3  A    between atoms: S_3  and  N_7 
REMARK    4  A    between atoms: C_9  and  S_3 
REMARK    5  A    between atoms: C_12  and  C_5 
REMARK    6  A    between atoms: O_22  and  C_8 
REMARK    7  A    between atoms: C_13  and  C_14 
ROOT
ATOM      1  C   UNL d   1       0.026   1.352  -0.014  0.00  0.00     0.108 A 
ATOM      2  C   UNL d   1       1.333   0.889   0.014  0.00  0.00     0.067 A 
ATOM      3  S   UNL d   1      -1.083   0.038  -0.100  0.00  0.00    -0.081 SA
ATOM      4  C   UNL d   1       0.145  -1.142   0.007  0.00  0.00     0.018 A 
ATOM      5  C   UNL d   1       1.386  -0.540   0.065  0.00  0.00     0.051 A 
ENDROOT
BRANCH   2   6
ATOM      6  N   UNL d   1       2.512   1.648   0.111  0.00  0.00    -0.279 N 
ATOM      7  H   UNL d   1       3.175   1.396   0.843  0.00  0.00     0.179 HD
BRANCH   6   8
ATOM      8  S   UNL d   1       3.371   2.150  -1.262  0.00  0.00     0.263 S 
ATOM      9  O   UNL d   1       2.490   2.897  -2.134  0.00  0.00    -0.200 OA
ATOM     10  O   UNL d   1       4.610   2.715  -0.771  0.00  0.00    -0.200 OA
BRANCH   8  11
ATOM     11  C   UNL d   1       3.801   0.632  -2.101  0.00  0.00     0.080 A 
ATOM     12  C   UNL d   1       3.018   0.182  -3.170  0.00  0.00     0.027 A 
ATOM     13  C   UNL d   1       3.425  -0.933  -3.911  0.00  0.00     0.025 A 
ATOM     14  C   UNL d   1       4.614  -1.587  -3.589  0.00  0.00     0.034 A 
ATOM     15  C   UNL d   1       5.401  -1.142  -2.525  0.00  0.00     0.025 A 
ATOM     16 CL   UNL d   1       5.130  -2.934  -4.526  0.00  0.00    -0.084 Cl
ATOM     17  C   UNL d   1       4.999  -0.026  -1.780  0.00  0.00     0.027 A 
ENDBRANCH   8  11
ENDBRANCH   6   8
ENDBRANCH   2   6
BRANCH   1  18
ATOM     18  C   UNL d   1      -0.555   2.686   0.054  0.00  0.00     0.302 C 
ATOM     19  O   UNL d   1      -1.754   2.941   0.089  0.00  0.00    -0.259 OA
BRANCH  18  20
ATOM     20  O   UNL d   1       0.413   3.644   0.116  0.00  0.00    -0.322 OA
ATOM     21  C   UNL d   1      -0.091   4.980   0.165  0.00  0.00     0.213 C 
ENDBRANCH  18  20
ENDBRANCH   1  18
BRANCH   4  22
ATOM     22  C   UNL d   1      -0.184  -2.576   0.002  0.00  0.00    -0.019 A 
ATOM     23  C   UNL d   1       0.661  -3.489  -0.637  0.00  0.00     0.013 A 
ATOM     24  C   UNL d   1       0.359  -4.856  -0.660  0.00  0.00     0.009 A 
ATOM     25  C   UNL d   1      -0.800  -5.366  -0.048  0.00  0.00    -0.051 A 
ATOM     26  C   UNL d   1      -1.632  -4.446   0.605  0.00  0.00     0.009 A 
ATOM     27  C   UNL d   1      -1.329  -3.078   0.632  0.00  0.00     0.013 A 
BRANCH  25  28
ATOM     28  C   UNL d   1      -1.119  -6.869  -0.121  0.00  0.00    -0.024 C 
ATOM     29  C   UNL d   1      -2.437  -7.261   0.583  0.00  0.00     0.019 C 
ATOM     30  C   UNL d   1      -1.248  -7.297  -1.599  0.00  0.00     0.019 C 
ATOM     31  C   UNL d   1       0.014  -7.679   0.545  0.00  0.00     0.019 C 
ENDBRANCH  25  28
ENDBRANCH   4  22
TORSDOF 7
