REMARK  6 active torsions:
REMARK  status: ('A' for Active; 'I' for Inactive)
REMARK    1  A    between atoms: N_7  and  C_1 
REMARK    2  A    between atoms: C_8  and  C_1 
REMARK    3  A    between atoms: C_2  and  C_12 
REMARK       I    between atoms: C_9  and  N_7 
REMARK    4  A    between atoms: O_16  and  C_8 
REMARK    5  A    between atoms: O_13  and  C_9 
REMARK    6  A    between atoms: C_12  and  O_13 
ROOT
ATOM      1  C   UNL d   1      -0.144  -1.656   3.189  0.00  0.00     0.078 A 
ATOM      2  C   UNL d   1      -0.884  -3.808   2.383  0.00  0.00    -0.018 A 
ATOM      3  C   UNL d   1       0.559  -3.784   2.284  0.00  0.00    -0.018 A 
ATOM      4  C   UNL d   1      -1.332  -2.569   2.891  0.00  0.00    -0.036 A 
ATOM      5  C   UNL d   1       1.028  -2.526   2.723  0.00  0.00    -0.036 A 
ATOM      6  C   UNL d   1      -1.786  -4.816   2.079  0.00  0.00     0.013 A 
ATOM      7  C   UNL d   1       1.444  -4.766   1.863  0.00  0.00     0.013 A 
ATOM      8  C   UNL d   1       2.387  -2.244   2.750  0.00  0.00     0.009 A 
ATOM      9  C   UNL d   1      -2.679  -2.334   3.112  0.00  0.00     0.009 A 
ATOM     10  C   UNL d   1       2.811  -4.483   1.882  0.00  0.00     0.001 A 
ATOM     11  C   UNL d   1      -3.588  -3.346   2.799  0.00  0.00     0.001 A 
ATOM     12  C   UNL d   1      -3.146  -4.576   2.287  0.00  0.00     0.001 A 
ATOM     13  C   UNL d   1       3.278  -3.233   2.320  0.00  0.00     0.001 A 
ENDROOT
BRANCH   1  14
ATOM     14  C   UNL d   1      -0.216  -0.287   2.480  0.00  0.00     0.194 C 
BRANCH  14  15
ATOM     15  O   UNL d   1      -1.290   0.580   2.941  0.00  0.00    -0.303 OA
BRANCH  15  16
ATOM     16  C   UNL d   1      -1.180   0.996   4.231  0.00  0.00     0.361 C 
ATOM     17  N   UNL d   1      -2.249   1.728   4.674  0.00  0.00    -0.318 N 
ATOM     18  H   UNL d   1      -2.106   2.068   5.619  0.00  0.00     0.166 HD
ATOM     19  O   UNL d   1      -0.243   0.738   4.970  0.00  0.00    -0.238 OA
BRANCH  17  20
ATOM     20  C   UNL d   1      -3.185   2.476   3.869  0.00  0.00     0.120 A 
ATOM     21  C   UNL d   1      -4.282   1.801   3.064  0.00  0.00     0.045 A 
ATOM     22  C   UNL d   1      -4.631   2.459   4.360  0.00  0.00     0.045 A 
BRANCH  20  23
ATOM     23  C   UNL d   1      -2.654   3.795   3.356  0.00  0.00     0.169 C 
ATOM     24  O   UNL d   1      -2.825   4.845   3.954  0.00  0.00    -0.648 OA
BRANCH  23  25
ATOM     25  O   UNL d   1      -1.947   3.675   2.210  0.00  0.00    -0.775 OA
ATOM     26  H   UNL d   1      -1.884   2.740   1.928  0.00  0.00     0.167 HD
ENDBRANCH  23  25
ENDBRANCH  20  23
ENDBRANCH  17  20
ENDBRANCH  15  16
ENDBRANCH  14  15
ENDBRANCH   1  14
TORSDOF 6
