REMARK  7 active torsions:
REMARK  status: ('A' for Active; 'I' for Inactive)
REMARK    1  A    between atoms: N_4  and  S_1 
REMARK    2  A    between atoms: C_10  and  S_1 
REMARK    3  A    between atoms: C_6  and  C_2 
REMARK    4  A    between atoms: C_3  and  O_7 
REMARK    5  A    between atoms: C_5  and  N_4 
REMARK    6  A    between atoms: O_21  and  C_6 
REMARK    7  A    between atoms: O_7  and  C_9 
ROOT
ATOM      1  C   UNL d   1       0.821  -2.836  -0.415  0.00  0.00     0.058 A 
ATOM      2  C   UNL d   1      -0.085  -3.809  -0.879  0.00  0.00     0.098 A 
ATOM      3  C   UNL d   1       2.149  -2.859  -0.856  0.00  0.00     0.051 A 
ATOM      4  C   UNL d   1       0.344  -4.769  -1.804  0.00  0.00     0.041 A 
ATOM      5  C   UNL d   1       2.574  -3.864  -1.726  0.00  0.00     0.035 A 
ATOM      6  C   UNL d   1       1.679  -4.816  -2.203  0.00  0.00     0.026 A 
ATOM      7 CL   UNL d   1       4.223  -3.935  -2.212  0.00  0.00    -0.084 Cl
ENDROOT
BRANCH   1   8
ATOM      8  N   UNL d   1       0.384  -1.835   0.530  0.00  0.00    -0.179 NA
ATOM      9  H   UNL d   1       0.634  -0.901   0.197  0.00  0.00     0.146 HD
BRANCH   8  10
ATOM     10  S   UNL d   1       1.030  -1.936   2.114  0.00  0.00     0.245 S 
ATOM     11  O   UNL d   1       0.149  -1.183   2.980  0.00  0.00    -0.206 OA
ATOM     12  O   UNL d   1       2.433  -1.588   2.013  0.00  0.00    -0.206 OA
BRANCH  10  13
ATOM     13  C   UNL d   1       0.910  -3.652   2.532  0.00  0.00     0.074 A 
ATOM     14  C   UNL d   1       2.015  -4.490   2.341  0.00  0.00     0.025 A 
ATOM     15  C   UNL d   1       1.883  -5.860   2.563  0.00  0.00     0.008 A 
ATOM     16  C   UNL d   1       0.663  -6.390   3.002  0.00  0.00    -0.062 A 
ATOM     17  C   UNL d   1      -0.407  -5.525   3.277  0.00  0.00     0.008 A 
ATOM     18  C   UNL d   1       0.494  -7.878   3.096  0.00  0.00     0.048 C 
ATOM     19  C   UNL d   1      -0.289  -4.156   3.035  0.00  0.00     0.025 A 
ENDBRANCH  10  13
ENDBRANCH   8  10
ENDBRANCH   1   8
BRANCH   2  20
ATOM     20  O   UNL d   1      -1.402  -3.760  -0.469  0.00  0.00    -0.307 OA
BRANCH  20  21
ATOM     21  C   UNL d   1      -2.101  -4.893  -0.168  0.00  0.00     0.099 A 
ATOM     22  C   UNL d   1      -3.481  -4.948  -0.232  0.00  0.00     0.114 A 
ATOM     23  S   UNL d   1      -4.058  -6.498   0.271  0.00  0.00    -0.093 SA
ATOM     24  C   UNL d   1      -2.486  -7.082   0.552  0.00  0.00     0.053 A 
ATOM     25  C   UNL d   1      -1.535  -6.132   0.273  0.00  0.00     0.046 A 
BRANCH  22  26
ATOM     26  C   UNL d   1      -4.480  -3.980  -0.652  0.00  0.00     0.302 C 
ATOM     27  O   UNL d   1      -5.693  -4.166  -0.681  0.00  0.00    -0.259 OA
BRANCH  26  28
ATOM     28  O   UNL d   1      -3.894  -2.814  -1.050  0.00  0.00    -0.322 OA
ATOM     29  C   UNL d   1      -4.825  -1.836  -1.514  0.00  0.00     0.213 C 
ENDBRANCH  26  28
ENDBRANCH  22  26
ENDBRANCH  20  21
ENDBRANCH   2  20
TORSDOF 7
