REMARK  6 active torsions:
REMARK  status: ('A' for Active; 'I' for Inactive)
REMARK    1  A    between atoms: N_5  and  C_1 
REMARK       I    between atoms: C_7  and  N_5 
REMARK    2  A    between atoms: C_11  and  C_7 
REMARK    3  A    between atoms: C_9  and  C_11 
REMARK    4  A    between atoms: C_13  and  C_9 
REMARK    5  A    between atoms: C_10  and  C_13 
REMARK    6  A    between atoms: O_15  and  C_10 
ROOT
ATOM      1  C   UNL d   1      -1.644  -3.286   0.445  0.00  0.00     0.113 C 
ENDROOT
BRANCH   1   2
ATOM      2  C   UNL d   1      -0.189  -2.732   0.464  0.00  0.00    -0.023 C 
ATOM      3  C   UNL d   1      -0.130  -1.318   1.114  0.00  0.00     0.010 C 
ATOM      4  C   UNL d   1      -0.632  -0.159   0.253  0.00  0.00     0.001 C 
ATOM      5  C   UNL d   1      -0.101  -0.186  -1.174  0.00  0.00     0.000 C 
ATOM      6  C   UNL d   1      -0.302  -1.542  -1.829  0.00  0.00     0.001 C 
ATOM      7  C   UNL d   1       0.335  -2.653  -0.998  0.00  0.00     0.010 C 
BRANCH   2   8
ATOM      8  C   UNL d   1       0.769  -3.646   1.287  0.00  0.00     0.119 C 
BRANCH   8   9
ATOM      9  C   UNL d   1       0.883  -5.070   0.794  0.00  0.00     0.140 C 
ATOM     10  O   UNL d   1       1.653  -5.413  -0.096  0.00  0.00    -0.650 OA
BRANCH   9  11
ATOM     11  O   UNL d   1       0.046  -5.937   1.393  0.00  0.00    -0.776 OA
ATOM     12  H   UNL d   1      -0.563  -5.526   2.059  0.00  0.00     0.167 HD
ENDBRANCH   9  11
ENDBRANCH   8   9
ENDBRANCH   2   8
ENDBRANCH   1   2
BRANCH   1  13
ATOM     13  C   UNL d   1      -2.228  -3.563   1.828  0.00  0.00     0.224 C 
ATOM     14  N   UNL d   1      -3.242  -2.695   2.162  0.00  0.00    -0.312 N 
ATOM     15  H   UNL d   1      -3.575  -2.034   1.476  0.00  0.00     0.170 HD
ATOM     16  O   UNL d   1      -1.771  -4.473   2.514  0.00  0.00    -0.273 OA
BRANCH  14  17
ATOM     17  C   UNL d   1      -3.863  -2.643   3.396  0.00  0.00     0.130 A 
ATOM     18  N   UNL d   1      -3.562  -3.387   4.463  0.00  0.00    -0.245 N 
ATOM     19  O   UNL d   1      -4.403  -2.969   5.477  0.00  0.00    -0.241 OA
ATOM     20  HN  UNL d   1      -2.854  -4.119   4.518  1.00  0.00     0.196 HD
ATOM     21  C   UNL d   1      -5.207  -1.976   5.015  0.00  0.00     0.076 A 
ATOM     22  C   UNL d   1      -4.910  -1.739   3.697  0.00  0.00     0.084 A 
ATOM     23  C   UNL d   1      -6.158  -1.392   5.977  0.00  0.00     0.079 C 
ENDBRANCH  14  17
ENDBRANCH   1  13
TORSDOF 6
