REMARK  3 active torsions:
REMARK  status: ('A' for Active; 'I' for Inactive)
REMARK    1  A    between atoms: C_2  and  C_1 
REMARK    2  A    between atoms: C_4  and  C_2 
REMARK    3  A    between atoms: C_7  and  C_3 
ROOT
ATOM      1  C   UNL d   1       1.024   0.052  -0.127  0.00  0.00     0.092 C 
ATOM      2  C   UNL d   1       0.397  -0.464   0.949  0.00  0.00     0.045 C 
ATOM      3  C   UNL d   1       0.323   0.519  -1.271  0.00  0.00     0.103 C 
ATOM      4  N   UNL d   1      -0.223   0.921  -2.215  0.00  0.00    -0.191 NA
ENDROOT
BRANCH   1   5
ATOM      5  C   UNL d   1       2.519   0.110  -0.091  0.00  0.00     0.174 C 
ATOM      6  O   UNL d   1       3.162  -0.275   0.880  0.00  0.00    -0.291 OA
BRANCH   5   7
ATOM      7  C   UNL d   1       3.226   0.631  -1.306  0.00  0.00     0.061 A 
ATOM      8  C   UNL d   1       4.311  -0.206  -1.946  0.00  0.00     0.013 A 
ATOM      9  C   UNL d   1       4.672   1.065  -1.232  0.00  0.00     0.013 A 
ENDBRANCH   5   7
ENDBRANCH   1   5
BRANCH   2  10
ATOM     10  C   UNL d   1      -1.019  -0.582   1.007  0.00  0.00     0.006 A 
ATOM     11  S   UNL d   1      -1.775  -2.056   0.550  0.00  0.00    -0.102 SA
ATOM     12  C   UNL d   1      -3.338  -1.417   0.809  0.00  0.00     0.050 A 
ATOM     13  C   UNL d   1      -3.296  -0.121   1.270  0.00  0.00     0.008 A 
ATOM     14  C   UNL d   1      -1.959   0.357   1.393  0.00  0.00     0.019 A 
ENDBRANCH   2  10
TORSDOF 3
