REMARK  4 active torsions:
REMARK  status: ('A' for Active; 'I' for Inactive)
REMARK    1  A    between atoms: O_3  and  C_1 
REMARK    2  A    between atoms: C_4  and  C_1 
REMARK    3  A    between atoms: C_2  and  C_7 
REMARK    4  A    between atoms: C_13  and  O_3 
ROOT
ATOM      1  C   UNL d   1      -3.970  -1.058  -0.818  0.00  0.00    -0.035 A 
ATOM      2  C   UNL d   1      -3.245  -2.199  -0.431  0.00  0.00     0.012 A 
ATOM      3  C   UNL d   1      -3.251   0.113  -1.123  0.00  0.00     0.012 A 
ATOM      4  C   UNL d   1      -1.161  -0.991  -0.644  0.00  0.00     0.079 A 
ATOM      5  C   UNL d   1      -1.850  -2.165  -0.341  0.00  0.00     0.038 A 
ATOM      6  C   UNL d   1      -1.855   0.151  -1.029  0.00  0.00     0.038 A 
ENDROOT
BRANCH   4   7
ATOM      7  O   UNL d   1       0.237  -1.033  -0.441  0.00  0.00    -0.275 OA
BRANCH   7   8
ATOM      8  C   UNL d   1       1.130  -0.211  -1.114  0.00  0.00     0.298 C 
ATOM      9  O   UNL d   1       0.873   0.593  -1.998  0.00  0.00    -0.259 OA
BRANCH   8  10
ATOM     10  C   UNL d   1       2.517  -0.455  -0.621  0.00  0.00     0.040 A 
ATOM     11  C   UNL d   1       3.565   0.260  -1.223  0.00  0.00     0.019 A 
ATOM     12  C   UNL d   1       4.887   0.063  -0.812  0.00  0.00     0.025 A 
ATOM     13  C   UNL d   1       5.167  -0.848   0.204  0.00  0.00     0.034 A 
ATOM     14  C   UNL d   1       4.135  -1.557   0.818  0.00  0.00     0.025 A 
ATOM     15 CL   UNL d   1       6.793  -1.099   0.704  0.00  0.00    -0.084 Cl
ATOM     16  C   UNL d   1       2.811  -1.362   0.408  0.00  0.00     0.019 A 
ENDBRANCH   8  10
ENDBRANCH   7   8
ENDBRANCH   4   7
BRANCH   1  17
ATOM     17  C   UNL d   1      -5.487  -1.106  -0.857  0.00  0.00     0.141 C 
ATOM     18  S   UNL d   1      -6.166  -0.701  -2.500  0.00  0.00    -0.148 SA
ATOM     19  C   UNL d   1      -7.523   0.347  -1.917  0.00  0.00     0.085 C 
ATOM     20  C   UNL d   1      -7.016   1.139  -0.730  0.00  0.00     0.085 C 
ATOM     21  S   UNL d   1      -6.237  -0.029   0.413  0.00  0.00    -0.148 SA
ENDBRANCH   1  17
TORSDOF 4
