REMARK  5 active torsions:
REMARK  status: ('A' for Active; 'I' for Inactive)
REMARK    1  A    between atoms: C_6  and  C_1 
REMARK    2  A    between atoms: O_11  and  C_6 
REMARK    3  A    between atoms: O_13  and  C_10 
REMARK    4  A    between atoms: C_14  and  O_11 
REMARK    5  A    between atoms: C_15  and  O_13 
ROOT
ATOM      1  C   UNL d   1      -2.421  -0.151  -0.099  0.00  0.00     0.109 A 
ATOM      2  N   UNL d   1      -1.627   0.973  -0.105  0.00  0.00    -0.351 N 
ATOM      3  C   UNL d   1      -1.563  -1.241  -0.093  0.00  0.00     0.049 A 
ATOM      4  C   UNL d   1      -0.232  -0.759  -0.070  0.00  0.00    -0.004 A 
ATOM      5  C   UNL d   1      -0.296   0.632  -0.075  0.00  0.00     0.043 A 
ATOM      6  C   UNL d   1       1.028  -1.383  -0.035  0.00  0.00     0.050 A 
ATOM      7  C   UNL d   1       0.849   1.434  -0.048  0.00  0.00     0.033 A 
ATOM      8  C   UNL d   1       2.190  -0.603  -0.020  0.00  0.00     0.069 A 
ATOM      9  C   UNL d   1       2.095   0.789  -0.024  0.00  0.00     0.039 A 
ATOM     10  H   UNL d   1      -1.989   1.919  -0.096  0.00  0.00     0.166 HD
ENDROOT
BRANCH   1  11
ATOM     11  C   UNL d   1      -3.855  -0.096  -0.049  0.00  0.00     0.310 C 
ATOM     12  O   UNL d   1      -4.516   0.935   0.009  0.00  0.00    -0.258 OA
BRANCH  11  13
ATOM     13  O   UNL d   1      -4.348  -1.363   0.034  0.00  0.00    -0.317 OA
BRANCH  13  14
ATOM     14  C   UNL d   1      -5.675  -1.481   0.556  0.00  0.00     0.175 C 
ATOM     15  C   UNL d   1      -5.582  -1.539   2.071  0.00  0.00     0.034 C 
ENDBRANCH  13  14
ENDBRANCH  11  13
ENDBRANCH   1  11
BRANCH   8  16
ATOM     16  O   UNL d   1       3.348  -1.332  -0.001  0.00  0.00    -0.351 OA
BRANCH  16  17
ATOM     17  C   UNL d   1       4.574  -0.608  -0.036  0.00  0.00     0.171 C 
ATOM     18  C   UNL d   1       5.708  -1.617  -0.054  0.00  0.00     0.034 C 
ENDBRANCH  16  17
ENDBRANCH   8  16
TORSDOF 5
