REMARK  4 active torsions:
REMARK  status: ('A' for Active; 'I' for Inactive)
REMARK    1  A    between atoms: C_3  and  C_1 
REMARK    2  A    between atoms: C_2  and  C_4 
REMARK    3  A    between atoms: O_11  and  C_7 
REMARK    4  A    between atoms: C_19  and  O_11 
ROOT
ATOM      1  N   UNL d   1       0.093   5.168  -9.974  0.00  0.00    -0.191 NA
ATOM      2  C   UNL d   1       0.066   4.816  -8.870  0.00  0.00     0.099 C 
ATOM      3  C   UNL d   1       0.033   4.377  -7.505  0.00  0.00     0.044 A 
ATOM      4  C   UNL d   1      -0.037   3.510  -4.841  0.00  0.00     0.076 A 
ATOM      5  C   UNL d   1      -0.677   5.109  -6.548  0.00  0.00     0.025 A 
ATOM      6  C   UNL d   1       0.725   3.223  -7.122  0.00  0.00     0.025 A 
ATOM      7  C   UNL d   1      -0.710   4.674  -5.219  0.00  0.00     0.039 A 
ATOM      8  C   UNL d   1       0.710   2.804  -5.787  0.00  0.00     0.039 A 
ENDROOT
BRANCH   4   9
ATOM      9  O   UNL d   1      -0.101   3.186  -3.505  0.00  0.00    -0.311 OA
BRANCH   9  10
ATOM     10  C   UNL d   1      -0.116   1.869  -3.107  0.00  0.00     0.077 A 
ATOM     11  C   UNL d   1       0.424   1.610  -1.844  0.00  0.00     0.053 A 
ATOM     12  C   UNL d   1       0.438   0.307  -1.319  0.00  0.00     0.051 A 
ATOM     13  C   UNL d   1      -0.100  -0.738  -2.088  0.00  0.00     0.032 A 
ATOM     14  C   UNL d   1      -0.673  -0.488  -3.345  0.00  0.00     0.051 A 
ATOM     15  C   UNL d   1      -0.695   0.828  -3.835  0.00  0.00     0.053 A 
BRANCH  12  16
ATOM     16  C   UNL d   1       1.013   0.056   0.055  0.00  0.00     0.417 C 
ATOM     17  F   UNL d   1       0.965  -1.253   0.430  0.00  0.00    -0.166 F 
ATOM     18  F   UNL d   1       0.358   0.747   1.027  0.00  0.00    -0.166 F 
ATOM     19  F   UNL d   1       2.321   0.423   0.147  0.00  0.00    -0.166 F 
ENDBRANCH  12  16
BRANCH  14  20
ATOM     20  C   UNL d   1      -1.261  -1.600  -4.180  0.00  0.00     0.417 C 
ATOM     21  F   UNL d   1      -1.251  -2.811  -3.558  0.00  0.00    -0.166 F 
ATOM     22  F   UNL d   1      -2.556  -1.363  -4.523  0.00  0.00    -0.166 F 
ATOM     23  F   UNL d   1      -0.588  -1.775  -5.351  0.00  0.00    -0.166 F 
ENDBRANCH  14  20
ENDBRANCH   9  10
ENDBRANCH   4   9
TORSDOF 4
