REMARK  6 active torsions:
REMARK  status: ('A' for Active; 'I' for Inactive)
REMARK    1  A    between atoms: N_4  and  C_1 
REMARK    2  A    between atoms: C_9  and  C_2 
REMARK    3  A    between atoms: S_3  and  N_8 
REMARK    4  A    between atoms: C_16  and  S_3 
REMARK    5  A    between atoms: N_8  and  N_11 
REMARK       I    between atoms: N_11  and  C_9 
REMARK    6  A    between atoms: C_10  and  C_19 
ROOT
ATOM      1  C   UNL d   1      -1.124  -3.163  -0.159  0.00  0.00     0.274 C 
ATOM      2  N   UNL d   1      -0.160  -3.920   0.492  0.00  0.00    -0.256 N 
ATOM      3  O   UNL d   1      -2.030  -3.700  -0.795  0.00  0.00    -0.266 OA
ATOM      4  H   UNL d   1       0.517  -3.519   1.132  0.00  0.00     0.191 HD
ENDROOT
BRANCH   1   5
ATOM      5  C   UNL d   1      -1.006  -1.698   0.003  0.00  0.00     0.075 C 
ATOM      6  C   UNL d   1      -2.083  -0.808   0.064  0.00  0.00     0.098 C 
ATOM      7  S   UNL d   1      -1.599   0.818   0.254  0.00  0.00    -0.075 SA
ATOM      8  C   UNL d   1       0.026   0.430   0.058  0.00  0.00    -0.008 C 
ATOM      9  C   UNL d   1       1.063   1.512   0.020  0.00  0.00     0.047 C 
ATOM     10  C   UNL d   1       0.249  -0.935   0.018  0.00  0.00    -0.026 C 
ATOM     11  C   UNL d   1       2.442   0.943  -0.327  0.00  0.00     0.005 C 
ATOM     12  C   UNL d   1       2.679  -0.395   0.372  0.00  0.00     0.005 C 
ATOM     13  C   UNL d   1       1.661  -1.449  -0.087  0.00  0.00     0.041 C 
BRANCH   6  14
ATOM     14  N   UNL d   1      -3.481  -1.020   0.151  0.00  0.00    -0.313 N 
ATOM     15  C   UNL d   1      -4.134  -1.958   0.963  0.00  0.00     0.013 A 
ATOM     16  C   UNL d   1      -5.500  -1.773   0.857  0.00  0.00     0.027 A 
ATOM     17  C   UNL d   1      -3.472  -2.959   1.844  0.00  0.00     0.068 C 
ATOM     18  C   UNL d   1      -5.726  -0.738  -0.055  0.00  0.00     0.027 A 
ATOM     19  C   UNL d   1      -4.497  -0.268  -0.478  0.00  0.00     0.013 A 
ATOM     20  C   UNL d   1      -4.315   0.797  -1.515  0.00  0.00     0.068 C 
ENDBRANCH   6  14
ENDBRANCH   1   5
BRANCH   2  21
ATOM     21  N   UNL d   1      -0.206  -5.381   0.428  0.00  0.00    -0.220 N 
ATOM     22  H   UNL d   1      -0.986  -5.817  -0.074  0.00  0.00     0.200 HD
BRANCH  21  23
ATOM     23  S   UNL d   1       0.702  -6.287   1.537  0.00  0.00     0.276 S 
ATOM     24  O   UNL d   1       2.093  -5.951   1.336  0.00  0.00    -0.199 OA
ATOM     25  O   UNL d   1       0.067  -6.145   2.822  0.00  0.00    -0.199 OA
BRANCH  23  26
ATOM     26  C   UNL d   1       0.413  -7.942   0.953  0.00  0.00     0.081 A 
ATOM     27  C   UNL d   1       1.326  -8.522   0.070  0.00  0.00     0.026 A 
ATOM     28  C   UNL d   1       1.113  -9.828  -0.377  0.00  0.00     0.018 A 
ATOM     29  C   UNL d   1       0.006 -10.566   0.068  0.00  0.00     0.048 A 
ATOM     30  C   UNL d   1      -0.899  -9.966   0.959  0.00  0.00     0.018 A 
ATOM     31  C   UNL d   1      -0.697  -8.657   1.409  0.00  0.00     0.026 A 
BRANCH  29  32
ATOM     32  C   UNL d   1      -0.204 -11.992  -0.381  0.00  0.00     0.417 C 
ATOM     33  F   UNL d   1       0.765 -12.442  -1.231  0.00  0.00    -0.166 F 
ATOM     34  F   UNL d   1      -0.215 -12.871   0.663  0.00  0.00    -0.166 F 
ATOM     35  F   UNL d   1      -1.383 -12.172  -1.033  0.00  0.00    -0.166 F 
ENDBRANCH  29  32
ENDBRANCH  23  26
ENDBRANCH  21  23
ENDBRANCH   2  21
TORSDOF 6
