REMARK  4 active torsions:
REMARK  status: ('A' for Active; 'I' for Inactive)
REMARK    1  A    between atoms: C_8  and  N_1 
REMARK    2  A    between atoms: C_4  and  C_3 
REMARK    3  A    between atoms: C_7  and  C_4 
REMARK    4  A    between atoms: O_21  and  C_10 
ROOT
ATOM      1  N   UNL d   1      -1.923  -0.943  -0.085  0.00  0.00    -0.297 N 
ATOM      2  C   UNL d   1      -1.522   0.384  -0.258  0.00  0.00     0.260 A 
ATOM      3  C   UNL d   1      -0.767  -1.843   0.012  0.00  0.00     0.202 A 
ATOM      4  C   UNL d   1       0.395  -0.889   0.043  0.00  0.00    -0.012 A 
ATOM      5  C   UNL d   1      -0.063   0.410  -0.149  0.00  0.00     0.041 A 
ATOM      6  O   UNL d   1      -2.176   1.404  -0.394  0.00  0.00    -0.267 OA
ATOM      7  C   UNL d   1       1.747  -1.123   0.243  0.00  0.00     0.011 A 
ATOM      8  C   UNL d   1       0.774   1.511  -0.160  0.00  0.00     0.017 A 
ATOM      9  C   UNL d   1       2.616  -0.024   0.238  0.00  0.00     0.001 A 
ATOM     10  C   UNL d   1       2.135   1.282   0.034  0.00  0.00     0.001 A 
ENDROOT
BRANCH   3  11
ATOM     11  C   UNL d   1      -0.704  -2.746  -1.236  0.00  0.00     0.190 C 
ATOM     12  O   UNL d   1      -1.021  -2.353  -2.364  0.00  0.00    -0.290 OA
BRANCH  11  13
ATOM     13  C   UNL d   1      -0.137  -4.124  -1.130  0.00  0.00     0.046 A 
ATOM     14  C   UNL d   1       0.380  -4.741  -2.281  0.00  0.00     0.079 A 
ATOM     15  C   UNL d   1       0.998  -5.986  -2.208  0.00  0.00     0.038 A 
ATOM     16  C   UNL d   1       1.087  -6.648  -0.986  0.00  0.00     0.009 A 
ATOM     17  C   UNL d   1       0.539  -6.075   0.168  0.00  0.00    -0.061 A 
ATOM     18  C   UNL d   1      -0.082  -4.818   0.087  0.00  0.00     0.024 A 
ATOM     19  C   UNL d   1       0.625  -6.811   1.474  0.00  0.00     0.048 C 
BRANCH  14  20
ATOM     20  O   UNL d   1       0.323  -4.178  -3.529  0.00  0.00    -0.360 OA
ATOM     21  H   UNL d   1      -0.263  -3.387  -3.480  0.00  0.00     0.217 HD
ENDBRANCH  14  20
ENDBRANCH  11  13
ENDBRANCH   3  11
BRANCH   1  22
ATOM     22  C   UNL d   1      -3.263  -1.411  -0.092  0.00  0.00     0.038 A 
ATOM     23  C   UNL d   1      -4.293  -0.638  -0.641  0.00  0.00     0.030 A 
ATOM     24  C   UNL d   1      -5.608  -1.110  -0.676  0.00  0.00     0.009 A 
ATOM     25  C   UNL d   1      -5.932  -2.357  -0.145  0.00  0.00    -0.062 A 
ATOM     26  C   UNL d   1      -4.916  -3.135   0.412  0.00  0.00     0.009 A 
ATOM     27  C   UNL d   1      -7.346  -2.850  -0.202  0.00  0.00     0.048 C 
ATOM     28  C   UNL d   1      -3.595  -2.668   0.432  0.00  0.00     0.030 A 
ENDBRANCH   1  22
TORSDOF 4
