REMARK  7 active torsions:
REMARK  status: ('A' for Active; 'I' for Inactive)
REMARK    1  A    between atoms: C_7  and  C_1 
REMARK    2  A    between atoms: C_12  and  N_2 
REMARK    3  A    between atoms: C_8  and  C_5 
REMARK       I    between atoms: C_9  and  N_11 
REMARK    4  A    between atoms: C_13  and  C_9 
REMARK    5  A    between atoms: C_10  and  O_14 
REMARK    6  A    between atoms: N_11  and  C_26 
REMARK    7  A    between atoms: O_14  and  C_30 
ROOT
ATOM      1  C   UNL d   1       2.030   1.436   0.142  0.00  0.00     0.057 A 
ATOM      2  C   UNL d   1       3.033   1.130  -0.781  0.00  0.00     0.034 A 
ATOM      3  C   UNL d   1       2.166   2.570   0.956  0.00  0.00     0.034 A 
ATOM      4  C   UNL d   1       4.324   3.061  -0.031  0.00  0.00     0.035 A 
ATOM      5  C   UNL d   1       3.316   3.367   0.876  0.00  0.00     0.032 A 
ATOM      6  C   UNL d   1       4.184   1.935  -0.847  0.00  0.00     0.032 A 
ENDROOT
BRANCH   4   7
ATOM      7  N   UNL d   1       5.494   3.829  -0.190  0.00  0.00    -0.323 N 
ATOM      8  C   UNL d   1       5.801   5.022   0.428  0.00  0.00     0.256 C 
ATOM      9  O   UNL d   1       5.133   5.621   1.263  0.00  0.00    -0.267 OA
ATOM     10  H   UNL d   1       6.187   3.434  -0.816  0.00  0.00     0.169 HD
BRANCH   8  11
ATOM     11  C   UNL d   1       7.127   5.593   0.040  0.00  0.00     0.032 A 
ATOM     12  C   UNL d   1       7.644   5.458  -1.255  0.00  0.00     0.020 A 
ATOM     13  C   UNL d   1       8.923   5.941  -1.557  0.00  0.00     0.038 A 
ATOM     14  C   UNL d   1       9.672   6.599  -0.581  0.00  0.00     0.078 A 
ATOM     15  C   UNL d   1       9.136   6.744   0.703  0.00  0.00     0.038 A 
ATOM     16  C   UNL d   1       7.872   6.250   1.014  0.00  0.00     0.020 A 
BRANCH  14  17
ATOM     17  O   UNL d   1      10.915   7.133  -0.718  0.00  0.00    -0.255 OA
BRANCH  17  18
ATOM     18  C   UNL d   1      11.453   7.388  -2.004  0.00  0.00     0.530 C 
ATOM     19  F   UNL d   1      10.514   7.579  -2.954  0.00  0.00    -0.144 F 
ATOM     20  F   UNL d   1      12.198   8.514  -1.932  0.00  0.00    -0.144 F 
ATOM     21  F   UNL d   1      12.259   6.371  -2.375  0.00  0.00    -0.144 F 
ENDBRANCH  17  18
ENDBRANCH  14  17
ENDBRANCH   8  11
ENDBRANCH   4   7
BRANCH   1  22
ATOM     22  N   UNL d   1       0.846   0.653   0.256  0.00  0.00    -0.251 N 
ATOM     23  C   UNL d   1       0.608  -0.676  -0.019  0.00  0.00     0.142 C 
ATOM     24  C   UNL d   1      -0.763  -0.847   0.052  0.00  0.00     0.072 C 
ATOM     25  C   UNL d   1      -1.286   0.388   0.492  0.00  0.00     0.134 C 
ATOM     26  N   UNL d   1      -0.291   1.268   0.688  0.00  0.00    -0.289 N 
ATOM     27  HN  UNL d   1      -0.370   2.206   1.080  1.00  0.00     0.187 HD
BRANCH  23  28
ATOM     28  C   UNL d   1       1.638  -1.701  -0.246  0.00  0.00     0.434 C 
ATOM     29  F   UNL d   1       2.884  -1.360   0.155  0.00  0.00    -0.165 F 
ATOM     30  F   UNL d   1       1.334  -2.844   0.424  0.00  0.00    -0.165 F 
ATOM     31  F   UNL d   1       1.716  -2.033  -1.559  0.00  0.00    -0.165 F 
ENDBRANCH  23  28
BRANCH  25  32
ATOM     32  C   UNL d   1      -2.737   0.695   0.763  0.00  0.00     0.434 C 
ATOM     33  F   UNL d   1      -2.963   1.967   1.180  0.00  0.00    -0.165 F 
ATOM     34  F   UNL d   1      -3.497   0.505  -0.350  0.00  0.00    -0.165 F 
ATOM     35  F   UNL d   1      -3.247  -0.129   1.718  0.00  0.00    -0.165 F 
ENDBRANCH  25  32
ENDBRANCH   1  22
TORSDOF 7
