REMARK  7 active torsions:
REMARK  status: ('A' for Active; 'I' for Inactive)
REMARK    1  A    between atoms: C_2  and  S_1 
REMARK    2  A    between atoms: N_5  and  S_1 
REMARK    3  A    between atoms: C_6  and  C_3 
REMARK    4  A    between atoms: N_4  and  C_11 
REMARK    5  A    between atoms: N_7  and  N_5 
REMARK    6  A    between atoms: O_24  and  C_6 
REMARK       I    between atoms: C_9  and  N_7 
REMARK    7  A    between atoms: C_17  and  C_9 
ROOT
ATOM      1  N   UNL d   1       0.631   0.896   1.363  0.00  0.00    -0.220 N 
ATOM      2  H   UNL d   1      -0.092   1.612   1.240  0.00  0.00     0.200 HD
ENDROOT
BRANCH   1   3
ATOM      3  S   UNL d   1       1.054  -0.046   0.040  0.00  0.00     0.277 S 
ATOM      4  O   UNL d   1       0.260   0.340  -1.103  0.00  0.00    -0.199 OA
ATOM      5  O   UNL d   1       2.500  -0.104   0.003  0.00  0.00    -0.199 OA
BRANCH   3   6
ATOM      6  C   UNL d   1       0.581  -1.690   0.363  0.00  0.00     0.104 A 
ATOM      7  C   UNL d   1      -0.718  -2.150   0.514  0.00  0.00     0.103 A 
ATOM      8  S   UNL d   1      -0.731  -3.848   0.828  0.00  0.00    -0.094 SA
ATOM      9  C   UNL d   1       0.964  -3.970   0.704  0.00  0.00     0.052 A 
ATOM     10  C   UNL d   1       1.545  -2.753   0.439  0.00  0.00     0.034 A 
BRANCH   7  11
ATOM     11  C   UNL d   1      -2.008  -1.489   0.443  0.00  0.00     0.301 C 
ATOM     12  O   UNL d   1      -3.071  -2.033   0.163  0.00  0.00    -0.259 OA
BRANCH  11  13
ATOM     13  O   UNL d   1      -1.904  -0.177   0.792  0.00  0.00    -0.322 OA
ATOM     14  C   UNL d   1      -3.149   0.526   0.775  0.00  0.00     0.213 C 
ENDBRANCH  11  13
ENDBRANCH   7  11
ENDBRANCH   3   6
ENDBRANCH   1   3
BRANCH   1  15
ATOM     15  N   UNL d   1       1.204   0.652   2.662  0.00  0.00    -0.256 N 
ATOM     16  C   UNL d   1       0.766   1.395   3.743  0.00  0.00     0.270 C 
ATOM     17  O   UNL d   1      -0.078   2.279   3.654  0.00  0.00    -0.266 OA
ATOM     18  H   UNL d   1       1.882  -0.100   2.738  0.00  0.00     0.191 HD
BRANCH  16  19
ATOM     19  C   UNL d   1       1.341   1.015   5.067  0.00  0.00     0.033 A 
ATOM     20  C   UNL d   1       2.619   0.449   5.196  0.00  0.00     0.019 A 
ATOM     21  C   UNL d   1       3.103   0.077   6.459  0.00  0.00     0.037 A 
ATOM     22  C   UNL d   1       2.311   0.286   7.596  0.00  0.00     0.102 A 
ATOM     23  C   UNL d   1       1.041   0.864   7.479  0.00  0.00     0.037 A 
ATOM     24  C   UNL d   1       0.563   1.228   6.214  0.00  0.00     0.019 A 
BRANCH  22  25
ATOM     25  N   UNL d   1       2.820  -0.099   8.921  0.00  0.00    -0.116 N 
ATOM     26  O   UNL d   1       3.937  -0.631   8.974  0.00  0.00    -0.532 OA
ATOM     27  O   UNL d   1       2.099   0.128   9.903  0.00  0.00    -0.532 OA
ENDBRANCH  22  25
ENDBRANCH  16  19
ENDBRANCH   1  15
TORSDOF 7
