REMARK  5 active torsions:
REMARK  status: ('A' for Active; 'I' for Inactive)
REMARK    1  A    between atoms: C_2  and  S_1 
REMARK    2  A    between atoms: N_4  and  S_1 
REMARK    3  A    between atoms: C_10  and  N_4 
REMARK    4  A    between atoms: C_7  and  C_10 
REMARK    5  A    between atoms: O_14  and  C_11 
ROOT
ATOM      1  S   UNL d   1       1.006  -0.111   0.395  0.00  0.00     0.261 S 
ATOM      2  O   UNL d   1       1.088  -0.561   1.767  0.00  0.00    -0.200 OA
ATOM      3  O   UNL d   1       0.176  -0.796  -0.572  0.00  0.00    -0.200 OA
ENDROOT
BRANCH   1   4
ATOM      4  C   UNL d   1       2.675   0.094  -0.183  0.00  0.00     0.106 C 
ATOM      5  C   UNL d   1       3.089  -0.358  -1.439  0.00  0.00     0.066 A 
ATOM      6  N   UNL d   1       2.332  -1.137  -2.244  0.00  0.00    -0.364 N 
ATOM      7  C   UNL d   1       4.396   0.007  -1.851  0.00  0.00    -0.008 A 
ATOM      8  C   UNL d   1       2.832  -1.573  -3.424  0.00  0.00     0.088 A 
ATOM      9  HN  UNL d   1       1.387  -1.397  -1.963  1.00  0.00     0.165 HD
ATOM     10  C   UNL d   1       4.073  -1.218  -3.903  0.00  0.00     0.018 A 
ATOM     11  C   UNL d   1       4.859  -0.398  -3.106  0.00  0.00     0.015 A 
ATOM     12  C   UNL d   1       5.241   0.762  -1.018  0.00  0.00     0.014 C 
ATOM     13  C   UNL d   1       4.845   1.093   0.269  0.00  0.00     0.003 C 
ATOM     14  C   UNL d   1       3.577   0.725   0.695  0.00  0.00     0.028 C 
ENDBRANCH   1   4
BRANCH   1  15
ATOM     15  N   UNL d   1       0.383   1.466   0.442  0.00  0.00    -0.311 N 
ATOM     16  H   UNL d   1      -0.078   1.756  -0.418  0.00  0.00     0.172 HD
BRANCH  15  17
ATOM     17  C   UNL d   1       1.025   2.461   1.292  0.00  0.00     0.173 C 
BRANCH  17  18
ATOM     18  C   UNL d   1       0.334   3.798   1.377  0.00  0.00    -0.006 A 
ATOM     19  C   UNL d   1      -0.530   4.203   2.406  0.00  0.00     0.076 A 
ATOM     20  C   UNL d   1      -0.882   5.561   2.504  0.00  0.00     0.037 A 
ATOM     21  C   UNL d   1      -0.406   6.511   1.600  0.00  0.00     0.003 A 
ATOM     22  C   UNL d   1       0.403   6.109   0.549  0.00  0.00     0.001 A 
ATOM     23  C   UNL d   1       0.751   4.766   0.428  0.00  0.00     0.011 A 
BRANCH  19  24
ATOM     24  O   UNL d   1      -1.015   3.473   3.454  0.00  0.00    -0.355 OA
ATOM     25  C   UNL d   1      -1.278   2.088   3.279  0.00  0.00     0.210 C 
ENDBRANCH  19  24
ENDBRANCH  17  18
ENDBRANCH  15  17
ENDBRANCH   1  15
TORSDOF 5
