REMARK  1 active torsions:
REMARK  status: ('A' for Active; 'I' for Inactive)
REMARK       I    between atoms: C_11  and  N_1 
REMARK    1  A    between atoms: O_12  and  C_2 
REMARK       I    between atoms: N_14  and  C_11 
ROOT
ATOM      1  N   UNL d   1      -1.263   1.049  -0.501  0.00  0.00    -0.206 N 
ATOM      2  C   UNL d   1      -0.408   0.592   0.580  0.00  0.00     0.166 A 
ATOM      3  C   UNL d   1      -0.533  -0.940   0.507  0.00  0.00     0.095 A 
ATOM      4  C   UNL d   1       0.820  -1.470   0.099  0.00  0.00     0.013 A 
ATOM      5  C   UNL d   1       1.957  -1.552   1.109  0.00  0.00    -0.039 A 
ATOM      6  C   UNL d   1       1.810  -0.360   0.157  0.00  0.00     0.004 A 
ATOM      7  N   UNL d   1      -1.985   0.038  -1.107  0.00  0.00    -0.300 N 
ATOM      8  HN  UNL d   1      -2.670   0.136  -1.857  1.00  0.00     0.186 HD
ATOM      9  C   UNL d   1      -1.611  -1.058  -0.528  0.00  0.00     0.009 A 
ATOM     10  C   UNL d   1       1.091   0.928   0.443  0.00  0.00     0.069 C 
ATOM     11  C   UNL d   1      -1.518   2.378  -0.764  0.00  0.00     0.337 C 
ATOM     12  O   UNL d   1      -1.006   3.308  -0.145  0.00  0.00    -0.245 OA
ATOM     13  N   UNL d   1      -2.440   2.582  -1.740  0.00  0.00    -0.350 N 
ATOM     14  C   UNL d   1       1.551  -1.536   2.564  0.00  0.00     0.015 C 
ATOM     15  C   UNL d   1       3.122  -2.473   0.815  0.00  0.00     0.015 C 
ATOM     16  C   UNL d   1      -2.190  -2.390  -0.872  0.00  0.00     0.065 C 
ATOM     17  H   UNL d   1      -3.022   1.774  -1.931  0.00  0.00     0.160 HD
ATOM     18  H   UNL d   1      -2.848   3.503  -1.803  0.00  0.00     0.160 HD
ENDROOT
BRANCH   2  19
ATOM     19  O   UNL d   1      -0.922   1.076   1.815  0.00  0.00    -0.368 OA
ATOM     20  H   UNL d   1      -0.939   2.049   1.700  0.00  0.00     0.212 HD
ENDBRANCH   2  19
TORSDOF 1
