REMARK  8 active torsions:
REMARK  status: ('A' for Active; 'I' for Inactive)
REMARK    1  A    between atoms: S_11  and  C_3 
REMARK    2  A    between atoms: S_14  and  C_4 
REMARK    3  A    between atoms: C_9  and  C_12 
REMARK    4  A    between atoms: C_10  and  C_13 
REMARK    5  A    between atoms: C_17  and  S_11 
REMARK    6  A    between atoms: C_12  and  C_17 
REMARK    7  A    between atoms: C_13  and  C_18 
REMARK    8  A    between atoms: C_18  and  S_14 
ROOT
ATOM      1  N   UNL d   1      -2.287   0.645   0.074  0.00  0.00    -0.331 N 
ATOM      2  HN  UNL d   1      -3.181   1.135   0.029  1.00  0.00     0.168 HD
ATOM      3  C   UNL d   1      -1.121   1.284  -0.131  0.00  0.00     0.084 A 
ATOM      4  C   UNL d   1      -2.221  -0.662   0.341  0.00  0.00     0.146 A 
ATOM      5  N   UNL d   1      -1.095  -1.382   0.348  0.00  0.00    -0.336 N 
ATOM      6  HN  UNL d   1      -1.114  -2.390   0.503  1.00  0.00     0.168 HD
ATOM      7  C   UNL d   1       0.129   0.644  -0.075  0.00  0.00     0.024 A 
ATOM      8  C   UNL d   1       0.058  -0.736   0.144  0.00  0.00     0.047 A 
ATOM      9  C   UNL d   1       1.405   1.258  -0.212  0.00  0.00     0.016 A 
ATOM     10  C   UNL d   1       1.237  -1.472   0.170  0.00  0.00     0.030 A 
ATOM     11  C   UNL d   1       2.575   0.502  -0.149  0.00  0.00     0.001 A 
ATOM     12  C   UNL d   1       2.489  -0.870   0.028  0.00  0.00     0.002 A 
ENDROOT
BRANCH   3  13
ATOM     13  S   UNL d   1      -1.271   3.037  -0.496  0.00  0.00    -0.103 SA
BRANCH  13  14
ATOM     14  C   UNL d   1      -3.081   3.189  -0.676  0.00  0.00     0.164 C 
BRANCH  14  15
ATOM     15  C   UNL d   1      -3.442   4.601  -1.094  0.00  0.00     0.170 C 
ATOM     16  O   UNL d   1      -3.397   5.544  -0.308  0.00  0.00    -0.291 OA
BRANCH  15  17
ATOM     17  C   UNL d   1      -3.850   4.832  -2.509  0.00  0.00     0.032 A 
ATOM     18  C   UNL d   1      -4.919   5.674  -2.847  0.00  0.00     0.048 A 
ATOM     19 CL   UNL d   1      -5.940   6.431  -1.677  0.00  0.00    -0.083 Cl
ATOM     20  C   UNL d   1      -5.239   5.887  -4.194  0.00  0.00     0.025 A 
ATOM     21  C   UNL d   1      -4.508   5.262  -5.204  0.00  0.00     0.002 A 
ATOM     22  C   UNL d   1      -3.451   4.420  -4.874  0.00  0.00     0.001 A 
ATOM     23  C   UNL d   1      -3.118   4.209  -3.534  0.00  0.00     0.017 A 
ENDBRANCH  15  17
ENDBRANCH  14  15
ENDBRANCH  13  14
ENDBRANCH   3  13
BRANCH   4  24
ATOM     24  S   UNL d   1      -3.717  -1.492   0.807  0.00  0.00    -0.086 SA
BRANCH  24  25
ATOM     25  C   UNL d   1      -4.913  -0.478  -0.115  0.00  0.00     0.166 C 
BRANCH  25  26
ATOM     26  C   UNL d   1      -6.344  -0.943   0.090  0.00  0.00     0.170 C 
ATOM     27  O   UNL d   1      -6.653  -1.989   0.651  0.00  0.00    -0.291 OA
BRANCH  26  28
ATOM     28  C   UNL d   1      -7.463  -0.054  -0.359  0.00  0.00     0.032 A 
ATOM     29  C   UNL d   1      -7.487   0.708  -1.537  0.00  0.00     0.048 A 
ATOM     30 CL   UNL d   1      -6.225   0.734  -2.715  0.00  0.00    -0.083 Cl
ATOM     31  C   UNL d   1      -8.617   1.478  -1.851  0.00  0.00     0.025 A 
ATOM     32  C   UNL d   1      -9.727   1.492  -1.008  0.00  0.00     0.002 A 
ATOM     33  C   UNL d   1      -9.717   0.736   0.158  0.00  0.00     0.001 A 
ATOM     34  C   UNL d   1      -8.596  -0.033   0.478  0.00  0.00     0.017 A 
ENDBRANCH  26  28
ENDBRANCH  25  26
ENDBRANCH  24  25
ENDBRANCH   4  24
TORSDOF 8
