REMARK  6 active torsions:
REMARK  status: ('A' for Active; 'I' for Inactive)
REMARK    1  A    between atoms: C_7  and  S_1 
REMARK    2  A    between atoms: C_17  and  S_1 
REMARK    3  A    between atoms: C_10  and  C_4 
REMARK    4  A    between atoms: C_5  and  C_7 
REMARK    5  A    between atoms: C_6  and  C_12 
REMARK    6  A    between atoms: C_22  and  C_17 
ROOT
ATOM      1  N   UNL d   1       0.534  -3.638  -1.408  0.00  0.00    -0.352 N 
ATOM      2  HN  UNL d   1       0.106  -4.226  -0.693  1.00  0.00     0.166 HD
ATOM      3  C   UNL d   1       1.057  -4.107  -2.609  0.00  0.00     0.049 A 
ATOM      4  C   UNL d   1       0.668  -2.329  -1.321  0.00  0.00     0.065 A 
ATOM      5  S   UNL d   1       1.412  -1.593  -2.687  0.00  0.00    -0.085 SA
ATOM      6  C   UNL d   1       1.526  -3.121  -3.452  0.00  0.00     0.081 A 
ENDROOT
BRANCH   4   7
ATOM      7  C   UNL d   1       0.335  -1.562  -0.090  0.00  0.00     0.205 C 
BRANCH   7   8
ATOM      8  S   UNL d   1      -0.921  -0.329  -0.346  0.00  0.00     0.154 S 
ATOM      9  O   UNL d   1      -0.421   0.636  -1.319  0.00  0.00    -0.227 OA
ATOM     10  O   UNL d   1      -1.296   0.130   0.979  0.00  0.00    -0.227 OA
BRANCH   8  11
ATOM     11  C   UNL d   1      -2.345  -1.185  -1.056  0.00  0.00     0.179 C 
BRANCH  11  12
ATOM     12  C   UNL d   1      -3.437  -0.157  -1.276  0.00  0.00    -0.043 A 
ATOM     13  C   UNL d   1      -3.485   0.582  -2.470  0.00  0.00     0.024 A 
ATOM     14  C   UNL d   1      -4.368   1.665  -2.619  0.00  0.00     0.048 A 
ATOM     15  C   UNL d   1      -5.270   1.957  -1.585  0.00  0.00     0.016 A 
ATOM     16  C   UNL d   1      -5.267   1.197  -0.416  0.00  0.00     0.001 A 
ATOM     17  C   UNL d   1      -4.348   0.156  -0.257  0.00  0.00     0.008 A 
BRANCH  14  18
ATOM     18  C   UNL d   1      -4.306   2.555  -3.838  0.00  0.00     0.417 C 
ATOM     19  F   UNL d   1      -3.354   2.181  -4.738  0.00  0.00    -0.166 F 
ATOM     20  F   UNL d   1      -5.479   2.583  -4.530  0.00  0.00    -0.166 F 
ATOM     21  F   UNL d   1      -4.030   3.851  -3.522  0.00  0.00    -0.166 F 
ENDBRANCH  14  18
ENDBRANCH  11  12
ENDBRANCH   8  11
ENDBRANCH   7   8
ENDBRANCH   4   7
BRANCH   3  22
ATOM     22  C   UNL d   1       1.069  -5.531  -2.933  0.00  0.00    -0.006 A 
ATOM     23  C   UNL d   1       0.086  -6.370  -2.393  0.00  0.00     0.053 A 
ATOM     24  C   UNL d   1       0.092  -7.746  -2.650  0.00  0.00     0.102 A 
ATOM     25  O   UNL d   1      -0.900  -8.456  -2.019  0.00  0.00    -0.348 OA
ATOM     26  C   UNL d   1       1.062  -8.294  -3.498  0.00  0.00     0.102 A 
ATOM     27  C   UNL d   1      -0.456  -9.728  -1.544  0.00  0.00     0.178 C 
ATOM     28  C   UNL d   1      -0.579 -10.788  -2.624  0.00  0.00     0.053 C 
ATOM     29  C   UNL d   1      -0.094 -10.283  -3.973  0.00  0.00     0.178 C 
ATOM     30  O   UNL d   1       1.162  -9.614  -3.858  0.00  0.00    -0.348 OA
ATOM     31  C   UNL d   1       2.055  -7.467  -4.026  0.00  0.00     0.040 A 
ATOM     32  C   UNL d   1       2.061  -6.096  -3.748  0.00  0.00     0.017 A 
ENDBRANCH   3  22
TORSDOF 6
