REMARK  4 active torsions:
REMARK  status: ('A' for Active; 'I' for Inactive)
REMARK    1  A    between atoms: C_2  and  S_1 
REMARK    2  A    between atoms: C_3  and  S_1 
REMARK    3  A    between atoms: C_6  and  C_3 
REMARK    4  A    between atoms: C_9  and  C_6 
ROOT
ATOM      1  S   UNL d   1       0.983  -0.047   0.043  0.00  0.00     0.175 S 
ATOM      2  O   UNL d   1       0.367   1.095  -0.609  0.00  0.00    -0.223 OA
ATOM      3  O   UNL d   1       2.426  -0.119   0.188  0.00  0.00    -0.223 OA
ENDROOT
BRANCH   1   4
ATOM      4  C   UNL d   1       0.462  -1.505  -0.829  0.00  0.00     0.059 A 
ATOM      5  C   UNL d   1      -0.732  -1.485  -1.554  0.00  0.00     0.024 A 
ATOM      6  C   UNL d   1      -1.097  -2.601  -2.309  0.00  0.00     0.008 A 
ATOM      7  C   UNL d   1      -0.271  -3.734  -2.351  0.00  0.00    -0.062 A 
ATOM      8  C   UNL d   1       0.926  -3.736  -1.623  0.00  0.00     0.008 A 
ATOM      9  C   UNL d   1      -0.653  -4.906  -3.207  0.00  0.00     0.048 C 
ATOM     10  C   UNL d   1       1.297  -2.624  -0.865  0.00  0.00     0.024 A 
ENDBRANCH   1   4
BRANCH   1  11
ATOM     11  C   UNL d   1       0.264  -0.209   1.657  0.00  0.00     0.153 C 
BRANCH  11  12
ATOM     12  C   UNL d   1       0.669   0.972   2.529  0.00  0.00     0.093 C 
BRANCH  12  13
ATOM     13  C   UNL d   1       0.067   0.884   3.911  0.00  0.00     0.123 C 
ATOM     14  O   UNL d   1      -0.666  -0.047   4.245  0.00  0.00    -0.298 OA
ATOM     15  C   UNL d   1       0.416   1.984   4.880  0.00  0.00     0.091 C 
ENDBRANCH  12  13
ENDBRANCH  11  12
ENDBRANCH   1  11
TORSDOF 4
