REMARK  3 active torsions:
REMARK  status: ('A' for Active; 'I' for Inactive)
REMARK       I    between atoms: N_2  and  C_1 
REMARK    1  A    between atoms: C_3  and  C_1 
REMARK    2  A    between atoms: C_6  and  N_2 
REMARK    3  A    between atoms: C_11  and  C_5 
ROOT
ATOM      1  C   UNL d   1       2.326  -4.932   0.856  0.00  0.00    -0.055 A 
ATOM      2  C   UNL d   1       0.956  -2.514   0.306  0.00  0.00     0.034 A 
ATOM      3  C   UNL d   1       1.188  -4.918   0.041  0.00  0.00     0.010 A 
ATOM      4  C   UNL d   1       2.779  -3.716   1.384  0.00  0.00     0.010 A 
ATOM      5  C   UNL d   1       0.511  -3.723  -0.229  0.00  0.00     0.030 A 
ATOM      6  C   UNL d   1       2.104  -2.519   1.105  0.00  0.00     0.030 A 
ENDROOT
BRANCH   2   7
ATOM      7  N   UNL d   1       0.319  -1.280   0.069  0.00  0.00    -0.325 N 
ATOM      8  C   UNL d   1      -0.918  -1.078  -0.539  0.00  0.00     0.255 C 
ATOM      9  O   UNL d   1      -1.688  -1.967  -0.904  0.00  0.00    -0.270 OA
ATOM     10  H   UNL d   1       0.784  -0.456   0.434  0.00  0.00     0.169 HD
BRANCH   8  11
ATOM     11  C   UNL d   1      -1.294   0.387  -0.752  0.00  0.00     0.270 C 
ATOM     12 CL   UNL d   1      -1.176   1.277   0.781  0.00  0.00    -0.098 Cl
ATOM     13 CL   UNL d   1      -0.212   1.095  -1.969  0.00  0.00    -0.098 Cl
ENDBRANCH   8  11
ENDBRANCH   2   7
BRANCH   1  14
ATOM     14  C   UNL d   1       3.061  -6.227   1.151  0.00  0.00     0.010 C 
ATOM     15  C   UNL d   1       2.155  -7.247   1.848  0.00  0.00     0.015 C 
ATOM     16  C   UNL d   1       3.663  -6.822  -0.125  0.00  0.00     0.015 C 
ENDBRANCH   1  14
TORSDOF 3
