REMARK  5 active torsions:
REMARK  status: ('A' for Active; 'I' for Inactive)
REMARK    1  A    between atoms: C_3  and  C_1 
REMARK       I    between atoms: N_7  and  C_3 
REMARK    2  A    between atoms: C_12  and  C_5 
REMARK    3  A    between atoms: C_10  and  N_7 
REMARK    4  A    between atoms: C_8  and  O_9 
REMARK    5  A    between atoms: O_9  and  C_11 
ROOT
ATOM      1  C   UNL d   1       0.165  -2.457   1.140  0.00  0.00     0.258 C 
ATOM      2  N   UNL d   1      -0.835  -3.390   0.933  0.00  0.00    -0.320 N 
ATOM      3  O   UNL d   1       1.301  -2.708   1.527  0.00  0.00    -0.267 OA
ATOM      4  H   UNL d   1      -1.626  -3.079   0.380  0.00  0.00     0.169 HD
ENDROOT
BRANCH   1   5
ATOM      5  C   UNL d   1      -0.235  -1.098   0.800  0.00  0.00     0.064 A 
ATOM      6  C   UNL d   1      -1.535  -0.507   0.814  0.00  0.00     0.057 A 
ATOM      7  C   UNL d   1      -1.382   0.825   0.485  0.00  0.00     0.087 A 
ATOM      8  O   UNL d   1      -0.067   1.079   0.230  0.00  0.00    -0.314 OA
ATOM      9  C   UNL d   1       0.623  -0.081   0.416  0.00  0.00     0.065 A 
ATOM     10  C   UNL d   1       2.080  -0.002   0.173  0.00  0.00     0.077 C 
BRANCH   7  11
ATOM     11  C   UNL d   1      -2.297   1.957   0.375  0.00  0.00    -0.002 A 
ATOM     12  C   UNL d   1      -1.828   3.273   0.450  0.00  0.00     0.016 A 
ATOM     13  C   UNL d   1      -2.711   4.357   0.378  0.00  0.00     0.024 A 
ATOM     14  C   UNL d   1      -4.075   4.124   0.226  0.00  0.00     0.034 A 
ATOM     15  C   UNL d   1      -4.562   2.820   0.144  0.00  0.00     0.024 A 
ATOM     16 CL   UNL d   1      -5.167   5.451   0.145  0.00  0.00    -0.084 Cl
ATOM     17  C   UNL d   1      -3.674   1.742   0.220  0.00  0.00     0.016 A 
ENDBRANCH   7  11
ENDBRANCH   1   5
BRANCH   2  18
ATOM     18  C   UNL d   1      -0.752  -4.769   1.234  0.00  0.00     0.069 A 
ATOM     19  C   UNL d   1      -1.540  -5.711   0.547  0.00  0.00     0.105 A 
ATOM     20  C   UNL d   1      -1.533  -7.055   0.951  0.00  0.00     0.039 A 
ATOM     21  C   UNL d   1      -0.729  -7.479   2.007  0.00  0.00     0.003 A 
ATOM     22  C   UNL d   1       0.069  -6.558   2.674  0.00  0.00     0.002 A 
ATOM     23  C   UNL d   1       0.057  -5.215   2.290  0.00  0.00     0.032 A 
BRANCH  19  24
ATOM     24  O   UNL d   1      -2.374  -5.467  -0.510  0.00  0.00    -0.253 OA
BRANCH  24  25
ATOM     25  C   UNL d   1      -1.877  -4.617  -1.532  0.00  0.00     0.530 C 
ATOM     26  F   UNL d   1      -0.538  -4.677  -1.666  0.00  0.00    -0.144 F 
ATOM     27  F   UNL d   1      -2.440  -4.968  -2.708  0.00  0.00    -0.144 F 
ATOM     28  F   UNL d   1      -2.243  -3.342  -1.258  0.00  0.00    -0.144 F 
ENDBRANCH  24  25
ENDBRANCH  19  24
ENDBRANCH   2  18
TORSDOF 5
