REMARK  2 active torsions:
REMARK  status: ('A' for Active; 'I' for Inactive)
REMARK    1  A    between atoms: C_7  and  C_4 
REMARK    2  A    between atoms: O_20  and  C_17 
ROOT
ATOM      1  N   UNL d   1       1.139   1.377   0.008  0.00  0.00    -0.353 N 
ATOM      2  HN  UNL d   1       1.134   2.397   0.013  1.00  0.00     0.166 HD
ATOM      3  C   UNL d   1      -0.015   0.671   0.012  0.00  0.00     0.062 A 
ATOM      4  C   UNL d   1       2.305   0.680  -0.003  0.00  0.00     0.058 A 
ATOM      5  N   UNL d   1       1.140  -1.442   0.023  0.00  0.00    -0.362 N 
ATOM      6  HN  UNL d   1       1.152  -2.462   0.033  1.00  0.00     0.165 HD
ATOM      7  C   UNL d   1      -1.243   1.325   0.009  0.00  0.00     0.068 A 
ATOM      8  C   UNL d   1      -0.007  -0.745   0.014  0.00  0.00     0.059 A 
ATOM      9  C   UNL d   1       2.279  -0.711   0.018  0.00  0.00     0.118 A 
ATOM     10  C   UNL d   1      -1.209  -1.434   0.009  0.00  0.00     0.034 A 
ATOM     11  C   UNL d   1      -2.455   0.626   0.002  0.00  0.00     0.070 A 
ATOM     12  C   UNL d   1      -2.433  -0.764   0.002  0.00  0.00     0.039 A 
ENDROOT
BRANCH   4  13
ATOM     13  C   UNL d   1       3.559   1.459  -0.032  0.00  0.00    -0.007 A 
ATOM     14  C   UNL d   1       3.641   2.733   0.568  0.00  0.00     0.022 A 
ATOM     15  C   UNL d   1       4.837   3.481   0.581  0.00  0.00    -0.039 A 
ATOM     16  C   UNL d   1       4.863   4.825   1.252  0.00  0.00     0.050 C 
ATOM     17  C   UNL d   1       5.974   2.941  -0.032  0.00  0.00     0.040 A 
ATOM     18  C   UNL d   1       5.915   1.693  -0.648  0.00  0.00     0.025 A 
ATOM     19 CL   UNL d   1       7.481   3.784  -0.058  0.00  0.00    -0.084 Cl
ATOM     20  C   UNL d   1       4.722   0.964  -0.650  0.00  0.00     0.015 A 
ENDBRANCH   4  13
BRANCH  11  21
ATOM     21  O   UNL d   1      -3.579   1.405  -0.003  0.00  0.00    -0.356 OA
ATOM     22  C   UNL d   1      -4.831   0.729  -0.023  0.00  0.00     0.210 C 
ENDBRANCH  11  21
TORSDOF 2
