REMARK  5 active torsions:
REMARK  status: ('A' for Active; 'I' for Inactive)
REMARK    1  A    between atoms: C_2  and  C_1 
REMARK    2  A    between atoms: C_12  and  C_10 
REMARK    3  A    between atoms: O_13  and  C_12 
REMARK    4  A    between atoms: C_14  and  O_13 
REMARK    5  A    between atoms: O_22  and  C_16 
ROOT
ATOM      1  C   UNL d   1       3.636   0.150   0.015  0.00  0.00     0.057 A 
ATOM      2  N   UNL d   1       4.309   0.913   0.952  0.00  0.00    -0.351 N 
ATOM      3  HN  UNL d   1       3.856   1.491   1.660  1.00  0.00     0.166 HD
ATOM      4  C   UNL d   1       4.465  -0.520  -0.866  0.00  0.00     0.082 A 
ATOM      5  C   UNL d   1       5.612   0.794   0.806  0.00  0.00     0.075 A 
ATOM      6  S   UNL d   1       6.111  -0.209  -0.496  0.00  0.00    -0.084 SA
ENDROOT
BRANCH   1   7
ATOM      7  C   UNL d   1       2.127   0.064  -0.012  0.00  0.00     0.039 A 
ATOM      8  S   UNL d   1       1.297  -0.951  -1.114  0.00  0.00    -0.087 SA
ATOM      9  C   UNL d   1      -0.242  -0.547  -0.488  0.00  0.00     0.016 A 
ATOM     10  C   UNL d   1      -1.489  -1.051  -0.911  0.00  0.00     0.019 A 
ATOM     11  C   UNL d   1      -0.137   0.386   0.542  0.00  0.00    -0.012 A 
ATOM     12  C   UNL d   1      -2.651  -0.602  -0.283  0.00  0.00     0.001 A 
ATOM     13  C   UNL d   1      -2.580   0.331   0.740  0.00  0.00     0.001 A 
ATOM     14  C   UNL d   1      -1.342   0.828   1.154  0.00  0.00     0.013 A 
ATOM     15  C   UNL d   1       1.247   0.750   0.817  0.00  0.00    -0.031 A 
ATOM     16  C   UNL d   1       1.576   1.742   1.894  0.00  0.00     0.050 C 
ENDBRANCH   1   7
BRANCH   5  17
ATOM     17  C   UNL d   1       6.624   1.482   1.672  0.00  0.00     0.240 C 
BRANCH  17  18
ATOM     18  O   UNL d   1       6.900   0.609   2.766  0.00  0.00    -0.345 OA
BRANCH  18  19
ATOM     19  C   UNL d   1       7.762   1.069   3.722  0.00  0.00     0.069 A 
ATOM     20  C   UNL d   1       8.447   2.282   3.694  0.00  0.00     0.039 A 
ATOM     21  C   UNL d   1       9.319   2.628   4.738  0.00  0.00     0.039 A 
ATOM     22  C   UNL d   1       9.512   1.763   5.814  0.00  0.00     0.068 A 
ATOM     23  C   UNL d   1       8.818   0.553   5.842  0.00  0.00     0.039 A 
ATOM     24  C   UNL d   1       7.950   0.208   4.803  0.00  0.00     0.039 A 
BRANCH  22  25
ATOM     25  O   UNL d   1      10.336   1.979   6.883  0.00  0.00    -0.356 OA
ATOM     26  C   UNL d   1      11.068   3.198   6.894  0.00  0.00     0.210 C 
ENDBRANCH  22  25
ENDBRANCH  18  19
ENDBRANCH  17  18
ENDBRANCH   5  17
TORSDOF 5
