REMARK  1 active torsions:
REMARK  status: ('A' for Active; 'I' for Inactive)
REMARK    1  A    between atoms: C_9  and  S_4 
ROOT
ATOM      1  S   UNL d   1      -1.732  -1.450   0.026  0.00  0.00     0.269 S 
ATOM      2  N   UNL d   1      -2.634  -0.006   0.250  0.00  0.00    -0.255 N 
ATOM      3  HN  UNL d   1      -3.571   0.002   0.653  1.00  0.00     0.187 HD
ATOM      4  S   UNL d   1      -1.879   1.337  -0.229  0.00  0.00    -0.046 SA
ATOM      5  C   UNL d   1      -0.157  -0.719   0.041  0.00  0.00     0.098 A 
ATOM      6  C   UNL d   1      -0.240   0.660   0.005  0.00  0.00     0.038 A 
ATOM      7  O   UNL d   1      -1.841  -2.267   1.215  0.00  0.00    -0.200 OA
ATOM      8  O   UNL d   1      -1.957  -1.976  -1.306  0.00  0.00    -0.200 OA
ATOM      9  C   UNL d   1       1.043  -1.412   0.100  0.00  0.00     0.027 A 
ATOM     10  C   UNL d   1       0.933   1.404   0.009  0.00  0.00     0.021 A 
ATOM     11  C   UNL d   1       2.219  -0.665   0.103  0.00  0.00     0.002 A 
ATOM     12  C   UNL d   1       2.164   0.736   0.062  0.00  0.00     0.001 A 
ENDROOT
BRANCH   4  13
ATOM     13  C   UNL d   1      -2.016   2.187   1.363  0.00  0.00     0.015 A 
ATOM     14  C   UNL d   1      -2.031   1.547   2.610  0.00  0.00     0.019 A 
ATOM     15  C   UNL d   1      -2.226   2.285   3.782  0.00  0.00     0.001 A 
ATOM     16  C   UNL d   1      -2.396   3.667   3.722  0.00  0.00     0.000 A 
ATOM     17  C   UNL d   1      -2.363   4.316   2.492  0.00  0.00     0.001 A 
ATOM     18  C   UNL d   1      -2.175   3.580   1.319  0.00  0.00     0.019 A 
ENDBRANCH   4  13
TORSDOF 1
