REMARK  9 active torsions:
REMARK  status: ('A' for Active; 'I' for Inactive)
REMARK    1  A    between atoms: C_10  and  C_1 
REMARK    2  A    between atoms: N_7  and  C_2 
REMARK    3  A    between atoms: C_11  and  C_3 
REMARK    4  A    between atoms: C_12  and  C_3 
REMARK    5  A    between atoms: O_16  and  C_4 
REMARK    6  A    between atoms: O_17  and  C_5 
REMARK    7  A    between atoms: C_6  and  N_7 
REMARK    8  A    between atoms: O_19  and  C_9 
REMARK    9  A    between atoms: O_18  and  C_10 
ROOT
ATOM      1  C   UNL d   1       1.408  -0.149   0.089  0.00  0.00     0.071 A 
ATOM      2  C   UNL d   1       0.614  -1.303  -0.092  0.00  0.00     0.085 A 
ATOM      3  C   UNL d   1      -0.802  -1.122  -0.246  0.00  0.00     0.132 A 
ATOM      4  C   UNL d   1      -1.395   0.167  -0.147  0.00  0.00     0.137 A 
ATOM      5  C   UNL d   1       0.812   1.114   0.178  0.00  0.00     0.059 A 
ATOM      6  C   UNL d   1      -0.567   1.279   0.088  0.00  0.00     0.105 A 
ENDROOT
BRANCH   2   7
ATOM      7  N   UNL d   1       1.152  -2.607  -0.305  0.00  0.00    -0.362 N 
ATOM      8  H   UNL d   1       1.148  -2.747  -1.323  0.00  0.00     0.165 HD
BRANCH   7   9
ATOM      9  C   UNL d   1       2.288  -3.176   0.248  0.00  0.00     0.107 C 
ATOM     10  C   UNL d   1       2.685  -3.534   1.487  0.00  0.00     0.070 C 
BRANCH  10  11
ATOM     11  C   UNL d   1       1.914  -3.352   2.750  0.00  0.00     0.160 C 
ATOM     12  O   UNL d   1       2.014  -4.191   3.649  0.00  0.00    -0.293 OA
ATOM     13  C   UNL d   1       1.025  -2.159   2.951  0.00  0.00     0.097 C 
ENDBRANCH  10  11
BRANCH  10  14
ATOM     14  C   UNL d   1       3.963  -4.335   1.506  0.00  0.00     0.160 C 
ATOM     15  O   UNL d   1       4.299  -5.015   0.533  0.00  0.00    -0.293 OA
ATOM     16  C   UNL d   1       4.891  -4.231   2.694  0.00  0.00     0.097 C 
ENDBRANCH  10  14
ENDBRANCH   7   9
ENDBRANCH   2   7
BRANCH   1  17
ATOM     17  C   UNL d   1       2.892  -0.157   0.104  0.00  0.00     0.295 C 
ATOM     18  O   UNL d   1       3.603  -0.735  -0.696  0.00  0.00    -0.259 OA
BRANCH  17  19
ATOM     19  O   UNL d   1       3.304   0.629   1.133  0.00  0.00    -0.322 OA
ATOM     20  C   UNL d   1       4.711   0.877   1.182  0.00  0.00     0.213 C 
ENDBRANCH  17  19
ENDBRANCH   1  17
BRANCH   3  21
ATOM     21  O   UNL d   1      -1.645  -2.145  -0.623  0.00  0.00    -0.351 OA
ATOM     22  C   UNL d   1      -1.463  -3.457  -0.103  0.00  0.00     0.210 C 
ENDBRANCH   3  21
BRANCH   4  23
ATOM     23  O   UNL d   1      -2.720   0.474  -0.317  0.00  0.00    -0.351 OA
ATOM     24  C   UNL d   1      -3.706  -0.536  -0.430  0.00  0.00     0.210 C 
ENDBRANCH   4  23
BRANCH   6  25
ATOM     25  O   UNL d   1      -0.935   2.599   0.158  0.00  0.00    -0.353 OA
ATOM     26  C   UNL d   1      -2.203   2.901   0.725  0.00  0.00     0.210 C 
ENDBRANCH   6  25
TORSDOF 9
