REMARK  0 active torsions:
REMARK  status: ('A' for Active; 'I' for Inactive)
ROOT
ATOM      1  C   UNL d   1       1.342  -1.359   0.049  0.00  0.00     0.305 A 
ATOM      2  C   UNL d   1       2.308   0.766  -0.036  0.00  0.00     0.186 A 
ATOM      3  N   UNL d   1       1.209   1.433   0.099  0.00  0.00    -0.333 N 
ATOM      4  HN  UNL d   1       1.207   2.448   0.201  1.00  0.00     0.168 HD
ATOM      5  O   UNL d   1       2.432  -0.577  -0.101  0.00  0.00    -0.254 OA
ATOM      6  C   UNL d   1       0.040  -0.691   0.094  0.00  0.00     0.105 A 
ATOM      7  C   UNL d   1       0.029   0.696   0.099  0.00  0.00     0.053 A 
ATOM      8  C   UNL d   1       3.582   1.416  -0.159  0.00  0.00     0.126 A 
ATOM      9  O   UNL d   1       4.706   0.658  -0.360  0.00  0.00    -0.318 OA
ATOM     10  O   UNL d   1       1.446  -2.580   0.099  0.00  0.00    -0.259 OA
ATOM     11  C   UNL d   1      -1.159  -1.399   0.064  0.00  0.00     0.135 A 
ATOM     12  C   UNL d   1       3.934   2.752  -0.128  0.00  0.00     0.043 A 
ATOM     13  C   UNL d   1       5.756   1.510  -0.458  0.00  0.00     0.142 A 
ATOM     14  C   UNL d   1       5.336   2.809  -0.306  0.00  0.00     0.027 A 
ATOM     15  F   UNL d   1      -1.183  -2.739   0.086  0.00  0.00    -0.205 F 
ATOM     16  C   UNL d   1      -1.192   1.375   0.033  0.00  0.00     0.031 A 
ATOM     17  C   UNL d   1      -2.393   0.667  -0.046  0.00  0.00     0.005 A 
ATOM     18  C   UNL d   1      -2.375  -0.725  -0.018  0.00  0.00     0.043 A 
ENDROOT
TORSDOF 0
