REMARK  7 active torsions:
REMARK  status: ('A' for Active; 'I' for Inactive)
REMARK    1  A    between atoms: C_1  and  N_4 
REMARK    2  A    between atoms: C_2  and  O_10 
REMARK    3  A    between atoms: C_3  and  O_12 
REMARK    4  A    between atoms: C_8  and  N_4 
REMARK    5  A    between atoms: C_6  and  O_13 
REMARK    6  A    between atoms: C_7  and  C_14 
REMARK    7  A    between atoms: O_15  and  C_14 
ROOT
ATOM      1  C   UNL d   1       1.169   1.290  -0.088  0.00  0.00     0.255 C 
ATOM      2  C   UNL d   1       1.169  -0.232   0.220  0.00  0.00     0.198 C 
ATOM      3  C   UNL d   1      -0.148  -0.843  -0.282  0.00  0.00     0.182 C 
ATOM      4  O   UNL d   1       0.030   1.909   0.492  0.00  0.00    -0.354 OA
ATOM      5  C   UNL d   1      -1.360  -0.062   0.233  0.00  0.00     0.180 C 
ATOM      6  C   UNL d   1      -1.190   1.431  -0.073  0.00  0.00     0.179 C 
ENDROOT
BRANCH   1   7
ATOM      7  N   UNL d   1       2.289   1.972   0.523  0.00  0.00    -0.339 N 
ATOM      8  H   UNL d   1       2.156   2.220   1.485  0.00  0.00     0.164 HD
BRANCH   7   9
ATOM      9  C   UNL d   1       3.498   2.238  -0.032  0.00  0.00     0.167 C 
ATOM     10  S   UNL d   1       4.029   1.831  -1.553  0.00  0.00    -0.041 SA
ATOM     11  N   UNL d   1       4.324   2.908   0.815  0.00  0.00    -0.376 N 
ATOM     12  H   UNL d   1       3.947   3.452   1.586  0.00  0.00     0.158 HD
ATOM     13  H   UNL d   1       5.212   3.227   0.446  0.00  0.00     0.158 HD
ENDBRANCH   7   9
ENDBRANCH   1   7
BRANCH   2  14
ATOM     14  O   UNL d   1       2.264  -0.950  -0.360  0.00  0.00    -0.389 OA
ATOM     15  H   UNL d   1       2.529  -0.513  -1.190  0.00  0.00     0.210 HD
ENDBRANCH   2  14
BRANCH   3  16
ATOM     16  O   UNL d   1      -0.317  -2.213   0.120  0.00  0.00    -0.390 OA
ATOM     17  H   UNL d   1       0.312  -2.398   0.842  0.00  0.00     0.210 HD
ENDBRANCH   3  16
BRANCH   6  18
ATOM     18  C   UNL d   1      -2.357   2.257   0.493  0.00  0.00     0.198 C 
BRANCH  18  19
ATOM     19  O   UNL d   1      -3.612   1.896  -0.075  0.00  0.00    -0.398 OA
ATOM     20  H   UNL d   1      -3.640   0.918  -0.120  0.00  0.00     0.209 HD
ENDBRANCH  18  19
ENDBRANCH   6  18
BRANCH   5  21
ATOM     21  O   UNL d   1      -2.557  -0.564  -0.373  0.00  0.00    -0.390 OA
ATOM     22  H   UNL d   1      -2.369  -1.498  -0.617  0.00  0.00     0.210 HD
ENDBRANCH   5  21
TORSDOF 7
