REMARK  6 active torsions:
REMARK  status: ('A' for Active; 'I' for Inactive)
REMARK    1  A    between atoms: C_10  and  C_3 
REMARK    2  A    between atoms: N_4  and  C_9 
REMARK    3  A    between atoms: C_16  and  C_7 
REMARK    4  A    between atoms: C_14  and  C_15 
REMARK    5  A    between atoms: O_19  and  C_16 
REMARK    6  A    between atoms: C_20  and  O_19 
ROOT
ATOM      1  N   UNL d   1      -0.096  -0.410  -0.073  0.00  0.00    -0.321 N 
ATOM      2  HN  UNL d   1      -0.795  -1.118   0.154  1.00  0.00     0.169 HD
ATOM      3  C   UNL d   1      -0.184   0.956   0.055  0.00  0.00     0.138 A 
ATOM      4  N   UNL d   1       0.916   1.614  -0.348  0.00  0.00    -0.242 N 
ATOM      5  HN  UNL d   1       1.080   2.621  -0.357  1.00  0.00     0.196 HD
ATOM      6  C   UNL d   1       1.112  -0.576  -0.560  0.00  0.00     0.172 A 
ATOM      7  O   UNL d   1       1.780   0.596  -0.753  0.00  0.00    -0.220 OA
ENDROOT
BRANCH   6   8
ATOM      8  C   UNL d   1       1.805  -1.827  -0.942  0.00  0.00     0.262 C 
BRANCH   8   9
ATOM      9  O   UNL d   1       2.603  -2.210   0.176  0.00  0.00    -0.343 OA
BRANCH   9  10
ATOM     10  C   UNL d   1       3.335  -3.353   0.023  0.00  0.00     0.069 A 
ATOM     11  C   UNL d   1       4.460  -3.448   0.835  0.00  0.00     0.037 A 
ATOM     12  C   UNL d   1       5.283  -4.576   0.782  0.00  0.00     0.011 A 
ATOM     13  C   UNL d   1       4.994  -5.653  -0.075  0.00  0.00    -0.050 A 
ATOM     14  C   UNL d   1       3.845  -5.543  -0.875  0.00  0.00     0.011 A 
ATOM     15  C   UNL d   1       3.023  -4.409  -0.827  0.00  0.00     0.037 A 
BRANCH  13  16
ATOM     16  C   UNL d   1       5.915  -6.885  -0.112  0.00  0.00    -0.024 C 
ATOM     17  C   UNL d   1       5.425  -7.991  -1.074  0.00  0.00     0.019 C 
ATOM     18  C   UNL d   1       7.325  -6.461  -0.573  0.00  0.00     0.019 C 
ATOM     19  C   UNL d   1       6.013  -7.517   1.293  0.00  0.00     0.019 C 
ENDBRANCH  13  16
ENDBRANCH   9  10
ENDBRANCH   8   9
ENDBRANCH   6   8
BRANCH   3  20
ATOM     20  C   UNL d   1      -1.402   1.593   0.541  0.00  0.00     0.012 A 
ATOM     21  C   UNL d   1      -2.475   0.798   0.972  0.00  0.00     0.051 A 
ATOM     22  C   UNL d   1      -3.667   1.399   1.393  0.00  0.00     0.103 A 
ATOM     23  C   UNL d   1      -3.800   2.793   1.397  0.00  0.00     0.036 A 
ATOM     24  C   UNL d   1      -2.729   3.586   0.984  0.00  0.00     0.003 A 
ATOM     25  C   UNL d   1      -1.537   2.990   0.560  0.00  0.00     0.015 A 
BRANCH  22  26
ATOM     26  N   UNL d   1      -4.791   0.556   1.820  0.00  0.00    -0.116 N 
ATOM     27  O   UNL d   1      -4.634  -0.672   1.798  0.00  0.00    -0.532 OA
ATOM     28  O   UNL d   1      -5.834   1.125   2.177  0.00  0.00    -0.532 OA
ENDBRANCH  22  26
ENDBRANCH   3  20
TORSDOF 6
