REMARK  2 active torsions:
REMARK  status: ('A' for Active; 'I' for Inactive)
REMARK    1  A    between atoms: N_6  and  C_1 
REMARK       I    between atoms: C_8  and  N_6 
REMARK    2  A    between atoms: C_10  and  C_8 
ROOT
ATOM      1  C   UNL d   1      -2.352   1.530  -0.095  0.00  0.00     0.112 C 
ATOM      2  C   UNL d   1      -1.030   1.586   0.107  0.00  0.00     0.051 C 
ATOM      3  C   UNL d   1      -0.190   0.388   0.013  0.00  0.00     0.011 A 
ATOM      4  C   UNL d   1      -2.998   0.225  -0.423  0.00  0.00     0.315 C 
ATOM      5  O   UNL d   1      -2.242  -0.919  -0.260  0.00  0.00    -0.273 OA
ATOM      6  C   UNL d   1      -0.847  -0.838  -0.080  0.00  0.00     0.090 A 
ATOM      7  C   UNL d   1       1.235   0.412   0.037  0.00  0.00    -0.013 A 
ATOM      8  O   UNL d   1      -4.181   0.189  -0.757  0.00  0.00    -0.257 OA
ATOM      9  C   UNL d   1      -0.166  -2.048  -0.060  0.00  0.00     0.039 A 
ATOM     10  C   UNL d   1       1.932  -0.830   0.032  0.00  0.00    -0.025 A 
ATOM     11  C   UNL d   1       1.224  -2.039   0.010  0.00  0.00     0.015 A 
ATOM     12  C   UNL d   1       2.015   1.592   0.036  0.00  0.00     0.013 A 
ATOM     13  C   UNL d   1       3.337  -0.848   0.034  0.00  0.00     0.012 A 
ATOM     14  C   UNL d   1       3.412   1.555   0.023  0.00  0.00     0.001 A 
ATOM     15  C   UNL d   1       4.073   0.336   0.022  0.00  0.00     0.001 A 
ENDROOT
BRANCH   1  16
ATOM     16  N   UNL d   1      -3.229   2.602  -0.025  0.00  0.00    -0.318 N 
ATOM     17  C   UNL d   1      -2.967   3.910   0.328  0.00  0.00     0.256 C 
ATOM     18  O   UNL d   1      -1.869   4.371   0.613  0.00  0.00    -0.267 OA
ATOM     19  H   UNL d   1      -4.180   2.353  -0.296  0.00  0.00     0.169 HD
BRANCH  17  20
ATOM     20  C   UNL d   1      -4.146   4.821   0.326  0.00  0.00     0.034 A 
ATOM     21  C   UNL d   1      -5.430   4.380   0.671  0.00  0.00     0.041 A 
ATOM     22  C   UNL d   1      -6.496   5.280   0.634  0.00  0.00     0.035 A 
ATOM     23 CL   UNL d   1      -8.077   4.742   1.049  0.00  0.00    -0.084 Cl
ATOM     24  C   UNL d   1      -6.295   6.611   0.269  0.00  0.00     0.024 A 
ATOM     25  C   UNL d   1      -5.013   7.056  -0.052  0.00  0.00     0.003 A 
ATOM     26  C   UNL d   1      -3.939   6.165  -0.018  0.00  0.00     0.017 A 
ENDBRANCH  17  20
ENDBRANCH   1  16
TORSDOF 2
