REMARK  6 active torsions:
REMARK  status: ('A' for Active; 'I' for Inactive)
REMARK    1  A    between atoms: C_10  and  N_1 
REMARK    2  A    between atoms: C_12  and  C_4 
REMARK    3  A    between atoms: C_5  and  C_6 
REMARK       I    between atoms: C_6  and  N_9 
REMARK    4  A    between atoms: C_8  and  O_14 
REMARK    5  A    between atoms: N_9  and  C_23 
REMARK    6  A    between atoms: O_14  and  C_27 
ROOT
ATOM      1  N   UNL d   1       0.024   0.830   0.023  0.00  0.00    -0.252 N 
ATOM      2  C   UNL d   1      -1.110   0.063   0.195  0.00  0.00     0.240 C 
ATOM      3  C   UNL d   1       1.150   0.041  -0.084  0.00  0.00     0.232 C 
ATOM      4  C   UNL d   1      -0.733  -1.397   0.100  0.00  0.00     0.120 C 
ATOM      5  C   UNL d   1       0.780  -1.388   0.173  0.00  0.00     0.122 C 
ATOM      6  O   UNL d   1      -2.271   0.431   0.353  0.00  0.00    -0.272 OA
ATOM      7  O   UNL d   1       2.312   0.373  -0.272  0.00  0.00    -0.273 OA
ENDROOT
BRANCH   4   8
ATOM      8  C   UNL d   1      -1.263  -2.068  -1.153  0.00  0.00    -0.044 A 
ATOM      9  C   UNL d   1      -0.898  -1.662  -2.444  0.00  0.00     0.010 A 
ATOM     10  C   UNL d   1      -1.416  -2.313  -3.574  0.00  0.00     0.030 A 
ATOM     11  C   UNL d   1      -2.319  -3.373  -3.437  0.00  0.00     0.035 A 
ATOM     12  C   UNL d   1      -2.665  -3.793  -2.155  0.00  0.00     0.030 A 
ATOM     13  C   UNL d   1      -2.145  -3.147  -1.025  0.00  0.00     0.010 A 
BRANCH  11  14
ATOM     14  N   UNL d   1      -2.845  -3.942  -4.616  0.00  0.00    -0.320 N 
ATOM     15  C   UNL d   1      -3.835  -4.929  -4.711  0.00  0.00     0.330 C 
ATOM     16  O   UNL d   1      -4.365  -5.494  -3.755  0.00  0.00    -0.263 OA
ATOM     17  H   UNL d   1      -2.516  -3.553  -5.496  0.00  0.00     0.169 HD
BRANCH  15  18
ATOM     18  C   UNL d   1      -4.222  -5.254  -6.165  0.00  0.00     0.472 C 
ATOM     19  F   UNL d   1      -3.543  -4.478  -7.059  0.00  0.00    -0.162 F 
ATOM     20  F   UNL d   1      -3.954  -6.545  -6.500  0.00  0.00    -0.162 F 
ATOM     21  F   UNL d   1      -5.546  -5.049  -6.412  0.00  0.00    -0.162 F 
ENDBRANCH  15  18
ENDBRANCH  11  14
ENDBRANCH   4   8
BRANCH   1  22
ATOM     22  C   UNL d   1       0.033   2.256  -0.035  0.00  0.00     0.045 A 
ATOM     23  C   UNL d   1      -0.987   3.024   0.548  0.00  0.00     0.033 A 
ATOM     24  C   UNL d   1      -0.964   4.429   0.518  0.00  0.00     0.039 A 
ATOM     25  C   UNL d   1       0.056   5.100  -0.144  0.00  0.00     0.078 A 
ATOM     26  C   UNL d   1       1.084   4.353  -0.714  0.00  0.00     0.039 A 
ATOM     27  C   UNL d   1       1.076   2.953  -0.660  0.00  0.00     0.033 A 
BRANCH  25  28
ATOM     28  O   UNL d   1       0.201   6.446  -0.262  0.00  0.00    -0.255 OA
BRANCH  28  29
ATOM     29  C   UNL d   1      -0.945   7.284  -0.277  0.00  0.00     0.530 C 
ATOM     30  F   UNL d   1      -2.117   6.625  -0.378  0.00  0.00    -0.144 F 
ATOM     31  F   UNL d   1      -0.962   8.039   0.841  0.00  0.00    -0.144 F 
ATOM     32  F   UNL d   1      -0.850   8.115  -1.342  0.00  0.00    -0.144 F 
ENDBRANCH  28  29
ENDBRANCH  25  28
ENDBRANCH   1  22
TORSDOF 6
