REMARK  4 active torsions:
REMARK  status: ('A' for Active; 'I' for Inactive)
REMARK       I    between atoms: N_3  and  C_1 
REMARK       I    between atoms: N_4  and  C_1 
REMARK       I    between atoms: C_2  and  N_3 
REMARK    1  A    between atoms: C_5  and  C_2 
REMARK    2  A    between atoms: C_6  and  N_4 
REMARK    3  A    between atoms: C_9  and  N_4 
REMARK    4  A    between atoms: C_20  and  C_9 
ROOT
ATOM      1  C   UNL d   1       0.673   0.084   0.190  0.00  0.00     0.325 C 
ATOM      2  C   UNL d   1      -1.224   0.862  -1.330  0.00  0.00     0.263 C 
ATOM      3  N   UNL d   1       0.004   0.924  -0.682  0.00  0.00    -0.275 N 
ATOM      4  N   UNL d   1       0.027  -0.616   1.193  0.00  0.00    -0.325 N 
ATOM      5  O   UNL d   1       1.901   0.032   0.041  0.00  0.00    -0.247 OA
ATOM      6  O   UNL d   1      -2.143   0.074  -1.121  0.00  0.00    -0.267 OA
ATOM      7  H   UNL d   1       0.714   1.406  -1.227  0.00  0.00     0.173 HD
ENDROOT
BRANCH   4   8
ATOM      8  C   UNL d   1       0.881  -1.387   2.136  0.00  0.00     0.093 C 
ATOM      9  C   UNL d   1       1.780  -0.494   3.047  0.00  0.00     0.009 C 
ATOM     10  C   UNL d   1       2.253  -1.496   4.106  0.00  0.00     0.011 C 
ATOM     11  C   UNL d   1       0.914   0.458   3.892  0.00  0.00     0.007 C 
ATOM     12  C   UNL d   1       0.834  -1.860   4.528  0.00  0.00    -0.012 C 
ATOM     13  C   UNL d   1       0.218  -2.325   3.191  0.00  0.00     0.030 C 
ATOM     14  C   UNL d   1       0.266  -0.485   4.915  0.00  0.00     0.005 C 
ENDBRANCH   4   8
BRANCH   4  15
ATOM     15  C   UNL d   1      -1.418  -0.611   1.416  0.00  0.00     0.166 C 
BRANCH  15  16
ATOM     16  C   UNL d   1      -2.195  -1.728   0.734  0.00  0.00    -0.040 A 
ATOM     17  C   UNL d   1      -1.619  -2.667  -0.142  0.00  0.00     0.009 A 
ATOM     18  C   UNL d   1      -2.413  -3.608  -0.807  0.00  0.00     0.001 A 
ATOM     19  C   UNL d   1      -3.793  -3.623  -0.613  0.00  0.00     0.000 A 
ATOM     20  C   UNL d   1      -4.386  -2.667   0.206  0.00  0.00     0.001 A 
ATOM     21  C   UNL d   1      -3.595  -1.727   0.870  0.00  0.00     0.009 A 
ENDBRANCH  15  16
ENDBRANCH   4  15
BRANCH   2  22
ATOM     22  C   UNL d   1      -1.538   1.801  -2.414  0.00  0.00     0.075 A 
ATOM     23  C   UNL d   1      -0.747   1.852  -3.563  0.00  0.00     0.051 A 
ATOM     24 CL   UNL d   1       0.767   1.026  -3.700  0.00  0.00    -0.083 Cl
ATOM     25  C   UNL d   1      -1.203   2.531  -4.700  0.00  0.00     0.025 A 
ATOM     26  C   UNL d   1      -2.462   3.127  -4.709  0.00  0.00     0.003 A 
ATOM     27  C   UNL d   1      -3.265   3.072  -3.575  0.00  0.00     0.025 A 
ATOM     28  C   UNL d   1      -2.804   2.430  -2.424  0.00  0.00     0.051 A 
ATOM     29 CL   UNL d   1      -3.869   2.458  -1.055  0.00  0.00    -0.083 Cl
ENDBRANCH   2  22
TORSDOF 4
