REMARK  3 active torsions:
REMARK  status: ('A' for Active; 'I' for Inactive)
REMARK    1  A    between atoms: C_10  and  C_2 
REMARK    2  A    between atoms: O_12  and  C_7 
REMARK    3  A    between atoms: O_13  and  C_9 
ROOT
ATOM      1  C   UNL d   1      -0.066   0.665  -0.105  0.00  0.00     0.000 A 
ATOM      2  C   UNL d   1       1.279   1.309  -0.258  0.00  0.00     0.049 C 
ATOM      3  C   UNL d   1      -1.249   1.389   0.064  0.00  0.00     0.054 A 
ATOM      4  N   UNL d   1       2.383   0.668  -0.014  0.00  0.00    -0.388 N 
ATOM      5  HN  UNL d   1       3.291   1.114  -0.148  1.00  0.00     0.159 HD
ATOM      6  C   UNL d   1      -0.109  -0.731  -0.135  0.00  0.00    -0.041 A 
ATOM      7  C   UNL d   1      -2.495   0.742   0.077  0.00  0.00     0.102 A 
ATOM      8  C   UNL d   1      -1.345  -1.382  -0.082  0.00  0.00     0.047 A 
ATOM      9  C   UNL d   1      -2.544  -0.660   0.023  0.00  0.00     0.102 A 
ATOM     10  C   UNL d   1       2.283  -0.717   0.460  0.00  0.00     0.124 C 
ATOM     11  C   UNL d   1       1.179  -1.490  -0.254  0.00  0.00     0.059 C 
ENDROOT
BRANCH   2  12
ATOM     12  C   UNL d   1       1.399   2.725  -0.724  0.00  0.00    -0.009 A 
ATOM     13  C   UNL d   1       2.411   3.525  -0.179  0.00  0.00     0.014 A 
ATOM     14  C   UNL d   1       2.541   4.859  -0.569  0.00  0.00     0.001 A 
ATOM     15  C   UNL d   1       1.664   5.399  -1.508  0.00  0.00     0.000 A 
ATOM     16  C   UNL d   1       0.676   4.599  -2.082  0.00  0.00     0.001 A 
ATOM     17  C   UNL d   1       0.555   3.259  -1.706  0.00  0.00     0.014 A 
ENDBRANCH   2  12
BRANCH   7  18
ATOM     18  O   UNL d   1      -3.664   1.456   0.161  0.00  0.00    -0.353 OA
ATOM     19  C   UNL d   1      -3.661   2.723  -0.494  0.00  0.00     0.210 C 
ENDBRANCH   7  18
BRANCH   9  20
ATOM     20  O   UNL d   1      -3.641  -1.480   0.022  0.00  0.00    -0.353 OA
ATOM     21  C   UNL d   1      -4.900  -0.937   0.389  0.00  0.00     0.210 C 
ENDBRANCH   9  20
TORSDOF 3
