REMARK  4 active torsions:
REMARK  status: ('A' for Active; 'I' for Inactive)
REMARK    1  A    between atoms: C_2  and  C_1 
REMARK       I    between atoms: N_10  and  C_2 
REMARK    2  A    between atoms: N_13  and  C_3 
REMARK    3  A    between atoms: N_6  and  N_10 
REMARK    4  A    between atoms: C_14  and  C_12 
ROOT
ATOM      1  C   UNL d   1      -0.484  -2.589   0.088  0.00  0.00     0.289 C 
ATOM      2  N   UNL d   1       0.321  -3.721   0.058  0.00  0.00    -0.265 N 
ATOM      3  O   UNL d   1      -0.065  -1.441   0.229  0.00  0.00    -0.264 OA
ATOM      4  H   UNL d   1      -0.110  -4.640   0.003  0.00  0.00     0.190 HD
ENDROOT
BRANCH   1   5
ATOM      5  C   UNL d   1      -1.950  -2.862  -0.012  0.00  0.00     0.140 A 
ATOM      6  C   UNL d   1      -2.867  -1.799  -0.105  0.00  0.00     0.110 A 
ATOM      7  N   UNL d   1      -4.198  -2.037  -0.090  0.00  0.00    -0.354 N 
ATOM      8  C   UNL d   1      -4.577  -3.332   0.012  0.00  0.00     0.106 A 
ATOM      9  HN  UNL d   1      -4.880  -1.281  -0.153  1.00  0.00     0.166 HD
ATOM     10  C   UNL d   1      -3.668  -4.375   0.087  0.00  0.00     0.105 A 
ATOM     11  N   UNL d   1      -2.330  -4.178   0.083  0.00  0.00    -0.357 N 
ATOM     12  HN  UNL d   1      -1.659  -4.943   0.146  1.00  0.00     0.165 HD
BRANCH   6  13
ATOM     13  N   UNL d   1      -2.512  -0.477  -0.345  0.00  0.00    -0.287 NA
ATOM     14  H   UNL d   1      -1.659  -0.202   0.146  0.00  0.00     0.125 HD
ATOM     15  H   UNL d   1      -3.307   0.139  -0.220  0.00  0.00     0.125 HD
ENDBRANCH   6  13
ENDBRANCH   1   5
BRANCH   2  16
ATOM     16  N   UNL d   1       1.667  -3.562   0.155  0.00  0.00    -0.308 N 
ATOM     17  C   UNL d   1       2.397  -4.626   0.196  0.00  0.00     0.118 C 
ATOM     18  HN  UNL d   1       2.086  -2.633   0.196  1.00  0.00     0.186 HD
BRANCH  17  19
ATOM     19  C   UNL d   1       3.870  -4.507   0.300  0.00  0.00    -0.019 A 
ATOM     20  C   UNL d   1       4.473  -3.242   0.308  0.00  0.00     0.014 A 
ATOM     21  C   UNL d   1       5.861  -3.127   0.410  0.00  0.00     0.024 A 
ATOM     22  C   UNL d   1       6.641  -4.277   0.504  0.00  0.00     0.034 A 
ATOM     23  C   UNL d   1       6.046  -5.541   0.496  0.00  0.00     0.024 A 
ATOM     24 CL   UNL d   1       8.351  -4.139   0.631  0.00  0.00    -0.084 Cl
ATOM     25  C   UNL d   1       4.655  -5.659   0.393  0.00  0.00     0.014 A 
ENDBRANCH  17  19
ENDBRANCH   2  16
TORSDOF 4
