REMARK  4 active torsions:
REMARK  status: ('A' for Active; 'I' for Inactive)
REMARK    1  A    between atoms: C_2  and  C_1 
REMARK       I    between atoms: N_4  and  C_1 
REMARK    2  A    between atoms: C_3  and  O_5 
REMARK    3  A    between atoms: C_7  and  C_3 
REMARK    4  A    between atoms: O_5  and  N_4 
ROOT
ATOM      1  O   UNL d   1      -0.978   0.412  -1.387  0.00  0.00    -0.192 OA
ENDROOT
BRANCH   1   2
ATOM      2  C   UNL d   1      -1.886   1.048  -2.169  0.00  0.00     0.315 C 
ATOM      3  O   UNL d   1      -3.094   0.859  -2.147  0.00  0.00    -0.257 OA
BRANCH   2   4
ATOM      4  C   UNL d   1      -1.185   1.940  -3.134  0.00  0.00     0.041 A 
ATOM      5  C   UNL d   1      -1.951   2.797  -3.934  0.00  0.00     0.019 A 
ATOM      6  C   UNL d   1      -1.341   3.547  -4.946  0.00  0.00     0.025 A 
ATOM      7  C   UNL d   1       0.033   3.440  -5.159  0.00  0.00     0.034 A 
ATOM      8  C   UNL d   1       0.808   2.610  -4.352  0.00  0.00     0.025 A 
ATOM      9 CL   UNL d   1       0.772   4.317  -6.440  0.00  0.00    -0.084 Cl
ATOM     10  C   UNL d   1       0.203   1.863  -3.337  0.00  0.00     0.019 A 
ENDBRANCH   2   4
ENDBRANCH   1   2
BRANCH   1  11
ATOM     11  N   UNL d   1      -1.478  -0.789  -0.812  0.00  0.00    -0.220 N 
ATOM     12  C   UNL d   1      -0.473  -1.699  -0.549  0.00  0.00     0.299 C 
ATOM     13  O   UNL d   1       0.715  -1.370  -0.505  0.00  0.00    -0.263 OA
ATOM     14  H   UNL d   1      -2.407  -1.089  -1.101  0.00  0.00     0.198 HD
BRANCH  12  15
ATOM     15  C   UNL d   1      -0.902  -3.067  -0.373  0.00  0.00     0.144 A 
ATOM     16  O   UNL d   1      -2.210  -3.420  -0.581  0.00  0.00    -0.317 OA
ATOM     17  C   UNL d   1      -2.292  -4.764  -0.382  0.00  0.00     0.143 A 
ATOM     18  C   UNL d   1      -1.065  -5.283  -0.044  0.00  0.00     0.027 A 
ATOM     19  C   UNL d   1      -0.169  -4.191  -0.037  0.00  0.00     0.045 A 
ENDBRANCH  12  15
ENDBRANCH   1  11
TORSDOF 4
