REMARK  6 active torsions:
REMARK  status: ('A' for Active; 'I' for Inactive)
REMARK    1  A    between atoms: S_2  and  C_1 
REMARK    2  A    between atoms: S_4  and  C_1 
REMARK    3  A    between atoms: C_8  and  S_2 
REMARK    4  A    between atoms: C_3  and  C_7 
REMARK    5  A    between atoms: C_6  and  C_3 
REMARK    6  A    between atoms: C_7  and  S_4 
ROOT
ATOM      1  C   UNL d   1      -2.548   1.065   1.974  0.00  0.00     0.169 C 
ATOM      2  O   UNL d   1      -3.630   0.484   2.044  0.00  0.00    -0.291 OA
ENDROOT
BRANCH   1   3
ATOM      3  C   UNL d   1      -1.555   0.709   0.883  0.00  0.00     0.164 C 
BRANCH   3   4
ATOM      4  S   UNL d   1      -0.085  -0.127   1.525  0.00  0.00    -0.104 SA
BRANCH   4   5
ATOM      5  C   UNL d   1       0.913  -0.282   0.081  0.00  0.00     0.105 C 
ATOM      6  S   UNL d   1       1.154   0.935  -1.046  0.00  0.00    -0.065 SA
BRANCH   5   7
ATOM      7  S   UNL d   1       1.578  -1.895  -0.121  0.00  0.00    -0.102 SA
BRANCH   7   8
ATOM      8  C   UNL d   1       3.246  -1.811   0.661  0.00  0.00     0.003 C 
ATOM      9  C   UNL d   1       3.167  -1.515   2.163  0.00  0.00     0.026 C 
ATOM     10  C   UNL d   1       3.856  -3.212   0.468  0.00  0.00     0.026 C 
ATOM     11  C   UNL d   1       4.158  -0.789  -0.029  0.00  0.00     0.026 C 
ENDBRANCH   7   8
ENDBRANCH   5   7
ENDBRANCH   4   5
ENDBRANCH   3   4
ENDBRANCH   1   3
BRANCH   1  12
ATOM     12  C   UNL d   1      -2.296   2.204   2.916  0.00  0.00     0.011 A 
ATOM     13  C   UNL d   1      -3.412   2.875   3.444  0.00  0.00     0.018 A 
ATOM     14  C   UNL d   1      -3.255   3.886   4.394  0.00  0.00     0.043 A 
ATOM     15  C   UNL d   1      -1.977   4.221   4.833  0.00  0.00     0.116 A 
ATOM     16  C   UNL d   1      -0.857   3.581   4.312  0.00  0.00     0.043 A 
ATOM     17  F   UNL d   1      -1.823   5.160   5.771  0.00  0.00    -0.206 F 
ATOM     18  C   UNL d   1      -1.016   2.589   3.340  0.00  0.00     0.018 A 
ENDBRANCH   1  12
TORSDOF 6
