REMARK  4 active torsions:
REMARK  status: ('A' for Active; 'I' for Inactive)
REMARK    1  A    between atoms: C_3  and  C_1 
REMARK    2  A    between atoms: C_6  and  C_2 
REMARK    3  A    between atoms: O_9  and  C_3 
REMARK    4  A    between atoms: O_11  and  C_10 
ROOT
ATOM      1  C   UNL d   1       0.886   0.316  -0.705  0.00  0.00     0.120 C 
ATOM      2  C   UNL d   1       0.414  -0.956  -0.655  0.00  0.00     0.040 C 
ATOM      3  C   UNL d   1       2.050   0.714  -1.517  0.00  0.00     0.105 C 
ATOM      4  N   UNL d   1       2.966   1.015  -2.160  0.00  0.00    -0.191 NA
ENDROOT
BRANCH   1   5
ATOM      5  C   UNL d   1       0.154   1.345   0.120  0.00  0.00     0.303 C 
ATOM      6  O   UNL d   1      -0.819   1.131   0.831  0.00  0.00    -0.258 OA
BRANCH   5   7
ATOM      7  O   UNL d   1       0.753   2.550  -0.050  0.00  0.00    -0.322 OA
ATOM      8  C   UNL d   1       0.165   3.629   0.677  0.00  0.00     0.213 C 
ENDBRANCH   5   7
ENDBRANCH   1   5
BRANCH   2   9
ATOM      9  C   UNL d   1       1.052  -2.048  -1.406  0.00  0.00    -0.032 A 
ATOM     10  C   UNL d   1       2.111  -2.767  -0.832  0.00  0.00     0.048 A 
ATOM     11  C   UNL d   1       2.774  -3.754  -1.566  0.00  0.00     0.069 A 
ATOM     12  C   UNL d   1       2.369  -4.022  -2.875  0.00  0.00     0.037 A 
ATOM     13  C   UNL d   1       1.315  -3.314  -3.452  0.00  0.00     0.004 A 
ATOM     14  C   UNL d   1       0.656  -2.327  -2.719  0.00  0.00     0.011 A 
BRANCH  11  15
ATOM     15  O   UNL d   1       3.823  -4.515  -1.127  0.00  0.00    -0.356 OA
ATOM     16  C   UNL d   1       4.301  -4.260   0.187  0.00  0.00     0.210 C 
ENDBRANCH  11  15
ENDBRANCH   2   9
TORSDOF 4
