REMARK  5 active torsions:
REMARK  status: ('A' for Active; 'I' for Inactive)
REMARK    1  A    between atoms: C_7  and  N_1 
REMARK    2  A    between atoms: N_6  and  C_4 
REMARK    3  A    between atoms: C_12  and  N_6 
REMARK    4  A    between atoms: O_21  and  C_13 
REMARK    5  A    between atoms: O_22  and  C_14 
ROOT
ATOM      1  N   UNL d   1       0.038   0.917  -0.024  0.00  0.00    -0.251 N 
ATOM      2  C   UNL d   1      -1.095   0.173   0.215  0.00  0.00     0.233 A 
ATOM      3  C   UNL d   1       1.132   0.106  -0.227  0.00  0.00     0.249 A 
ATOM      4  C   UNL d   1       0.700  -1.346  -0.175  0.00  0.00     0.162 A 
ATOM      5  C   UNL d   1      -0.791  -1.285   0.064  0.00  0.00     0.133 A 
ATOM      6  O   UNL d   1      -2.225   0.555   0.487  0.00  0.00    -0.273 OA
ATOM      7  O   UNL d   1       2.306   0.418  -0.397  0.00  0.00    -0.271 OA
ENDROOT
BRANCH   4   8
ATOM      8  N   UNL d   1       1.034  -1.988  -1.454  0.00  0.00    -0.279 NA
ATOM      9  H   UNL d   1       2.014  -1.804  -1.697  0.00  0.00     0.128 HD
BRANCH   8  10
ATOM     10  C   UNL d   1       0.773  -3.350  -1.625  0.00  0.00     0.009 A 
ATOM     11  C   UNL d   1       0.604  -3.813  -2.935  0.00  0.00     0.026 A 
ATOM     12  C   UNL d   1       0.370  -5.165  -3.206  0.00  0.00     0.038 A 
ATOM     13  C   UNL d   1       0.338  -6.088  -2.164  0.00  0.00     0.068 A 
ATOM     14  C   UNL d   1       0.549  -5.642  -0.859  0.00  0.00     0.038 A 
ATOM     15  C   UNL d   1       0.774  -4.288  -0.591  0.00  0.00     0.026 A 
BRANCH  13  16
ATOM     16  O   UNL d   1       0.121  -7.431  -2.285  0.00  0.00    -0.356 OA
ATOM     17  C   UNL d   1      -0.085  -7.925  -3.603  0.00  0.00     0.210 C 
ENDBRANCH  13  16
ENDBRANCH   8  10
ENDBRANCH   4   8
BRANCH   1  18
ATOM     18  C   UNL d   1       0.080   2.343  -0.058  0.00  0.00     0.045 A 
ATOM     19  C   UNL d   1      -0.921   3.124   0.540  0.00  0.00     0.033 A 
ATOM     20  C   UNL d   1      -0.890   4.525   0.490  0.00  0.00     0.039 A 
ATOM     21  C   UNL d   1       0.141   5.180  -0.174  0.00  0.00     0.068 A 
ATOM     22  C   UNL d   1       1.152   4.425  -0.759  0.00  0.00     0.039 A 
ATOM     23  C   UNL d   1       1.120   3.026  -0.707  0.00  0.00     0.033 A 
BRANCH  21  24
ATOM     24  O   UNL d   1       0.285   6.534  -0.278  0.00  0.00    -0.356 OA
ATOM     25  C   UNL d   1      -0.923   7.285  -0.225  0.00  0.00     0.210 C 
ENDBRANCH  21  24
ENDBRANCH   1  18
TORSDOF 5
