REMARK  4 active torsions:
REMARK  status: ('A' for Active; 'I' for Inactive)
REMARK    1  A    between atoms: N_2  and  S_1 
REMARK    2  A    between atoms: C_7  and  S_1 
REMARK    3  A    between atoms: C_3  and  N_2 
REMARK    4  A    between atoms: O_18  and  C_15 
ROOT
ATOM      1  C   UNL d   1       2.931   1.597  -0.705  0.00  0.00     0.084 A 
ATOM      2  C   UNL d   1       4.213   1.282  -0.309  0.00  0.00     0.074 A 
ATOM      3  C   UNL d   1       4.769  -0.036  -0.331  0.00  0.00     0.102 C 
ATOM      4  S   UNL d   1       2.630   3.275  -0.675  0.00  0.00    -0.088 SA
ATOM      5  N   UNL d   1       5.249  -1.093  -0.371  0.00  0.00    -0.191 NA
ATOM      6  C   UNL d   1       4.935   2.451   0.095  0.00  0.00     0.032 A 
ATOM      7  C   UNL d   1       4.182   3.599  -0.031  0.00  0.00     0.053 A 
ENDROOT
BRANCH   1   8
ATOM      8  N   UNL d   1       1.939   0.668  -1.180  0.00  0.00    -0.173 NA
ATOM      9  H   UNL d   1       1.265   1.198  -1.743  0.00  0.00     0.146 HD
BRANCH   8  10
ATOM     10  S   UNL d   1       0.976   0.075   0.114  0.00  0.00     0.246 S 
ATOM     11  O   UNL d   1      -0.197   0.923   0.150  0.00  0.00    -0.206 OA
ATOM     12  O   UNL d   1       1.803  -0.135   1.282  0.00  0.00    -0.206 OA
BRANCH  10  13
ATOM     13  C   UNL d   1       0.480  -1.516  -0.501  0.00  0.00     0.075 A 
ATOM     14  C   UNL d   1       1.284  -2.631  -0.243  0.00  0.00     0.027 A 
ATOM     15  C   UNL d   1       0.858  -3.902  -0.652  0.00  0.00     0.038 A 
ATOM     16  C   UNL d   1      -0.363  -4.056  -1.313  0.00  0.00     0.068 A 
ATOM     17  C   UNL d   1      -1.168  -2.937  -1.542  0.00  0.00     0.038 A 
ATOM     18  C   UNL d   1      -0.752  -1.665  -1.141  0.00  0.00     0.027 A 
BRANCH  16  19
ATOM     19  O   UNL d   1      -0.889  -5.246  -1.733  0.00  0.00    -0.356 OA
ATOM     20  C   UNL d   1       0.055  -6.274  -2.016  0.00  0.00     0.210 C 
ENDBRANCH  16  19
ENDBRANCH  10  13
ENDBRANCH   8  10
ENDBRANCH   1   8
TORSDOF 4
