REMARK  3 active torsions:
REMARK  status: ('A' for Active; 'I' for Inactive)
REMARK    1  A    between atoms: C_8  and  C_3 
REMARK    2  A    between atoms: C_13  and  C_7 
REMARK       I    between atoms: C_9  and  N_10 
REMARK    3  A    between atoms: N_10  and  C_16 
ROOT
ATOM      1  N   UNL d   1       1.592  -0.081   0.082  0.00  0.00    -0.331 N 
ATOM      2  HN  UNL d   1       2.542  -0.453   0.093  1.00  0.00     0.168 HD
ATOM      3  C   UNL d   1       1.209   1.155   0.060  0.00  0.00     0.162 A 
ATOM      4  C   UNL d   1       0.402  -0.768   0.087  0.00  0.00     0.111 A 
ATOM      5  O   UNL d   1      -0.120   1.403   0.063  0.00  0.00    -0.256 OA
ATOM      6  C   UNL d   1      -0.743   0.191   0.086  0.00  0.00     0.316 A 
ATOM      7  C   UNL d   1       0.322  -2.105   0.062  0.00  0.00     0.047 C 
ATOM      8  O   UNL d   1      -1.941   0.000   0.099  0.00  0.00    -0.257 OA
ENDROOT
BRANCH   7   9
ATOM      9  C   UNL d   1      -0.917  -2.878  -0.000  0.00  0.00    -0.034 A 
ATOM     10  C   UNL d   1      -1.449  -3.256  -1.236  0.00  0.00     0.013 A 
ATOM     11  C   UNL d   1      -2.650  -3.976  -1.299  0.00  0.00     0.030 A 
ATOM     12  C   UNL d   1      -3.338  -4.325  -0.128  0.00  0.00     0.034 A 
ATOM     13  C   UNL d   1      -2.787  -3.959   1.101  0.00  0.00     0.030 A 
ATOM     14  C   UNL d   1      -1.588  -3.239   1.167  0.00  0.00     0.013 A 
BRANCH  12  15
ATOM     15  N   UNL d   1      -4.560  -5.022  -0.266  0.00  0.00    -0.328 N 
ATOM     16  C   UNL d   1      -5.404  -5.423   0.756  0.00  0.00     0.218 C 
ATOM     17  O   UNL d   1      -5.225  -5.269   1.961  0.00  0.00    -0.274 OA
ATOM     18  C   UNL d   1      -6.654  -6.114   0.275  0.00  0.00     0.117 C 
ATOM     19  H   UNL d   1      -4.854  -5.217  -1.212  0.00  0.00     0.169 HD
ENDBRANCH  12  15
ENDBRANCH   7   9
BRANCH   3  20
ATOM     20  C   UNL d   1       2.066   2.351   0.018  0.00  0.00     0.015 A 
ATOM     21  C   UNL d   1       3.454   2.193  -0.086  0.00  0.00     0.017 A 
ATOM     22  C   UNL d   1       4.288   3.316  -0.123  0.00  0.00     0.025 A 
ATOM     23  C   UNL d   1       3.734   4.594  -0.055  0.00  0.00     0.034 A 
ATOM     24  C   UNL d   1       2.354   4.760   0.045  0.00  0.00     0.025 A 
ATOM     25 CL   UNL d   1       4.759   5.974  -0.090  0.00  0.00    -0.084 Cl
ATOM     26  C   UNL d   1       1.518   3.640   0.080  0.00  0.00     0.017 A 
ENDBRANCH   3  20
TORSDOF 3
