REMARK  6 active torsions:
REMARK  status: ('A' for Active; 'I' for Inactive)
REMARK    1  A    between atoms: O_12  and  S_1 
REMARK    2  A    between atoms: N_14  and  S_1 
REMARK    3  A    between atoms: C_5  and  C_19 
REMARK    4  A    between atoms: O_20  and  C_10 
REMARK    5  A    between atoms: C_28  and  O_12 
REMARK    6  A    between atoms: C_16  and  O_20 
ROOT
ATOM      1  N   UNL d   1       2.457   5.607   4.800  0.00  0.00    -0.317 N 
ATOM      2  HN  UNL d   1       3.030   5.939   4.024  1.00  0.00     0.169 HD
ATOM      3  C   UNL d   1       2.380   6.086   6.024  0.00  0.00     0.206 A 
ATOM      4  C   UNL d   1       1.575   4.549   4.821  0.00  0.00     0.138 A 
ATOM      5  N   UNL d   1       0.984   4.361   6.011  0.00  0.00    -0.242 N 
ATOM      6  HN  UNL d   1       0.306   3.645   6.271  1.00  0.00     0.196 HD
ATOM      7  C   UNL d   1       3.106   7.237   6.469  0.00  0.00     0.131 A 
ATOM      8  O   UNL d   1       1.512   5.376   6.808  0.00  0.00    -0.215 OA
ATOM      9  C   UNL d   1       3.769   8.886   7.774  0.00  0.00     0.191 A 
ATOM     10  O   UNL d   1       2.990   7.772   7.728  0.00  0.00    -0.283 OA
ATOM     11  C   UNL d   1       4.000   8.004   5.739  0.00  0.00     0.047 A 
ATOM     12  C   UNL d   1       4.440   9.048   6.582  0.00  0.00     0.067 A 
ENDROOT
BRANCH   4  13
ATOM     13  C   UNL d   1       1.314   3.740   3.635  0.00  0.00     0.010 A 
ATOM     14  C   UNL d   1       2.007   3.990   2.441  0.00  0.00     0.018 A 
ATOM     15  C   UNL d   1       1.738   3.242   1.289  0.00  0.00     0.039 A 
ATOM     16  C   UNL d   1       0.765   2.242   1.311  0.00  0.00     0.090 A 
ATOM     17  C   UNL d   1       0.097   1.959   2.503  0.00  0.00     0.039 A 
ATOM     18  C   UNL d   1       0.365   2.710   3.655  0.00  0.00     0.018 A 
BRANCH  16  19
ATOM     19  O   UNL d   1       0.551   1.582   0.128  0.00  0.00    -0.221 OA
BRANCH  19  20
ATOM     20  S   UNL d   1      -0.907   0.939  -0.226  0.00  0.00     0.344 S 
ATOM     21  O   UNL d   1      -1.934   1.917   0.066  0.00  0.00    -0.180 OA
ATOM     22  O   UNL d   1      -0.971  -0.391   0.340  0.00  0.00    -0.180 OA
BRANCH  20  23
ATOM     23  N   UNL d   1      -0.869   0.770  -1.926  0.00  0.00    -0.196 NA
ATOM     24  C   UNL d   1      -0.725   2.036  -2.667  0.00  0.00     0.131 C 
ATOM     25  C   UNL d   1      -0.006  -0.305  -2.438  0.00  0.00     0.131 C 
ENDBRANCH  20  23
ENDBRANCH  19  20
ENDBRANCH  16  19
ENDBRANCH   4  13
BRANCH   9  26
ATOM     26  O   UNL d   1       3.695   9.558   8.922  0.00  0.00    -0.288 OA
BRANCH  26  27
ATOM     27  C   UNL d   1       3.972  10.905   8.937  0.00  0.00     0.081 A 
ATOM     28  C   UNL d   1       3.434  11.780   7.988  0.00  0.00     0.061 A 
ATOM     29  C   UNL d   1       3.753  13.134   8.041  0.00  0.00     0.038 A 
ATOM     30 CL   UNL d   1       3.135  14.197   6.838  0.00  0.00    -0.084 Cl
ATOM     31  C   UNL d   1       4.574  13.630   9.050  0.00  0.00     0.048 A 
ATOM     32  C   UNL d   1       5.068  12.756  10.017  0.00  0.00     0.038 A 
ATOM     33  C   UNL d   1       4.769  11.394   9.971  0.00  0.00     0.061 A 
ATOM     34 CL   UNL d   1       6.066  13.367  11.280  0.00  0.00    -0.084 Cl
ENDBRANCH  26  27
ENDBRANCH   9  26
TORSDOF 6
