REMARK  4 active torsions:
REMARK  status: ('A' for Active; 'I' for Inactive)
REMARK    1  A    between atoms: C_5  and  N_1 
REMARK    2  A    between atoms: C_4  and  N_3 
REMARK    3  A    between atoms: N_6  and  C_17 
REMARK    4  A    between atoms: C_17  and  C_16 
ROOT
ATOM      1  N   UNL d   1       3.088   1.559  -1.929  0.00  0.00    -0.377 N 
ATOM      2  N   UNL d   1       1.660   4.113  -2.516  0.00  0.00     0.095 N 
ATOM      3  C   UNL d   1       3.091   2.664  -0.945  0.00  0.00     0.153 C 
ATOM      4  C   UNL d   1       1.893   1.551  -2.784  0.00  0.00     0.153 C 
ATOM      5  C   UNL d   1       2.861   4.023  -1.653  0.00  0.00     0.292 C 
ATOM      6  C   UNL d   1       1.656   2.943  -3.430  0.00  0.00     0.292 C 
ENDROOT
BRANCH   1   7
ATOM      7  C   UNL d   1       3.614   0.329  -1.458  0.00  0.00     0.043 A 
ATOM      8  C   UNL d   1       2.988  -0.959  -1.471  0.00  0.00     0.018 A 
ATOM      9  C   UNL d   1       3.691  -2.080  -1.002  0.00  0.00     0.044 A 
ATOM     10  C   UNL d   1       1.701  -1.468  -1.855  0.00  0.00     0.033 A 
ATOM     11  N   UNL d   1       2.880  -3.186  -1.131  0.00  0.00    -0.365 N 
ATOM     12  C   UNL d   1       4.996  -2.023  -0.505  0.00  0.00     0.030 A 
ATOM     13  C   UNL d   1       1.670  -2.826  -1.643  0.00  0.00     0.089 A 
ATOM     14  H   UNL d   1       3.151  -4.125  -0.876  0.00  0.00     0.165 HD
ATOM     15  C   UNL d   1       5.619  -0.784  -0.497  0.00  0.00     0.005 A 
ATOM     16  C   UNL d   1       4.950   0.344  -0.967  0.00  0.00     0.030 A 
ENDBRANCH   1   7
BRANCH   2  17
ATOM     17  C   UNL d   1       0.408   4.221  -1.752  0.00  0.00     0.311 C 
BRANCH  17  18
ATOM     18  C   UNL d   1       0.161   5.583  -1.110  0.00  0.00    -0.028 A 
ATOM     19  C   UNL d   1      -0.757   5.682  -0.047  0.00  0.00     0.045 A 
ATOM     20  C   UNL d   1      -1.074   6.935   0.502  0.00  0.00     0.103 A 
ATOM     21  C   UNL d   1      -0.478   8.104   0.014  0.00  0.00     0.036 A 
ATOM     22  C   UNL d   1       0.426   8.013  -1.044  0.00  0.00     0.003 A 
ATOM     23  C   UNL d   1       0.728   6.768  -1.607  0.00  0.00     0.009 A 
BRANCH  20  24
ATOM     24  N   UNL d   1      -2.065   7.026   1.583  0.00  0.00    -0.116 N 
ATOM     25  O   UNL d   1      -2.632   5.981   1.934  0.00  0.00    -0.532 OA
ATOM     26  O   UNL d   1      -2.282   8.142   2.078  0.00  0.00    -0.532 OA
ENDBRANCH  20  24
ENDBRANCH  17  18
ENDBRANCH   2  17
TORSDOF 4
