REMARK  7 active torsions:
REMARK  status: ('A' for Active; 'I' for Inactive)
REMARK    1  A    between atoms: C_8  and  C_1 
REMARK    2  A    between atoms: O_7  and  C_2 
REMARK    3  A    between atoms: C_10  and  C_8 
REMARK    4  A    between atoms: C_13  and  C_10 
REMARK    5  A    between atoms: C_11  and  C_12 
REMARK    6  A    between atoms: C_12  and  C_14 
REMARK    7  A    between atoms: C_14  and  C_13 
ROOT
ATOM      1  C   UNL d   1       0.068   0.983  -0.030  0.00  0.00     0.018 A 
ATOM      2  C   UNL d   1       0.134   0.227   1.123  0.00  0.00     0.163 A 
ATOM      3  N   UNL d   1       0.143  -1.232  -0.613  0.00  0.00    -0.303 N 
ATOM      4  HN  UNL d   1       0.164  -2.102  -1.145  1.00  0.00     0.186 HD
ATOM      5  N   UNL d   1       0.169  -1.077   0.721  0.00  0.00    -0.280 N 
ATOM      6  C   UNL d   1       0.081   0.021  -1.081  0.00  0.00     0.032 A 
ATOM      7  C   UNL d   1       0.033   0.266  -2.545  0.00  0.00     0.070 C 
ATOM      8  H   UNL d   1       0.204  -1.899   1.312  0.00  0.00     0.189 HD
ENDROOT
BRANCH   1   9
ATOM      9  C   UNL d   1      -0.022   2.466  -0.147  0.00  0.00     0.045 C 
BRANCH   9  10
ATOM     10  C   UNL d   1       1.352   3.143  -0.143  0.00  0.00     0.005 C 
BRANCH  10  11
ATOM     11  C   UNL d   1       1.269   4.674  -0.167  0.00  0.00     0.000 C 
BRANCH  11  12
ATOM     12  C   UNL d   1       0.612   5.251   1.089  0.00  0.00     0.000 C 
BRANCH  12  13
ATOM     13  C   UNL d   1       0.571   6.779   1.067  0.00  0.00    -0.000 C 
BRANCH  13  14
ATOM     14  C   UNL d   1      -0.133   7.314   2.315  0.00  0.00    -0.005 C 
ATOM     15  C   UNL d   1      -0.214   8.831   2.307  0.00  0.00     0.005 C 
ENDBRANCH  13  14
ENDBRANCH  12  13
ENDBRANCH  11  12
ENDBRANCH  10  11
ENDBRANCH   9  10
ENDBRANCH   1   9
BRANCH   2  16
ATOM     16  O   UNL d   1       0.161   0.539   2.411  0.00  0.00    -0.345 OA
ATOM     17  H   UNL d   1       0.148   1.511   2.476  0.00  0.00     0.219 HD
ENDBRANCH   2  16
TORSDOF 7
