REMARK  2 active torsions:
REMARK  status: ('A' for Active; 'I' for Inactive)
REMARK    1  A    between atoms: C_7  and  C_3 
REMARK    2  A    between atoms: C_9  and  C_4 
ROOT
ATOM      1  N   UNL d   1       1.272  -0.540  -0.455  0.00  0.00    -0.349 N 
ATOM      2  HN  UNL d   1       2.086  -1.015  -0.846  1.00  0.00     0.166 HD
ATOM      3  C   UNL d   1       1.282   0.755   0.046  0.00  0.00     0.050 A 
ATOM      4  C   UNL d   1       0.073  -1.075  -0.358  0.00  0.00     0.084 A 
ATOM      5  S   UNL d   1      -1.098  -0.074   0.413  0.00  0.00    -0.081 SA
ATOM      6  C   UNL d   1       0.072   1.165   0.574  0.00  0.00     0.082 A 
ENDROOT
BRANCH   3   7
ATOM      7  C   UNL d   1       2.475   1.605  -0.004  0.00  0.00    -0.003 A 
ATOM      8  C   UNL d   1       3.400   1.566  -1.069  0.00  0.00    -0.049 A 
ATOM      9  C   UNL d   1       4.529   2.411  -1.030  0.00  0.00     0.014 A 
ATOM     10  C   UNL d   1       3.289   0.668  -2.274  0.00  0.00     0.049 C 
ATOM     11  C   UNL d   1       4.747   3.307   0.022  0.00  0.00    -0.061 A 
ATOM     12  C   UNL d   1       3.825   3.353   1.064  0.00  0.00     0.007 A 
ATOM     13  C   UNL d   1       5.956   4.193   0.012  0.00  0.00     0.048 C 
ATOM     14  C   UNL d   1       2.711   2.508   1.054  0.00  0.00     0.015 A 
ENDBRANCH   3   7
BRANCH   4  15
ATOM     15  C   UNL d   1      -0.291  -2.382  -0.927  0.00  0.00    -0.002 A 
ATOM     16  C   UNL d   1      -1.292  -3.196  -0.378  0.00  0.00     0.016 A 
ATOM     17  C   UNL d   1      -1.621  -4.424  -0.966  0.00  0.00     0.024 A 
ATOM     18  C   UNL d   1      -0.948  -4.850  -2.108  0.00  0.00     0.034 A 
ATOM     19  C   UNL d   1       0.058  -4.065  -2.663  0.00  0.00     0.024 A 
ATOM     20 CL   UNL d   1      -1.360  -6.354  -2.832  0.00  0.00    -0.084 Cl
ATOM     21  C   UNL d   1       0.386  -2.841  -2.071  0.00  0.00     0.016 A 
ENDBRANCH   4  15
TORSDOF 2
