REMARK  5 active torsions:
REMARK  status: ('A' for Active; 'I' for Inactive)
REMARK    1  A    between atoms: C_3  and  C_1 
REMARK    2  A    between atoms: C_2  and  N_4 
REMARK    3  A    between atoms: N_8  and  C_2 
REMARK    4  A    between atoms: N_4  and  C_7 
REMARK    5  A    between atoms: N_12  and  N_8 
ROOT
ATOM      1  C   UNL d   1       0.706   1.160  -0.709  0.00  0.00     0.050 A 
ATOM      2  C   UNL d   1      -0.307   0.895  -1.649  0.00  0.00     0.045 A 
ATOM      3  C   UNL d   1      -0.870   1.921  -2.408  0.00  0.00     0.035 A 
ATOM      4  C   UNL d   1       1.163   2.475  -0.550  0.00  0.00     0.016 A 
ATOM      5  C   UNL d   1       0.615   3.505  -1.309  0.00  0.00     0.003 A 
ATOM      6  C   UNL d   1      -0.394   3.227  -2.233  0.00  0.00     0.029 A 
ENDROOT
BRANCH   3   7
ATOM      7  N   UNL d   1      -1.830   1.725  -3.418  0.00  0.00    -0.332 N 
ATOM      8  H   UNL d   1      -2.036   2.532  -3.991  0.00  0.00     0.168 HD
BRANCH   7   9
ATOM      9  C   UNL d   1      -2.643   0.655  -3.729  0.00  0.00     0.186 C 
ATOM     10  S   UNL d   1      -3.151  -0.603  -2.760  0.00  0.00    -0.040 SA
BRANCH   9  11
ATOM     11  N   UNL d   1      -3.105   0.690  -5.040  0.00  0.00    -0.300 N 
ATOM     12  H   UNL d   1      -3.647  -0.126  -5.332  0.00  0.00     0.183 HD
BRANCH  11  13
ATOM     13  N   UNL d   1      -2.476   1.460  -6.038  0.00  0.00    -0.248 NA
ATOM     14  H   UNL d   1      -1.480   1.545  -5.821  0.00  0.00     0.143 HD
ATOM     15  H   UNL d   1      -2.885   2.396  -6.053  0.00  0.00     0.143 HD
ENDBRANCH  11  13
ENDBRANCH   9  11
ENDBRANCH   7   9
ENDBRANCH   3   7
BRANCH   1  16
ATOM     16  C   UNL d   1       1.318   0.046   0.104  0.00  0.00     0.417 C 
ATOM     17  F   UNL d   1       0.758  -1.175  -0.120  0.00  0.00    -0.166 F 
ATOM     18  F   UNL d   1       1.215   0.264   1.445  0.00  0.00    -0.166 F 
ATOM     19  F   UNL d   1       2.649  -0.105  -0.146  0.00  0.00    -0.166 F 
ENDBRANCH   1  16
TORSDOF 5
