REMARK  5 active torsions:
REMARK  status: ('A' for Active; 'I' for Inactive)
REMARK    1  A    between atoms: O_15  and  C_7 
REMARK    2  A    between atoms: N_10  and  O_15 
REMARK    3  A    between atoms: C_17  and  C_12 
REMARK    4  A    between atoms: N_24  and  C_12 
REMARK    5  A    between atoms: C_18  and  C_19 
ROOT
ATOM      1  N   UNL d   1      -1.313   3.542   0.092  0.00  0.00    -0.247 N 
ATOM      2  HN  UNL d   1      -1.927   2.767   0.344  1.00  0.00     0.196 HD
ATOM      3  C   UNL d   1      -1.712   4.760  -0.139  0.00  0.00     0.109 C 
ENDROOT
BRANCH   1   4
ATOM      4  O   UNL d   1       0.081   3.445  -0.054  0.00  0.00    -0.217 OA
BRANCH   4   5
ATOM      5  C   UNL d   1       0.516   2.154   0.211  0.00  0.00     0.186 A 
ATOM      6  C   UNL d   1      -0.206   0.982  -0.021  0.00  0.00     0.080 A 
ATOM      7  C   UNL d   1       0.437  -0.207   0.284  0.00  0.00     0.139 A 
ATOM      8  C   UNL d   1      -1.464   0.579  -0.514  0.00  0.00     0.127 A 
ATOM      9  N   UNL d   1      -0.450  -1.204  -0.021  0.00  0.00    -0.281 N 
ATOM     10  N   UNL d   1       1.681  -0.346   0.776  0.00  0.00    -0.337 N 
ATOM     11  C   UNL d   1      -0.242  -2.622   0.131  0.00  0.00     0.179 C 
ATOM     12  N   UNL d   1      -1.625  -0.751  -0.516  0.00  0.00    -0.307 N 
ATOM     13  HN  UNL d   1      -2.436  -1.291  -0.817  1.00  0.00     0.186 HD
ATOM     14  C   UNL d   1       2.283   0.844   0.939  0.00  0.00     0.184 A 
ATOM     15  HN  UNL d   1       2.113  -1.243   0.997  1.00  0.00     0.168 HD
ATOM     16  N   UNL d   1       1.788   2.068   0.680  0.00  0.00    -0.330 N 
ATOM     17  HN  UNL d   1       2.351   2.905   0.831  1.00  0.00     0.168 HD
ENDBRANCH   4   5
ENDBRANCH   1   4
BRANCH   3  18
ATOM     18  C   UNL d   1      -3.175   5.044  -0.047  0.00  0.00     0.004 A 
ATOM     19  C   UNL d   1      -3.988   4.304   0.815  0.00  0.00     0.015 A 
ATOM     20  C   UNL d   1      -5.365   4.567   0.880  0.00  0.00     0.009 A 
ATOM     21  C   UNL d   1      -5.961   5.557   0.076  0.00  0.00    -0.051 A 
ATOM     22  C   UNL d   1      -5.117   6.293  -0.773  0.00  0.00     0.009 A 
ATOM     23  C   UNL d   1      -3.741   6.043  -0.835  0.00  0.00     0.015 A 
BRANCH  21  24
ATOM     24  C   UNL d   1      -7.486   5.779   0.108  0.00  0.00    -0.024 C 
ATOM     25  C   UNL d   1      -7.958   6.876  -0.874  0.00  0.00     0.019 C 
ATOM     26  C   UNL d   1      -8.209   4.471  -0.282  0.00  0.00     0.019 C 
ATOM     27  C   UNL d   1      -7.950   6.199   1.518  0.00  0.00     0.019 C 
ENDBRANCH  21  24
ENDBRANCH   3  18
BRANCH   3  28
ATOM     28  N   UNL d   1      -0.865   5.798  -0.456  0.00  0.00    -0.286 NA
ATOM     29  H   UNL d   1       0.106   5.588  -0.242  0.00  0.00     0.125 HD
ATOM     30  H   UNL d   1      -1.144   6.713  -0.121  0.00  0.00     0.125 HD
ENDBRANCH   3  28
TORSDOF 5
