REMARK  2 active torsions:
REMARK  status: ('A' for Active; 'I' for Inactive)
REMARK    1  A    between atoms: N_9  and  C_2 
REMARK       I    between atoms: C_10  and  N_9 
REMARK    2  A    between atoms: C_13  and  C_10 
ROOT
ATOM      1  C   UNL d   1       0.428  -0.830  -0.157  0.00  0.00     0.089 A 
ATOM      2  C   UNL d   1      -1.989   0.535  -0.271  0.00  0.00     0.155 C 
ATOM      3  C   UNL d   1       0.303   0.528  -0.043  0.00  0.00     0.062 A 
ATOM      4  S   UNL d   1      -2.101  -1.065  -0.936  0.00  0.00    -0.010 SA
ATOM      5  C   UNL d   1      -0.638  -1.769  -0.298  0.00  0.00     0.235 C 
ATOM      6  N   UNL d   1      -0.925   1.191   0.068  0.00  0.00    -0.335 N 
ATOM      7  HN  UNL d   1      -0.979   2.153   0.402  1.00  0.00     0.168 HD
ATOM      8  S   UNL d   1       2.055  -1.326  -0.115  0.00  0.00    -0.095 SA
ATOM      9  C   UNL d   1       1.557   1.208   0.031  0.00  0.00    -0.027 A 
ATOM     10  C   UNL d   1       2.596   0.292  -0.003  0.00  0.00     0.059 A 
ATOM     11  O   UNL d   1      -0.573  -2.974  -0.083  0.00  0.00    -0.279 OA
ATOM     12  C   UNL d   1       1.762   2.681   0.134  0.00  0.00     0.051 C 
ENDROOT
BRANCH   2  13
ATOM     13  N   UNL d   1      -3.172   1.231  -0.074  0.00  0.00    -0.302 N 
ATOM     14  C   UNL d   1      -4.508   0.890  -0.289  0.00  0.00     0.264 C 
ATOM     15  O   UNL d   1      -4.864  -0.115  -0.898  0.00  0.00    -0.267 OA
ATOM     16  H   UNL d   1      -3.016   2.125   0.371  0.00  0.00     0.171 HD
BRANCH  14  17
ATOM     17  C   UNL d   1      -5.494   1.833   0.234  0.00  0.00     0.072 A 
ATOM     18  S   UNL d   1      -5.066   3.256   1.087  0.00  0.00    -0.097 SA
ATOM     19  C   UNL d   1      -6.704   3.699   1.310  0.00  0.00     0.050 A 
ATOM     20  C   UNL d   1      -7.567   2.787   0.749  0.00  0.00     0.009 A 
ATOM     21  C   UNL d   1      -6.869   1.712   0.131  0.00  0.00     0.025 A 
ENDBRANCH  14  17
ENDBRANCH   2  13
TORSDOF 2
