REMARK  5 active torsions:
REMARK  status: ('A' for Active; 'I' for Inactive)
REMARK    1  A    between atoms: O_7  and  C_1 
REMARK    2  A    between atoms: N_4  and  C_2 
REMARK    3  A    between atoms: N_5  and  C_3 
REMARK    4  A    between atoms: C_6  and  C_8 
REMARK    5  A    between atoms: C_11  and  O_7 
ROOT
ATOM      1  C   UNL d   1       1.273  -0.434   0.318  0.00  0.00     0.142 A 
ATOM      2  C   UNL d   1       0.254  -1.381   0.482  0.00  0.00     0.140 A 
ATOM      3  C   UNL d   1       0.872   0.888   0.070  0.00  0.00     0.140 A 
ATOM      4  C   UNL d   1      -1.482   0.286   0.022  0.00  0.00     0.052 A 
ATOM      5  C   UNL d   1      -0.478   1.256  -0.085  0.00  0.00     0.055 A 
ATOM      6  C   UNL d   1      -1.104  -1.035   0.309  0.00  0.00     0.055 A 
ENDROOT
BRANCH   1   7
ATOM      7  O   UNL d   1       2.620  -0.661   0.449  0.00  0.00    -0.305 OA
BRANCH   7   8
ATOM      8  C   UNL d   1       3.241  -1.690  -0.225  0.00  0.00     0.082 A 
ATOM      9  C   UNL d   1       4.454  -2.151   0.320  0.00  0.00    -0.028 A 
ATOM     10  C   UNL d   1       5.112  -1.504   1.508  0.00  0.00     0.051 C 
ATOM     11  C   UNL d   1       5.089  -3.256  -0.267  0.00  0.00     0.009 A 
ATOM     12  C   UNL d   1       4.532  -3.888  -1.378  0.00  0.00     0.001 A 
ATOM     13  C   UNL d   1       3.365  -3.389  -1.947  0.00  0.00     0.003 A 
ATOM     14  C   UNL d   1       2.735  -2.275  -1.392  0.00  0.00     0.038 A 
ENDBRANCH   7   8
ENDBRANCH   1   7
BRANCH   2  15
ATOM     15  N   UNL d   1       0.526  -2.762   0.871  0.00  0.00    -0.113 N 
ATOM     16  O   UNL d   1       1.326  -2.950   1.795  0.00  0.00    -0.532 OA
ATOM     17  O   UNL d   1      -0.119  -3.641   0.286  0.00  0.00    -0.532 OA
ENDBRANCH   2  15
BRANCH   3  18
ATOM     18  N   UNL d   1       1.865   1.945  -0.033  0.00  0.00    -0.113 N 
ATOM     19  O   UNL d   1       2.605   2.129   0.941  0.00  0.00    -0.532 OA
ATOM     20  O   UNL d   1       1.849   2.618  -1.070  0.00  0.00    -0.532 OA
ENDBRANCH   3  18
BRANCH   4  21
ATOM     21  C   UNL d   1      -2.943   0.636  -0.152  0.00  0.00     0.417 C 
ATOM     22  F   UNL d   1      -3.164   1.968  -0.308  0.00  0.00    -0.166 F 
ATOM     23  F   UNL d   1      -3.487   0.028  -1.238  0.00  0.00    -0.166 F 
ATOM     24  F   UNL d   1      -3.691   0.249   0.916  0.00  0.00    -0.166 F 
ENDBRANCH   4  21
TORSDOF 5
