REMARK  6 active torsions:
REMARK  status: ('A' for Active; 'I' for Inactive)
REMARK    1  A    between atoms: C_2  and  C_1 
REMARK    2  A    between atoms: S_5  and  C_2 
REMARK    3  A    between atoms: C_10  and  S_5 
REMARK    4  A    between atoms: C_11  and  C_6 
REMARK    5  A    between atoms: S_9  and  C_11 
REMARK    6  A    between atoms: C_12  and  S_9 
ROOT
ATOM      1  C   UNL d   1      -0.019   1.152   0.169  0.00  0.00     0.133 A 
ATOM      2  O   UNL d   1      -0.790   0.011   0.222  0.00  0.00    -0.310 OA
ATOM      3  C   UNL d   1       1.306   0.776   0.013  0.00  0.00     0.044 A 
ATOM      4  C   UNL d   1       0.044  -1.072   0.130  0.00  0.00     0.063 A 
ATOM      5  C   UNL d   1       1.343  -0.635  -0.025  0.00  0.00     0.036 A 
ENDROOT
BRANCH   1   6
ATOM      6  C   UNL d   1      -0.679   2.447   0.285  0.00  0.00     0.247 C 
ATOM      7  O   UNL d   1      -1.888   2.631   0.240  0.00  0.00    -0.277 OA
BRANCH   6   8
ATOM      8  S   UNL d   1       0.462   3.762   0.588  0.00  0.00    -0.046 SA
BRANCH   8   9
ATOM      9  C   UNL d   1      -0.244   5.270  -0.043  0.00  0.00     0.008 A 
ATOM     10  C   UNL d   1      -1.270   5.353  -0.988  0.00  0.00     0.021 A 
ATOM     11  C   UNL d   1      -1.708   6.600  -1.461  0.00  0.00     0.025 A 
ATOM     12  C   UNL d   1      -1.109   7.771  -1.002  0.00  0.00     0.034 A 
ATOM     13  C   UNL d   1      -0.080   7.710  -0.071  0.00  0.00     0.025 A 
ATOM     14 CL   UNL d   1      -1.635   9.297  -1.598  0.00  0.00    -0.084 Cl
ATOM     15  C   UNL d   1       0.348   6.466   0.404  0.00  0.00     0.021 A 
ENDBRANCH   8   9
ENDBRANCH   6   8
ENDBRANCH   1   6
BRANCH   4  16
ATOM     16  C   UNL d   1      -0.592  -2.426   0.194  0.00  0.00     0.144 C 
BRANCH  16  17
ATOM     17  S   UNL d   1       0.582  -3.669   0.864  0.00  0.00    -0.123 SA
BRANCH  17  18
ATOM     18  C   UNL d   1      -0.241  -5.229   0.584  0.00  0.00     0.001 A 
ATOM     19  C   UNL d   1       0.567  -6.337   0.282  0.00  0.00     0.020 A 
ATOM     20  C   UNL d   1       0.012  -7.613   0.139  0.00  0.00     0.025 A 
ATOM     21  C   UNL d   1      -1.356  -7.790   0.306  0.00  0.00     0.034 A 
ATOM     22  C   UNL d   1      -2.173  -6.699   0.602  0.00  0.00     0.025 A 
ATOM     23 CL   UNL d   1      -2.040  -9.362   0.170  0.00  0.00    -0.084 Cl
ATOM     24  C   UNL d   1      -1.615  -5.421   0.743  0.00  0.00     0.020 A 
ENDBRANCH  17  18
ENDBRANCH  16  17
ENDBRANCH   4  16
TORSDOF 6
