REMARK  5 active torsions:
REMARK  status: ('A' for Active; 'I' for Inactive)
REMARK    1  A    between atoms: C_6  and  C_1 
REMARK    2  A    between atoms: C_13  and  C_3 
REMARK    3  A    between atoms: C_8  and  C_11 
REMARK    4  A    between atoms: C_12  and  C_13 
REMARK    5  A    between atoms: N_23  and  C_16 
ROOT
ATOM      1  C   UNL d   1       0.588   1.245   0.038  0.00  0.00     0.088 C 
ATOM      2  S   UNL d   1       1.282  -0.264   0.495  0.00  0.00    -0.066 SA
ATOM      3  C   UNL d   1      -0.184  -1.086   0.167  0.00  0.00     0.079 C 
ATOM      4  N   UNL d   1      -0.707   1.164  -0.189  0.00  0.00    -0.352 N 
ATOM      5  HN  UNL d   1      -1.295   1.958  -0.443  1.00  0.00     0.166 HD
ATOM      6  C   UNL d   1      -1.174  -0.136  -0.040  0.00  0.00     0.027 C 
ATOM      7  C   UNL d   1      -2.642  -0.368  -0.133  0.00  0.00     0.070 C 
ENDROOT
BRANCH   1   8
ATOM      8  C   UNL d   1       1.372   2.508   0.013  0.00  0.00     0.041 A 
ATOM      9  C   UNL d   1       2.705   2.596  -0.452  0.00  0.00     0.049 A 
ATOM     10  C   UNL d   1       3.418   3.809  -0.425  0.00  0.00     0.041 A 
ATOM     11 CL   UNL d   1       3.586   1.281  -1.165  0.00  0.00    -0.083 Cl
ATOM     12  C   UNL d   1       2.821   4.993   0.012  0.00  0.00     0.051 A 
ATOM     13  C   UNL d   1       1.494   4.938   0.434  0.00  0.00     0.041 A 
ATOM     14  C   UNL d   1       0.784   3.722   0.447  0.00  0.00     0.049 A 
ATOM     15 CL   UNL d   1      -0.835   3.842   1.064  0.00  0.00    -0.083 Cl
BRANCH  12  16
ATOM     16  C   UNL d   1       3.605   6.283   0.013  0.00  0.00     0.417 C 
ATOM     17  F   UNL d   1       2.877   7.361   0.412  0.00  0.00    -0.166 F 
ATOM     18  F   UNL d   1       4.683   6.228   0.842  0.00  0.00    -0.166 F 
ATOM     19  F   UNL d   1       4.093   6.591  -1.219  0.00  0.00    -0.166 F 
ENDBRANCH  12  16
ENDBRANCH   1   8
BRANCH   3  20
ATOM     20  C   UNL d   1      -0.326  -2.541   0.175  0.00  0.00     0.192 C 
ATOM     21  O   UNL d   1      -1.417  -3.084   0.024  0.00  0.00    -0.287 OA
BRANCH  20  22
ATOM     22  C   UNL d   1       0.894  -3.403   0.336  0.00  0.00     0.073 C 
ATOM     23  C   UNL d   1       0.806  -4.743   0.304  0.00  0.00     0.088 C 
BRANCH  23  24
ATOM     24  N   UNL d   1       1.804  -5.700   0.429  0.00  0.00    -0.398 N 
ATOM     25  C   UNL d   1       3.224  -5.410   0.631  0.00  0.00     0.148 C 
ATOM     26  C   UNL d   1       1.498  -7.133   0.383  0.00  0.00     0.148 C 
ENDBRANCH  23  24
ENDBRANCH  20  22
ENDBRANCH   3  20
TORSDOF 5
