REMARK  2 active torsions:
REMARK  status: ('A' for Active; 'I' for Inactive)
REMARK    1  A    between atoms: C_7  and  C_1 
REMARK    2  A    between atoms: C_9  and  C_2 
ROOT
ATOM      1  C   UNL d   1       2.422   0.027   0.060  0.00  0.00     0.055 C 
ATOM      2  C   UNL d   1       3.039  -1.173  -0.043  0.00  0.00     0.035 C 
ATOM      3  C   UNL d   1       0.991   0.095   0.163  0.00  0.00     0.100 C 
ATOM      4  N   UNL d   1      -0.165   0.177   0.236  0.00  0.00    -0.191 NA
ENDROOT
BRANCH   1   5
ATOM      5  C   UNL d   1       3.200   1.307   0.038  0.00  0.00    -0.015 A 
ATOM      6  C   UNL d   1       2.624   2.482  -0.481  0.00  0.00     0.013 A 
ATOM      7  C   UNL d   1       3.313   3.702  -0.477  0.00  0.00     0.007 A 
ATOM      8  C   UNL d   1       4.604   3.788   0.049  0.00  0.00    -0.062 A 
ATOM      9  C   UNL d   1       5.196   2.631   0.560  0.00  0.00     0.007 A 
ATOM     10  C   UNL d   1       5.322   5.106   0.068  0.00  0.00     0.048 C 
ATOM     11  C   UNL d   1       4.501   1.410   0.560  0.00  0.00     0.013 A 
ENDBRANCH   1   5
BRANCH   2  12
ATOM     12  C   UNL d   1       2.361  -2.483  -0.066  0.00  0.00    -0.032 A 
ATOM     13  C   UNL d   1       2.069  -3.148   1.132  0.00  0.00     0.051 A 
ATOM     14  C   UNL d   1       1.420  -4.367   1.056  0.00  0.00     0.105 A 
ATOM     15  O   UNL d   1       1.062  -5.143   2.114  0.00  0.00    -0.323 OA
ATOM     16  C   UNL d   1       1.065  -4.926  -0.148  0.00  0.00     0.105 A 
ATOM     17  C   UNL d   1       0.373  -6.217   1.440  0.00  0.00     0.352 A 
ATOM     18  O   UNL d   1       0.429  -6.119   0.002  0.00  0.00    -0.323 OA
ATOM     19  C   UNL d   1       1.346  -4.306  -1.346  0.00  0.00     0.040 A 
ATOM     20  C   UNL d   1       2.005  -3.071  -1.301  0.00  0.00     0.014 A 
ENDBRANCH   2  12
TORSDOF 2
