REMARK  5 active torsions:
REMARK  status: ('A' for Active; 'I' for Inactive)
REMARK    1  A    between atoms: C_6  and  C_1 
REMARK    2  A    between atoms: C_9  and  C_4 
REMARK    3  A    between atoms: S_8  and  C_6 
REMARK    4  A    between atoms: C_13  and  S_8 
REMARK    5  A    between atoms: C_12  and  C_13 
ROOT
ATOM      1  C   UNL d   1      -0.140  -1.241   0.060  0.00  0.00     0.082 A 
ATOM      2  N   UNL d   1      -1.128   0.804  -0.118  0.00  0.00    -0.259 N 
ATOM      3  HN  UNL d   1      -1.823   1.546  -0.201  1.00  0.00     0.195 HD
ATOM      4  C   UNL d   1      -1.374  -0.505   0.075  0.00  0.00     0.082 A 
ATOM      5  O   UNL d   1       0.231   0.953  -0.183  0.00  0.00    -0.241 OA
ATOM      6  C   UNL d   1       0.825  -0.255  -0.053  0.00  0.00     0.089 A 
ATOM      7  C   UNL d   1       2.302  -0.252  -0.086  0.00  0.00     0.080 C 
ENDROOT
BRANCH   1   8
ATOM      8  C   UNL d   1       0.199  -2.647   0.155  0.00  0.00     0.224 C 
ATOM      9  O   UNL d   1       1.247  -3.047   0.651  0.00  0.00    -0.280 OA
BRANCH   8  10
ATOM     10  S   UNL d   1      -0.859  -3.759  -0.704  0.00  0.00    -0.080 SA
BRANCH  10  11
ATOM     11  C   UNL d   1      -0.318  -5.314   0.063  0.00  0.00     0.160 C 
BRANCH  11  12
ATOM     12  C   UNL d   1      -0.675  -5.408   1.539  0.00  0.00     0.132 C 
ATOM     13  O   UNL d   1      -1.065  -4.455   2.216  0.00  0.00    -0.298 OA
ATOM     14  C   UNL d   1      -0.518  -6.768   2.169  0.00  0.00     0.091 C 
ENDBRANCH  11  12
ENDBRANCH  10  11
ENDBRANCH   8  10
ENDBRANCH   1   8
BRANCH   4  15
ATOM     15  C   UNL d   1      -2.763  -0.927   0.303  0.00  0.00    -0.006 A 
ATOM     16  C   UNL d   1      -3.823  -0.216  -0.285  0.00  0.00     0.014 A 
ATOM     17  C   UNL d   1      -5.153  -0.568  -0.035  0.00  0.00     0.001 A 
ATOM     18  C   UNL d   1      -5.443  -1.647   0.795  0.00  0.00     0.000 A 
ATOM     19  C   UNL d   1      -4.406  -2.355   1.395  0.00  0.00     0.001 A 
ATOM     20  C   UNL d   1      -3.078  -1.979   1.169  0.00  0.00     0.014 A 
ENDBRANCH   4  15
TORSDOF 5
