REMARK  5 active torsions:
REMARK  status: ('A' for Active; 'I' for Inactive)
REMARK    1  A    between atoms: C_5  and  N_1 
REMARK    2  A    between atoms: C_2  and  N_3 
REMARK    3  A    between atoms: N_4  and  C_2 
REMARK    4  A    between atoms: C_10  and  N_4 
REMARK    5  A    between atoms: N_6  and  C_7 
ROOT
ATOM      1  N   UNL d   1      -2.986   5.689   4.147  0.00  0.00    -0.355 N 
ATOM      2  N   UNL d   1      -2.548   3.372   2.511  0.00  0.00    -0.364 N 
ATOM      3  C   UNL d   1      -2.737   5.840   2.708  0.00  0.00     0.145 C 
ATOM      4  C   UNL d   1      -2.429   4.466   4.748  0.00  0.00     0.145 C 
ATOM      5  C   UNL d   1      -2.852   3.218   3.946  0.00  0.00     0.144 C 
ATOM      6  C   UNL d   1      -3.092   4.587   1.888  0.00  0.00     0.144 C 
ENDROOT
BRANCH   1   7
ATOM      7  C   UNL d   1      -3.742   6.568   4.891  0.00  0.00     0.174 C 
ATOM      8  S   UNL d   1      -5.248   7.129   4.432  0.00  0.00    -0.041 SA
BRANCH   7   9
ATOM      9  N   UNL d   1      -3.252   6.904   6.128  0.00  0.00    -0.333 N 
ATOM     10  H   UNL d   1      -3.957   7.247   6.773  0.00  0.00     0.168 HD
BRANCH   9  11
ATOM     11  C   UNL d   1      -1.941   7.394   6.395  0.00  0.00     0.042 A 
ATOM     12  C   UNL d   1      -1.508   7.556   7.732  0.00  0.00    -0.013 A 
ATOM     13  C   UNL d   1      -0.255   8.172   7.957  0.00  0.00     0.042 A 
ATOM     14  C   UNL d   1      -2.296   7.027   8.900  0.00  0.00     0.052 C 
ATOM     15 CL   UNL d   1       0.357   8.419   9.558  0.00  0.00    -0.084 Cl
ATOM     16  C   UNL d   1       0.545   8.611   6.900  0.00  0.00     0.024 A 
ATOM     17  C   UNL d   1       0.118   8.433   5.592  0.00  0.00     0.004 A 
ATOM     18  C   UNL d   1      -1.117   7.832   5.345  0.00  0.00     0.030 A 
ENDBRANCH   9  11
ENDBRANCH   7   9
ENDBRANCH   1   7
BRANCH   2  19
ATOM     19  C   UNL d   1      -1.563   2.594   1.944  0.00  0.00     0.103 A 
ATOM     20  C   UNL d   1      -1.453   2.445   0.559  0.00  0.00     0.051 A 
ATOM     21  C   UNL d   1      -0.504   1.577   0.005  0.00  0.00     0.041 A 
ATOM     22  C   UNL d   1       0.329   0.869   0.862  0.00  0.00     0.118 A 
ATOM     23  C   UNL d   1       0.192   1.067   2.221  0.00  0.00     0.125 A 
ATOM     24  N   UNL d   1      -0.729   1.907   2.761  0.00  0.00    -0.350 N 
ATOM     25  HN  UNL d   1      -0.792   2.019   3.773  1.00  0.00     0.166 HD
BRANCH  22  26
ATOM     26  N   UNL d   1       1.306  -0.081   0.354  0.00  0.00    -0.114 N 
ATOM     27  O   UNL d   1       2.022  -0.668   1.175  0.00  0.00    -0.532 OA
ATOM     28  O   UNL d   1       1.362  -0.246  -0.873  0.00  0.00    -0.532 OA
ENDBRANCH  22  26
ENDBRANCH   2  19
TORSDOF 5
