REMARK  4 active torsions:
REMARK  status: ('A' for Active; 'I' for Inactive)
REMARK    1  A    between atoms: C_2  and  S_1 
REMARK    2  A    between atoms: C_6  and  S_1 
REMARK    3  A    between atoms: N_11  and  C_3 
REMARK    4  A    between atoms: C_13  and  N_11 
ROOT
ATOM      1  C   UNL d   1       0.513   0.112   1.634  0.00  0.00     0.159 C 
ATOM      2  C   UNL d   1      -0.267   1.149   1.989  0.00  0.00     0.123 C 
ATOM      3  C   UNL d   1       0.962  -0.079   0.305  0.00  0.00     0.113 C 
ATOM      4  N   UNL d   1       1.316  -0.189  -0.791  0.00  0.00    -0.191 NA
ENDROOT
BRANCH   1   5
ATOM      5  S   UNL d   1       0.929  -1.069   2.833  0.00  0.00     0.218 S 
ATOM      6  O   UNL d   1      -0.024  -2.163   2.773  0.00  0.00    -0.216 OA
ATOM      7  O   UNL d   1       1.187  -0.410   4.102  0.00  0.00    -0.216 OA
BRANCH   5   8
ATOM      8  C   UNL d   1       2.497  -1.732   2.290  0.00  0.00     0.065 A 
ATOM      9  C   UNL d   1       3.688  -1.172   2.765  0.00  0.00     0.025 A 
ATOM     10  C   UNL d   1       4.909  -1.696   2.335  0.00  0.00     0.025 A 
ATOM     11  C   UNL d   1       4.932  -2.774   1.449  0.00  0.00     0.034 A 
ATOM     12  C   UNL d   1       3.743  -3.345   0.995  0.00  0.00     0.025 A 
ATOM     13 CL   UNL d   1       6.440  -3.411   0.919  0.00  0.00    -0.084 Cl
ATOM     14  C   UNL d   1       2.518  -2.833   1.425  0.00  0.00     0.025 A 
ENDBRANCH   5   8
ENDBRANCH   1   5
BRANCH   2  15
ATOM     15  N   UNL d   1      -0.777   2.132   1.166  0.00  0.00    -0.364 N 
ATOM     16  H   UNL d   1      -0.660   2.005   0.162  0.00  0.00     0.165 HD
BRANCH  15  17
ATOM     17  C   UNL d   1      -1.537   3.261   1.516  0.00  0.00     0.033 A 
ATOM     18  C   UNL d   1      -1.443   3.897   2.757  0.00  0.00     0.055 A 
ATOM     19  C   UNL d   1      -2.264   4.991   3.068  0.00  0.00     0.058 A 
ATOM     20 CL   UNL d   1      -2.049   5.744   4.609  0.00  0.00    -0.082 Cl
ATOM     21  C   UNL d   1      -3.214   5.440   2.145  0.00  0.00     0.055 A 
ATOM     22  C   UNL d   1      -3.326   4.804   0.910  0.00  0.00     0.028 A 
ATOM     23 CL   UNL d   1      -4.280   6.759   2.470  0.00  0.00    -0.083 Cl
ATOM     24  C   UNL d   1      -2.492   3.727   0.599  0.00  0.00     0.031 A 
ENDBRANCH  15  17
ENDBRANCH   2  15
TORSDOF 4
