REMARK  1 active torsions:
REMARK  status: ('A' for Active; 'I' for Inactive)
REMARK    1  A    between atoms: C_7  and  C_5 
ROOT
ATOM      1  N   UNL d   1      -1.010  -1.197   0.116  0.00  0.00    -0.311 N 
ATOM      2  HN  UNL d   1      -1.491  -2.096   0.160  1.00  0.00     0.186 HD
ATOM      3  N   UNL d   1       0.345  -1.145   0.092  0.00  0.00    -0.306 N 
ATOM      4  HN  UNL d   1       0.891  -2.006   0.118  1.00  0.00     0.186 HD
ATOM      5  C   UNL d   1      -1.144   1.221   0.013  0.00  0.00    -0.007 A 
ATOM      6  C   UNL d   1       0.255   1.243  -0.007  0.00  0.00     0.039 A 
ATOM      7  C   UNL d   1       0.968   0.050   0.034  0.00  0.00     0.022 A 
ATOM      8  C   UNL d   1      -1.717  -0.044   0.081  0.00  0.00     0.119 A 
ATOM      9  C   UNL d   1       2.463   0.052   0.019  0.00  0.00     0.070 C 
ENDROOT
BRANCH   5  10
ATOM     10  C   UNL d   1      -1.954   2.459  -0.049  0.00  0.00    -0.025 A 
ATOM     11  C   UNL d   1      -1.510   3.660   0.537  0.00  0.00     0.012 A 
ATOM     12  C   UNL d   1      -2.261   4.837   0.449  0.00  0.00     0.001 A 
ATOM     13  C   UNL d   1      -3.481   4.839  -0.217  0.00  0.00     0.000 A 
ATOM     14  C   UNL d   1      -3.952   3.664  -0.793  0.00  0.00     0.001 A 
ATOM     15  C   UNL d   1      -3.195   2.490  -0.713  0.00  0.00     0.012 A 
ENDBRANCH   5  10
TORSDOF 1
