REMARK  6 active torsions:
REMARK  status: ('A' for Active; 'I' for Inactive)
REMARK    1  A    between atoms: N_2  and  S_1 
REMARK    2  A    between atoms: C_5  and  S_1 
REMARK    3  A    between atoms: C_4  and  N_2 
REMARK       I    between atoms: C_3  and  N_6 
REMARK    4  A    between atoms: C_11  and  C_3 
REMARK    5  A    between atoms: N_6  and  C_22 
REMARK    6  A    between atoms: C_12  and  C_13 
ROOT
ATOM      1  C   UNL d   1       0.680   0.858  -1.294  0.00  0.00     0.075 A 
ATOM      2  C   UNL d   1       1.074   2.194  -1.361  0.00  0.00     0.027 A 
ATOM      3  C   UNL d   1      -0.134   0.312  -2.287  0.00  0.00     0.027 A 
ATOM      4  C   UNL d   1      -0.193   2.461  -3.427  0.00  0.00     0.035 A 
ATOM      5  C   UNL d   1      -0.569   1.117  -3.346  0.00  0.00     0.031 A 
ATOM      6  C   UNL d   1       0.624   2.994  -2.418  0.00  0.00     0.031 A 
ENDROOT
BRANCH   4   7
ATOM      7  N   UNL d   1      -0.587   3.327  -4.473  0.00  0.00    -0.323 N 
ATOM      8  C   UNL d   1      -1.367   3.005  -5.574  0.00  0.00     0.256 C 
ATOM      9  O   UNL d   1      -1.846   1.909  -5.832  0.00  0.00    -0.267 OA
ATOM     10  H   UNL d   1      -0.308   4.293  -4.370  0.00  0.00     0.169 HD
BRANCH   8  11
ATOM     11  C   UNL d   1      -1.697   4.145  -6.479  0.00  0.00     0.032 A 
ATOM     12  C   UNL d   1      -0.828   5.212  -6.720  0.00  0.00     0.017 A 
ATOM     13  C   UNL d   1      -1.256   6.307  -7.487  0.00  0.00     0.009 A 
ATOM     14  C   UNL d   1      -2.555   6.363  -8.033  0.00  0.00    -0.051 A 
ATOM     15  C   UNL d   1      -3.374   5.236  -7.851  0.00  0.00     0.009 A 
ATOM     16  C   UNL d   1      -2.953   4.144  -7.087  0.00  0.00     0.017 A 
BRANCH  14  17
ATOM     17  C   UNL d   1      -3.060   7.632  -8.748  0.00  0.00    -0.024 C 
ATOM     18  C   UNL d   1      -4.520   7.510  -9.244  0.00  0.00     0.019 C 
ATOM     19  C   UNL d   1      -3.015   8.825  -7.766  0.00  0.00     0.019 C 
ATOM     20  C   UNL d   1      -2.185   7.968  -9.972  0.00  0.00     0.019 C 
ENDBRANCH  14  17
ENDBRANCH   8  11
ENDBRANCH   4   7
BRANCH   1  21
ATOM     21  S   UNL d   1       1.261  -0.174   0.031  0.00  0.00     0.245 S 
ATOM     22  O   UNL d   1       1.194  -1.547  -0.420  0.00  0.00    -0.206 OA
ATOM     23  O   UNL d   1       2.481   0.404   0.546  0.00  0.00    -0.206 OA
BRANCH  21  24
ATOM     24  N   UNL d   1      -0.008   0.013   1.153  0.00  0.00    -0.178 NA
ATOM     25  H   UNL d   1      -0.429  -0.915   1.266  0.00  0.00     0.146 HD
BRANCH  24  26
ATOM     26  C   UNL d   1       0.356   0.610   2.404  0.00  0.00     0.061 A 
ATOM     27  C   UNL d   1       0.804  -0.192   3.459  0.00  0.00     0.141 A 
ATOM     28  C   UNL d   1       1.182   0.367   4.673  0.00  0.00     0.086 A 
ATOM     29  F   UNL d   1       0.850  -1.525   3.308  0.00  0.00    -0.204 F 
ATOM     30  C   UNL d   1       1.124   1.747   4.816  0.00  0.00     0.119 A 
ATOM     31  C   UNL d   1       0.706   2.566   3.766  0.00  0.00     0.044 A 
ATOM     32  F   UNL d   1       1.472   2.303   5.982  0.00  0.00    -0.206 F 
ATOM     33  C   UNL d   1       0.327   1.996   2.549  0.00  0.00     0.030 A 
ENDBRANCH  24  26
ENDBRANCH  21  24
ENDBRANCH   1  21
TORSDOF 6
