REMARK  5 active torsions:
REMARK  status: ('A' for Active; 'I' for Inactive)
REMARK    1  A    between atoms: C_8  and  N_1 
REMARK    2  A    between atoms: S_7  and  C_2 
REMARK    3  A    between atoms: C_15  and  S_7 
REMARK    4  A    between atoms: N_10  and  C_9 
REMARK    5  A    between atoms: C_17  and  C_15 
ROOT
ATOM      1  N   UNL d   1      -0.105  -1.357   0.017  0.00  0.00    -0.219 N 
ATOM      2  C   UNL d   1       1.105  -0.680   0.148  0.00  0.00     0.177 A 
ATOM      3  N   UNL d   1       0.878   0.616   0.146  0.00  0.00    -0.264 N 
ATOM      4  HN  UNL d   1       1.570   1.359   0.247  1.00  0.00     0.186 HD
ATOM      5  N   UNL d   1      -0.466   0.769  -0.019  0.00  0.00    -0.006 NA
ATOM      6  N   UNL d   1      -1.070  -0.403  -0.123  0.00  0.00     0.001 NA
ENDROOT
BRANCH   1   7
ATOM      7  C   UNL d   1      -0.468  -2.737   0.003  0.00  0.00     0.057 A 
ATOM      8  C   UNL d   1       0.419  -3.755   0.343  0.00  0.00     0.033 A 
ATOM      9  C   UNL d   1       0.015  -5.094   0.288  0.00  0.00     0.031 A 
ATOM     10  C   UNL d   1      -1.271  -5.489  -0.106  0.00  0.00     0.029 A 
ATOM     11  C   UNL d   1      -2.164  -4.453  -0.399  0.00  0.00     0.031 A 
ATOM     12  C   UNL d   1      -1.778  -3.101  -0.347  0.00  0.00     0.033 A 
BRANCH  10  13
ATOM     13  N   UNL d   1      -1.616  -6.835  -0.126  0.00  0.00    -0.390 N 
ATOM     14  C   UNL d   1      -0.675  -7.787  -0.723  0.00  0.00     0.149 C 
ATOM     15  C   UNL d   1      -3.014  -7.252  -0.168  0.00  0.00     0.149 C 
ENDBRANCH  10  13
ENDBRANCH   1   7
BRANCH   2  16
ATOM     16  S   UNL d   1       2.694  -1.373   0.193  0.00  0.00    -0.087 SA
BRANCH  16  17
ATOM     17  C   UNL d   1       3.720   0.100   0.458  0.00  0.00     0.121 C 
BRANCH  17  18
ATOM     18  C   UNL d   1       5.180  -0.268   0.592  0.00  0.00    -0.048 A 
ATOM     19  C   UNL d   1       6.009  -0.315  -0.539  0.00  0.00     0.009 A 
ATOM     20  C   UNL d   1       7.360  -0.653  -0.415  0.00  0.00     0.024 A 
ATOM     21  C   UNL d   1       7.887  -0.952   0.838  0.00  0.00     0.034 A 
ATOM     22  C   UNL d   1       7.074  -0.926   1.970  0.00  0.00     0.024 A 
ATOM     23 CL   UNL d   1       9.553  -1.357   0.990  0.00  0.00    -0.084 Cl
ATOM     24  C   UNL d   1       5.723  -0.588   1.846  0.00  0.00     0.009 A 
ENDBRANCH  17  18
ENDBRANCH  16  17
ENDBRANCH   2  16
TORSDOF 5
