REMARK  7 active torsions:
REMARK  status: ('A' for Active; 'I' for Inactive)
REMARK    1  A    between atoms: N_5  and  C_1 
REMARK    2  A    between atoms: N_4  and  C_2 
REMARK    3  A    between atoms: N_14  and  C_3 
REMARK    4  A    between atoms: C_6  and  C_7 
REMARK    5  A    between atoms: C_10  and  C_23 
REMARK    6  A    between atoms: O_28  and  C_12 
REMARK    7  A    between atoms: N_15  and  N_14 
ROOT
ATOM      1  C   UNL d   1       1.403  -0.181   0.004  0.00  0.00     0.134 A 
ATOM      2  C   UNL d   1      -0.790  -1.129  -0.057  0.00  0.00     0.134 A 
ATOM      3  C   UNL d   1       0.606  -1.343  -0.112  0.00  0.00     0.114 A 
ATOM      4  C   UNL d   1      -0.566   1.278   0.175  0.00  0.00     0.052 A 
ATOM      5  C   UNL d   1      -1.375   0.145   0.076  0.00  0.00     0.054 A 
ATOM      6  C   UNL d   1       0.825   1.105   0.142  0.00  0.00     0.054 A 
ENDROOT
BRANCH   3   7
ATOM      7  N   UNL d   1       1.161  -2.634  -0.284  0.00  0.00    -0.296 N 
ATOM      8  H   UNL d   1       2.189  -2.675  -0.274  0.00  0.00     0.187 HD
BRANCH   7   9
ATOM      9  N   UNL d   1       0.506  -3.450  -1.148  0.00  0.00    -0.310 N 
ATOM     10  C   UNL d   1       0.976  -4.655  -1.237  0.00  0.00     0.121 C 
ATOM     11  HN  UNL d   1      -0.300  -3.138  -1.690  1.00  0.00     0.186 HD
BRANCH  10  12
ATOM     12  C   UNL d   1       0.343  -5.651  -2.126  0.00  0.00     0.017 A 
ATOM     13  C   UNL d   1       0.940  -6.897  -2.330  0.00  0.00     0.099 A 
ATOM     14  C   UNL d   1       0.336  -7.821  -3.191  0.00  0.00     0.069 A 
ATOM     15 CL   UNL d   1       1.065  -9.361  -3.462  0.00  0.00    -0.081 Cl
ATOM     16  C   UNL d   1      -0.851  -7.508  -3.851  0.00  0.00     0.050 A 
ATOM     17  C   UNL d   1      -1.441  -6.264  -3.640  0.00  0.00     0.036 A 
ATOM     18  C   UNL d   1      -0.856  -5.336  -2.780  0.00  0.00     0.039 A 
ATOM     19 CL   UNL d   1      -2.900  -5.866  -4.460  0.00  0.00    -0.084 Cl
BRANCH  13  20
ATOM     20  O   UNL d   1       2.121  -7.195  -1.702  0.00  0.00    -0.358 OA
ATOM     21  H   UNL d   1       2.410  -8.075  -2.013  0.00  0.00     0.217 HD
ENDBRANCH  13  20
ENDBRANCH  10  12
ENDBRANCH   7   9
ENDBRANCH   3   7
BRANCH   2  22
ATOM     22  N   UNL d   1      -1.718  -2.248  -0.066  0.00  0.00    -0.113 N 
ATOM     23  O   UNL d   1      -1.755  -2.961   0.948  0.00  0.00    -0.532 OA
ATOM     24  O   UNL d   1      -2.491  -2.324  -1.033  0.00  0.00    -0.532 OA
ENDBRANCH   2  22
BRANCH   1  25
ATOM     25  N   UNL d   1       2.875  -0.252  -0.042  0.00  0.00    -0.113 N 
ATOM     26  O   UNL d   1       3.410  -1.369   0.022  0.00  0.00    -0.532 OA
ATOM     27  O   UNL d   1       3.500   0.812  -0.136  0.00  0.00    -0.532 OA
ENDBRANCH   1  25
BRANCH   4  28
ATOM     28  C   UNL d   1      -1.161   2.660   0.324  0.00  0.00     0.417 C 
ATOM     29  F   UNL d   1      -2.520   2.660   0.384  0.00  0.00    -0.166 F 
ATOM     30  F   UNL d   1      -0.733   3.281   1.455  0.00  0.00    -0.166 F 
ATOM     31  F   UNL d   1      -0.826   3.478  -0.709  0.00  0.00    -0.166 F 
ENDBRANCH   4  28
TORSDOF 7
