REMARK  5 active torsions:
REMARK  status: ('A' for Active; 'I' for Inactive)
REMARK    1  A    between atoms: N_2  and  C_1 
REMARK    2  A    between atoms: N_4  and  C_1 
REMARK    3  A    between atoms: C_3  and  N_2 
REMARK    4  A    between atoms: C_8  and  N_4 
REMARK    5  A    between atoms: O_14  and  C_12 
ROOT
ATOM      1  C   UNL d   1       1.137  -0.475   0.037  0.00  0.00     0.176 C 
ATOM      2  S   UNL d   1       2.554  -1.363  -0.131  0.00  0.00    -0.041 SA
ENDROOT
BRANCH   1   3
ATOM      3  N   UNL d   1       0.583  -0.071   1.255  0.00  0.00    -0.333 N 
ATOM      4  H   UNL d   1      -0.419  -0.202   1.298  0.00  0.00     0.168 HD
BRANCH   3   5
ATOM      5  C   UNL d   1       1.255   0.112   2.485  0.00  0.00     0.040 A 
ATOM      6  C   UNL d   1       0.638  -0.224   3.701  0.00  0.00    -0.035 A 
ATOM      7  C   UNL d   1       1.308   0.070   4.903  0.00  0.00     0.009 A 
ATOM      8  C   UNL d   1      -0.697  -0.908   3.807  0.00  0.00     0.050 C 
ATOM      9  C   UNL d   1       2.570   0.671   4.900  0.00  0.00     0.007 A 
ATOM     10  C   UNL d   1       3.185   1.001   3.694  0.00  0.00    -0.060 A 
ATOM     11  C   UNL d   1       2.516   0.731   2.497  0.00  0.00     0.037 A 
ATOM     12  C   UNL d   1       4.534   1.657   3.686  0.00  0.00     0.048 C 
ENDBRANCH   3   5
ENDBRANCH   1   3
BRANCH   1  13
ATOM     13  N   UNL d   1       0.322  -0.021  -1.003  0.00  0.00    -0.333 N 
ATOM     14  H   UNL d   1      -0.043   0.908  -0.830  0.00  0.00     0.168 HD
BRANCH  13  15
ATOM     15  C   UNL d   1       0.321  -0.439  -2.352  0.00  0.00     0.036 A 
ATOM     16  C   UNL d   1       0.486  -1.781  -2.712  0.00  0.00     0.066 A 
ATOM     17  C   UNL d   1       0.477  -2.164  -4.054  0.00  0.00     0.070 A 
ATOM     18  C   UNL d   1       0.283  -1.194  -5.039  0.00  0.00     0.037 A 
ATOM     19  C   UNL d   1       0.078   0.141  -4.687  0.00  0.00     0.005 A 
ATOM     20  C   UNL d   1       0.076   0.516  -3.343  0.00  0.00     0.029 A 
BRANCH  17  21
ATOM     21  O   UNL d   1       0.631  -3.441  -4.522  0.00  0.00    -0.356 OA
ATOM     22  C   UNL d   1       0.864  -4.452  -3.548  0.00  0.00     0.210 C 
ENDBRANCH  17  21
ENDBRANCH  13  15
ENDBRANCH   1  13
TORSDOF 5
