REMARK  3 active torsions:
REMARK  status: ('A' for Active; 'I' for Inactive)
REMARK    1  A    between atoms: C_10  and  C_1 
REMARK       I    between atoms: C_4  and  N_7 
REMARK    2  A    between atoms: C_5  and  C_4 
REMARK    3  A    between atoms: N_7  and  C_10 
ROOT
ATOM      1  C   UNL d   1       1.050  -3.178  -0.034  0.00  0.00     0.162 C 
ENDROOT
BRANCH   1   2
ATOM      2  N   UNL d   1      -0.211  -3.868   0.123  0.00  0.00    -0.352 N 
ATOM      3  C   UNL d   1      -0.333  -5.061   0.800  0.00  0.00     0.258 C 
ATOM      4  O   UNL d   1       0.635  -5.604   1.332  0.00  0.00    -0.267 OA
ATOM      5  H   UNL d   1      -1.022  -3.512  -0.368  0.00  0.00     0.163 HD
BRANCH   3   6
ATOM      6  C   UNL d   1      -1.680  -5.631   0.846  0.00  0.00     0.072 A 
ATOM      7  S   UNL d   1      -3.029  -4.856   0.120  0.00  0.00    -0.097 SA
ATOM      8  C   UNL d   1      -4.100  -6.096   0.606  0.00  0.00     0.050 A 
ATOM      9  C   UNL d   1      -3.455  -7.086   1.312  0.00  0.00     0.009 A 
ATOM     10  C   UNL d   1      -2.063  -6.816   1.453  0.00  0.00     0.025 A 
ENDBRANCH   3   6
ENDBRANCH   1   2
BRANCH   1  11
ATOM     11  C   UNL d   1       0.793  -1.700   0.009  0.00  0.00    -0.022 A 
ATOM     12  C   UNL d   1       0.266  -1.067   1.121  0.00  0.00     0.060 A 
ATOM     13  S   UNL d   1       0.064   0.606   0.913  0.00  0.00    -0.101 SA
ATOM     14  C   UNL d   1       0.708   0.557  -0.679  0.00  0.00     0.015 A 
ATOM     15  C   UNL d   1       1.075  -0.743  -1.050  0.00  0.00    -0.011 A 
ATOM     16  C   UNL d   1       0.871   1.659  -1.545  0.00  0.00     0.019 A 
ATOM     17  C   UNL d   1       1.641  -0.910  -2.344  0.00  0.00     0.013 A 
ATOM     18  C   UNL d   1       1.809   0.184  -3.204  0.00  0.00     0.001 A 
ATOM     19  C   UNL d   1       1.423   1.455  -2.809  0.00  0.00     0.001 A 
ENDBRANCH   1  11
TORSDOF 3
