REMARK  3 active torsions:
REMARK  status: ('A' for Active; 'I' for Inactive)
REMARK    1  A    between atoms: C_9  and  C_3 
REMARK    2  A    between atoms: C_4  and  C_10 
REMARK    3  A    between atoms: C_10  and  C_9 
ROOT
ATOM      1  C   UNL d   1       1.382   0.572   0.040  0.00  0.00     0.294 A 
ATOM      2  O   UNL d   1       1.851  -0.710   0.047  0.00  0.00    -0.307 OA
ATOM      3  C   UNL d   1       0.792  -1.701   0.022  0.00  0.00     0.173 A 
ATOM      4  C   UNL d   1      -0.069   0.476   0.018  0.00  0.00     0.048 A 
ATOM      5  C   UNL d   1      -0.432  -0.858   0.030  0.00  0.00    -0.012 A 
ATOM      6  O   UNL d   1       2.046   1.585   0.082  0.00  0.00    -0.259 OA
ATOM      7  C   UNL d   1      -0.988   1.509   0.011  0.00  0.00     0.018 A 
ATOM      8  C   UNL d   1      -1.773  -1.208   0.031  0.00  0.00     0.011 A 
ATOM      9  C   UNL d   1      -2.340   1.167   0.013  0.00  0.00     0.001 A 
ATOM     10  C   UNL d   1      -2.728  -0.183   0.025  0.00  0.00     0.001 A 
ENDROOT
BRANCH   3  11
ATOM     11  C   UNL d   1       0.915  -2.609   1.237  0.00  0.00     0.121 C 
BRANCH  11  12
ATOM     12  C   UNL d   1       2.210  -3.397   1.163  0.00  0.00     0.169 C 
ATOM     13  O   UNL d   1       2.218  -4.439   0.504  0.00  0.00    -0.292 OA
BRANCH  12  14
ATOM     14  C   UNL d   1       3.381  -2.865   1.860  0.00  0.00     0.052 A 
ATOM     15  S   UNL d   1       4.845  -3.775   1.849  0.00  0.00    -0.074 SA
ATOM     16  C   UNL d   1       5.662  -2.590   2.733  0.00  0.00     0.075 A 
ATOM     17 CL   UNL d   1       7.320  -2.802   3.125  0.00  0.00    -0.076 Cl
ATOM     18  C   UNL d   1       4.877  -1.518   3.063  0.00  0.00     0.033 A 
ATOM     19  C   UNL d   1       3.547  -1.684   2.567  0.00  0.00     0.025 A 
ENDBRANCH  12  14
ENDBRANCH  11  12
ENDBRANCH   3  11
TORSDOF 3
