REMARK  3 active torsions:
REMARK  status: ('A' for Active; 'I' for Inactive)
REMARK       I    between atoms: N_3  and  C_1 
REMARK    1  A    between atoms: C_4  and  C_1 
REMARK    2  A    between atoms: C_2  and  N_6 
REMARK       I    between atoms: C_5  and  N_3 
REMARK       I    between atoms: N_9  and  C_5 
REMARK    3  A    between atoms: N_6  and  N_9 
ROOT
ATOM      1  C   UNL d   1       1.000  -0.196  -0.163  0.00  0.00     0.262 C 
ATOM      2  N   UNL d   1       0.400   0.919  -0.719  0.00  0.00    -0.274 N 
ATOM      3  C   UNL d   1       1.000   2.054  -1.206  0.00  0.00     0.337 C 
ATOM      4  N   UNL d   1       2.372   2.028  -1.315  0.00  0.00    -0.268 N 
ATOM      5  O   UNL d   1       2.216  -0.335  -0.061  0.00  0.00    -0.267 OA
ATOM      6  O   UNL d   1       0.317   3.028  -1.532  0.00  0.00    -0.246 OA
ATOM      7  H   UNL d   1      -0.608   1.006  -0.684  0.00  0.00     0.173 HD
ATOM      8  H   UNL d   1       2.863   1.326  -0.754  0.00  0.00     0.185 HD
ENDROOT
BRANCH   4   9
ATOM      9  N   UNL d   1       3.013   3.267  -1.427  0.00  0.00    -0.199 NA
ATOM     10  H   UNL d   1       2.365   4.005  -1.739  0.00  0.00     0.153 HD
BRANCH   9  11
ATOM     11  C   UNL d   1       4.257   3.330  -2.119  0.00  0.00     0.071 A 
ATOM     12  C   UNL d   1       5.170   2.266  -2.292  0.00  0.00     0.060 A 
ATOM     13  C   UNL d   1       6.444   2.482  -2.843  0.00  0.00     0.049 A 
ATOM     14 CL   UNL d   1       4.851   0.622  -1.849  0.00  0.00    -0.082 Cl
ATOM     15  C   UNL d   1       6.847   3.760  -3.206  0.00  0.00     0.037 A 
ATOM     16  C   UNL d   1       5.987   4.834  -3.046  0.00  0.00     0.049 A 
ATOM     17 CL   UNL d   1       8.428   4.011  -3.835  0.00  0.00    -0.084 Cl
ATOM     18  C   UNL d   1       4.713   4.617  -2.509  0.00  0.00     0.060 A 
ATOM     19 CL   UNL d   1       3.694   6.012  -2.325  0.00  0.00    -0.082 Cl
ENDBRANCH   9  11
ENDBRANCH   4   9
BRANCH   1  20
ATOM     20  C   UNL d   1       0.102  -1.282   0.314  0.00  0.00     0.070 A 
ATOM     21  C   UNL d   1      -1.238  -1.058   0.634  0.00  0.00     0.132 A 
ATOM     22  F   UNL d   1      -1.774   0.166   0.518  0.00  0.00    -0.205 F 
ATOM     23  C   UNL d   1      -2.051  -2.095   1.086  0.00  0.00     0.043 A 
ATOM     24  C   UNL d   1      -1.528  -3.381   1.214  0.00  0.00     0.003 A 
ATOM     25  C   UNL d   1      -0.191  -3.621   0.897  0.00  0.00     0.001 A 
ATOM     26  C   UNL d   1       0.624  -2.576   0.455  0.00  0.00     0.020 A 
ENDBRANCH   1  20
TORSDOF 3
