REMARK  5 active torsions:
REMARK  status: ('A' for Active; 'I' for Inactive)
REMARK    1  A    between atoms: C_6  and  C_1 
REMARK    2  A    between atoms: C_3  and  C_2 
REMARK    3  A    between atoms: O_9  and  C_3 
REMARK    4  A    between atoms: C_7  and  O_9 
REMARK    5  A    between atoms: C_14  and  C_8 
ROOT
ATOM      1  C   UNL d   1      -1.657  -0.353   0.149  0.00  0.00     0.087 A 
ATOM      2  C   UNL d   1      -0.328  -0.877   0.224  0.00  0.00     0.100 A 
ATOM      3  N   UNL d   1      -1.641   0.863  -0.426  0.00  0.00    -0.259 N 
ATOM      4  HN  UNL d   1      -2.453   1.433  -0.664  1.00  0.00     0.195 HD
ATOM      5  O   UNL d   1      -0.331   1.190  -0.632  0.00  0.00    -0.241 OA
ATOM      6  C   UNL d   1       0.461   0.165  -0.239  0.00  0.00     0.091 A 
ATOM      7  C   UNL d   1       1.911   0.441  -0.348  0.00  0.00     0.080 C 
ENDROOT
BRANCH   2   8
ATOM      8  C   UNL d   1       0.167  -2.147   0.726  0.00  0.00     0.303 C 
ATOM      9  O   UNL d   1      -0.426  -2.865   1.516  0.00  0.00    -0.259 OA
BRANCH   8  10
ATOM     10  O   UNL d   1       1.431  -2.445   0.189  0.00  0.00    -0.272 OA
BRANCH  10  11
ATOM     11  C   UNL d   1       2.432  -3.139   0.909  0.00  0.00     0.115 A 
ATOM     12  C   UNL d   1       3.185  -4.132   0.255  0.00  0.00     0.048 A 
ATOM     13  C   UNL d   1       4.272  -4.717   0.927  0.00  0.00     0.060 A 
ATOM     14  C   UNL d   1       4.614  -4.298   2.205  0.00  0.00     0.119 A 
ATOM     15  C   UNL d   1       3.894  -3.303   2.846  0.00  0.00     0.069 A 
ATOM     16  F   UNL d   1       5.678  -4.836   2.814  0.00  0.00    -0.206 F 
ATOM     17  C   UNL d   1       2.811  -2.711   2.197  0.00  0.00     0.071 A 
ATOM     18 CL   UNL d   1       2.072  -1.373   3.004  0.00  0.00    -0.081 Cl
BRANCH  12  19
ATOM     19  C   UNL d   1       2.954  -4.637  -1.129  0.00  0.00     0.158 C 
ATOM     20  O   UNL d   1       3.232  -5.810  -1.376  0.00  0.00    -0.293 OA
ATOM     21  C   UNL d   1       2.464  -3.727  -2.222  0.00  0.00     0.097 C 
ENDBRANCH  12  19
ENDBRANCH  10  11
ENDBRANCH   8  10
ENDBRANCH   2   8
BRANCH   1  22
ATOM     22  C   UNL d   1      -2.958  -0.910   0.522  0.00  0.00     0.037 A 
ATOM     23  C   UNL d   1      -3.821  -0.190   1.381  0.00  0.00     0.048 A 
ATOM     24 CL   UNL d   1      -3.321   1.230   2.244  0.00  0.00    -0.083 Cl
ATOM     25  C   UNL d   1      -5.145  -0.601   1.588  0.00  0.00     0.025 A 
ATOM     26  C   UNL d   1      -5.625  -1.752   0.974  0.00  0.00     0.003 A 
ATOM     27  C   UNL d   1      -4.776  -2.500   0.160  0.00  0.00     0.025 A 
ATOM     28  C   UNL d   1      -3.458  -2.080  -0.075  0.00  0.00     0.048 A 
ATOM     29 CL   UNL d   1      -2.532  -3.034  -1.187  0.00  0.00    -0.083 Cl
ENDBRANCH   1  22
TORSDOF 5
