REMARK  4 active torsions:
REMARK  status: ('A' for Active; 'I' for Inactive)
REMARK    1  A    between atoms: C_3  and  C_1 
REMARK    2  A    between atoms: N_4  and  C_2 
REMARK    3  A    between atoms: O_15  and  C_3 
REMARK    4  A    between atoms: C_8  and  N_4 
ROOT
ATOM      1  N   UNL d   1       2.289  -1.368  -0.164  0.00  0.00    -0.262 NA
ATOM      2  H   UNL d   1       2.998  -0.876  -0.722  0.00  0.00     0.133 HD
ENDROOT
BRANCH   1   3
ATOM      3  C   UNL d   1       1.143  -0.591  -0.054  0.00  0.00     0.012 A 
ATOM      4  C   UNL d   1       1.014   0.722  -0.331  0.00  0.00     0.044 A 
ATOM      5  C   UNL d   1      -0.324   1.342  -0.104  0.00  0.00     0.120 A 
ATOM      6  S   UNL d   1      -1.441  -0.017   0.336  0.00  0.00    -0.159 SA
ATOM      7  C   UNL d   1      -0.138  -1.279   0.366  0.00  0.00     0.126 A 
BRANCH   4   8
ATOM      8  C   UNL d   1       2.069   1.644  -0.802  0.00  0.00     0.291 C 
ATOM      9  O   UNL d   1       1.922   2.856  -0.838  0.00  0.00    -0.260 OA
BRANCH   8  10
ATOM     10  O   UNL d   1       3.170   0.967  -1.219  0.00  0.00    -0.323 OA
ATOM     11  C   UNL d   1       4.211   1.795  -1.745  0.00  0.00     0.213 C 
ENDBRANCH   8  10
ENDBRANCH   4   8
ENDBRANCH   1   3
BRANCH   1  12
ATOM     12  C   UNL d   1       2.965  -1.899   0.972  0.00  0.00     0.014 A 
ATOM     13  C   UNL d   1       2.723  -1.461   2.282  0.00  0.00     0.050 A 
ATOM     14  C   UNL d   1       3.467  -1.973   3.346  0.00  0.00     0.074 A 
ATOM     15 CL   UNL d   1       3.158  -1.403   4.942  0.00  0.00    -0.081 Cl
ATOM     16  C   UNL d   1       4.457  -2.920   3.111  0.00  0.00     0.138 A 
ATOM     17  C   UNL d   1       4.716  -3.364   1.818  0.00  0.00     0.046 A 
ATOM     18  F   UNL d   1       5.189  -3.419   4.120  0.00  0.00    -0.204 F 
ATOM     19  C   UNL d   1       3.975  -2.849   0.752  0.00  0.00     0.027 A 
ENDBRANCH   1  12
TORSDOF 4
