REMARK  10 active torsions:
REMARK  status: ('A' for Active; 'I' for Inactive)
REMARK    1  A    between atoms: N_4  and  C_1 
REMARK       I    between atoms: C_9  and  N_4 
REMARK    2  A    between atoms: C_7  and  C_5 
REMARK    3  A    between atoms: C_10  and  C_7 
REMARK    4  A    between atoms: C_18  and  C_9 
REMARK    5  A    between atoms: O_17  and  C_10 
REMARK    6  A    between atoms: C_11  and  C_19 
REMARK    7  A    between atoms: O_16  and  C_11 
REMARK    8  A    between atoms: O_15  and  C_18 
REMARK    9  A    between atoms: C_19  and  O_15 
REMARK   10  A    between atoms: C_20  and  O_17 
ROOT
ATOM      1  C   UNL d   1       0.131  -1.166   0.070  0.00  0.00     0.151 A 
ATOM      2  N   UNL d   1       1.344  -0.664   0.003  0.00  0.00    -0.339 N 
ATOM      3  HN  UNL d   1       2.205  -1.210  -0.040  1.00  0.00     0.168 HD
ATOM      4  C   UNL d   1       1.274   0.728  -0.003  0.00  0.00     0.027 A 
ATOM      5  S   UNL d   1      -1.143  -0.035   0.052  0.00  0.00    -0.064 SA
ATOM      6  C   UNL d   1      -0.011   1.238   0.033  0.00  0.00     0.078 A 
ENDROOT
BRANCH   1   7
ATOM      7  N   UNL d   1      -0.087  -2.521   0.111  0.00  0.00    -0.305 N 
ATOM      8  C   UNL d   1      -1.279  -3.133   0.437  0.00  0.00     0.247 C 
ATOM      9  O   UNL d   1      -2.325  -2.588   0.778  0.00  0.00    -0.271 OA
ATOM     10  H   UNL d   1       0.756  -3.071   0.025  0.00  0.00     0.171 HD
BRANCH   8  11
ATOM     11  C   UNL d   1      -1.204  -4.657   0.368  0.00  0.00     0.271 C 
BRANCH  11  12
ATOM     12  O   UNL d   1      -0.610  -5.191   1.554  0.00  0.00    -0.372 OA
BRANCH  12  13
ATOM     13  C   UNL d   1      -0.931  -6.577   1.712  0.00  0.00     0.277 C 
BRANCH  13  14
ATOM     14  C   UNL d   1      -0.070  -7.425   0.791  0.00  0.00     0.164 C 
ATOM     15  O   UNL d   1      -0.485  -8.327   0.083  0.00  0.00    -0.648 OA
BRANCH  14  16
ATOM     16  O   UNL d   1       1.232  -7.043   0.827  0.00  0.00    -0.775 OA
ATOM     17  H   UNL d   1       1.349  -6.284   1.437  0.00  0.00     0.167 HD
ENDBRANCH  14  16
ENDBRANCH  13  14
ENDBRANCH  12  13
ENDBRANCH  11  12
ENDBRANCH   8  11
ENDBRANCH   1   7
BRANCH   4  18
ATOM     18  C   UNL d   1       2.539   1.526  -0.008  0.00  0.00     0.168 C 
BRANCH  18  19
ATOM     19  C   UNL d   1       2.683   2.352  -1.268  0.00  0.00     0.264 C 
ATOM     20  O   UNL d   1       1.876   2.433  -2.184  0.00  0.00    -0.265 OA
BRANCH  19  21
ATOM     21  O   UNL d   1       3.901   2.974  -1.249  0.00  0.00    -0.322 OA
BRANCH  21  22
ATOM     22  C   UNL d   1       4.340   3.482  -2.517  0.00  0.00     0.174 C 
ATOM     23  C   UNL d   1       5.073   2.364  -3.236  0.00  0.00     0.034 C 
ENDBRANCH  21  22
ENDBRANCH  19  21
ENDBRANCH  18  19
ENDBRANCH   4  18
TORSDOF 10
