REMARK  0 active torsions:
REMARK  status: ('A' for Active; 'I' for Inactive)
ROOT
ATOM      1  C   UNL d   1       2.353  -1.035  -0.035  0.00  0.00     0.071 A 
ATOM      2  C   UNL d   1       3.361  -2.092  -0.106  0.00  0.00     0.261 A 
ATOM      3  C   UNL d   1       1.341  -3.094  -0.013  0.00  0.00     0.260 A 
ATOM      4  N   UNL d   1       2.685  -3.271  -0.077  0.00  0.00    -0.289 N 
ATOM      5  C   UNL d   1       1.109  -1.643   0.015  0.00  0.00     0.062 A 
ATOM      6  C   UNL d   1       2.441   0.333  -0.046  0.00  0.00     0.022 A 
ATOM      7  N   UNL d   1       1.305   1.082  -0.017  0.00  0.00    -0.358 N 
ATOM      8  HN  UNL d   1       1.369   2.100  -0.012  1.00  0.00     0.166 HD
ATOM      9  C   UNL d   1      -0.077  -0.912   0.033  0.00  0.00     0.007 A 
ATOM     10  C   UNL d   1       0.089   0.486   0.005  0.00  0.00     0.043 A 
ATOM     11  O   UNL d   1       4.560  -1.944  -0.201  0.00  0.00    -0.267 OA
ATOM     12  O   UNL d   1       0.493  -3.963  -0.000  0.00  0.00    -0.267 OA
ATOM     13  C   UNL d   1       3.723   1.099  -0.112  0.00  0.00     0.069 C 
ATOM     14  C   UNL d   1      -1.373  -1.474   0.049  0.00  0.00     0.015 A 
ATOM     15  C   UNL d   1      -1.050   1.278  -0.025  0.00  0.00     0.030 A 
ATOM     16  C   UNL d   1      -2.496  -0.652   0.005  0.00  0.00     0.001 A 
ATOM     17  C   UNL d   1      -2.335   0.727  -0.038  0.00  0.00     0.002 A 
ATOM     18  H   UNL d   1       3.128  -4.173  -0.140  0.00  0.00     0.172 HD
ENDROOT
TORSDOF 0
