REMARK  5 active torsions:
REMARK  status: ('A' for Active; 'I' for Inactive)
REMARK    1  A    between atoms: C_4  and  C_3 
REMARK    2  A    between atoms: O_15  and  C_5 
REMARK    3  A    between atoms: C_11  and  C_24 
REMARK       I    between atoms: N_13  and  C_11 
REMARK    4  A    between atoms: C_17  and  N_13 
REMARK    5  A    between atoms: C_24  and  O_15 
ROOT
ATOM      1  N   UNL d   1      -0.512   1.292   1.075  0.00  0.00    -0.352 N 
ATOM      2  HN  UNL d   1      -0.444   2.302   1.206  1.00  0.00     0.166 HD
ATOM      3  C   UNL d   1      -1.689   0.657   1.287  0.00  0.00     0.119 A 
ATOM      4  C   UNL d   1      -0.690  -1.470   0.737  0.00  0.00     0.084 A 
ATOM      5  C   UNL d   1      -1.802  -0.716   1.130  0.00  0.00     0.072 A 
ATOM      6  C   UNL d   1       0.561   0.589   0.694  0.00  0.00     0.045 A 
ATOM      7  C   UNL d   1       0.558  -0.815   0.490  0.00  0.00     0.024 A 
ATOM      8  C   UNL d   1       1.800  -1.387   0.078  0.00  0.00     0.016 A 
ATOM      9  C   UNL d   1       1.724   1.323   0.506  0.00  0.00     0.030 A 
ATOM     10  C   UNL d   1       2.956  -0.626  -0.117  0.00  0.00     0.001 A 
ATOM     11  C   UNL d   1       2.919   0.736   0.103  0.00  0.00     0.002 A 
ENDROOT
BRANCH   4  12
ATOM     12  O   UNL d   1      -1.018  -2.806   0.686  0.00  0.00    -0.341 OA
BRANCH  12  13
ATOM     13  C   UNL d   1      -0.145  -3.723   0.068  0.00  0.00     0.278 C 
BRANCH  13  14
ATOM     14  C   UNL d   1      -0.779  -5.094  -0.169  0.00  0.00     0.246 C 
ATOM     15  N   UNL d   1      -0.674  -5.942   0.923  0.00  0.00    -0.325 N 
ATOM     16  H   UNL d   1      -0.530  -5.510   1.828  0.00  0.00     0.169 HD
ATOM     17  O   UNL d   1      -1.264  -5.382  -1.261  0.00  0.00    -0.271 OA
BRANCH  15  18
ATOM     18  C   UNL d   1      -0.779  -7.351   0.898  0.00  0.00     0.037 A 
ATOM     19  C   UNL d   1      -0.807  -8.091  -0.290  0.00  0.00     0.069 A 
ATOM     20  C   UNL d   1      -0.832  -9.468  -0.203  0.00  0.00     0.107 A 
ATOM     21  O   UNL d   1      -0.832 -10.328  -1.257  0.00  0.00    -0.323 OA
ATOM     22  C   UNL d   1      -0.838 -10.121   1.005  0.00  0.00     0.105 A 
ATOM     23  C   UNL d   1      -0.840 -11.597  -0.573  0.00  0.00     0.352 A 
ATOM     24  O   UNL d   1      -0.852 -11.473   0.865  0.00  0.00    -0.323 OA
ATOM     25  C   UNL d   1      -0.817  -9.430   2.196  0.00  0.00     0.042 A 
ATOM     26  C   UNL d   1      -0.779  -8.030   2.137  0.00  0.00     0.032 A 
ENDBRANCH  15  18
ENDBRANCH  13  14
ENDBRANCH  12  13
ENDBRANCH   4  12
BRANCH   3  27
ATOM     27  C   UNL d   1      -2.908   1.463   1.711  0.00  0.00     0.432 C 
ATOM     28  F   UNL d   1      -2.677   2.799   1.855  0.00  0.00    -0.165 F 
ATOM     29  F   UNL d   1      -3.938   1.360   0.821  0.00  0.00    -0.165 F 
ATOM     30  F   UNL d   1      -3.418   1.046   2.907  0.00  0.00    -0.165 F 
ENDBRANCH   3  27
TORSDOF 5
