REMARK  3 active torsions:
REMARK  status: ('A' for Active; 'I' for Inactive)
REMARK    1  A    between atoms: N_5  and  C_1 
REMARK    2  A    between atoms: C_11  and  N_2 
REMARK       I    between atoms: C_7  and  N_5 
REMARK    3  A    between atoms: C_13  and  C_7 
ROOT
ATOM      1  C   UNL d   1       0.868  -0.928  -0.032  0.00  0.00     0.152 A 
ATOM      2  N   UNL d   1       0.390  -0.457   1.196  0.00  0.00    -0.239 N 
ATOM      3  N   UNL d   1      -0.854   0.089   1.058  0.00  0.00    -0.302 N 
ATOM      4  HN  UNL d   1      -1.453   0.462   1.794  1.00  0.00     0.186 HD
ATOM      5  C   UNL d   1      -0.100  -0.616  -0.964  0.00  0.00     0.107 A 
ATOM      6  C   UNL d   1      -1.114   0.028  -0.247  0.00  0.00     0.134 A 
ATOM      7  C   UNL d   1      -0.054  -0.853  -2.369  0.00  0.00     0.105 C 
ATOM      8  N   UNL d   1      -0.006  -1.007  -3.517  0.00  0.00    -0.191 NA
ENDROOT
BRANCH   1   9
ATOM      9  N   UNL d   1       2.052  -1.627  -0.244  0.00  0.00    -0.310 N 
ATOM     10  C   UNL d   1       2.040  -3.009  -0.033  0.00  0.00     0.227 C 
ATOM     11  O   UNL d   1       1.027  -3.677   0.141  0.00  0.00    -0.273 OA
ATOM     12  H   UNL d   1       2.907  -1.186   0.068  0.00  0.00     0.170 HD
BRANCH  10  13
ATOM     13  C   UNL d   1       3.464  -3.592   0.003  0.00  0.00     0.078 C 
ATOM     14  C   UNL d   1       4.204  -3.324  -1.316  0.00  0.00     0.014 C 
ATOM     15  C   UNL d   1       3.758  -4.267  -2.429  0.00  0.00     0.001 C 
ATOM     16  C   UNL d   1       3.968  -5.718  -2.019  0.00  0.00     0.000 C 
ATOM     17  C   UNL d   1       3.197  -6.043  -0.744  0.00  0.00     0.001 C 
ATOM     18  C   UNL d   1       3.525  -5.077   0.395  0.00  0.00     0.014 C 
ENDBRANCH  10  13
ENDBRANCH   1   9
BRANCH   2  19
ATOM     19  C   UNL d   1       0.998  -0.469   2.487  0.00  0.00     0.058 A 
ATOM     20  C   UNL d   1       2.389  -0.470   2.658  0.00  0.00     0.034 A 
ATOM     21  C   UNL d   1       2.938  -0.484   3.943  0.00  0.00     0.044 A 
ATOM     22  C   UNL d   1       2.103  -0.496   5.053  0.00  0.00     0.116 A 
ATOM     23  C   UNL d   1       0.723  -0.476   4.905  0.00  0.00     0.044 A 
ATOM     24  F   UNL d   1       2.638  -0.512   6.280  0.00  0.00    -0.206 F 
ATOM     25  C   UNL d   1       0.168  -0.448   3.623  0.00  0.00     0.034 A 
ENDBRANCH   2  19
TORSDOF 3
