REMARK  6 active torsions:
REMARK  status: ('A' for Active; 'I' for Inactive)
REMARK    1  A    between atoms: C_4  and  C_1 
REMARK    2  A    between atoms: C_2  and  C_3 
REMARK       I    between atoms: N_5  and  C_2 
REMARK    3  A    between atoms: C_6  and  C_4 
REMARK    4  A    between atoms: C_11  and  N_5 
REMARK    5  A    between atoms: O_21  and  C_13 
REMARK    6  A    between atoms: C_22  and  O_21 
ROOT
ATOM      1  C   UNL d   1       1.233  -0.464  -0.057  0.00  0.00     0.061 C 
ATOM      2  C   UNL d   1       0.535  -0.643  -1.191  0.00  0.00     0.078 C 
ENDROOT
BRANCH   1   3
ATOM      3  C   UNL d   1       2.693  -0.194  -0.104  0.00  0.00     0.182 C 
ATOM      4  O   UNL d   1       3.291  -0.099  -1.170  0.00  0.00    -0.288 OA
BRANCH   3   5
ATOM      5  C   UNL d   1       3.402   0.035   1.188  0.00  0.00     0.014 A 
ATOM      6  C   UNL d   1       3.047  -0.624   2.372  0.00  0.00     0.018 A 
ATOM      7  C   UNL d   1       3.737  -0.362   3.565  0.00  0.00     0.037 A 
ATOM      8  C   UNL d   1       4.790   0.554   3.588  0.00  0.00     0.068 A 
ATOM      9  C   UNL d   1       5.152   1.199   2.402  0.00  0.00     0.037 A 
ATOM     10  C   UNL d   1       4.470   0.938   1.208  0.00  0.00     0.018 A 
BRANCH   8  11
ATOM     11  O   UNL d   1       5.535   0.897   4.683  0.00  0.00    -0.352 OA
BRANCH  11  12
ATOM     12  C   UNL d   1       5.212   0.253   5.916  0.00  0.00     0.171 C 
ATOM     13  C   UNL d   1       6.156   0.762   6.992  0.00  0.00     0.034 C 
ENDBRANCH  11  12
ENDBRANCH   8  11
ENDBRANCH   3   5
ENDBRANCH   1   3
BRANCH   2  14
ATOM     14  C   UNL d   1      -0.941  -0.815  -1.083  0.00  0.00     0.245 C 
ATOM     15  N   UNL d   1      -1.567  -0.923  -2.311  0.00  0.00    -0.324 N 
ATOM     16  H   UNL d   1      -0.983  -0.934  -3.136  0.00  0.00     0.169 HD
ATOM     17  O   UNL d   1      -1.472  -0.850   0.017  0.00  0.00    -0.268 OA
BRANCH  15  18
ATOM     18  C   UNL d   1      -2.956  -1.090  -2.533  0.00  0.00     0.035 A 
ATOM     19  C   UNL d   1      -3.915  -1.056  -1.514  0.00  0.00     0.032 A 
ATOM     20  C   UNL d   1      -5.264  -1.298  -1.792  0.00  0.00     0.044 A 
ATOM     21  C   UNL d   1      -5.659  -1.564  -3.094  0.00  0.00     0.116 A 
ATOM     22  C   UNL d   1      -4.733  -1.563  -4.128  0.00  0.00     0.044 A 
ATOM     23  F   UNL d   1      -6.946  -1.827  -3.355  0.00  0.00    -0.206 F 
ATOM     24  C   UNL d   1      -3.383  -1.319  -3.850  0.00  0.00     0.032 A 
ENDBRANCH  15  18
ENDBRANCH   2  14
TORSDOF 6
