REMARK  4 active torsions:
REMARK  status: ('A' for Active; 'I' for Inactive)
REMARK    1  A    between atoms: C_4  and  C_1 
REMARK       I    between atoms: N_5  and  C_1 
REMARK    2  A    between atoms: C_3  and  C_2 
REMARK       I    between atoms: N_7  and  C_3 
REMARK    3  A    between atoms: C_6  and  N_5 
REMARK    4  A    between atoms: C_14  and  N_7 
ROOT
ATOM      1  C   UNL d   1       1.549  -2.777  -1.060  0.00  0.00     0.059 A 
ATOM      2  C   UNL d   1       2.563  -2.500  -0.120  0.00  0.00     0.050 A 
ATOM      3  C   UNL d   1       1.020  -4.080  -1.124  0.00  0.00     0.026 A 
ATOM      4  C   UNL d   1       3.072  -3.529   0.679  0.00  0.00     0.031 A 
ATOM      5  C   UNL d   1       1.458  -5.080  -0.242  0.00  0.00    -0.061 A 
ATOM      6  C   UNL d   1       2.503  -4.801   0.642  0.00  0.00     0.009 A 
ATOM      7  C   UNL d   1       0.777  -6.417  -0.213  0.00  0.00     0.048 C 
ENDROOT
BRANCH   2   8
ATOM      8  N   UNL d   1       3.100  -1.220   0.124  0.00  0.00    -0.322 N 
ATOM      9  C   UNL d   1       2.297  -0.128   0.423  0.00  0.00     0.261 C 
ATOM     10  O   UNL d   1       1.075  -0.217   0.491  0.00  0.00    -0.267 OA
ATOM     11  H   UNL d   1       4.074  -1.173   0.402  0.00  0.00     0.169 HD
BRANCH   9  12
ATOM     12  C   UNL d   1       3.002   1.165   0.717  0.00  0.00     0.092 A 
ATOM     13  C   UNL d   1       4.366   1.311   0.416  0.00  0.00     0.133 A 
ATOM     14  F   UNL d   1       5.106   0.264   0.019  0.00  0.00    -0.205 F 
ATOM     15  C   UNL d   1       5.027   2.534   0.536  0.00  0.00     0.043 A 
ATOM     16  C   UNL d   1       4.336   3.653   0.978  0.00  0.00     0.005 A 
ATOM     17  C   UNL d   1       3.001   3.523   1.349  0.00  0.00     0.025 A 
ATOM     18  C   UNL d   1       2.336   2.288   1.239  0.00  0.00     0.052 A 
ATOM     19 CL   UNL d   1       0.716   2.271   1.851  0.00  0.00    -0.083 Cl
ENDBRANCH   9  12
ENDBRANCH   2   8
BRANCH   1  20
ATOM     20  C   UNL d   1       1.180  -1.796  -2.132  0.00  0.00     0.258 C 
ATOM     21  N   UNL d   1      -0.147  -1.811  -2.541  0.00  0.00    -0.323 N 
ATOM     22  H   UNL d   1      -0.793  -2.337  -1.965  0.00  0.00     0.169 HD
ATOM     23  O   UNL d   1       2.074  -1.097  -2.610  0.00  0.00    -0.267 OA
BRANCH  21  24
ATOM     24  C   UNL d   1      -0.711  -1.109  -3.632  0.00  0.00     0.035 A 
ATOM     25  C   UNL d   1       0.035  -0.330  -4.522  0.00  0.00     0.031 A 
ATOM     26  C   UNL d   1      -0.579   0.324  -5.596  0.00  0.00     0.026 A 
ATOM     27  C   UNL d   1      -1.950   0.200  -5.790  0.00  0.00     0.034 A 
ATOM     28  C   UNL d   1      -2.712  -0.569  -4.916  0.00  0.00     0.026 A 
ATOM     29 CL   UNL d   1      -2.698   0.993  -7.121  0.00  0.00    -0.084 Cl
ATOM     30  C   UNL d   1      -2.094  -1.222  -3.841  0.00  0.00     0.031 A 
ENDBRANCH  21  24
ENDBRANCH   1  20
TORSDOF 4
