REMARK  3 active torsions:
REMARK  status: ('A' for Active; 'I' for Inactive)
REMARK    1  A    between atoms: C_9  and  C_3 
REMARK    2  A    between atoms: C_10  and  C_6 
REMARK    3  A    between atoms: N_8  and  C_10 
ROOT
ATOM      1  N   UNL d   1       0.548   0.121  -1.079  0.00  0.00    -0.321 N 
ATOM      2  HN  UNL d   1       0.999   0.091  -1.994  1.00  0.00     0.169 HD
ATOM      3  C   UNL d   1      -0.040   1.189  -0.443  0.00  0.00     0.137 C 
ATOM      4  N   UNL d   1      -0.666   0.863   0.703  0.00  0.00    -0.242 N 
ATOM      5  HN  UNL d   1      -1.218   1.465   1.314  1.00  0.00     0.196 HD
ATOM      6  C   UNL d   1       0.382  -0.852  -0.210  0.00  0.00     0.177 C 
ATOM      7  O   UNL d   1      -0.384  -0.492   0.859  0.00  0.00    -0.221 OA
ENDROOT
BRANCH   3   8
ATOM      8  C   UNL d   1       0.159   2.554  -0.905  0.00  0.00     0.010 A 
ATOM      9  C   UNL d   1       0.513   2.805  -2.239  0.00  0.00     0.017 A 
ATOM     10  C   UNL d   1       0.774   4.111  -2.668  0.00  0.00     0.025 A 
ATOM     11  C   UNL d   1       0.692   5.168  -1.762  0.00  0.00     0.034 A 
ATOM     12  C   UNL d   1       0.351   4.933  -0.433  0.00  0.00     0.025 A 
ATOM     13 CL   UNL d   1       1.024   6.772  -2.287  0.00  0.00    -0.084 Cl
ATOM     14  C   UNL d   1       0.081   3.630  -0.007  0.00  0.00     0.017 A 
ENDBRANCH   3   8
BRANCH   6  15
ATOM     15  C   UNL d   1       1.040  -2.189  -0.143  0.00  0.00     0.358 C 
BRANCH  15  16
ATOM     16  N   UNL d   1       2.515  -2.186  -0.008  0.00  0.00     0.096 N 
ATOM     17  C   UNL d   1       3.010  -1.494   1.188  0.00  0.00     0.273 C 
ATOM     18  C   UNL d   1       3.355  -0.080   0.755  0.00  0.00     0.032 C 
ATOM     19  C   UNL d   1       3.733  -0.215  -0.710  0.00  0.00     0.032 C 
ATOM     20  C   UNL d   1       3.206  -1.577  -1.153  0.00  0.00     0.273 C 
ENDBRANCH  15  16
ENDBRANCH   6  15
TORSDOF 3
