REMARK  1 active torsions:
REMARK  status: ('A' for Active; 'I' for Inactive)
REMARK    1  A    between atoms: C_12  and  C_5 
ROOT
ATOM      1  N   UNL d   1       1.403  -0.623  -0.016  0.00  0.00    -0.347 N 
ATOM      2  HN  UNL d   1       2.287  -1.131  -0.018  1.00  0.00     0.167 HD
ATOM      3  C   UNL d   1       0.209  -1.182  -0.017  0.00  0.00     0.111 A 
ATOM      4  C   UNL d   1       0.022  -2.603   0.008  0.00  0.00     0.134 A 
ATOM      5  C   UNL d   1       1.281   0.760  -0.012  0.00  0.00     0.050 A 
ATOM      6  S   UNL d   1      -1.116  -0.091  -0.043  0.00  0.00    -0.079 SA
ATOM      7  C   UNL d   1      -0.020   1.226  -0.036  0.00  0.00     0.082 A 
ATOM      8  N   UNL d   1      -1.062  -4.586   0.000  0.00  0.00    -0.272 N 
ATOM      9  HN  UNL d   1      -1.802  -5.288  -0.025  1.00  0.00     0.194 HD
ATOM     10  O   UNL d   1      -1.206  -3.210  -0.048  0.00  0.00    -0.236 OA
ATOM     11  C   UNL d   1       0.977  -3.597   0.092  0.00  0.00     0.061 A 
ATOM     12  C   UNL d   1       0.251  -4.798   0.086  0.00  0.00     0.117 A 
ENDROOT
BRANCH   5  13
ATOM     13  C   UNL d   1       2.455   1.625  -0.019  0.00  0.00    -0.006 A 
ATOM     14  C   UNL d   1       3.638   1.179  -0.622  0.00  0.00     0.056 A 
ATOM     15  C   UNL d   1       4.756   2.007  -0.653  0.00  0.00     0.117 A 
ATOM     16  F   UNL d   1       5.877   1.577  -1.246  0.00  0.00    -0.206 F 
ATOM     17  C   UNL d   1       4.729   3.275  -0.085  0.00  0.00     0.042 A 
ATOM     18  C   UNL d   1       3.565   3.723   0.534  0.00  0.00     0.004 A 
ATOM     19  C   UNL d   1       2.434   2.902   0.568  0.00  0.00     0.014 A 
ENDBRANCH   5  13
TORSDOF 1
