REMARK  10 active torsions:
REMARK  status: ('A' for Active; 'I' for Inactive)
REMARK    1  A    between atoms: C_3  and  C_1 
REMARK    2  A    between atoms: C_4  and  C_1 
REMARK    3  A    between atoms: N_6  and  C_2 
REMARK    4  A    between atoms: O_18  and  C_3 
REMARK    5  A    between atoms: O_17  and  C_4 
REMARK    6  A    between atoms: O_5  and  C_9 
REMARK    7  A    between atoms: C_7  and  O_5 
REMARK    8  A    between atoms: C_11  and  N_6 
REMARK    9  A    between atoms: C_24  and  O_17 
REMARK   10  A    between atoms: C_23  and  O_18 
ROOT
ATOM      1  C   UNL d   1       0.552   1.714  -4.583  0.00  0.00     0.102 A 
ATOM      2  C   UNL d   1       0.151   1.421  -3.258  0.00  0.00     0.066 A 
ATOM      3  C   UNL d   1      -0.303   2.443  -5.427  0.00  0.00     0.039 A 
ATOM      4  C   UNL d   1      -1.063   1.963  -2.801  0.00  0.00     0.032 A 
ATOM      5  C   UNL d   1      -1.492   2.985  -4.938  0.00  0.00     0.003 A 
ATOM      6  C   UNL d   1      -1.862   2.761  -3.619  0.00  0.00     0.002 A 
ENDROOT
BRANCH   2   7
ATOM      7  N   UNL d   1       0.899   0.535  -2.450  0.00  0.00    -0.362 N 
ATOM      8  H   UNL d   1       1.894   0.462  -2.684  0.00  0.00     0.165 HD
BRANCH   7   9
ATOM      9  C   UNL d   1       0.459  -0.181  -1.355  0.00  0.00     0.112 C 
ATOM     10  C   UNL d   1       1.138  -0.969  -0.494  0.00  0.00     0.129 C 
BRANCH  10  11
ATOM     11  C   UNL d   1       0.383  -1.734   0.536  0.00  0.00     0.300 C 
ATOM     12  O   UNL d   1       0.746  -2.792   1.034  0.00  0.00    -0.259 OA
BRANCH  11  13
ATOM     13  O   UNL d   1      -0.803  -1.126   0.826  0.00  0.00    -0.318 OA
BRANCH  13  14
ATOM     14  C   UNL d   1      -1.728  -1.885   1.621  0.00  0.00     0.174 C 
ATOM     15  C   UNL d   1      -2.591  -2.725   0.699  0.00  0.00     0.034 C 
ENDBRANCH  13  14
ENDBRANCH  11  13
ENDBRANCH  10  11
BRANCH  10  16
ATOM     16  C   UNL d   1       2.587  -1.148  -0.729  0.00  0.00     0.300 C 
ATOM     17  O   UNL d   1       3.249  -0.439  -1.483  0.00  0.00    -0.259 OA
BRANCH  16  18
ATOM     18  O   UNL d   1       3.060  -2.249  -0.103  0.00  0.00    -0.318 OA
BRANCH  18  19
ATOM     19  C   UNL d   1       4.318  -2.742  -0.582  0.00  0.00     0.174 C 
ATOM     20  C   UNL d   1       4.059  -3.649  -1.771  0.00  0.00     0.034 C 
ENDBRANCH  18  19
ENDBRANCH  16  18
ENDBRANCH  10  16
ENDBRANCH   7   9
ENDBRANCH   2   7
BRANCH   1  21
ATOM     21  O   UNL d   1       1.794   1.246  -4.991  0.00  0.00    -0.307 OA
BRANCH  21  22
ATOM     22  C   UNL d   1       2.402   1.827  -6.088  0.00  0.00     0.098 A 
ATOM     23  C   UNL d   1       2.715   3.194  -6.199  0.00  0.00     0.069 A 
ATOM     24  C   UNL d   1       3.283   3.689  -7.378  0.00  0.00     0.050 A 
ATOM     25 CL   UNL d   1       2.456   4.322  -4.915  0.00  0.00    -0.081 Cl
ATOM     26  C   UNL d   1       3.606   2.816  -8.412  0.00  0.00     0.035 A 
ATOM     27  C   UNL d   1       3.375   1.448  -8.282  0.00  0.00     0.026 A 
ATOM     28 CL   UNL d   1       4.315   3.429  -9.856  0.00  0.00    -0.084 Cl
ATOM     29  C   UNL d   1       2.771   0.954  -7.121  0.00  0.00     0.041 A 
ENDBRANCH  21  22
ENDBRANCH   1  21
TORSDOF 10
