REMARK  7 active torsions:
REMARK  status: ('A' for Active; 'I' for Inactive)
REMARK    1  A    between atoms: C_8  and  C_1 
REMARK    2  A    between atoms: O_5  and  C_2 
REMARK    3  A    between atoms: S_3  and  O_5 
REMARK    4  A    between atoms: C_9  and  S_3 
REMARK    5  A    between atoms: O_18  and  C_8 
REMARK    6  A    between atoms: O_19  and  C_13 
REMARK    7  A    between atoms: O_21  and  C_14 
ROOT
ATOM      1  O   UNL d   1       0.982  -3.046   0.058  0.00  0.00    -0.227 OA
ENDROOT
BRANCH   1   2
ATOM      2  S   UNL d   1      -0.226  -4.117   0.210  0.00  0.00     0.303 S 
ATOM      3  O   UNL d   1      -1.181  -3.921  -0.863  0.00  0.00    -0.193 OA
ATOM      4  O   UNL d   1       0.356  -5.422   0.473  0.00  0.00    -0.193 OA
BRANCH   2   5
ATOM      5  C   UNL d   1      -1.105  -3.686   1.698  0.00  0.00     0.089 A 
ATOM      6  C   UNL d   1      -2.148  -4.537   2.091  0.00  0.00     0.065 A 
ATOM      7  C   UNL d   1      -2.883  -4.283   3.258  0.00  0.00     0.102 A 
ATOM      8  C   UNL d   1      -2.598  -3.129   4.006  0.00  0.00     0.101 A 
ATOM      9  C   UNL d   1      -1.549  -2.285   3.591  0.00  0.00     0.041 A 
ATOM     10  C   UNL d   1      -0.792  -2.558   2.448  0.00  0.00     0.029 A 
BRANCH   7  11
ATOM     11  O   UNL d   1      -3.904  -5.108   3.650  0.00  0.00    -0.353 OA
ATOM     12  C   UNL d   1      -3.734  -6.494   3.362  0.00  0.00     0.210 C 
ENDBRANCH   7  11
BRANCH   8  13
ATOM     13  O   UNL d   1      -3.208  -2.678   5.147  0.00  0.00    -0.353 OA
ATOM     14  C   UNL d   1      -4.282  -3.426   5.699  0.00  0.00     0.210 C 
ENDBRANCH   8  13
ENDBRANCH   2   5
ENDBRANCH   1   2
BRANCH   1  15
ATOM     15  C   UNL d   1       1.782  -2.883  -1.030  0.00  0.00     0.124 A 
ATOM     16  C   UNL d   1       2.669  -1.815  -1.017  0.00  0.00     0.116 A 
ATOM     17  S   UNL d   1       3.544  -1.708  -2.475  0.00  0.00    -0.081 SA
ATOM     18  C   UNL d   1       2.745  -3.057  -3.164  0.00  0.00     0.019 A 
ATOM     19  C   UNL d   1       2.932  -3.538  -4.478  0.00  0.00     0.020 A 
ATOM     20  C   UNL d   1       1.861  -3.660  -2.258  0.00  0.00     0.017 A 
ATOM     21  C   UNL d   1       2.230  -4.664  -4.899  0.00  0.00     0.001 A 
ATOM     22  C   UNL d   1       1.400  -5.328  -4.016  0.00  0.00     0.001 A 
ATOM     23  C   UNL d   1       1.224  -4.849  -2.711  0.00  0.00     0.016 A 
BRANCH  16  24
ATOM     24  C   UNL d   1       2.869  -0.849   0.055  0.00  0.00     0.302 C 
ATOM     25  O   UNL d   1       2.241  -0.834   1.110  0.00  0.00    -0.259 OA
BRANCH  24  26
ATOM     26  O   UNL d   1       3.848   0.052  -0.249  0.00  0.00    -0.322 OA
ATOM     27  C   UNL d   1       4.081   1.033   0.761  0.00  0.00     0.213 C 
ENDBRANCH  24  26
ENDBRANCH  16  24
ENDBRANCH   1  15
TORSDOF 7
