REMARK  4 active torsions:
REMARK  status: ('A' for Active; 'I' for Inactive)
REMARK    1  A    between atoms: C_2  and  S_1 
REMARK    2  A    between atoms: N_3  and  S_1 
REMARK    3  A    between atoms: N_6  and  N_3 
REMARK    4  A    between atoms: C_16  and  C_15 
ROOT
ATOM      1  N   UNL d   1       0.545  -1.586  -0.204  0.00  0.00    -0.223 N 
ATOM      2  H   UNL d   1      -0.179  -1.926   0.428  0.00  0.00     0.200 HD
ENDROOT
BRANCH   1   3
ATOM      3  S   UNL d   1       1.156  -0.018   0.053  0.00  0.00     0.276 S 
ATOM      4  O   UNL d   1       2.513  -0.122   0.546  0.00  0.00    -0.199 OA
ATOM      5  O   UNL d   1       0.814   0.820  -1.077  0.00  0.00    -0.199 OA
BRANCH   3   6
ATOM      6  C   UNL d   1       0.144   0.517   1.419  0.00  0.00     0.082 A 
ATOM      7  C   UNL d   1       0.587   0.311   2.728  0.00  0.00     0.050 A 
ATOM      8  C   UNL d   1      -0.194   0.760   3.797  0.00  0.00     0.057 A 
ATOM      9 CL   UNL d   1       0.393   0.468   5.396  0.00  0.00    -0.083 Cl
ATOM     10  C   UNL d   1      -1.406   1.420   3.553  0.00  0.00     0.055 A 
ATOM     11  C   UNL d   1      -1.830   1.638   2.237  0.00  0.00     0.027 A 
ATOM     12 CL   UNL d   1      -2.426   1.987   4.827  0.00  0.00    -0.083 Cl
ATOM     13  C   UNL d   1      -1.054   1.191   1.165  0.00  0.00     0.027 A 
ENDBRANCH   3   6
ENDBRANCH   1   3
BRANCH   1  14
ATOM     14  N   UNL d   1       0.956  -2.303  -1.376  0.00  0.00    -0.301 N 
ATOM     15  C   UNL d   1       0.452  -3.484  -1.517  0.00  0.00     0.120 C 
ATOM     16  HN  UNL d   1       1.605  -1.905  -2.055  1.00  0.00     0.186 HD
BRANCH  15  17
ATOM     17  C   UNL d   1       0.761  -4.307  -2.698  0.00  0.00    -0.004 A 
ATOM     18  C   UNL d   1       0.195  -5.567  -2.827  0.00  0.00     0.100 A 
ATOM     19  N   UNL d   1       0.391  -6.370  -3.901  0.00  0.00    -0.374 N 
ATOM     20  C   UNL d   1       1.188  -5.889  -4.882  0.00  0.00     0.087 A 
ATOM     21  HN  UNL d   1      -0.041  -7.292  -3.966  1.00  0.00     0.164 HD
ATOM     22  C   UNL d   1       1.808  -4.649  -4.835  0.00  0.00     0.018 A 
ATOM     23  C   UNL d   1       1.590  -3.845  -3.719  0.00  0.00     0.015 A 
ENDBRANCH  15  17
ENDBRANCH   1  14
TORSDOF 4
