REMARK  2 active torsions:
REMARK  status: ('A' for Active; 'I' for Inactive)
REMARK    1  A    between atoms: S_8  and  C_3 
REMARK    2  A    between atoms: C_13  and  S_8 
ROOT
ATOM      1  C   UNL d   1      -4.391   3.938  -1.720  0.00  0.00     0.060 A 
ATOM      2  C   UNL d   1      -5.073   3.923  -2.926  0.00  0.00     0.137 A 
ATOM      3  C   UNL d   1      -3.253   3.140  -1.645  0.00  0.00     0.091 A 
ATOM      4  N   UNL d   1      -6.232   5.286  -1.517  0.00  0.00    -0.307 N 
ATOM      5  HN  UNL d   1      -6.936   5.926  -1.150  1.00  0.00     0.186 HD
ATOM      6  N   UNL d   1      -6.170   4.722  -2.746  0.00  0.00    -0.281 N 
ATOM      7  C   UNL d   1      -5.147   4.801  -0.900  0.00  0.00     0.125 A 
ATOM      8  N   UNL d   1      -4.736   3.233  -4.030  0.00  0.00    -0.337 N 
ATOM      9  HN  UNL d   1      -5.265   3.252  -4.902  1.00  0.00     0.168 HD
ATOM     10  N   UNL d   1      -2.866   2.423  -2.727  0.00  0.00    -0.346 N 
ATOM     11  HN  UNL d   1      -2.035   1.832  -2.697  1.00  0.00     0.167 HD
ATOM     12  C   UNL d   1      -3.615   2.515  -3.842  0.00  0.00     0.183 A 
ATOM     13  C   UNL d   1      -7.235   4.956  -3.690  0.00  0.00     0.179 C 
ENDROOT
BRANCH   3  14
ATOM     14  S   UNL d   1      -2.421   2.901  -0.108  0.00  0.00    -0.071 SA
BRANCH  14  15
ATOM     15  C   UNL d   1      -1.119   4.141  -0.151  0.00  0.00     0.018 A 
ATOM     16  C   UNL d   1      -0.940   5.072   0.915  0.00  0.00    -0.009 A 
ATOM     17  C   UNL d   1       0.165   5.962   0.858  0.00  0.00    -0.025 A 
ATOM     18  C   UNL d   1      -1.788   5.167   2.048  0.00  0.00     0.013 A 
ATOM     19  C   UNL d   1       0.384   6.884   1.895  0.00  0.00     0.012 A 
ATOM     20  C   UNL d   1       1.048   5.914  -0.230  0.00  0.00     0.012 A 
ATOM     21  C   UNL d   1      -0.470   6.949   2.994  0.00  0.00     0.001 A 
ATOM     22  C   UNL d   1      -1.558   6.091   3.070  0.00  0.00     0.001 A 
ATOM     23  C   UNL d   1       0.863   4.998  -1.264  0.00  0.00     0.002 A 
ATOM     24  C   UNL d   1      -0.210   4.114  -1.220  0.00  0.00     0.020 A 
ENDBRANCH  14  15
ENDBRANCH   3  14
TORSDOF 2
