REMARK  2 active torsions:
REMARK  status: ('A' for Active; 'I' for Inactive)
REMARK    1  A    between atoms: C_8  and  C_3 
REMARK    2  A    between atoms: C_9  and  C_6 
ROOT
ATOM      1  N   UNL d   1       1.089   0.643  -0.144  0.00  0.00    -0.309 N 
ATOM      2  HN  UNL d   1       1.928   1.213  -0.254  1.00  0.00     0.170 HD
ATOM      3  C   UNL d   1       1.034  -0.654  -0.056  0.00  0.00     0.051 A 
ATOM      4  C   UNL d   1      -0.200   1.088  -0.058  0.00  0.00     0.321 A 
ATOM      5  N   UNL d   1      -1.043   0.025   0.055  0.00  0.00    -0.329 N 
ATOM      6  C   UNL d   1      -0.358  -1.228   0.107  0.00  0.00     0.170 A 
ATOM      7  O   UNL d   1      -0.571   2.251  -0.077  0.00  0.00    -0.247 OA
ATOM      8  H   UNL d   1      -2.042   0.161   0.098  0.00  0.00     0.165 HD
ENDROOT
BRANCH   3   9
ATOM      9  C   UNL d   1       2.231  -1.520  -0.124  0.00  0.00    -0.011 A 
ATOM     10  C   UNL d   1       2.223  -2.818   0.400  0.00  0.00     0.013 A 
ATOM     11  C   UNL d   1       3.352  -3.628   0.267  0.00  0.00     0.001 A 
ATOM     12  C   UNL d   1       4.486  -3.147  -0.388  0.00  0.00     0.000 A 
ATOM     13  C   UNL d   1       4.502  -1.850  -0.897  0.00  0.00     0.001 A 
ATOM     14  C   UNL d   1       3.379  -1.032  -0.760  0.00  0.00     0.013 A 
ENDBRANCH   3   9
BRANCH   6  15
ATOM     15  C   UNL d   1      -0.843  -2.170  -0.965  0.00  0.00    -0.030 A 
ATOM     16  C   UNL d   1      -1.767  -3.174  -0.629  0.00  0.00     0.009 A 
ATOM     17  C   UNL d   1      -2.280  -4.030  -1.606  0.00  0.00     0.001 A 
ATOM     18  C   UNL d   1      -1.876  -3.896  -2.932  0.00  0.00     0.000 A 
ATOM     19  C   UNL d   1      -0.957  -2.911  -3.281  0.00  0.00     0.001 A 
ATOM     20  C   UNL d   1      -0.448  -2.049  -2.307  0.00  0.00     0.009 A 
ENDBRANCH   6  15
TORSDOF 2
