REMARK  5 active torsions:
REMARK  status: ('A' for Active; 'I' for Inactive)
REMARK    1  A    between atoms: C_2  and  S_1 
REMARK    2  A    between atoms: N_8  and  S_1 
REMARK    3  A    between atoms: C_13  and  N_8 
REMARK    4  A    between atoms: O_12  and  C_14 
REMARK    5  A    between atoms: C_15  and  O_12 
ROOT
ATOM      1  C   UNL d   1       0.787  -2.371   1.399  0.00  0.00     0.023 A 
ATOM      2  C   UNL d   1       1.748  -4.987   1.565  0.00  0.00     0.076 A 
ATOM      3  C   UNL d   1       2.155  -2.619   1.265  0.00  0.00     0.027 A 
ATOM      4  C   UNL d   1      -0.090  -3.422   1.662  0.00  0.00     0.027 A 
ATOM      5  C   UNL d   1       2.639  -3.924   1.382  0.00  0.00     0.039 A 
ATOM      6  C   UNL d   1       0.390  -4.730   1.752  0.00  0.00     0.039 A 
ENDROOT
BRANCH   1   7
ATOM      7  N   UNL d   1       0.258  -1.059   1.208  0.00  0.00    -0.181 NA
ATOM      8  H   UNL d   1       0.839  -0.325   1.614  0.00  0.00     0.146 HD
BRANCH   7   9
ATOM      9  S   UNL d   1      -0.072  -0.604  -0.401  0.00  0.00     0.251 S 
ATOM     10  O   UNL d   1      -0.562   0.753  -0.358  0.00  0.00    -0.205 OA
ATOM     11  O   UNL d   1       1.080  -0.955  -1.205  0.00  0.00    -0.205 OA
BRANCH   9  12
ATOM     12  C   UNL d   1      -1.386  -1.504  -1.028  0.00  0.00     0.138 A 
ATOM     13  C   UNL d   1      -2.616  -1.661  -0.438  0.00  0.00     0.144 A 
ATOM     14  N   UNL d   1      -3.376  -2.406  -1.286  0.00  0.00    -0.284 N 
ATOM     15 CL   UNL d   1      -3.249  -1.081   1.033  0.00  0.00    -0.061 Cl
ATOM     16  C   UNL d   1      -4.751  -2.835  -1.169  0.00  0.00     0.179 C 
ATOM     17  N   UNL d   1      -2.707  -2.757  -2.404  0.00  0.00    -0.301 N 
ATOM     18  C   UNL d   1      -1.499  -2.181  -2.270  0.00  0.00     0.048 A 
ATOM     19  HN  UNL d   1      -3.042  -3.331  -3.177  1.00  0.00     0.187 HD
ATOM     20  C   UNL d   1      -0.545  -2.334  -3.401  0.00  0.00     0.071 C 
ENDBRANCH   9  12
ENDBRANCH   7   9
ENDBRANCH   1   7
BRANCH   2  21
ATOM     21  O   UNL d   1       2.135  -6.307   1.608  0.00  0.00    -0.311 OA
BRANCH  21  22
ATOM     22  C   UNL d   1       3.067  -6.764   0.700  0.00  0.00     0.076 A 
ATOM     23  C   UNL d   1       3.813  -7.878   1.099  0.00  0.00     0.040 A 
ATOM     24  C   UNL d   1       4.816  -8.383   0.268  0.00  0.00     0.045 A 
ATOM     25  C   UNL d   1       5.062  -7.772  -0.957  0.00  0.00     0.116 A 
ATOM     26  C   UNL d   1       4.295  -6.697  -1.387  0.00  0.00     0.045 A 
ATOM     27  F   UNL d   1       6.051  -8.229  -1.736  0.00  0.00    -0.206 F 
ATOM     28  C   UNL d   1       3.274  -6.210  -0.570  0.00  0.00     0.040 A 
ENDBRANCH  21  22
ENDBRANCH   2  21
TORSDOF 5
