REMARK  5 active torsions:
REMARK  status: ('A' for Active; 'I' for Inactive)
REMARK    1  A    between atoms: C_3  and  C_1 
REMARK    2  A    between atoms: O_12  and  C_1 
REMARK    3  A    between atoms: C_4  and  O_5 
REMARK    4  A    between atoms: O_5  and  C_13 
REMARK    5  A    between atoms: C_13  and  C_14 
ROOT
ATOM      1  C   UNL d   1       0.444  -0.822  -1.157  0.00  0.00     0.037 A 
ATOM      2  C   UNL d   1      -0.776  -1.404  -0.792  0.00  0.00     0.019 A 
ATOM      3  C   UNL d   1       0.977  -1.067  -2.429  0.00  0.00     0.019 A 
ATOM      4  C   UNL d   1      -0.945  -2.443  -2.986  0.00  0.00    -0.034 A 
ATOM      5  C   UNL d   1      -1.467  -2.205  -1.704  0.00  0.00     0.010 A 
ATOM      6  C   UNL d   1       0.281  -1.866  -3.341  0.00  0.00     0.010 A 
ENDROOT
BRANCH   4   7
ATOM      7  C   UNL d   1      -1.723  -3.285  -3.973  0.00  0.00     0.214 C 
BRANCH   7   8
ATOM      8  O   UNL d   1      -0.934  -4.390  -4.427  0.00  0.00    -0.346 OA
BRANCH   8   9
ATOM      9  C   UNL d   1      -1.578  -5.270  -5.264  0.00  0.00     0.075 A 
ATOM     10  C   UNL d   1      -0.796  -5.968  -6.202  0.00  0.00    -0.027 A 
ATOM     11  C   UNL d   1      -1.425  -6.857  -7.095  0.00  0.00     0.033 A 
ATOM     12  C   UNL d   1       0.689  -5.769  -6.336  0.00  0.00     0.051 C 
ATOM     13  C   UNL d   1      -2.796  -7.087  -7.020  0.00  0.00     0.034 A 
ATOM     14  C   UNL d   1      -3.560  -6.440  -6.059  0.00  0.00     0.026 A 
ATOM     15 CL   UNL d   1      -3.549  -8.183  -8.111  0.00  0.00    -0.084 Cl
ATOM     16  C   UNL d   1      -2.952  -5.539  -5.183  0.00  0.00     0.039 A 
ENDBRANCH   8   9
ENDBRANCH   7   8
ENDBRANCH   4   7
BRANCH   1  17
ATOM     17  C   UNL d   1       1.144   0.015  -0.154  0.00  0.00     0.176 C 
ATOM     18  O   UNL d   1       1.077  -0.189   1.043  0.00  0.00    -0.646 OA
BRANCH  17  19
ATOM     19  O   UNL d   1       1.818   1.053  -0.694  0.00  0.00    -0.773 OA
ATOM     20  H   UNL d   1       1.641   1.211  -1.638  0.00  0.00     0.167 HD
ENDBRANCH  17  19
ENDBRANCH   1  17
TORSDOF 5
