REMARK  3 active torsions:
REMARK  status: ('A' for Active; 'I' for Inactive)
REMARK    1  A    between atoms: C_14  and  C_3 
REMARK    2  A    between atoms: C_17  and  C_4 
REMARK    3  A    between atoms: C_7  and  C_16 
ROOT
ATOM      1  N   UNL d   1       6.844   4.887   0.167  0.00  0.00    -0.191 NA
ATOM      2  C   UNL d   1       5.923   4.180   0.118  0.00  0.00     0.099 C 
ATOM      3  C   UNL d   1       2.512   1.650  -0.010  0.00  0.00    -0.009 A 
ATOM      4  C   UNL d   1       2.475   2.934  -0.578  0.00  0.00     0.015 A 
ATOM      5  C   UNL d   1       3.706   1.205   0.571  0.00  0.00     0.015 A 
ATOM      6  C   UNL d   1       4.778   3.320   0.062  0.00  0.00     0.044 A 
ATOM      7  C   UNL d   1       3.599   3.766  -0.540  0.00  0.00     0.023 A 
ATOM      8  C   UNL d   1       4.832   2.036   0.612  0.00  0.00     0.023 A 
ENDROOT
BRANCH   3   9
ATOM      9  C   UNL d   1       1.335   0.787  -0.010  0.00  0.00     0.050 A 
ATOM     10  N   UNL d   1       1.439  -0.597   0.013  0.00  0.00    -0.349 N 
ATOM     11  C   UNL d   1       0.239  -1.149  -0.031  0.00  0.00     0.084 A 
ATOM     12  HN  UNL d   1       2.316  -1.114   0.057  1.00  0.00     0.166 HD
ATOM     13  S   UNL d   1      -1.070  -0.024  -0.006  0.00  0.00    -0.081 SA
ATOM     14  C   UNL d   1       0.042   1.270   0.005  0.00  0.00     0.082 A 
BRANCH  11  15
ATOM     15  C   UNL d   1      -0.025  -2.598  -0.045  0.00  0.00    -0.002 A 
ATOM     16  C   UNL d   1       0.877  -3.476   0.572  0.00  0.00     0.015 A 
ATOM     17  C   UNL d   1       0.648  -4.860   0.580  0.00  0.00     0.014 A 
ATOM     18  C   UNL d   1      -0.484  -5.397  -0.047  0.00  0.00    -0.008 A 
ATOM     19  C   UNL d   1      -1.381  -4.526  -0.674  0.00  0.00     0.014 A 
ATOM     20  C   UNL d   1      -1.154  -3.146  -0.674  0.00  0.00     0.015 A 
BRANCH  18  21
ATOM     21  C   UNL d   1      -0.728  -6.831  -0.101  0.00  0.00     0.063 A 
ATOM     22  N   UNL d   1      -1.383  -7.404  -1.187  0.00  0.00    -0.292 N 
ATOM     23  N   UNL d   1      -1.493  -8.716  -1.063  0.00  0.00    -0.061 NA
ATOM     24  HN  UNL d   1      -1.737  -6.875  -1.984  1.00  0.00     0.183 HD
ATOM     25  S   UNL d   1      -0.837  -9.290   0.363  0.00  0.00    -0.010 SA
ATOM     26  C   UNL d   1      -0.358  -7.727   0.887  0.00  0.00     0.096 A 
ENDBRANCH  18  21
ENDBRANCH  11  15
ENDBRANCH   3   9
TORSDOF 3
