REMARK  3 active torsions:
REMARK  status: ('A' for Active; 'I' for Inactive)
REMARK    1  A    between atoms: C_8  and  N_1 
REMARK    2  A    between atoms: S_9  and  C_2 
REMARK    3  A    between atoms: O_12  and  C_3 
ROOT
ATOM      1  N   UNL d   1      -0.229  -1.328  -0.002  0.00  0.00    -0.255 N 
ATOM      2  C   UNL d   1       1.009  -0.697   0.056  0.00  0.00     0.169 A 
ATOM      3  C   UNL d   1      -1.109  -0.265  -0.195  0.00  0.00     0.245 A 
ATOM      4  N   UNL d   1       0.872   0.598  -0.115  0.00  0.00    -0.276 N 
ATOM      5  HN  UNL d   1       1.626   1.285  -0.117  1.00  0.00     0.189 HD
ATOM      6  N   UNL d   1      -0.458   0.867  -0.288  0.00  0.00    -0.263 N 
ATOM      7  HN  UNL d   1      -0.869   1.785  -0.460  1.00  0.00     0.190 HD
ENDROOT
BRANCH   1   8
ATOM      8  C   UNL d   1      -0.587  -2.707   0.123  0.00  0.00     0.045 A 
ATOM      9  C   UNL d   1       0.142  -3.580   0.940  0.00  0.00     0.032 A 
ATOM     10  C   UNL d   1      -0.269  -4.907   1.106  0.00  0.00     0.026 A 
ATOM     11  C   UNL d   1      -1.416  -5.369   0.467  0.00  0.00     0.034 A 
ATOM     12  C   UNL d   1      -2.140  -4.521  -0.364  0.00  0.00     0.026 A 
ATOM     13 CL   UNL d   1      -1.945  -6.985   0.716  0.00  0.00    -0.084 Cl
ATOM     14  C   UNL d   1      -1.724  -3.198  -0.547  0.00  0.00     0.032 A 
ENDBRANCH   1   8
BRANCH   2  15
ATOM     15  S   UNL d   1       2.554  -1.485   0.169  0.00  0.00    -0.096 SA
ATOM     16  C   UNL d   1       3.665  -0.062   0.280  0.00  0.00     0.099 C 
ENDBRANCH   2  15
BRANCH   3  17
ATOM     17  O   UNL d   1      -2.436  -0.312  -0.177  0.00  0.00    -0.331 OA
ATOM     18  H   UNL d   1      -2.709  -1.071   0.358  0.00  0.00     0.221 HD
ENDBRANCH   3  17
TORSDOF 3
