REMARK  8 active torsions:
REMARK  status: ('A' for Active; 'I' for Inactive)
REMARK    1  A    between atoms: C_4  and  C_1 
REMARK    2  A    between atoms: S_3  and  C_2 
REMARK    3  A    between atoms: C_6  and  S_3 
REMARK    4  A    between atoms: O_14  and  C_4 
REMARK    5  A    between atoms: C_5  and  C_6 
REMARK    6  A    between atoms: C_7  and  C_5 
REMARK    7  A    between atoms: C_8  and  C_6 
REMARK    8  A    between atoms: C_11  and  C_7 
ROOT
ATOM      1  C   UNL d   1       2.939  -3.153   0.375  0.00  0.00     0.092 C 
ENDROOT
BRANCH   1   2
ATOM      2  C   UNL d   1       3.049  -2.637   1.817  0.00  0.00     0.104 C 
BRANCH   2   3
ATOM      3  C   UNL d   1       2.042  -3.199   2.804  0.00  0.00     0.161 C 
ATOM      4  O   UNL d   1       0.943  -2.657   2.945  0.00  0.00    -0.292 OA
BRANCH   3   5
ATOM      5  C   UNL d   1       2.349  -4.412   3.627  0.00  0.00     0.010 A 
ATOM      6  C   UNL d   1       3.637  -4.939   3.786  0.00  0.00     0.015 A 
ATOM      7  C   UNL d   1       3.832  -6.098   4.546  0.00  0.00     0.001 A 
ATOM      8  C   UNL d   1       2.751  -6.734   5.154  0.00  0.00     0.000 A 
ATOM      9  C   UNL d   1       1.469  -6.210   5.013  0.00  0.00     0.001 A 
ATOM     10  C   UNL d   1       1.270  -5.054   4.256  0.00  0.00     0.015 A 
ENDBRANCH   3   5
ENDBRANCH   2   3
ENDBRANCH   1   2
BRANCH   1  11
ATOM     11  S   UNL d   1       1.322  -2.924  -0.493  0.00  0.00    -0.119 SA
BRANCH  11  12
ATOM     12  C   UNL d   1       0.960  -1.180  -0.332  0.00  0.00     0.017 A 
ATOM     13  C   UNL d   1       1.624  -0.093  -0.930  0.00  0.00     0.056 A 
ATOM     14  C   UNL d   1       1.091   1.208  -0.784  0.00  0.00     0.019 A 
ATOM     15  C   UNL d   1      -0.077   1.440  -0.059  0.00  0.00     0.001 A 
ATOM     16  C   UNL d   1      -0.725   0.375   0.546  0.00  0.00     0.001 A 
ATOM     17  C   UNL d   1      -0.214  -0.917   0.406  0.00  0.00     0.019 A 
BRANCH  13  18
ATOM     18  C   UNL d   1       2.890  -0.145  -1.708  0.00  0.00     0.294 C 
ATOM     19  O   UNL d   1       3.674   0.794  -1.721  0.00  0.00    -0.259 OA
BRANCH  18  20
ATOM     20  O   UNL d   1       3.027  -1.289  -2.412  0.00  0.00    -0.322 OA
ATOM     21  C   UNL d   1       4.209  -1.401  -3.213  0.00  0.00     0.213 C 
ENDBRANCH  18  20
ENDBRANCH  13  18
ENDBRANCH  11  12
ENDBRANCH   1  11
BRANCH   1  22
ATOM     22  C   UNL d   1       3.387  -4.611   0.248  0.00  0.00    -0.043 A 
ATOM     23  C   UNL d   1       2.530  -5.691   0.555  0.00  0.00     0.011 A 
ATOM     24  C   UNL d   1       2.964  -7.011   0.436  0.00  0.00     0.043 A 
ATOM     25  C   UNL d   1       4.256  -7.266   0.002  0.00  0.00     0.116 A 
ATOM     26  C   UNL d   1       5.122  -6.227  -0.311  0.00  0.00     0.043 A 
ATOM     27  F   UNL d   1       4.675  -8.533  -0.119  0.00  0.00    -0.206 F 
ATOM     28  C   UNL d   1       4.692  -4.904  -0.187  0.00  0.00     0.011 A 
ENDBRANCH   1  22
TORSDOF 8
