REMARK  7 active torsions:
REMARK  status: ('A' for Active; 'I' for Inactive)
REMARK    1  A    between atoms: C_10  and  N_1 
REMARK    2  A    between atoms: S_11  and  C_2 
REMARK    3  A    between atoms: N_9  and  C_8 
REMARK    4  A    between atoms: C_15  and  S_11 
REMARK    5  A    between atoms: C_12  and  C_17 
REMARK    6  A    between atoms: C_13  and  C_18 
REMARK    7  A    between atoms: C_14  and  C_20 
ROOT
ATOM      1  N   UNL d   1      -0.270  -1.306   0.150  0.00  0.00    -0.274 N 
ATOM      2  C   UNL d   1       0.987  -0.710   0.235  0.00  0.00     0.172 A 
ATOM      3  C   UNL d   1      -1.145  -0.215   0.079  0.00  0.00     0.146 A 
ATOM      4  N   UNL d   1      -0.448   0.906   0.095  0.00  0.00    -0.282 N 
ATOM      5  HN  UNL d   1      -0.837   1.847   0.042  1.00  0.00     0.188 HD
ATOM      6  N   UNL d   1       0.875   0.598   0.195  0.00  0.00    -0.277 N 
ATOM      7  HN  UNL d   1       1.645   1.267   0.232  1.00  0.00     0.189 HD
ATOM      8  C   UNL d   1      -2.587  -0.213   0.095  0.00  0.00     0.050 A 
ATOM      9  S   UNL d   1      -3.461   0.916  -0.864  0.00  0.00    -0.098 SA
ATOM     10  C   UNL d   1      -3.453  -1.005   0.828  0.00  0.00     0.023 A 
ATOM     11  C   UNL d   1      -4.970   0.288  -0.364  0.00  0.00     0.050 A 
ATOM     12  C   UNL d   1      -4.825  -0.747   0.530  0.00  0.00     0.009 A 
ENDROOT
BRANCH   1  13
ATOM     13  C   UNL d   1      -0.612  -2.694   0.160  0.00  0.00     0.045 A 
ATOM     14  C   UNL d   1       0.092  -3.594   0.966  0.00  0.00     0.046 A 
ATOM     15  C   UNL d   1      -0.253  -4.954   1.022  0.00  0.00     0.050 A 
ATOM     16  C   UNL d   1      -1.361  -5.401   0.288  0.00  0.00     0.032 A 
ATOM     17  C   UNL d   1      -2.104  -4.512  -0.506  0.00  0.00     0.050 A 
ATOM     18  C   UNL d   1      -1.698  -3.169  -0.590  0.00  0.00     0.046 A 
BRANCH  15  19
ATOM     19  C   UNL d   1       0.543  -5.913   1.880  0.00  0.00     0.417 C 
ATOM     20  F   UNL d   1       1.549  -5.308   2.575  0.00  0.00    -0.166 F 
ATOM     21  F   UNL d   1      -0.232  -6.526   2.817  0.00  0.00    -0.166 F 
ATOM     22  F   UNL d   1       1.120  -6.907   1.156  0.00  0.00    -0.166 F 
ENDBRANCH  15  19
BRANCH  17  23
ATOM     23  C   UNL d   1      -3.334  -5.000  -1.242  0.00  0.00     0.417 C 
ATOM     24  F   UNL d   1      -4.008  -4.007  -1.886  0.00  0.00    -0.166 F 
ATOM     25  F   UNL d   1      -3.043  -5.935  -2.183  0.00  0.00    -0.166 F 
ATOM     26  F   UNL d   1      -4.238  -5.575  -0.401  0.00  0.00    -0.166 F 
ENDBRANCH  17  23
ENDBRANCH   1  13
BRANCH   2  27
ATOM     27  S   UNL d   1       2.543  -1.490   0.156  0.00  0.00    -0.050 SA
BRANCH  27  28
ATOM     28  C   UNL d   1       2.975  -1.658   1.897  0.00  0.00     0.041 A 
ATOM     29  C   UNL d   1       3.812  -2.684   2.378  0.00  0.00     0.120 A 
ATOM     30  C   UNL d   1       4.033  -2.901   3.752  0.00  0.00     0.053 A 
ATOM     31  C   UNL d   1       3.415  -2.071   4.692  0.00  0.00     0.050 A 
ATOM     32  C   UNL d   1       2.655  -0.989   4.228  0.00  0.00     0.017 A 
ATOM     33  C   UNL d   1       2.452  -0.782   2.856  0.00  0.00     0.022 A 
BRANCH  29  34
ATOM     34  N   UNL d   1       4.484  -3.605   1.468  0.00  0.00    -0.114 N 
ATOM     35  O   UNL d   1       3.762  -4.361   0.802  0.00  0.00    -0.532 OA
ATOM     36  O   UNL d   1       5.721  -3.594   1.479  0.00  0.00    -0.532 OA
ENDBRANCH  29  34
BRANCH  31  37
ATOM     37  C   UNL d   1       3.527  -2.328   6.178  0.00  0.00     0.417 C 
ATOM     38  F   UNL d   1       4.234  -3.450   6.480  0.00  0.00    -0.166 F 
ATOM     39  F   UNL d   1       4.128  -1.307   6.843  0.00  0.00    -0.166 F 
ATOM     40  F   UNL d   1       2.305  -2.490   6.756  0.00  0.00    -0.166 F 
ENDBRANCH  31  37
ENDBRANCH  27  28
ENDBRANCH   2  27
TORSDOF 7
