REMARK  2 active torsions:
REMARK  status: ('A' for Active; 'I' for Inactive)
REMARK    1  A    between atoms: O_5  and  C_1 
REMARK    2  A    between atoms: C_7  and  O_5 
ROOT
ATOM      1  C   UNL d   1      -0.707   1.668  -0.172  0.00  0.00     0.090 A 
ATOM      2  N   UNL d   1      -1.040  -1.092  -0.116  0.00  0.00    -0.359 N 
ATOM      3  HN  UNL d   1      -1.170  -2.102  -0.053  1.00  0.00     0.166 HD
ATOM      4  C   UNL d   1       0.426   0.831  -0.092  0.00  0.00     0.025 A 
ATOM      5  C   UNL d   1       0.193  -0.559  -0.074  0.00  0.00     0.045 A 
ATOM      6  C   UNL d   1      -1.973   1.106  -0.332  0.00  0.00     0.062 A 
ATOM      7  C   UNL d   1      -2.105  -0.268  -0.244  0.00  0.00     0.008 A 
ATOM      8  C   UNL d   1       1.755   1.311  -0.028  0.00  0.00     0.016 A 
ATOM      9  C   UNL d   1       1.282  -1.416   0.006  0.00  0.00     0.030 A 
ATOM     10  C   UNL d   1      -3.467  -0.889  -0.191  0.00  0.00     0.068 C 
ATOM     11  C   UNL d   1       2.832   0.428   0.042  0.00  0.00     0.001 A 
ATOM     12  C   UNL d   1       2.595  -0.940   0.059  0.00  0.00     0.002 A 
ENDROOT
BRANCH   1  13
ATOM     13  O   UNL d   1      -0.512   3.036  -0.112  0.00  0.00    -0.309 OA
BRANCH  13  14
ATOM     14  C   UNL d   1      -1.433   3.828   0.551  0.00  0.00     0.082 A 
ATOM     15  C   UNL d   1      -1.588   5.155   0.113  0.00  0.00    -0.026 A 
ATOM     16  C   UNL d   1      -2.558   5.968   0.728  0.00  0.00     0.033 A 
ATOM     17  C   UNL d   1      -0.724   5.766  -0.954  0.00  0.00     0.051 C 
ATOM     18  C   UNL d   1      -3.351   5.471   1.761  0.00  0.00     0.034 A 
ATOM     19  C   UNL d   1      -3.156   4.178   2.233  0.00  0.00     0.026 A 
ATOM     20 CL   UNL d   1      -4.564   6.465   2.467  0.00  0.00    -0.084 Cl
ATOM     21  C   UNL d   1      -2.178   3.372   1.651  0.00  0.00     0.039 A 
ENDBRANCH  13  14
ENDBRANCH   1  13
TORSDOF 2
