REMARK  5 active torsions:
REMARK  status: ('A' for Active; 'I' for Inactive)
REMARK    1  A    between atoms: C_11  and  N_1 
REMARK    2  A    between atoms: S_10  and  C_2 
REMARK       I    between atoms: N_7  and  C_9 
REMARK    3  A    between atoms: C_17  and  N_8 
REMARK    4  A    between atoms: C_9  and  C_12 
REMARK    5  A    between atoms: C_12  and  S_10 
ROOT
ATOM      1  N   UNL d   1       5.121  -3.195   0.008  0.00  0.00    -0.348 N 
ATOM      2  N   UNL d   1       6.757  -0.954  -0.651  0.00  0.00    -0.378 N 
ATOM      3  C   UNL d   1       3.894  -3.780  -0.289  0.00  0.00     0.229 C 
ATOM      4  C   UNL d   1       5.174  -2.046   0.927  0.00  0.00     0.145 C 
ATOM      5  C   UNL d   1       6.354  -3.378  -0.772  0.00  0.00     0.145 C 
ATOM      6  C   UNL d   1       6.668  -2.101  -1.565  0.00  0.00     0.143 C 
ATOM      7  C   UNL d   1       5.571  -0.736   0.202  0.00  0.00     0.143 C 
ATOM      8  O   UNL d   1       2.850  -3.355   0.208  0.00  0.00    -0.273 OA
ENDROOT
BRANCH   3   9
ATOM      9  C   UNL d   1       3.910  -4.951  -1.272  0.00  0.00     0.185 C 
BRANCH   9  10
ATOM     10  S   UNL d   1       2.512  -6.060  -0.996  0.00  0.00    -0.082 SA
BRANCH  10  11
ATOM     11  C   UNL d   1       2.879  -7.369  -2.078  0.00  0.00     0.177 C 
ATOM     12  N   UNL d   1       2.092  -8.500  -2.217  0.00  0.00    -0.219 N 
ATOM     13  N   UNL d   1       2.845  -9.442  -2.839  0.00  0.00     0.001 NA
ATOM     14  N   UNL d   1       3.972  -8.837  -3.189  0.00  0.00    -0.006 NA
ATOM     15  N   UNL d   1       4.017  -7.552  -2.708  0.00  0.00    -0.264 N 
ATOM     16  HN  UNL d   1       4.775  -6.879  -2.817  1.00  0.00     0.186 HD
BRANCH  12  17
ATOM     17  C   UNL d   1       0.761  -8.753  -1.813  0.00  0.00     0.056 A 
ATOM     18  C   UNL d   1      -0.183  -7.716  -1.773  0.00  0.00     0.031 A 
ATOM     19  C   UNL d   1      -1.464  -7.955  -1.288  0.00  0.00     0.002 A 
ATOM     20  C   UNL d   1      -1.814  -9.227  -0.844  0.00  0.00     0.000 A 
ATOM     21  C   UNL d   1      -0.892 -10.275  -0.923  0.00  0.00     0.002 A 
ATOM     22  C   UNL d   1       0.390 -10.048  -1.430  0.00  0.00     0.031 A 
ENDBRANCH  12  17
ENDBRANCH  10  11
ENDBRANCH   9  10
ENDBRANCH   3   9
BRANCH   2  23
ATOM     23  C   UNL d   1       7.932  -0.249  -0.478  0.00  0.00     0.030 A 
ATOM     24  C   UNL d   1       7.923   1.115  -0.150  0.00  0.00     0.029 A 
ATOM     25  C   UNL d   1       9.107   1.852  -0.021  0.00  0.00     0.002 A 
ATOM     26  C   UNL d   1      10.338   1.234  -0.211  0.00  0.00     0.000 A 
ATOM     27  C   UNL d   1      10.381  -0.118  -0.522  0.00  0.00     0.002 A 
ATOM     28  C   UNL d   1       9.192  -0.845  -0.652  0.00  0.00     0.029 A 
ENDBRANCH   2  23
TORSDOF 5
