REMARK  4 active torsions:
REMARK  status: ('A' for Active; 'I' for Inactive)
REMARK    1  A    between atoms: C_5  and  C_1 
REMARK    2  A    between atoms: S_2  and  C_9 
REMARK    3  A    between atoms: C_16  and  S_2 
REMARK    4  A    between atoms: C_9  and  C_6 
ROOT
ATOM      1  C   UNL d   1       0.439  -1.146  -0.107  0.00  0.00     0.186 A 
ATOM      2  N   UNL d   1       1.216  -0.085   0.007  0.00  0.00    -0.322 N 
ATOM      3  HN  UNL d   1       2.232  -0.047   0.079  1.00  0.00     0.169 HD
ATOM      4  C   UNL d   1       0.320   0.955   0.006  0.00  0.00     0.118 A 
ATOM      5  N   UNL d   1      -0.957   0.584  -0.142  0.00  0.00    -0.246 N 
ATOM      6  HN  UNL d   1      -1.785   1.178  -0.197  1.00  0.00     0.196 HD
ATOM      7  O   UNL d   1      -0.885  -0.805  -0.204  0.00  0.00    -0.217 OA
ENDROOT
BRANCH   4   8
ATOM      8  C   UNL d   1       0.732   2.367   0.003  0.00  0.00     0.224 C 
BRANCH   8   9
ATOM      9  S   UNL d   1       1.530   2.872   1.498  0.00  0.00     0.182 S 
ATOM     10  O   UNL d   1       1.982   4.241   1.310  0.00  0.00    -0.222 OA
ATOM     11  O   UNL d   1       0.671   2.542   2.621  0.00  0.00    -0.222 OA
BRANCH   9  12
ATOM     12  C   UNL d   1       3.016   1.901   1.651  0.00  0.00     0.059 A 
ATOM     13  C   UNL d   1       4.002   1.990   0.660  0.00  0.00     0.026 A 
ATOM     14  C   UNL d   1       5.194   1.278   0.816  0.00  0.00     0.044 A 
ATOM     15  C   UNL d   1       5.393   0.508   1.958  0.00  0.00     0.116 A 
ATOM     16  C   UNL d   1       4.418   0.423   2.948  0.00  0.00     0.044 A 
ATOM     17  F   UNL d   1       6.539  -0.169   2.103  0.00  0.00    -0.206 F 
ATOM     18  C   UNL d   1       3.218   1.120   2.796  0.00  0.00     0.026 A 
ENDBRANCH   9  12
ENDBRANCH   8   9
ENDBRANCH   4   8
BRANCH   1  19
ATOM     19  C   UNL d   1       0.931  -2.540  -0.140  0.00  0.00     0.073 A 
ATOM     20  C   UNL d   1       2.232  -2.953   0.011  0.00  0.00     0.089 A 
ATOM     21  O   UNL d   1       2.275  -4.311  -0.071  0.00  0.00    -0.242 OA
ATOM     22  C   UNL d   1       3.521  -2.275   0.229  0.00  0.00     0.080 C 
ATOM     23  N   UNL d   1       1.002  -4.802  -0.296  0.00  0.00    -0.265 N 
ATOM     24  C   UNL d   1       0.199  -3.732  -0.348  0.00  0.00     0.045 A 
ATOM     25  HN  UNL d   1       0.731  -5.780  -0.400  1.00  0.00     0.194 HD
ATOM     26  C   UNL d   1      -1.245  -3.905  -0.631  0.00  0.00     0.071 C 
ENDBRANCH   1  19
TORSDOF 4
