REMARK  3 active torsions:
REMARK  status: ('A' for Active; 'I' for Inactive)
REMARK    1  A    between atoms: C_2  and  C_1 
REMARK       I    between atoms: N_4  and  C_1 
REMARK       I    between atoms: C_3  and  N_8 
REMARK       I    between atoms: N_7  and  C_3 
REMARK    2  A    between atoms: N_8  and  N_4 
REMARK    3  A    between atoms: C_5  and  N_7 
ROOT
ATOM      1  C   UNL d   1      -1.938   1.093   2.129  0.00  0.00     0.339 C 
ATOM      2  N   UNL d   1      -1.118   1.636   3.095  0.00  0.00    -0.308 N 
ATOM      3  N   UNL d   1      -1.234   0.600   1.042  0.00  0.00    -0.248 N 
ATOM      4  O   UNL d   1      -3.163   1.001   2.172  0.00  0.00    -0.245 OA
ATOM      5  H   UNL d   1      -0.125   1.536   2.939  0.00  0.00     0.170 HD
ATOM      6  H   UNL d   1      -0.359   1.030   0.760  0.00  0.00     0.192 HD
ENDROOT
BRANCH   3   7
ATOM      7  N   UNL d   1      -2.032   0.136  -0.025  0.00  0.00    -0.261 N 
ATOM      8  C   UNL d   1      -1.461  -0.583  -1.053  0.00  0.00     0.286 C 
ATOM      9  O   UNL d   1      -0.245  -0.719  -1.172  0.00  0.00    -0.264 OA
ATOM     10  H   UNL d   1      -3.023   0.037   0.192  0.00  0.00     0.190 HD
BRANCH   8  11
ATOM     11  C   UNL d   1      -2.417  -1.180  -1.962  0.00  0.00     0.102 A 
ATOM     12  N   UNL d   1      -2.077  -2.207  -2.817  0.00  0.00    -0.361 N 
ATOM     13  C   UNL d   1      -3.168  -2.592  -3.551  0.00  0.00     0.088 A 
ATOM     14  H   UNL d   1      -1.152  -2.617  -2.869  0.00  0.00     0.165 HD
ATOM     15  C   UNL d   1      -4.223  -1.786  -3.197  0.00  0.00     0.019 A 
ATOM     16  C   UNL d   1      -3.755  -0.899  -2.198  0.00  0.00     0.036 A 
ENDBRANCH   8  11
ENDBRANCH   3   7
BRANCH   2  17
ATOM     17  C   UNL d   1      -1.525   2.276   4.288  0.00  0.00     0.039 A 
ATOM     18  C   UNL d   1      -2.862   2.456   4.654  0.00  0.00     0.053 A 
ATOM     19  C   UNL d   1      -3.192   3.155   5.819  0.00  0.00     0.037 A 
ATOM     20 CL   UNL d   1      -4.846   3.387   6.236  0.00  0.00    -0.084 Cl
ATOM     21  C   UNL d   1      -2.199   3.679   6.639  0.00  0.00     0.048 A 
ATOM     22  C   UNL d   1      -0.867   3.477   6.292  0.00  0.00     0.037 A 
ATOM     23  C   UNL d   1      -0.526   2.778   5.130  0.00  0.00     0.053 A 
ATOM     24 CL   UNL d   1       0.375   4.111   7.301  0.00  0.00    -0.084 Cl
ENDBRANCH   2  17
TORSDOF 3
