REMARK  2 active torsions:
REMARK  status: ('A' for Active; 'I' for Inactive)
REMARK    1  A    between atoms: C_6  and  C_2 
REMARK    2  A    between atoms: N_4  and  C_5 
ROOT
ATOM      1  C   UNL d   1      -3.704   3.257  -2.848  0.00  0.00     0.102 A 
ATOM      2  C   UNL d   1      -1.381   2.440  -1.462  0.00  0.00    -0.051 A 
ATOM      3  C   UNL d   1      -2.501   3.098  -3.541  0.00  0.00     0.036 A 
ATOM      4  C   UNL d   1      -3.767   2.999  -1.475  0.00  0.00     0.036 A 
ATOM      5  C   UNL d   1      -1.357   2.688  -2.847  0.00  0.00     0.010 A 
ATOM      6  C   UNL d   1      -2.614   2.586  -0.799  0.00  0.00     0.010 A 
ENDROOT
BRANCH   2   7
ATOM      7  C   UNL d   1      -0.142   1.976  -0.728  0.00  0.00     0.051 A 
ATOM      8  C   UNL d   1       0.503   2.761   0.396  0.00  0.00     0.084 A 
ATOM      9  C   UNL d   1       1.175   2.688  -0.943  0.00  0.00     0.045 A 
ATOM     10 BR   UNL d   1       1.280   1.774   1.839  0.00  0.00    -0.072 Br
ATOM     11 BR   UNL d   1      -0.144   4.464   0.958  0.00  0.00    -0.072 Br
ENDBRANCH   2   7
BRANCH   1  12
ATOM     12  N   UNL d   1      -4.907   3.691  -3.568  0.00  0.00    -0.116 N 
ATOM     13  O   UNL d   1      -4.806   3.905  -4.784  0.00  0.00    -0.532 OA
ATOM     14  O   UNL d   1      -5.955   3.817  -2.917  0.00  0.00    -0.532 OA
ENDBRANCH   1  12
TORSDOF 2
