REMARK  6 active torsions:
REMARK  status: ('A' for Active; 'I' for Inactive)
REMARK    1  A    between atoms: C_4  and  S_1 
REMARK    2  A    between atoms: N_8  and  S_1 
REMARK    3  A    between atoms: N_2  and  C_9 
REMARK    4  A    between atoms: O_5  and  C_3 
REMARK    5  A    between atoms: C_13  and  O_5 
REMARK    6  A    between atoms: C_21  and  N_8 
ROOT
ATOM      1  C   UNL d   1      -0.167  -4.049   1.709  0.00  0.00     0.119 A 
ATOM      2  C   UNL d   1       0.522  -1.553   0.642  0.00  0.00     0.083 A 
ATOM      3  C   UNL d   1      -0.540  -2.862   2.363  0.00  0.00     0.071 A 
ATOM      4  C   UNL d   1       0.464  -3.963   0.459  0.00  0.00     0.071 A 
ATOM      5  C   UNL d   1      -0.205  -1.613   1.831  0.00  0.00     0.052 A 
ATOM      6  C   UNL d   1       0.845  -2.719  -0.054  0.00  0.00     0.052 A 
ATOM      7 CL   UNL d   1       0.777  -5.343  -0.533  0.00  0.00    -0.081 Cl
ATOM      8 CL   UNL d   1      -1.432  -2.897   3.844  0.00  0.00    -0.081 Cl
ENDROOT
BRANCH   2   9
ATOM      9  S   UNL d   1       0.989   0.021  -0.040  0.00  0.00     0.263 S 
ATOM     10  O   UNL d   1      -0.039   0.967   0.337  0.00  0.00    -0.200 OA
ATOM     11  O   UNL d   1       1.362  -0.175  -1.423  0.00  0.00    -0.200 OA
BRANCH   9  12
ATOM     12  N   UNL d   1       2.346   0.408   0.857  0.00  0.00    -0.281 N 
ATOM     13  H   UNL d   1       2.358   1.341   1.267  0.00  0.00     0.179 HD
BRANCH  12  14
ATOM     14  C   UNL d   1       3.556  -0.311   0.709  0.00  0.00     0.042 A 
ATOM     15  C   UNL d   1       4.414  -0.069  -0.369  0.00  0.00     0.033 A 
ATOM     16  C   UNL d   1       5.641  -0.740  -0.432  0.00  0.00     0.044 A 
ATOM     17  C   UNL d   1       5.992  -1.632   0.576  0.00  0.00     0.116 A 
ATOM     18  C   UNL d   1       5.141  -1.871   1.649  0.00  0.00     0.044 A 
ATOM     19  F   UNL d   1       7.171  -2.265   0.518  0.00  0.00    -0.206 F 
ATOM     20  C   UNL d   1       3.920  -1.201   1.720  0.00  0.00     0.033 A 
ENDBRANCH  12  14
ENDBRANCH   9  12
ENDBRANCH   2   9
BRANCH   1  21
ATOM     21  O   UNL d   1      -0.528  -5.240   2.302  0.00  0.00    -0.306 OA
BRANCH  21  22
ATOM     22  C   UNL d   1       0.421  -6.216   2.540  0.00  0.00     0.098 A 
ATOM     23  C   UNL d   1      -0.053  -7.521   2.761  0.00  0.00     0.070 A 
ATOM     24  C   UNL d   1       0.833  -8.585   2.949  0.00  0.00     0.062 A 
ATOM     25 CL   UNL d   1      -1.748  -7.861   2.802  0.00  0.00    -0.081 Cl
ATOM     26  C   UNL d   1       2.209  -8.342   2.912  0.00  0.00     0.104 A 
ATOM     27  C   UNL d   1       2.699  -7.043   2.729  0.00  0.00     0.039 A 
ATOM     28  C   UNL d   1       1.803  -5.979   2.573  0.00  0.00     0.041 A 
BRANCH  26  29
ATOM     29  N   UNL d   1       3.152  -9.457   3.073  0.00  0.00    -0.116 N 
ATOM     30  O   UNL d   1       2.682 -10.576   3.317  0.00  0.00    -0.532 OA
ATOM     31  O   UNL d   1       4.360  -9.208   2.956  0.00  0.00    -0.532 OA
ENDBRANCH  26  29
ENDBRANCH  21  22
ENDBRANCH   1  21
TORSDOF 6
