REMARK  4 active torsions:
REMARK  status: ('A' for Active; 'I' for Inactive)
REMARK    1  A    between atoms: C_3  and  N_1 
REMARK    2  A    between atoms: C_2  and  C_6 
REMARK    3  A    between atoms: N_4  and  C_8 
REMARK    4  A    between atoms: C_7  and  N_5 
ROOT
ATOM      1  N   UNL d   1      -2.000   3.814   2.666  0.00  0.00    -0.364 N 
ATOM      2  N   UNL d   1      -3.091   6.022   4.051  0.00  0.00    -0.364 N 
ATOM      3  C   UNL d   1      -2.839   4.747   1.896  0.00  0.00     0.144 C 
ATOM      4  C   UNL d   1      -2.492   3.616   4.035  0.00  0.00     0.144 C 
ATOM      5  C   UNL d   1      -2.397   4.959   4.789  0.00  0.00     0.144 C 
ATOM      6  C   UNL d   1      -2.814   6.127   2.602  0.00  0.00     0.144 C 
ENDROOT
BRANCH   2   7
ATOM      7  C   UNL d   1      -4.008   6.853   4.643  0.00  0.00     0.103 A 
ATOM      8  N   UNL d   1      -5.004   7.358   3.883  0.00  0.00    -0.352 N 
ATOM      9  C   UNL d   1      -5.951   8.127   4.467  0.00  0.00     0.106 A 
ATOM     10  HN  UNL d   1      -5.041   7.163   2.883  1.00  0.00     0.166 HD
ATOM     11  C   UNL d   1      -5.964   8.457   5.811  0.00  0.00     0.063 A 
ATOM     12  C   UNL d   1      -4.920   7.969   6.590  0.00  0.00     0.021 A 
ATOM     13  C   UNL d   1      -3.942   7.166   6.001  0.00  0.00     0.049 A 
BRANCH  11  14
ATOM     14  C   UNL d   1      -7.051   9.299   6.394  0.00  0.00     0.418 C 
ATOM     15  F   UNL d   1      -8.001   9.670   5.494  0.00  0.00    -0.166 F 
ATOM     16  F   UNL d   1      -7.718   8.662   7.397  0.00  0.00    -0.166 F 
ATOM     17  F   UNL d   1      -6.580  10.455   6.938  0.00  0.00    -0.166 F 
ENDBRANCH  11  14
ENDBRANCH   2   7
BRANCH   1  18
ATOM     18  C   UNL d   1      -1.326   2.796   2.029  0.00  0.00     0.103 A 
ATOM     19  C   UNL d   1      -0.237   2.197   2.669  0.00  0.00     0.051 A 
ATOM     20  C   UNL d   1       0.527   1.230   2.019  0.00  0.00     0.041 A 
ATOM     21  C   UNL d   1       0.172   0.875   0.724  0.00  0.00     0.118 A 
ATOM     22  C   UNL d   1      -0.917   1.498   0.139  0.00  0.00     0.125 A 
ATOM     23  N   UNL d   1      -1.656   2.454   0.764  0.00  0.00    -0.350 N 
ATOM     24  HN  UNL d   1      -2.440   2.901   0.290  1.00  0.00     0.166 HD
BRANCH  21  25
ATOM     25  N   UNL d   1       0.939  -0.116  -0.012  0.00  0.00    -0.114 N 
ATOM     26  O   UNL d   1       0.553  -0.414  -1.152  0.00  0.00    -0.532 OA
ATOM     27  O   UNL d   1       1.932  -0.605   0.544  0.00  0.00    -0.532 OA
ENDBRANCH  21  25
ENDBRANCH   1  18
TORSDOF 4
