REMARK  6 active torsions:
REMARK  status: ('A' for Active; 'I' for Inactive)
REMARK    1  A    between atoms: C_3  and  C_1 
REMARK    2  A    between atoms: C_13  and  C_2 
REMARK       I    between atoms: N_9  and  C_3 
REMARK    3  A    between atoms: C_6  and  N_11 
REMARK    4  A    between atoms: C_10  and  N_9 
REMARK    5  A    between atoms: N_11  and  C_10 
REMARK    6  A    between atoms: C_21  and  C_12 
ROOT
ATOM      1  C   UNL d   1       0.343  -3.131   0.591  0.00  0.00     0.262 C 
ATOM      2  N   UNL d   1      -0.550  -4.052   0.048  0.00  0.00    -0.299 N 
ATOM      3  O   UNL d   1       0.575  -2.040   0.093  0.00  0.00    -0.267 OA
ATOM      4  H   UNL d   1      -0.662  -4.912   0.566  0.00  0.00     0.171 HD
ENDROOT
BRANCH   2   5
ATOM      5  C   UNL d   1      -1.595  -3.838  -0.838  0.00  0.00     0.180 C 
ATOM      6  S   UNL d   1      -2.764  -5.033  -0.798  0.00  0.00    -0.040 SA
BRANCH   5   7
ATOM      7  N   UNL d   1      -1.510  -2.705  -1.608  0.00  0.00    -0.313 N 
ATOM      8  H   UNL d   1      -0.653  -2.159  -1.520  0.00  0.00     0.170 HD
BRANCH   7   9
ATOM      9  C   UNL d   1      -2.315  -2.196  -2.605  0.00  0.00     0.151 A 
ATOM     10  N   UNL d   1      -1.879  -1.219  -3.362  0.00  0.00    -0.335 N 
ATOM     11  C   UNL d   1      -2.828  -0.861  -4.310  0.00  0.00     0.051 A 
ATOM     12  HN  UNL d   1      -0.964  -0.779  -3.267  1.00  0.00     0.168 HD
ATOM     13  C   UNL d   1      -4.014  -1.559  -4.232  0.00  0.00     0.083 A 
ATOM     14  S   UNL d   1      -3.904  -2.707  -2.952  0.00  0.00    -0.063 SA
BRANCH  11  15
ATOM     15  C   UNL d   1      -2.508   0.172  -5.288  0.00  0.00    -0.009 A 
ATOM     16  C   UNL d   1      -1.183   0.248  -5.746  0.00  0.00     0.014 A 
ATOM     17  C   UNL d   1      -0.767   1.296  -6.565  0.00  0.00     0.001 A 
ATOM     18  C   UNL d   1      -1.675   2.280  -6.942  0.00  0.00     0.000 A 
ATOM     19  C   UNL d   1      -3.007   2.193  -6.530  0.00  0.00     0.001 A 
ATOM     20  C   UNL d   1      -3.428   1.137  -5.711  0.00  0.00     0.014 A 
ENDBRANCH  11  15
ENDBRANCH   7   9
ENDBRANCH   5   7
ENDBRANCH   2   5
BRANCH   1  21
ATOM     21  C   UNL d   1       0.862  -3.554   1.876  0.00  0.00     0.093 A 
ATOM     22  C   UNL d   1       1.876  -4.490   2.258  0.00  0.00     0.085 A 
ATOM     23  N   UNL d   1       1.897  -4.633   3.598  0.00  0.00    -0.259 N 
ATOM     24  O   UNL d   1       0.971  -3.749   4.101  0.00  0.00    -0.241 OA
ATOM     25  HN  UNL d   1       2.485  -5.270   4.135  1.00  0.00     0.195 HD
ATOM     26  C   UNL d   1       0.367  -3.096   3.078  0.00  0.00     0.090 A 
ATOM     27  C   UNL d   1      -0.667  -2.112   3.451  0.00  0.00     0.080 C 
BRANCH  22  28
ATOM     28  C   UNL d   1       2.792  -5.289   1.446  0.00  0.00     0.015 A 
ATOM     29  C   UNL d   1       3.647  -4.724   0.489  0.00  0.00     0.046 A 
ATOM     30 CL   UNL d   1       3.811  -3.017   0.275  0.00  0.00    -0.083 Cl
ATOM     31  C   UNL d   1       4.469  -5.543  -0.296  0.00  0.00     0.025 A 
ATOM     32  C   UNL d   1       4.475  -6.926  -0.110  0.00  0.00     0.002 A 
ATOM     33  C   UNL d   1       3.690  -7.491   0.889  0.00  0.00     0.001 A 
ATOM     34  C   UNL d   1       2.858  -6.679   1.665  0.00  0.00     0.015 A 
ENDBRANCH  22  28
ENDBRANCH   1  21
TORSDOF 6
