REMARK  7 active torsions:
REMARK  status: ('A' for Active; 'I' for Inactive)
REMARK    1  A    between atoms: C_7  and  C_1 
REMARK    2  A    between atoms: N_3  and  C_6 
REMARK    3  A    between atoms: O_21  and  C_7 
REMARK    4  A    between atoms: C_14  and  N_19 
REMARK    5  A    between atoms: N_19  and  C_24 
REMARK    6  A    between atoms: C_25  and  O_21 
REMARK    7  A    between atoms: C_24  and  C_25 
ROOT
ATOM      1  O   UNL d   1      -4.193  -1.775  -0.295  0.00  0.00    -0.316 OA
ENDROOT
BRANCH   1   2
ATOM      2  C   UNL d   1      -3.804  -1.166  -1.442  0.00  0.00     0.299 C 
ATOM      3  O   UNL d   1      -4.333  -1.346  -2.531  0.00  0.00    -0.259 OA
BRANCH   2   4
ATOM      4  C   UNL d   1      -2.723  -0.177  -1.221  0.00  0.00     0.115 A 
ATOM      5  C   UNL d   1      -1.828  -0.203  -0.042  0.00  0.00     0.304 A 
ATOM      6  O   UNL d   1      -0.917   0.850   0.076  0.00  0.00    -0.274 OA
ATOM      7  O   UNL d   1      -1.850  -1.091   0.797  0.00  0.00    -0.259 OA
ATOM      8  C   UNL d   1      -0.772   1.829  -0.922  0.00  0.00     0.089 A 
ATOM      9  C   UNL d   1      -1.574   1.803  -2.058  0.00  0.00    -0.001 A 
ATOM     10  C   UNL d   1       0.204   2.806  -0.737  0.00  0.00     0.038 A 
ATOM     11  C   UNL d   1      -2.586   0.766  -2.170  0.00  0.00     0.038 A 
ATOM     12  C   UNL d   1      -1.385   2.777  -3.040  0.00  0.00     0.014 A 
ATOM     13  C   UNL d   1      -0.406   3.762  -2.871  0.00  0.00     0.001 A 
ATOM     14  C   UNL d   1       0.385   3.778  -1.719  0.00  0.00     0.003 A 
ENDBRANCH   2   4
ENDBRANCH   1   2
BRANCH   1  15
ATOM     15  C   UNL d   1      -5.279  -2.719  -0.415  0.00  0.00     0.193 C 
BRANCH  15  16
ATOM     16  C   UNL d   1      -6.623  -1.982  -0.429  0.00  0.00     0.120 C 
BRANCH  16  17
ATOM     17  N   UNL d   1      -7.750  -2.894  -0.574  0.00  0.00    -0.277 NA
ATOM     18  H   UNL d   1      -7.782  -3.684   0.068  0.00  0.00     0.129 HD
BRANCH  17  19
ATOM     19  C   UNL d   1      -9.030  -2.363  -0.644  0.00  0.00     0.080 A 
ATOM     20  N   UNL d   1     -10.009  -3.130  -0.118  0.00  0.00    -0.354 N 
ATOM     21  C   UNL d   1     -11.293  -2.686  -0.206  0.00  0.00     0.125 A 
ATOM     22  HN  UNL d   1      -9.792  -4.018   0.333  1.00  0.00     0.166 HD
ATOM     23  C   UNL d   1     -11.639  -1.479  -0.789  0.00  0.00     0.118 A 
ATOM     24  C   UNL d   1     -10.631  -0.688  -1.328  0.00  0.00     0.041 A 
ATOM     25  C   UNL d   1      -9.317  -1.150  -1.267  0.00  0.00     0.044 A 
BRANCH  23  26
ATOM     26  N   UNL d   1     -13.029  -1.055  -0.840  0.00  0.00    -0.114 N 
ATOM     27  O   UNL d   1     -13.883  -1.815  -0.364  0.00  0.00    -0.532 OA
ATOM     28  O   UNL d   1     -13.274   0.046  -1.355  0.00  0.00    -0.532 OA
ENDBRANCH  23  26
ENDBRANCH  17  19
ENDBRANCH  16  17
ENDBRANCH  15  16
ENDBRANCH   1  15
TORSDOF 7
