REMARK  5 active torsions:
REMARK  status: ('A' for Active; 'I' for Inactive)
REMARK    1  A    between atoms: C_13  and  C_2 
REMARK    2  A    between atoms: C_6  and  O_11 
REMARK    3  A    between atoms: C_7  and  C_6 
REMARK    4  A    between atoms: O_11  and  C_18 
REMARK    5  A    between atoms: C_18  and  C_13 
ROOT
ATOM      1  C   UNL d   1       1.648  -2.700  -0.031  0.00  0.00     0.069 C 
ENDROOT
BRANCH   1   2
ATOM      2  C   UNL d   1       1.222  -1.262  -0.066  0.00  0.00    -0.014 A 
ATOM      3  C   UNL d   1       0.891  -0.440   1.003  0.00  0.00     0.057 A 
ATOM      4  O   UNL d   1       0.530   0.798   0.565  0.00  0.00    -0.314 OA
ATOM      5  C   UNL d   1       0.832  -0.610   2.469  0.00  0.00     0.077 C 
ATOM      6  C   UNL d   1       0.613   0.791  -0.789  0.00  0.00     0.086 A 
ATOM      7  C   UNL d   1       0.312   1.871  -1.617  0.00  0.00     0.038 A 
ATOM      8  C   UNL d   1       1.039  -0.452  -1.238  0.00  0.00     0.006 A 
ATOM      9  C   UNL d   1       0.457   1.663  -2.991  0.00  0.00     0.003 A 
ATOM     10  C   UNL d   1       0.882   0.429  -3.489  0.00  0.00     0.001 A 
ATOM     11  C   UNL d   1       1.178  -0.640  -2.627  0.00  0.00     0.015 A 
ENDBRANCH   1   2
BRANCH   1  12
ATOM     12  C   UNL d   1       3.166  -2.883   0.041  0.00  0.00     0.183 C 
BRANCH  12  13
ATOM     13  O   UNL d   1       3.547  -4.280   0.031  0.00  0.00    -0.317 OA
BRANCH  13  14
ATOM     14  C   UNL d   1       3.658  -4.838  -1.203  0.00  0.00     0.293 C 
ATOM     15  O   UNL d   1       3.350  -4.289  -2.251  0.00  0.00    -0.259 OA
BRANCH  14  16
ATOM     16  C   UNL d   1       4.237  -6.213  -1.157  0.00  0.00     0.039 A 
ATOM     17  C   UNL d   1       4.431  -6.878  -2.381  0.00  0.00     0.019 A 
ATOM     18  C   UNL d   1       4.994  -8.161  -2.418  0.00  0.00     0.025 A 
ATOM     19  C   UNL d   1       5.367  -8.783  -1.231  0.00  0.00     0.034 A 
ATOM     20  C   UNL d   1       5.178  -8.138  -0.007  0.00  0.00     0.025 A 
ATOM     21 CL   UNL d   1       6.068 -10.355  -1.276  0.00  0.00    -0.084 Cl
ATOM     22  C   UNL d   1       4.614  -6.854   0.032  0.00  0.00     0.019 A 
ENDBRANCH  14  16
ENDBRANCH  13  14
ENDBRANCH  12  13
ENDBRANCH   1  12
TORSDOF 5
