REMARK  5 active torsions:
REMARK  status: ('A' for Active; 'I' for Inactive)
REMARK    1  A    between atoms: C_3  and  C_1 
REMARK    2  A    between atoms: C_8  and  C_2 
REMARK    3  A    between atoms: C_4  and  C_6 
REMARK    4  A    between atoms: O_17  and  C_5 
REMARK    5  A    between atoms: O_18  and  C_8 
ROOT
ATOM      1  C   UNL d   1       1.447  -0.208   0.202  0.00  0.00     0.068 A 
ATOM      2  C   UNL d   1       0.581  -1.294  -0.037  0.00  0.00     0.086 A 
ATOM      3  C   UNL d   1      -0.812  -1.084  -0.143  0.00  0.00     0.086 A 
ATOM      4  C   UNL d   1      -0.482   1.307   0.221  0.00  0.00     0.051 A 
ATOM      5  C   UNL d   1       0.898   1.088   0.306  0.00  0.00     0.033 A 
ATOM      6  C   UNL d   1      -1.327   0.208   0.014  0.00  0.00     0.054 A 
ENDROOT
BRANCH   1   7
ATOM      7  C   UNL d   1       2.946  -0.340   0.341  0.00  0.00     0.418 C 
ATOM      8  F   UNL d   1       3.411  -1.575   0.655  0.00  0.00    -0.166 F 
ATOM      9  F   UNL d   1       3.606   0.065  -0.777  0.00  0.00    -0.166 F 
ATOM     10  F   UNL d   1       3.413   0.468   1.343  0.00  0.00    -0.166 F 
ENDBRANCH   1   7
BRANCH   2  11
ATOM     11  C   UNL d   1       1.135  -2.635  -0.302  0.00  0.00     0.179 C 
ATOM     12  O   UNL d   1       2.029  -2.871  -1.101  0.00  0.00    -0.646 OA
BRANCH  11  13
ATOM     13  O   UNL d   1       0.578  -3.591   0.455  0.00  0.00    -0.773 OA
ATOM     14  H   UNL d   1       0.972  -4.428   0.133  0.00  0.00     0.167 HD
ENDBRANCH  11  13
ENDBRANCH   2  11
BRANCH   3  15
ATOM     15  O   UNL d   1      -1.601  -2.174  -0.406  0.00  0.00    -0.355 OA
ATOM     16  C   UNL d   1      -2.913  -1.932  -0.902  0.00  0.00     0.210 C 
ENDBRANCH   3  15
BRANCH   4  17
ATOM     17  C   UNL d   1      -1.074   2.692   0.339  0.00  0.00     0.417 C 
ATOM     18  F   UNL d   1      -0.142   3.671   0.492  0.00  0.00    -0.166 F 
ATOM     19  F   UNL d   1      -1.804   3.034  -0.758  0.00  0.00    -0.166 F 
ATOM     20  F   UNL d   1      -1.918   2.804   1.400  0.00  0.00    -0.166 F 
ENDBRANCH   4  17
TORSDOF 5
