REMARK  5 active torsions:
REMARK  status: ('A' for Active; 'I' for Inactive)
REMARK    1  A    between atoms: S_2  and  N_1 
REMARK    2  A    between atoms: C_10  and  S_2 
REMARK    3  A    between atoms: S_12  and  C_5 
REMARK    4  A    between atoms: C_11  and  C_6 
REMARK    5  A    between atoms: N_13  and  C_7 
ROOT
ATOM      1  N   UNL d   1      -0.189  -1.094  -0.028  0.00  0.00    -0.168 N 
ATOM      2  N   UNL d   1       1.094  -0.642  -0.046  0.00  0.00    -0.268 N 
ATOM      3  HN  UNL d   1       1.950  -1.195  -0.061  1.00  0.00     0.190 HD
ATOM      4  C   UNL d   1      -1.118  -0.057  -0.055  0.00  0.00     0.119 A 
ATOM      5  C   UNL d   1      -0.373   1.124  -0.060  0.00  0.00     0.055 A 
ATOM      6  C   UNL d   1       0.981   0.675  -0.038  0.00  0.00     0.128 A 
ENDROOT
BRANCH   1   7
ATOM      7  S   UNL d   1      -0.555  -2.795   0.031  0.00  0.00     0.283 S 
ATOM      8  O   UNL d   1       0.724  -3.488   0.099  0.00  0.00    -0.198 OA
ATOM      9  O   UNL d   1      -1.540  -2.957   1.084  0.00  0.00    -0.198 OA
BRANCH   7  10
ATOM     10  C   UNL d   1      -1.274  -3.208  -1.529  0.00  0.00     0.081 A 
ATOM     11  C   UNL d   1      -0.589  -2.917  -2.712  0.00  0.00     0.025 A 
ATOM     12  C   UNL d   1      -1.124  -3.335  -3.932  0.00  0.00     0.002 A 
ATOM     13  C   UNL d   1      -2.327  -4.044  -3.965  0.00  0.00     0.000 A 
ATOM     14  C   UNL d   1      -3.004  -4.335  -2.781  0.00  0.00     0.002 A 
ATOM     15  C   UNL d   1      -2.478  -3.920  -1.557  0.00  0.00     0.025 A 
ENDBRANCH   7  10
ENDBRANCH   1   7
BRANCH   4  16
ATOM     16  S   UNL d   1      -2.841  -0.318  -0.222  0.00  0.00    -0.113 SA
ATOM     17  C   UNL d   1      -3.397  -0.373   1.504  0.00  0.00     0.097 C 
ENDBRANCH   4  16
BRANCH   6  18
ATOM     18  N   UNL d   1       2.071   1.456  -0.018  0.00  0.00    -0.384 N 
ATOM     19  H   UNL d   1       2.951   0.986   0.171  0.00  0.00     0.157 HD
ATOM     20  H   UNL d   1       2.023   2.386   0.384  0.00  0.00     0.157 HD
ENDBRANCH   6  18
BRANCH   5  21
ATOM     21  C   UNL d   1      -0.882   2.499  -0.170  0.00  0.00    -0.019 A 
ATOM     22  C   UNL d   1      -2.030   2.936   0.503  0.00  0.00     0.012 A 
ATOM     23  C   UNL d   1      -2.495   4.250   0.380  0.00  0.00     0.001 A 
ATOM     24  C   UNL d   1      -1.794   5.168  -0.392  0.00  0.00     0.000 A 
ATOM     25  C   UNL d   1      -0.635   4.769  -1.049  0.00  0.00     0.001 A 
ATOM     26  C   UNL d   1      -0.193   3.444  -0.949  0.00  0.00     0.012 A 
ENDBRANCH   5  21
TORSDOF 5
