REMARK  8 active torsions:
REMARK  status: ('A' for Active; 'I' for Inactive)
REMARK    1  A    between atoms: O_9  and  C_1 
REMARK       I    between atoms: C_2  and  N_6 
REMARK       I    between atoms: N_12  and  C_2 
REMARK    2  A    between atoms: C_3  and  C_23 
REMARK    3  A    between atoms: N_6  and  C_16 
REMARK    4  A    between atoms: C_17  and  O_9 
REMARK    5  A    between atoms: C_26  and  N_12 
REMARK    6  A    between atoms: S_18  and  C_28 
REMARK    7  A    between atoms: C_23  and  S_18 
REMARK    8  A    between atoms: C_28  and  C_26 
ROOT
ATOM      1  C   UNL d   1       4.783   1.036   6.539  0.00  0.00     0.320 C 
ATOM      2  N   UNL d   1       5.199  -0.242   6.226  0.00  0.00    -0.309 N 
ATOM      3  O   UNL d   1       4.314   1.856   5.758  0.00  0.00    -0.247 OA
ATOM      4  N   UNL d   1       4.901   1.352   7.870  0.00  0.00    -0.342 N 
ATOM      5  H   UNL d   1       5.486  -0.835   6.988  0.00  0.00     0.170 HD
ATOM      6  H   UNL d   1       5.663   0.935   8.386  0.00  0.00     0.164 HD
ENDROOT
BRANCH   2   7
ATOM      7  C   UNL d   1       5.157  -0.807   4.924  0.00  0.00     0.036 A 
ATOM      8  C   UNL d   1       4.746  -0.080   3.805  0.00  0.00     0.032 A 
ATOM      9  C   UNL d   1       4.720  -0.644   2.530  0.00  0.00     0.039 A 
ATOM     10  C   UNL d   1       5.039  -1.978   2.350  0.00  0.00     0.078 A 
ATOM     11  C   UNL d   1       5.491  -2.712   3.456  0.00  0.00     0.039 A 
ATOM     12  C   UNL d   1       5.548  -2.135   4.735  0.00  0.00     0.032 A 
BRANCH  10  13
ATOM     13  O   UNL d   1       4.979  -2.644   1.167  0.00  0.00    -0.255 OA
BRANCH  13  14
ATOM     14  C   UNL d   1       4.050  -2.210   0.176  0.00  0.00     0.530 C 
ATOM     15  F   UNL d   1       3.148  -1.303   0.596  0.00  0.00    -0.144 F 
ATOM     16  F   UNL d   1       3.355  -3.294  -0.253  0.00  0.00    -0.144 F 
ATOM     17  F   UNL d   1       4.724  -1.703  -0.880  0.00  0.00    -0.144 F 
ENDBRANCH  13  14
ENDBRANCH  10  13
ENDBRANCH   2   7
BRANCH   4  18
ATOM     18  C   UNL d   1       4.529   2.721   8.216  0.00  0.00     0.134 C 
BRANCH  18  19
ATOM     19  C   UNL d   1       4.786   3.106   9.662  0.00  0.00     0.094 C 
BRANCH  19  20
ATOM     20  S   UNL d   1       6.540   2.934  10.132  0.00  0.00    -0.163 SA
BRANCH  20  21
ATOM     21  C   UNL d   1       7.300   4.116   8.954  0.00  0.00     0.113 C 
BRANCH  21  22
ATOM     22  C   UNL d   1       8.800   4.160   9.149  0.00  0.00    -0.037 A 
ATOM     23  C   UNL d   1       9.649   3.279   8.429  0.00  0.00    -0.054 A 
ATOM     24  C   UNL d   1      11.034   3.291   8.677  0.00  0.00     0.014 A 
ATOM     25  C   UNL d   1       9.180   2.306   7.375  0.00  0.00     0.049 C 
ATOM     26  C   UNL d   1      11.598   4.146   9.623  0.00  0.00    -0.061 A 
ATOM     27  C   UNL d   1      10.763   5.018  10.319  0.00  0.00     0.014 A 
ATOM     28  C   UNL d   1      13.074   4.109   9.880  0.00  0.00     0.048 C 
ATOM     29  C   UNL d   1       9.376   5.041  10.100  0.00  0.00    -0.054 A 
ATOM     30  C   UNL d   1       8.589   6.034  10.920  0.00  0.00     0.049 C 
ENDBRANCH  21  22
ENDBRANCH  20  21
ENDBRANCH  19  20
ENDBRANCH  18  19
ENDBRANCH   4  18
TORSDOF 8
