REMARK  2 active torsions:
REMARK  status: ('A' for Active; 'I' for Inactive)
REMARK    1  A    between atoms: C_8  and  N_1 
REMARK    2  A    between atoms: C_9  and  C_4 
ROOT
ATOM      1  C   UNL d   1      -0.487  -2.545   0.036  0.00  0.00     0.078 A 
ATOM      2  N   UNL d   1       2.248  -2.688   2.386  0.00  0.00    -0.191 NA
ATOM      3  C   UNL d   1       0.376  -3.416   0.739  0.00  0.00     0.073 A 
ATOM      4  C   UNL d   1       1.419  -2.975   1.626  0.00  0.00     0.102 C 
ATOM      5  C   UNL d   1      -1.527  -3.091  -0.733  0.00  0.00     0.033 A 
ATOM      6  C   UNL d   1       0.170  -4.805   0.658  0.00  0.00     0.025 A 
ATOM      7  C   UNL d   1      -1.715  -4.475  -0.801  0.00  0.00     0.002 A 
ATOM      8  C   UNL d   1      -0.868  -5.332  -0.105  0.00  0.00     0.002 A 
ENDROOT
BRANCH   1   9
ATOM      9  N   UNL d   1      -0.279  -1.136   0.052  0.00  0.00    -0.243 N 
ATOM     10  N   UNL d   1       0.978  -0.646   0.132  0.00  0.00    -0.235 N 
ATOM     11  N   UNL d   1       0.937   0.669   0.051  0.00  0.00    -0.280 N 
ATOM     12  HN  UNL d   1       1.824  -1.206   0.238  1.00  0.00     0.209 HD
ATOM     13  C   UNL d   1      -0.369   1.055  -0.046  0.00  0.00     0.119 A 
ATOM     14  HN  UNL d   1       1.744   1.292   0.059  1.00  0.00     0.188 HD
ATOM     15  C   UNL d   1      -1.177  -0.077  -0.057  0.00  0.00     0.064 A 
ATOM     16  C   UNL d   1      -2.657  -0.202  -0.043  0.00  0.00     0.073 C 
BRANCH  13  17
ATOM     17  C   UNL d   1      -0.754   2.464  -0.087  0.00  0.00     0.175 C 
ATOM     18  O   UNL d   1      -1.931   2.817  -0.178  0.00  0.00    -0.291 OA
ATOM     19  C   UNL d   1       0.331   3.511  -0.002  0.00  0.00     0.098 C 
ENDBRANCH  13  17
ENDBRANCH   1   9
TORSDOF 2
