REMARK  2 active torsions:
REMARK  status: ('A' for Active; 'I' for Inactive)
REMARK    1  A    between atoms: C_13  and  C_3 
REMARK    2  A    between atoms: C_8  and  C_7 
ROOT
ATOM      1  N   UNL d   1      -0.799   0.052   0.039  0.00  0.00    -0.331 N 
ATOM      2  HN  UNL d   1      -1.787  -0.190   0.119  1.00  0.00     0.168 HD
ATOM      3  C   UNL d   1      -0.262   1.226  -0.039  0.00  0.00     0.162 A 
ATOM      4  C   UNL d   1       0.282  -0.787  -0.013  0.00  0.00     0.112 A 
ATOM      5  O   UNL d   1       1.086   1.291  -0.147  0.00  0.00    -0.256 OA
ATOM      6  C   UNL d   1       1.536   0.003  -0.136  0.00  0.00     0.316 A 
ATOM      7  C   UNL d   1       0.276  -2.126   0.019  0.00  0.00     0.054 C 
ATOM      8  O   UNL d   1       2.685  -0.380  -0.204  0.00  0.00    -0.257 OA
ENDROOT
BRANCH   7   9
ATOM      9  C   UNL d   1      -0.934  -2.877   0.120  0.00  0.00     0.008 A 
ATOM     10  C   UNL d   1      -2.146  -2.554   0.716  0.00  0.00     0.038 A 
ATOM     11  C   UNL d   1      -3.130  -3.550   0.525  0.00  0.00     0.018 A 
ATOM     12 BR   UNL d   1      -4.889  -3.344   1.170  0.00  0.00    -0.051 Br
ATOM     13  C   UNL d   1      -2.669  -4.637  -0.168  0.00  0.00     0.069 A 
ATOM     14  S   UNL d   1      -1.018  -4.454  -0.578  0.00  0.00    -0.101 SA
ENDBRANCH   7   9
BRANCH   3  15
ATOM     15  C   UNL d   1      -0.988   2.502   0.004  0.00  0.00     0.015 A 
ATOM     16  C   UNL d   1      -2.384   2.476   0.136  0.00  0.00     0.016 A 
ATOM     17  C   UNL d   1      -3.101   3.668   0.237  0.00  0.00     0.001 A 
ATOM     18  C   UNL d   1      -2.427   4.888   0.203  0.00  0.00     0.000 A 
ATOM     19  C   UNL d   1      -1.040   4.918   0.054  0.00  0.00     0.001 A 
ATOM     20  C   UNL d   1      -0.317   3.728  -0.048  0.00  0.00     0.016 A 
ENDBRANCH   3  15
TORSDOF 2
