REMARK  8 active torsions:
REMARK  status: ('A' for Active; 'I' for Inactive)
REMARK    1  A    between atoms: C_6  and  C_1 
REMARK    2  A    between atoms: C_3  and  C_8 
REMARK       I    between atoms: N_16  and  C_6 
REMARK    3  A    between atoms: C_25  and  N_16 
REMARK    4  A    between atoms: O_21  and  C_17 
REMARK    5  A    between atoms: C_18  and  C_24 
REMARK    6  A    between atoms: S_20  and  C_27 
REMARK    7  A    between atoms: C_24  and  S_20 
REMARK    8  A    between atoms: C_27  and  C_25 
ROOT
ATOM      1  C   UNL d   1      -3.861  -0.137  -0.085  0.00  0.00     0.268 C 
ATOM      2  O   UNL d   1      -4.420  -1.226  -0.114  0.00  0.00    -0.266 OA
ATOM      3  N   UNL d   1      -4.550   1.052  -0.136  0.00  0.00    -0.355 N 
ATOM      4  H   UNL d   1      -4.039   1.918  -0.228  0.00  0.00     0.162 HD
ENDROOT
BRANCH   3   5
ATOM      5  C   UNL d   1      -5.992   1.098  -0.242  0.00  0.00     0.133 C 
BRANCH   5   6
ATOM      6  C   UNL d   1      -6.524   2.525  -0.402  0.00  0.00     0.093 C 
BRANCH   6   7
ATOM      7  S   UNL d   1      -5.804   3.427  -1.827  0.00  0.00    -0.163 SA
BRANCH   7   8
ATOM      8  C   UNL d   1      -6.331   2.330  -3.180  0.00  0.00     0.112 C 
BRANCH   8   9
ATOM      9  C   UNL d   1      -5.846   2.808  -4.525  0.00  0.00    -0.048 A 
ATOM     10  C   UNL d   1      -6.619   3.693  -5.292  0.00  0.00     0.024 A 
ATOM     11  C   UNL d   1      -6.188   4.112  -6.562  0.00  0.00     0.048 A 
ATOM     12  C   UNL d   1      -4.957   3.649  -7.050  0.00  0.00     0.016 A 
ATOM     13  C   UNL d   1      -4.175   2.781  -6.289  0.00  0.00     0.001 A 
ATOM     14  C   UNL d   1      -4.617   2.364  -5.034  0.00  0.00     0.008 A 
BRANCH  11  15
ATOM     15  C   UNL d   1      -7.029   5.037  -7.406  0.00  0.00     0.417 C 
ATOM     16  F   UNL d   1      -8.217   5.376  -6.829  0.00  0.00    -0.166 F 
ATOM     17  F   UNL d   1      -6.400   6.212  -7.683  0.00  0.00    -0.166 F 
ATOM     18  F   UNL d   1      -7.348   4.491  -8.613  0.00  0.00    -0.166 F 
ENDBRANCH  11  15
ENDBRANCH   8   9
ENDBRANCH   7   8
ENDBRANCH   6   7
ENDBRANCH   5   6
ENDBRANCH   3   5
BRANCH   1  19
ATOM     19  C   UNL d   1      -2.425   0.002   0.004  0.00  0.00     0.102 A 
ATOM     20  N   UNL d   1      -1.582  -1.092   0.048  0.00  0.00    -0.351 N 
ATOM     21  C   UNL d   1      -0.269  -0.697   0.174  0.00  0.00     0.043 A 
ATOM     22  H   UNL d   1      -1.906  -2.050   0.013  0.00  0.00     0.166 HD
ATOM     23  C   UNL d   1       0.909  -1.446   0.277  0.00  0.00     0.033 A 
ATOM     24  C   UNL d   1      -0.267   0.694   0.194  0.00  0.00    -0.004 A 
ATOM     25  C   UNL d   1       2.118  -0.744   0.410  0.00  0.00     0.039 A 
ATOM     26  C   UNL d   1       2.147   0.651   0.436  0.00  0.00     0.069 A 
ATOM     27  C   UNL d   1       0.955   1.374   0.323  0.00  0.00     0.050 A 
ATOM     28  C   UNL d   1      -1.615   1.120   0.077  0.00  0.00     0.049 A 
BRANCH  26  29
ATOM     29  O   UNL d   1       3.258   1.438   0.569  0.00  0.00    -0.356 OA
ATOM     30  C   UNL d   1       4.507   0.779   0.708  0.00  0.00     0.210 C 
ENDBRANCH  26  29
ENDBRANCH   1  19
TORSDOF 8
