REMARK  6 active torsions:
REMARK  status: ('A' for Active; 'I' for Inactive)
REMARK    1  A    between atoms: N_4  and  N_1 
REMARK       I    between atoms: C_3  and  N_4 
REMARK    2  A    between atoms: O_15  and  C_3 
REMARK    3  A    between atoms: C_5  and  C_7 
REMARK    4  A    between atoms: C_8  and  C_6 
REMARK    5  A    between atoms: C_18  and  C_6 
REMARK    6  A    between atoms: C_20  and  O_15 
ROOT
ATOM      1  C   UNL d   1       4.306  -2.927   2.514  0.00  0.00    -0.023 A 
ATOM      2  C   UNL d   1       2.929  -1.105   0.758  0.00  0.00    -0.012 A 
ATOM      3  C   UNL d   1       3.250  -3.337   1.687  0.00  0.00     0.013 A 
ATOM      4  C   UNL d   1       4.663  -1.575   2.442  0.00  0.00     0.013 A 
ATOM      5  C   UNL d   1       3.987  -0.684   1.587  0.00  0.00     0.014 A 
ATOM      6  C   UNL d   1       2.587  -2.451   0.821  0.00  0.00     0.014 A 
ENDROOT
BRANCH   2   7
ATOM      7  C   UNL d   1       2.251  -0.063  -0.116  0.00  0.00     0.035 C 
ATOM      8  N   UNL d   1       2.728   1.155  -0.027  0.00  0.00    -0.300 N 
ATOM      9  HN  UNL d   1       3.503   1.353   0.605  1.00  0.00     0.186 HD
BRANCH   8  10
ATOM     10  N   UNL d   1       2.188   2.153  -0.777  0.00  0.00    -0.245 N 
ATOM     11  C   UNL d   1       2.451   3.474  -0.521  0.00  0.00     0.379 C 
ATOM     12  O   UNL d   1       3.214   3.926   0.321  0.00  0.00    -0.237 OA
ATOM     13  H   UNL d   1       1.472   1.976  -1.466  0.00  0.00     0.192 HD
BRANCH  11  14
ATOM     14  O   UNL d   1       1.661   4.227  -1.336  0.00  0.00    -0.303 OA
BRANCH  14  15
ATOM     15  C   UNL d   1       1.654   5.636  -1.071  0.00  0.00     0.176 C 
ATOM     16  C   UNL d   1       0.594   5.944  -0.029  0.00  0.00     0.034 C 
ENDBRANCH  14  15
ENDBRANCH  11  14
ENDBRANCH   8  10
BRANCH   7  17
ATOM     17  C   UNL d   1       1.047  -0.344  -1.045  0.00  0.00     0.055 C 
ATOM     18  C   UNL d   1       0.368  -1.683  -1.204  0.00  0.00     0.011 C 
ENDBRANCH   7  17
ENDBRANCH   2   7
BRANCH   1  19
ATOM     19  C   UNL d   1       4.971  -3.886   3.426  0.00  0.00     0.013 A 
ATOM     20  C   UNL d   1       5.192  -5.230   3.066  0.00  0.00     0.127 A 
ATOM     21  F   UNL d   1       4.863  -5.671   1.841  0.00  0.00    -0.205 F 
ATOM     22  C   UNL d   1       5.751  -6.155   3.947  0.00  0.00     0.043 A 
ATOM     23  C   UNL d   1       6.126  -5.755   5.224  0.00  0.00     0.003 A 
ATOM     24  C   UNL d   1       5.947  -4.428   5.607  0.00  0.00     0.001 A 
ATOM     25  C   UNL d   1       5.375  -3.506   4.720  0.00  0.00     0.015 A 
ENDBRANCH   1  19
TORSDOF 6
