REMARK  4 active torsions:
REMARK  status: ('A' for Active; 'I' for Inactive)
REMARK    1  A    between atoms: C_2  and  C_1 
REMARK       I    between atoms: N_4  and  C_1 
REMARK    2  A    between atoms: C_7  and  C_3 
REMARK    3  A    between atoms: C_6  and  N_4 
REMARK    4  A    between atoms: O_13  and  C_8 
ROOT
ATOM      1  C   UNL d   1       1.101   0.091   0.102  0.00  0.00     0.245 C 
ATOM      2  N   UNL d   1       0.292  -0.442   1.086  0.00  0.00    -0.324 N 
ATOM      3  O   UNL d   1       2.325   0.060   0.055  0.00  0.00    -0.268 OA
ATOM      4  H   UNL d   1      -0.708  -0.336   0.980  0.00  0.00     0.169 HD
ENDROOT
BRANCH   1   5
ATOM      5  C   UNL d   1       0.319   0.753  -0.979  0.00  0.00     0.075 C 
ATOM      6  C   UNL d   1       0.976   1.381  -1.966  0.00  0.00     0.017 C 
BRANCH   6   7
ATOM      7  C   UNL d   1       0.275   2.028  -3.071  0.00  0.00    -0.036 A 
ATOM      8  C   UNL d   1      -0.137   3.361  -2.967  0.00  0.00     0.011 A 
ATOM      9  C   UNL d   1      -0.805   3.973  -4.029  0.00  0.00     0.001 A 
ATOM     10  C   UNL d   1      -1.065   3.255  -5.196  0.00  0.00     0.000 A 
ATOM     11  C   UNL d   1      -0.655   1.927  -5.305  0.00  0.00     0.001 A 
ATOM     12  C   UNL d   1       0.014   1.314  -4.245  0.00  0.00     0.011 A 
ENDBRANCH   6   7
ENDBRANCH   1   5
BRANCH   2  13
ATOM     13  C   UNL d   1       0.714  -1.144   2.238  0.00  0.00     0.035 A 
ATOM     14  C   UNL d   1       2.052  -1.389   2.550  0.00  0.00     0.032 A 
ATOM     15  C   UNL d   1       2.402  -2.119   3.693  0.00  0.00     0.039 A 
ATOM     16  C   UNL d   1       1.415  -2.616   4.538  0.00  0.00     0.068 A 
ATOM     17  C   UNL d   1       0.077  -2.342   4.256  0.00  0.00     0.039 A 
ATOM     18  C   UNL d   1      -0.274  -1.619   3.109  0.00  0.00     0.032 A 
BRANCH  16  19
ATOM     19  O   UNL d   1       1.649  -3.342   5.672  0.00  0.00    -0.356 OA
ATOM     20  C   UNL d   1       2.825  -4.148   5.638  0.00  0.00     0.210 C 
ENDBRANCH  16  19
ENDBRANCH   2  13
TORSDOF 4
