REMARK  2 active torsions:
REMARK  status: ('A' for Active; 'I' for Inactive)
REMARK    1  A    between atoms: C_6  and  C_1 
REMARK    2  A    between atoms: C_7  and  N_3 
ROOT
ATOM      1  C   UNL d   1      -0.319  -1.116   0.129  0.00  0.00     0.117 A 
ATOM      2  N   UNL d   1      -1.085   0.036   0.333  0.00  0.00    -0.191 NA
ATOM      3  N   UNL d   1      -0.260   1.121  -0.001  0.00  0.00    -0.238 N 
ATOM      4  C   UNL d   1       0.947  -0.827  -0.205  0.00  0.00     0.105 A 
ATOM      5  C   UNL d   1       1.016   0.648  -0.306  0.00  0.00     0.264 A 
ATOM      6  O   UNL d   1       2.037   1.234  -0.622  0.00  0.00    -0.267 OA
ATOM      7  H   UNL d   1      -1.967   0.009  -0.187  0.00  0.00     0.153 HD
ENDROOT
BRANCH   3   8
ATOM      8  C   UNL d   1      -0.750   2.444   0.021  0.00  0.00     0.055 A 
ATOM      9  C   UNL d   1       0.016   3.506  -0.478  0.00  0.00     0.031 A 
ATOM     10  C   UNL d   1      -0.479   4.814  -0.473  0.00  0.00     0.002 A 
ATOM     11  C   UNL d   1      -1.745   5.081   0.040  0.00  0.00     0.000 A 
ATOM     12  C   UNL d   1      -2.516   4.041   0.549  0.00  0.00     0.002 A 
ATOM     13  C   UNL d   1      -2.023   2.731   0.538  0.00  0.00     0.031 A 
ENDBRANCH   3   8
BRANCH   1  14
ATOM     14  C   UNL d   1      -0.896  -2.503   0.178  0.00  0.00     0.429 C 
ATOM     15  F   UNL d   1      -2.253  -2.478   0.222  0.00  0.00    -0.165 F 
ATOM     16  F   UNL d   1      -0.556  -3.225  -0.920  0.00  0.00    -0.165 F 
ATOM     17  F   UNL d   1      -0.470  -3.197   1.261  0.00  0.00    -0.165 F 
ENDBRANCH   1  14
TORSDOF 2
