REMARK  5 active torsions:
REMARK  status: ('A' for Active; 'I' for Inactive)
REMARK    1  A    between atoms: N_3  and  C_1 
REMARK    2  A    between atoms: O_5  and  C_2 
REMARK    3  A    between atoms: C_4  and  O_5 
REMARK    4  A    between atoms: C_6  and  C_4 
REMARK    5  A    between atoms: C_7  and  C_9 
ROOT
ATOM      1  C   UNL d   1       2.231  -1.170   0.017  0.00  0.00     0.139 A 
ATOM      2  C   UNL d   1       0.927  -1.032   0.500  0.00  0.00     0.130 A 
ATOM      3  C   UNL d   1       3.042  -0.049  -0.225  0.00  0.00     0.055 A 
ATOM      4  C   UNL d   1       2.544   1.238   0.028  0.00  0.00     0.051 A 
ATOM      5  C   UNL d   1       0.441   0.250   0.781  0.00  0.00     0.048 A 
ATOM      6  C   UNL d   1       1.236   1.374   0.526  0.00  0.00     0.038 A 
ATOM      7 BR   UNL d   1      -1.243   0.541   1.611  0.00  0.00    -0.048 Br
ENDROOT
BRANCH   2   8
ATOM      8  O   UNL d   1       0.194  -2.170   0.860  0.00  0.00    -0.271 OA
BRANCH   8   9
ATOM      9  C   UNL d   1      -0.937  -2.433   0.100  0.00  0.00     0.304 C 
ATOM     10  O   UNL d   1      -1.240  -1.863  -0.933  0.00  0.00    -0.259 OA
BRANCH   9  11
ATOM     11  C   UNL d   1      -1.730  -3.501   0.756  0.00  0.00     0.116 A 
ATOM     12  C   UNL d   1      -2.779  -4.106   0.063  0.00  0.00     0.135 A 
ATOM     13  F   UNL d   1      -3.074  -3.758  -1.197  0.00  0.00    -0.205 F 
ATOM     14  C   UNL d   1      -3.562  -5.099   0.658  0.00  0.00     0.043 A 
ATOM     15  C   UNL d   1      -3.306  -5.503   1.967  0.00  0.00     0.006 A 
ATOM     16  C   UNL d   1      -2.270  -4.903   2.675  0.00  0.00     0.043 A 
ATOM     17  C   UNL d   1      -1.496  -3.909   2.074  0.00  0.00     0.135 A 
ATOM     18  F   UNL d   1      -0.538  -3.349   2.826  0.00  0.00    -0.205 F 
ENDBRANCH   9  11
ENDBRANCH   8   9
ENDBRANCH   2   8
BRANCH   1  19
ATOM     19  N   UNL d   1       2.808  -2.489  -0.176  0.00  0.00    -0.113 N 
ATOM     20  O   UNL d   1       2.154  -3.316  -0.823  0.00  0.00    -0.532 OA
ATOM     21  O   UNL d   1       3.932  -2.683   0.308  0.00  0.00    -0.532 OA
ENDBRANCH   1  19
BRANCH   4  22
ATOM     22  C   UNL d   1       3.387   2.470  -0.205  0.00  0.00     0.417 C 
ATOM     23  F   UNL d   1       4.693   2.188  -0.463  0.00  0.00    -0.166 F 
ATOM     24  F   UNL d   1       2.943   3.208  -1.256  0.00  0.00    -0.166 F 
ATOM     25  F   UNL d   1       3.389   3.305   0.870  0.00  0.00    -0.166 F 
ENDBRANCH   4  22
TORSDOF 5
