REMARK  3 active torsions:
REMARK  status: ('A' for Active; 'I' for Inactive)
REMARK    1  A    between atoms: C_3  and  C_1 
REMARK    2  A    between atoms: N_8  and  C_2 
REMARK    3  A    between atoms: O_9  and  C_3 
ROOT
ATOM      1  C   UNL d   1      -0.252   1.129   0.005  0.00  0.00     0.106 A 
ATOM      2  C   UNL d   1      -1.176   0.097   0.003  0.00  0.00     0.049 A 
ATOM      3  S   UNL d   1       1.353   0.500   0.003  0.00  0.00    -0.094 SA
ATOM      4  C   UNL d   1      -0.572  -1.190   0.001  0.00  0.00     0.038 A 
ATOM      5  C   UNL d   1       0.802  -1.116   0.000  0.00  0.00     0.053 A 
ENDROOT
BRANCH   1   6
ATOM      6  C   UNL d   1      -0.420   2.572   0.008  0.00  0.00     0.302 C 
ATOM      7  O   UNL d   1       0.476   3.411   0.011  0.00  0.00    -0.259 OA
BRANCH   6   8
ATOM      8  O   UNL d   1      -1.752   2.900   0.007  0.00  0.00    -0.322 OA
ATOM      9  C   UNL d   1      -2.011   4.303   0.012  0.00  0.00     0.213 C 
ENDBRANCH   6   8
ENDBRANCH   1   6
BRANCH   2  10
ATOM     10  N   UNL d   1      -2.514   0.249   0.004  0.00  0.00    -0.398 N 
ATOM     11  H   UNL d   1      -2.948   1.172  -0.003  0.00  0.00     0.156 HD
ATOM     12  H   UNL d   1      -3.168  -0.526  -0.010  0.00  0.00     0.156 HD
ENDBRANCH   2  10
TORSDOF 3
