REMARK  1 active torsions:
REMARK  status: ('A' for Active; 'I' for Inactive)
REMARK    1  A    between atoms: C_7  and  C_1 
ROOT
ATOM      1  C   UNL d   1       2.288   0.762   0.004  0.00  0.00     0.164 A 
ATOM      2  C   UNL d   1       1.322  -1.371   0.116  0.00  0.00     0.305 A 
ATOM      3  N   UNL d   1       1.179   1.416  -0.029  0.00  0.00    -0.335 N 
ATOM      4  HN  UNL d   1       1.165   2.435  -0.082  1.00  0.00     0.168 HD
ATOM      5  O   UNL d   1       2.422  -0.579   0.084  0.00  0.00    -0.256 OA
ATOM      6  C   UNL d   1       0.016  -0.707   0.063  0.00  0.00     0.105 A 
ATOM      7  C   UNL d   1       0.002   0.679   0.010  0.00  0.00     0.053 A 
ATOM      8  O   UNL d   1       1.431  -2.587   0.182  0.00  0.00    -0.259 OA
ATOM      9  C   UNL d   1      -1.181  -1.417   0.047  0.00  0.00     0.135 A 
ATOM     10  F   UNL d   1      -1.201  -2.757   0.086  0.00  0.00    -0.205 F 
ATOM     11  C   UNL d   1      -1.220   1.354  -0.037  0.00  0.00     0.031 A 
ATOM     12  C   UNL d   1      -2.421   0.646  -0.062  0.00  0.00     0.005 A 
ATOM     13  C   UNL d   1      -2.399  -0.747  -0.025  0.00  0.00     0.043 A 
ENDROOT
BRANCH   1  14
ATOM     14  C   UNL d   1       3.626   1.396  -0.053  0.00  0.00     0.037 A 
ATOM     15  C   UNL d   1       3.893   2.647   0.526  0.00  0.00     0.050 A 
ATOM     16  C   UNL d   1       5.172   3.207   0.422  0.00  0.00     0.048 A 
ATOM     17 CL   UNL d   1       2.732   3.553   1.432  0.00  0.00    -0.083 Cl
ATOM     18  C   UNL d   1       6.182   2.526  -0.254  0.00  0.00     0.035 A 
ATOM     19  C   UNL d   1       5.931   1.287  -0.835  0.00  0.00     0.025 A 
ATOM     20 CL   UNL d   1       7.751   3.219  -0.367  0.00  0.00    -0.084 Cl
ATOM     21  C   UNL d   1       4.657   0.724  -0.738  0.00  0.00     0.019 A 
ENDBRANCH   1  14
TORSDOF 1
