REMARK  3 active torsions:
REMARK  status: ('A' for Active; 'I' for Inactive)
REMARK    1  A    between atoms: C_2  and  C_1 
REMARK    2  A    between atoms: O_8  and  C_2 
REMARK    3  A    between atoms: S_7  and  C_3 
ROOT
ATOM      1  C   UNL d   1       0.032  -1.484   0.044  0.00  0.00     0.070 A 
ATOM      2  C   UNL d   1       1.237  -0.784   0.026  0.00  0.00     0.084 A 
ATOM      3  N   UNL d   1       1.292   0.573   0.004  0.00  0.00    -0.360 N 
ATOM      4  HN  UNL d   1       2.186   1.062  -0.021  1.00  0.00     0.166 HD
ATOM      5  C   UNL d   1      -1.158  -0.741   0.061  0.00  0.00     0.022 A 
ATOM      6  C   UNL d   1       0.126   1.256   0.016  0.00  0.00     0.089 A 
ATOM      7  C   UNL d   1      -1.114   0.649   0.043  0.00  0.00     0.018 A 
ENDROOT
BRANCH   1   8
ATOM      8  C   UNL d   1      -0.105  -2.957   0.088  0.00  0.00     0.178 C 
ATOM      9  O   UNL d   1      -1.050  -3.494   0.649  0.00  0.00    -0.646 OA
BRANCH   8  10
ATOM     10  O   UNL d   1       0.817  -3.661  -0.596  0.00  0.00    -0.773 OA
ATOM     11  H   UNL d   1       1.543  -3.142  -0.997  0.00  0.00     0.167 HD
ENDBRANCH   8  10
ENDBRANCH   1   8
BRANCH   2  12
ATOM     12  S   UNL d   1       2.844  -1.552   0.032  0.00  0.00    -0.124 SA
ATOM     13  H   UNL d   1       2.825  -1.891   1.329  0.00  0.00     0.108 HD
ENDBRANCH   2  12
TORSDOF 3
