REMARK  1 active torsions:
REMARK  status: ('A' for Active; 'I' for Inactive)
REMARK    1  A    between atoms: C_14  and  C_6 
ROOT
ATOM      1  C   UNL d   1      -0.948  -0.494  -0.005  0.00  0.00     0.068 A 
ATOM      2  C   UNL d   1      -1.690   0.673  -0.007  0.00  0.00     0.047 A 
ATOM      3  N   UNL d   1      -3.040   0.426   0.000  0.00  0.00    -0.343 N 
ATOM      4  HN  UNL d   1      -3.793   1.113   0.007  1.00  0.00     0.167 HD
ATOM      5  N   UNL d   1      -1.910  -1.467   0.032  0.00  0.00    -0.339 N 
ATOM      6  C   UNL d   1      -3.159  -0.886  -0.004  0.00  0.00     0.116 A 
ATOM      7  C   UNL d   1       0.515  -0.567   0.004  0.00  0.00     0.005 A 
ATOM      8  C   UNL d   1      -1.129   2.056   0.033  0.00  0.00     0.001 A 
ATOM      9  C   UNL d   1       1.167   0.698   0.012  0.00  0.00    -0.043 A 
ATOM     10  C   UNL d   1       1.317  -1.731  -0.006  0.00  0.00    -0.048 A 
ATOM     11  C   UNL d   1       0.430   2.034  -0.005  0.00  0.00     0.054 A 
ATOM     12  C   UNL d   1       2.573   0.784   0.014  0.00  0.00     0.014 A 
ATOM     13  C   UNL d   1       2.729  -1.598   0.005  0.00  0.00     0.014 A 
ATOM     14  C   UNL d   1       3.362  -0.357   0.012  0.00  0.00    -0.061 A 
ATOM     15  C   UNL d   1      -1.589   2.748   1.334  0.00  0.00     0.022 C 
ATOM     16  C   UNL d   1      -1.644   2.868  -1.173  0.00  0.00     0.022 C 
ATOM     17  C   UNL d   1       0.852  -3.161  -0.029  0.00  0.00     0.049 C 
ATOM     18  C   UNL d   1       4.855  -0.233   0.011  0.00  0.00     0.048 C 
ATOM     19  H   UNL d   1      -1.780  -2.457   0.119  0.00  0.00     0.167 HD
ENDROOT
BRANCH   6  20
ATOM     20  C   UNL d   1      -4.408  -1.650   0.010  0.00  0.00     0.008 A 
ATOM     21  C   UNL d   1      -5.567  -1.075   0.550  0.00  0.00     0.015 A 
ATOM     22  C   UNL d   1      -6.769  -1.788   0.584  0.00  0.00     0.001 A 
ATOM     23  C   UNL d   1      -6.827  -3.081   0.069  0.00  0.00     0.000 A 
ATOM     24  C   UNL d   1      -5.687  -3.660  -0.483  0.00  0.00     0.001 A 
ATOM     25  C   UNL d   1      -4.485  -2.950  -0.514  0.00  0.00     0.015 A 
ENDBRANCH   6  20
TORSDOF 1
