REMARK  2 active torsions:
REMARK  status: ('A' for Active; 'I' for Inactive)
REMARK    1  A    between atoms: C_7  and  C_1 
REMARK    2  A    between atoms: O_13  and  C_7 
ROOT
ATOM      1  C   UNL d   1      -1.412   1.212  -0.000  0.00  0.00     0.184 A 
ATOM      2  C   UNL d   1      -0.120   0.753   0.000  0.00  0.00     0.035 A 
ATOM      3  O   UNL d   1      -2.236   0.120   0.000  0.00  0.00    -0.230 OA
ATOM      4  N   UNL d   1      -1.502  -1.047   0.001  0.00  0.00    -0.260 N 
ATOM      5  HN  UNL d   1      -1.871  -1.998   0.002  1.00  0.00     0.195 HD
ATOM      6  C   UNL d   1      -0.208  -0.688   0.001  0.00  0.00     0.068 A 
ATOM      7  C   UNL d   1       1.047   1.514   0.000  0.00  0.00     0.017 A 
ATOM      8  C   UNL d   1       0.949  -1.483   0.001  0.00  0.00     0.032 A 
ATOM      9  C   UNL d   1       2.193   0.690  -0.000  0.00  0.00     0.001 A 
ATOM     10  C   UNL d   1       2.150  -0.740  -0.000  0.00  0.00     0.002 A 
ENDROOT
BRANCH   1  11
ATOM     11  C   UNL d   1      -2.017   2.513  -0.001  0.00  0.00     0.204 C 
ATOM     12  O   UNL d   1      -1.428   3.585  -0.002  0.00  0.00    -0.644 OA
BRANCH  11  13
ATOM     13  O   UNL d   1      -3.377   2.443   0.000  0.00  0.00    -0.771 OA
ATOM     14  H   UNL d   1      -3.703   1.520   0.001  0.00  0.00     0.167 HD
ENDBRANCH  11  13
ENDBRANCH   1  11
TORSDOF 2
