REMARK  3 active torsions:
REMARK  status: ('A' for Active; 'I' for Inactive)
REMARK    1  A    between atoms: C_7  and  N_1 
REMARK    2  A    between atoms: C_8  and  C_2 
REMARK    3  A    between atoms: C_9  and  C_10 
ROOT
ATOM      1  N   UNL d   1      -0.192  -1.215  -0.385  0.00  0.00    -0.223 N 
ATOM      2  C   UNL d   1       0.997  -0.624   0.034  0.00  0.00     0.148 C 
ATOM      3  N   UNL d   1      -1.133  -0.246  -0.473  0.00  0.00     0.001 NA
ATOM      4  N   UNL d   1      -0.594   0.831   0.073  0.00  0.00    -0.007 NA
ATOM      5  N   UNL d   1       0.716   0.612   0.401  0.00  0.00    -0.269 N 
ATOM      6  HN  UNL d   1       1.352   1.275   0.844  1.00  0.00     0.185 HD
ENDROOT
BRANCH   2   7
ATOM      7  C   UNL d   1       2.334  -1.216  -0.025  0.00  0.00     0.011 A 
ATOM      8  C   UNL d   1       2.730  -2.019  -1.102  0.00  0.00     0.016 A 
ATOM      9  C   UNL d   1       3.979  -2.644  -1.111  0.00  0.00     0.009 A 
ATOM     10  C   UNL d   1       4.899  -2.453  -0.066  0.00  0.00    -0.051 A 
ATOM     11  C   UNL d   1       4.519  -1.587   0.972  0.00  0.00     0.009 A 
ATOM     12  C   UNL d   1       3.256  -0.977   0.994  0.00  0.00     0.016 A 
BRANCH  10  13
ATOM     13  C   UNL d   1       6.251  -3.186  -0.094  0.00  0.00    -0.024 C 
ATOM     14  C   UNL d   1       7.168  -2.832   1.097  0.00  0.00     0.019 C 
ATOM     15  C   UNL d   1       6.008  -4.710  -0.053  0.00  0.00     0.019 C 
ATOM     16  C   UNL d   1       7.021  -2.835  -1.387  0.00  0.00     0.019 C 
ENDBRANCH  10  13
ENDBRANCH   2   7
BRANCH   1  17
ATOM     17  C   UNL d   1      -0.484  -2.558  -0.697  0.00  0.00     0.071 A 
ATOM     18  C   UNL d   1      -1.444  -2.844  -1.659  0.00  0.00     0.118 A 
ATOM     19  N   UNL d   1      -1.699  -4.101  -2.096  0.00  0.00    -0.373 N 
ATOM     20  C   UNL d   1      -1.000  -5.107  -1.527  0.00  0.00     0.088 A 
ATOM     21  HN  UNL d   1      -2.389  -4.280  -2.825  1.00  0.00     0.164 HD
ATOM     22  C   UNL d   1      -0.066  -4.922  -0.521  0.00  0.00     0.019 A 
ATOM     23  C   UNL d   1       0.194  -3.621  -0.097  0.00  0.00     0.034 A 
ENDBRANCH   1  17
TORSDOF 3
