REMARK  6 active torsions:
REMARK  status: ('A' for Active; 'I' for Inactive)
REMARK    1  A    between atoms: C_5  and  C_1 
REMARK    2  A    between atoms: N_4  and  C_2 
REMARK    3  A    between atoms: C_3  and  N_4 
REMARK    4  A    between atoms: N_7  and  C_3 
REMARK    5  A    between atoms: O_14  and  C_5 
REMARK    6  A    between atoms: C_10  and  N_7 
ROOT
ATOM      1  C   UNL d   1       2.865   2.068  -0.192  0.00  0.00     0.176 C 
ATOM      2  S   UNL d   1       1.993   3.498  -0.041  0.00  0.00    -0.041 SA
ENDROOT
BRANCH   1   3
ATOM      3  N   UNL d   1       2.375   0.780  -0.222  0.00  0.00    -0.332 N 
ATOM      4  H   UNL d   1       2.963   0.056   0.183  0.00  0.00     0.168 HD
BRANCH   3   5
ATOM      5  C   UNL d   1       1.065   0.388  -0.566  0.00  0.00     0.058 A 
ATOM      6  C   UNL d   1       0.495  -0.837  -0.222  0.00  0.00     0.106 A 
ATOM      7  S   UNL d   1      -1.147  -0.936  -0.755  0.00  0.00    -0.094 SA
ATOM      8  C   UNL d   1      -1.067   0.558  -1.547  0.00  0.00     0.053 A 
ATOM      9  C   UNL d   1       0.167   1.142  -1.394  0.00  0.00     0.038 A 
BRANCH   6  10
ATOM     10  C   UNL d   1       1.083  -1.964   0.489  0.00  0.00     0.302 C 
ATOM     11  O   UNL d   1       2.271  -2.075   0.771  0.00  0.00    -0.259 OA
BRANCH  10  12
ATOM     12  O   UNL d   1       0.138  -2.910   0.777  0.00  0.00    -0.322 OA
ATOM     13  C   UNL d   1       0.611  -4.119   1.367  0.00  0.00     0.213 C 
ENDBRANCH  10  12
ENDBRANCH   6  10
ENDBRANCH   3   5
ENDBRANCH   1   3
BRANCH   1  14
ATOM     14  N   UNL d   1       4.199   2.253  -0.425  0.00  0.00    -0.332 N 
ATOM     15  H   UNL d   1       4.380   3.191  -0.768  0.00  0.00     0.168 HD
BRANCH  14  16
ATOM     16  C   UNL d   1       5.337   1.433  -0.315  0.00  0.00     0.056 A 
ATOM     17  C   UNL d   1       5.556   0.450   0.660  0.00  0.00     0.060 A 
ATOM     18 CL   UNL d   1       4.460   0.149   1.961  0.00  0.00    -0.082 Cl
ATOM     19  C   UNL d   1       6.784  -0.227   0.710  0.00  0.00     0.026 A 
ATOM     20  C   UNL d   1       7.803   0.078  -0.195  0.00  0.00     0.002 A 
ATOM     21  C   UNL d   1       7.606   1.071  -1.146  0.00  0.00     0.002 A 
ATOM     22  C   UNL d   1       6.388   1.752  -1.195  0.00  0.00     0.031 A 
ENDBRANCH  14  16
ENDBRANCH   1  14
TORSDOF 6
