REMARK  6 active torsions:
REMARK  status: ('A' for Active; 'I' for Inactive)
REMARK    1  A    between atoms: N_5  and  C_1 
REMARK    2  A    between atoms: C_2  and  C_7 
REMARK    3  A    between atoms: C_3  and  N_5 
REMARK    4  A    between atoms: N_9  and  C_3 
REMARK    5  A    between atoms: N_6  and  C_4 
REMARK    6  A    between atoms: C_13  and  N_9 
ROOT
ATOM      1  C   UNL d   1       1.993   0.172   0.233  0.00  0.00     0.061 C 
ATOM      2  C   UNL d   1       1.198  -0.964  -0.111  0.00  0.00     0.057 C 
ATOM      3  C   UNL d   1       0.017   1.604   0.252  0.00  0.00     0.050 C 
ATOM      4  C   UNL d   1       1.405   1.436   0.310  0.00  0.00     0.048 C 
ATOM      5  C   UNL d   1      -0.198  -0.776  -0.142  0.00  0.00     0.032 C 
ATOM      6  C   UNL d   1      -0.783   0.477   0.057  0.00  0.00     0.018 C 
ENDROOT
BRANCH   1   7
ATOM      7  N   UNL d   1       3.384   0.011   0.342  0.00  0.00    -0.331 N 
ATOM      8  H   UNL d   1       3.688  -0.820  -0.152  0.00  0.00     0.168 HD
BRANCH   7   9
ATOM      9  C   UNL d   1       4.415   0.779   0.720  0.00  0.00     0.172 C 
ATOM     10  S   UNL d   1       5.923   0.337   0.119  0.00  0.00    -0.041 SA
BRANCH   9  11
ATOM     11  N   UNL d   1       4.397   1.865   1.506  0.00  0.00    -0.359 N 
ATOM     12  H   UNL d   1       5.333   2.253   1.428  0.00  0.00     0.162 HD
BRANCH  11  13
ATOM     13  C   UNL d   1       3.891   2.134   2.896  0.00  0.00     0.021 C 
ATOM     14  C   UNL d   1       4.115   0.945   3.840  0.00  0.00     0.037 C 
ATOM     15  C   UNL d   1       4.720   3.332   3.430  0.00  0.00     0.037 C 
ATOM     16  C   UNL d   1       2.428   2.571   2.977  0.00  0.00     0.037 C 
ENDBRANCH  11  13
ENDBRANCH   9  11
ENDBRANCH   7   9
ENDBRANCH   1   7
BRANCH   2  17
ATOM     17  N   UNL d   1       1.772  -2.183  -0.529  0.00  0.00    -0.379 N 
ATOM     18  C   UNL d   1       2.570  -2.959   0.434  0.00  0.00     0.123 C 
ATOM     19  C   UNL d   1       3.575  -3.795  -0.368  0.00  0.00     0.020 C 
ATOM     20  C   UNL d   1       2.866  -4.723  -1.358  0.00  0.00     0.003 C 
ATOM     21  C   UNL d   1       1.870  -3.961  -2.230  0.00  0.00     0.020 C 
ATOM     22  C   UNL d   1       0.961  -3.047  -1.410  0.00  0.00     0.123 C 
ENDBRANCH   2  17
BRANCH   3  23
ATOM     23  C   UNL d   1      -0.615   2.961   0.402  0.00  0.00     0.417 C 
ATOM     24  F   UNL d   1       0.279   3.970   0.595  0.00  0.00    -0.166 F 
ATOM     25  F   UNL d   1      -1.350   3.319  -0.688  0.00  0.00    -0.166 F 
ATOM     26  F   UNL d   1      -1.471   3.019   1.461  0.00  0.00    -0.166 F 
ENDBRANCH   3  23
TORSDOF 6
