REMARK  9 active torsions:
REMARK  status: ('A' for Active; 'I' for Inactive)
REMARK    1  A    between atoms: N_10  and  C_1 
REMARK    2  A    between atoms: N_5  and  C_2 
REMARK    3  A    between atoms: N_4  and  C_3 
REMARK    4  A    between atoms: C_6  and  C_7 
REMARK    5  A    between atoms: N_11  and  N_10 
REMARK       I    between atoms: C_14  and  N_11 
REMARK    6  A    between atoms: C_21  and  C_14 
REMARK    7  A    between atoms: C_24  and  C_21 
REMARK    8  A    between atoms: O_29  and  C_22 
REMARK    9  A    between atoms: C_23  and  C_24 
ROOT
ATOM      1  C   UNL d   1       1.527  -0.141   0.426  0.00  0.00     0.114 A 
ATOM      2  C   UNL d   1       1.179  -0.088   1.785  0.00  0.00     0.134 A 
ATOM      3  C   UNL d   1       0.584   0.454  -0.446  0.00  0.00     0.134 A 
ATOM      4  C   UNL d   1      -0.947   1.040   1.343  0.00  0.00     0.052 A 
ATOM      5  C   UNL d   1      -0.029   0.486   2.245  0.00  0.00     0.054 A 
ATOM      6  C   UNL d   1      -0.626   1.026  -0.017  0.00  0.00     0.054 A 
ENDROOT
BRANCH   1   7
ATOM      7  N   UNL d   1       2.691  -0.718  -0.143  0.00  0.00    -0.293 N 
ATOM      8  H   UNL d   1       3.239   0.004  -0.633  0.00  0.00     0.187 HD
BRANCH   7   9
ATOM      9  N   UNL d   1       3.431  -1.633   0.609  0.00  0.00    -0.270 N 
ATOM     10  C   UNL d   1       4.797  -1.773   0.439  0.00  0.00     0.236 C 
ATOM     11  O   UNL d   1       5.359  -2.802   0.810  0.00  0.00    -0.272 OA
ATOM     12  H   UNL d   1       2.962  -2.502   0.867  0.00  0.00     0.190 HD
BRANCH  10  13
ATOM     13  C   UNL d   1       5.527  -0.618  -0.214  0.00  0.00     0.109 C 
BRANCH  13  14
ATOM     14  C   UNL d   1       7.037  -0.818  -0.274  0.00  0.00     0.048 C 
BRANCH  14  15
ATOM     15  C   UNL d   1       7.686   0.346  -0.988  0.00  0.00    -0.058 A 
ATOM     16  C   UNL d   1       8.048   1.498  -0.278  0.00  0.00     0.010 A 
ATOM     17  C   UNL d   1       8.609   2.590  -0.943  0.00  0.00     0.037 A 
ATOM     18  C   UNL d   1       8.805   2.534  -2.317  0.00  0.00     0.065 A 
ATOM     19  C   UNL d   1       8.439   1.405  -3.043  0.00  0.00     0.037 A 
ATOM     20  C   UNL d   1       7.877   0.313  -2.377  0.00  0.00     0.010 A 
BRANCH  18  21
ATOM     21  O   UNL d   1       9.364   3.619  -2.924  0.00  0.00    -0.361 OA
ATOM     22  H   UNL d   1       9.497   3.413  -3.863  0.00  0.00     0.217 HD
ENDBRANCH  18  21
ENDBRANCH  14  15
ENDBRANCH  13  14
ENDBRANCH  10  13
ENDBRANCH   7   9
ENDBRANCH   1   7
BRANCH   2  23
ATOM     23  N   UNL d   1       2.073  -0.566   2.820  0.00  0.00    -0.113 N 
ATOM     24  O   UNL d   1       3.102   0.096   3.023  0.00  0.00    -0.532 OA
ATOM     25  O   UNL d   1       1.705  -1.559   3.456  0.00  0.00    -0.532 OA
ENDBRANCH   2  23
BRANCH   3  26
ATOM     26  N   UNL d   1       0.855   0.483  -1.877  0.00  0.00    -0.113 N 
ATOM     27  O   UNL d   1       1.919   1.009  -2.235  0.00  0.00    -0.532 OA
ATOM     28  O   UNL d   1      -0.007   0.004  -2.623  0.00  0.00    -0.532 OA
ENDBRANCH   3  26
BRANCH   4  29
ATOM     29  C   UNL d   1      -2.252   1.648   1.806  0.00  0.00     0.417 C 
ATOM     30  F   UNL d   1      -2.434   1.572   3.150  0.00  0.00    -0.166 F 
ATOM     31  F   UNL d   1      -2.344   2.965   1.482  0.00  0.00    -0.166 F 
ATOM     32  F   UNL d   1      -3.328   1.040   1.240  0.00  0.00    -0.166 F 
ENDBRANCH   4  29
TORSDOF 9
