REMARK  5 active torsions:
REMARK  status: ('A' for Active; 'I' for Inactive)
REMARK    1  A    between atoms: O_13  and  N_1 
REMARK    2  A    between atoms: C_8  and  C_2 
REMARK    3  A    between atoms: N_7  and  C_5 
REMARK       I    between atoms: N_18  and  C_8 
REMARK    4  A    between atoms: C_9  and  C_10 
REMARK    5  A    between atoms: N_22  and  N_18 
ROOT
ATOM      1  N   UNL d   1       1.621  -0.949   0.038  0.00  0.00    -0.211 N 
ATOM      2  C   UNL d   1       2.519   0.001   0.021  0.00  0.00     0.173 A 
ATOM      3  C   UNL d   1       0.330  -0.522   0.022  0.00  0.00     0.084 A 
ATOM      4  C   UNL d   1       0.273   0.881   0.012  0.00  0.00     0.069 A 
ATOM      5  C   UNL d   1      -0.996   1.498  -0.004  0.00  0.00     0.123 A 
ATOM      6  S   UNL d   1       1.863   1.601  -0.002  0.00  0.00    -0.060 SA
ATOM      7  C   UNL d   1      -2.091  -0.695  -0.003  0.00  0.00     0.052 A 
ATOM      8  C   UNL d   1      -0.832  -1.319   0.014  0.00  0.00     0.049 A 
ATOM      9  C   UNL d   1      -2.163   0.706  -0.014  0.00  0.00     0.053 A 
ENDROOT
BRANCH   2  10
ATOM     10  C   UNL d   1       3.959  -0.165   0.008  0.00  0.00     0.291 C 
ATOM     11  O   UNL d   1       4.751   0.778  -0.055  0.00  0.00    -0.264 OA
ATOM     12  N   UNL d   1       4.437  -1.473   0.055  0.00  0.00    -0.288 N 
ATOM     13  H   UNL d   1       3.764  -2.244   0.151  0.00  0.00     0.183 HD
BRANCH  12  14
ATOM     14  N   UNL d   1       5.822  -1.739   0.079  0.00  0.00    -0.247 NA
ATOM     15  H   UNL d   1       6.306  -0.830   0.077  0.00  0.00     0.143 HD
ATOM     16  H   UNL d   1       6.079  -2.171  -0.812  0.00  0.00     0.143 HD
ENDBRANCH  12  14
ENDBRANCH   2  10
BRANCH   1  17
ATOM     17  O   UNL d   1       2.002  -2.152   0.052  0.00  0.00    -0.281 OA
ATOM     18  HO  UNL d   1       1.350  -2.843   0.064  1.00  0.00     0.245 HD
ENDBRANCH   1  17
BRANCH   5  19
ATOM     19  N   UNL d   1      -1.172   2.939  -0.005  0.00  0.00    -0.114 N 
ATOM     20  O   UNL d   1      -0.678   3.567   0.938  0.00  0.00    -0.532 OA
ATOM     21  O   UNL d   1      -1.831   3.420  -0.935  0.00  0.00    -0.532 OA
ENDBRANCH   5  19
BRANCH   7  22
ATOM     22  C   UNL d   1      -3.366  -1.514  -0.001  0.00  0.00     0.417 C 
ATOM     23  F   UNL d   1      -3.148  -2.856   0.013  0.00  0.00    -0.166 F 
ATOM     24  F   UNL d   1      -4.143  -1.244   1.082  0.00  0.00    -0.166 F 
ATOM     25  F   UNL d   1      -4.137  -1.265  -1.093  0.00  0.00    -0.166 F 
ENDBRANCH   7  22
TORSDOF 5
