REMARK  4 active torsions:
REMARK  status: ('A' for Active; 'I' for Inactive)
REMARK    1  A    between atoms: C_7  and  N_1 
REMARK    2  A    between atoms: C_4  and  C_7 
REMARK       I    between atoms: N_8  and  C_4 
REMARK    3  A    between atoms: C_13  and  C_7 
REMARK    4  A    between atoms: C_12  and  N_8 
ROOT
ATOM      1  C   UNL d   1       3.334   0.020  -0.346  0.00  0.00     0.192 C 
ENDROOT
BRANCH   1   2
ATOM      2  C   UNL d   1       4.077  -0.308  -1.667  0.00  0.00     0.246 C 
ATOM      3  N   UNL d   1       3.591  -1.416  -2.350  0.00  0.00    -0.325 N 
ATOM      4  H   UNL d   1       2.746  -1.845  -1.992  0.00  0.00     0.169 HD
ATOM      5  O   UNL d   1       5.125   0.273  -1.946  0.00  0.00    -0.271 OA
BRANCH   3   6
ATOM      6  C   UNL d   1       4.215  -2.062  -3.447  0.00  0.00     0.034 A 
ATOM      7  C   UNL d   1       5.412  -1.628  -4.029  0.00  0.00     0.031 A 
ATOM      8  C   UNL d   1       6.012  -2.341  -5.073  0.00  0.00     0.026 A 
ATOM      9  C   UNL d   1       5.411  -3.494  -5.556  0.00  0.00     0.034 A 
ATOM     10  C   UNL d   1       4.210  -3.936  -5.007  0.00  0.00     0.026 A 
ATOM     11 CL   UNL d   1       6.160  -4.383  -6.824  0.00  0.00    -0.084 Cl
ATOM     12  C   UNL d   1       3.613  -3.221  -3.957  0.00  0.00     0.031 A 
ENDBRANCH   3   6
ENDBRANCH   1   2
BRANCH   1  13
ATOM     13  N   UNL d   1       1.872  -0.043  -0.419  0.00  0.00    -0.266 N 
ATOM     14  C   UNL d   1       1.121  -0.807   0.435  0.00  0.00     0.262 A 
ATOM     15  C   UNL d   1      -0.277  -0.442   0.223  0.00  0.00     0.048 A 
ATOM     16  O   UNL d   1       1.491  -1.634   1.247  0.00  0.00    -0.267 OA
ATOM     17  C   UNL d   1      -1.427  -0.902   0.833  0.00  0.00     0.018 A 
ATOM     18  C   UNL d   1      -0.300   0.541  -0.747  0.00  0.00     0.048 A 
ATOM     19  C   UNL d   1      -2.638  -0.333   0.425  0.00  0.00     0.001 A 
ATOM     20  C   UNL d   1      -2.665   0.672  -0.564  0.00  0.00     0.001 A 
ATOM     21  C   UNL d   1      -1.483   1.124  -1.162  0.00  0.00     0.018 A 
ATOM     22  C   UNL d   1       1.082   0.796  -1.151  0.00  0.00     0.262 A 
ATOM     23  O   UNL d   1       1.400   1.610  -1.996  0.00  0.00    -0.267 OA
ENDBRANCH   1  13
BRANCH   1  24
ATOM     24  C   UNL d   1       3.913   1.274   0.370  0.00  0.00     0.010 C 
ATOM     25  C   UNL d   1       3.832   2.587  -0.416  0.00  0.00     0.012 C 
ATOM     26  C   UNL d   1       3.308   1.480   1.763  0.00  0.00     0.012 C 
ENDBRANCH   1  24
TORSDOF 4
