REMARK  4 active torsions:
REMARK  status: ('A' for Active; 'I' for Inactive)
REMARK    1  A    between atoms: C_2  and  S_1 
REMARK    2  A    between atoms: N_6  and  S_1 
REMARK    3  A    between atoms: C_14  and  C_17 
REMARK    4  A    between atoms: C_18  and  C_14 
ROOT
ATOM      1  N   UNL d   1       0.499  -1.361   0.896  0.00  0.00    -0.206 NA
ATOM      2  C   UNL d   1      -0.967  -1.349   1.175  0.00  0.00     0.108 C 
ATOM      3  C   UNL d   1       1.030  -2.693   0.494  0.00  0.00     0.108 C 
ATOM      4  C   UNL d   1      -1.337  -2.433   2.181  0.00  0.00     0.020 C 
ATOM      5  C   UNL d   1       0.613  -3.784   1.482  0.00  0.00     0.020 C 
ATOM      6  C   UNL d   1      -0.906  -3.828   1.706  0.00  0.00    -0.008 C 
ENDROOT
BRANCH   1   7
ATOM      7  S   UNL d   1       0.997  -0.110  -0.168  0.00  0.00     0.245 S 
ATOM      8  O   UNL d   1       2.397  -0.279  -0.488  0.00  0.00    -0.206 OA
ATOM      9  O   UNL d   1      -0.004   0.025  -1.204  0.00  0.00    -0.206 OA
BRANCH   7  10
ATOM     10  C   UNL d   1       0.952   1.387   0.685  0.00  0.00     0.105 A 
ATOM     11  C   UNL d   1       1.647   1.641   1.841  0.00  0.00     0.099 A 
ATOM     12  S   UNL d   1       1.392   3.216   2.432  0.00  0.00    -0.064 SA
ATOM     13 CL   UNL d   1       2.696   0.605   2.727  0.00  0.00    -0.075 Cl
ATOM     14  C   UNL d   1       0.364   3.574   1.136  0.00  0.00     0.077 A 
ATOM     15  C   UNL d   1       0.202   2.531   0.259  0.00  0.00     0.058 A 
ATOM     16 CL   UNL d   1      -0.357   5.127   1.024  0.00  0.00    -0.076 Cl
ENDBRANCH   7  10
ENDBRANCH   1   7
BRANCH   6  17
ATOM     17  C   UNL d   1      -1.634  -4.323   0.433  0.00  0.00     0.043 C 
BRANCH  17  18
ATOM     18  C   UNL d   1      -3.139  -4.388   0.534  0.00  0.00    -0.058 A 
ATOM     19  C   UNL d   1      -3.937  -3.591  -0.300  0.00  0.00     0.007 A 
ATOM     20  C   UNL d   1      -5.329  -3.656  -0.227  0.00  0.00     0.001 A 
ATOM     21  C   UNL d   1      -5.939  -4.524   0.677  0.00  0.00     0.000 A 
ATOM     22  C   UNL d   1      -5.157  -5.329   1.502  0.00  0.00     0.001 A 
ATOM     23  C   UNL d   1      -3.764  -5.264   1.431  0.00  0.00     0.007 A 
ENDBRANCH  17  18
ENDBRANCH   6  17
TORSDOF 4
