REMARK  2 active torsions:
REMARK  status: ('A' for Active; 'I' for Inactive)
REMARK    1  A    between atoms: C_2  and  C_1 
REMARK    2  A    between atoms: C_8  and  C_2 
ROOT
ATOM      1  C   UNL d   1      -0.044   2.633  -0.289  0.00  0.00     0.170 C 
ATOM      2  O   UNL d   1       0.495   1.710  -0.901  0.00  0.00    -0.291 OA
ENDROOT
BRANCH   1   3
ATOM      3  C   UNL d   1      -1.473   2.655   0.052  0.00  0.00     0.051 A 
ATOM      4  S   UNL d   1      -2.501   1.425  -0.570  0.00  0.00    -0.098 SA
ATOM      5  C   UNL d   1      -3.882   2.082   0.195  0.00  0.00     0.050 A 
ATOM      6  C   UNL d   1      -3.580   3.213   0.917  0.00  0.00     0.009 A 
ATOM      7  C   UNL d   1      -2.195   3.544   0.832  0.00  0.00     0.023 A 
ENDBRANCH   1   3
BRANCH   1   8
ATOM      8  C   UNL d   1       0.792   3.848   0.158  0.00  0.00     0.061 C 
ATOM      9  C   UNL d   1       1.981   4.135  -0.777  0.00  0.00     0.012 C 
ATOM     10  C   UNL d   1       3.271   3.384  -0.452  0.00  0.00     0.001 C 
ATOM     11  C   UNL d   1       3.612   3.419   1.031  0.00  0.00     0.000 C 
ATOM     12  C   UNL d   1       2.452   2.899   1.865  0.00  0.00     0.001 C 
ATOM     13  C   UNL d   1       1.193   3.729   1.635  0.00  0.00     0.012 C 
ENDBRANCH   1   8
TORSDOF 2
