REMARK  5 active torsions:
REMARK  status: ('A' for Active; 'I' for Inactive)
REMARK    1  A    between atoms: C_3  and  C_4 
REMARK       I    between atoms: N_6  and  C_3 
REMARK    2  A    between atoms: C_9  and  N_6 
REMARK    3  A    between atoms: C_7  and  C_9 
REMARK    4  A    between atoms: C_10  and  C_7 
REMARK    5  A    between atoms: O_8  and  C_10 
ROOT
ATOM      1  N   UNL d   1       6.902   0.408   2.392  0.00  0.00    -0.197 NA
ATOM      2  C   UNL d   1       6.034   0.700   1.679  0.00  0.00     0.068 C 
ATOM      3  C   UNL d   1       4.923   1.009   0.782  0.00  0.00     0.226 C 
ENDROOT
BRANCH   3   4
ATOM      4  C   UNL d   1       5.454   1.557  -0.520  0.00  0.00     0.230 C 
ATOM      5  O   UNL d   1       5.707   2.751  -0.667  0.00  0.00    -0.273 OA
ATOM      6  N   UNL d   1       5.636   0.620  -1.515  0.00  0.00    -0.360 N 
ATOM      7  H   UNL d   1       5.501  -0.366  -1.325  0.00  0.00     0.162 HD
BRANCH   6   8
ATOM      8  C   UNL d   1       6.188   0.971  -2.811  0.00  0.00     0.125 C 
BRANCH   8   9
ATOM      9  C   UNL d   1       7.716   0.970  -2.828  0.00  0.00     0.046 C 
BRANCH   9  10
ATOM     10  C   UNL d   1       8.321  -0.405  -2.561  0.00  0.00     0.168 C 
BRANCH  10  11
ATOM     11  O   UNL d   1       7.826  -1.334  -3.524  0.00  0.00    -0.396 OA
ATOM     12  C   UNL d   1       8.354  -2.638  -3.317  0.00  0.00     0.201 C 
ENDBRANCH  10  11
ENDBRANCH   9  10
ENDBRANCH   8   9
ENDBRANCH   6   8
ENDBRANCH   3   4
TORSDOF 5
