REMARK  3 active torsions:
REMARK  status: ('A' for Active; 'I' for Inactive)
REMARK    1  A    between atoms: C_8  and  C_1 
REMARK    2  A    between atoms: C_7  and  C_2 
REMARK    3  A    between atoms: C_9  and  C_3 
ROOT
ATOM      1  C   UNL d   1       1.406  -0.236   0.091  0.00  0.00    -0.024 A 
ATOM      2  C   UNL d   1      -0.893  -1.137   0.050  0.00  0.00    -0.024 A 
ATOM      3  C   UNL d   1      -0.532   1.310   0.146  0.00  0.00    -0.024 A 
ATOM      4  C   UNL d   1       0.503  -1.314   0.042  0.00  0.00     0.024 A 
ATOM      5  C   UNL d   1       0.853   1.061   0.133  0.00  0.00     0.024 A 
ATOM      6  C   UNL d   1      -1.376   0.185   0.086  0.00  0.00     0.024 A 
ENDROOT
BRANCH   1   7
ATOM      7  C   UNL d   1       2.878  -0.451   0.143  0.00  0.00    -0.026 A 
ATOM      8  C   UNL d   1       3.494  -1.552  -0.483  0.00  0.00     0.012 A 
ATOM      9  C   UNL d   1       4.878  -1.757  -0.411  0.00  0.00     0.001 A 
ATOM     10  C   UNL d   1       5.684  -0.855   0.277  0.00  0.00     0.000 A 
ATOM     11  C   UNL d   1       5.106   0.244   0.896  0.00  0.00     0.001 A 
ATOM     12  C   UNL d   1       3.724   0.439   0.837  0.00  0.00     0.012 A 
ENDBRANCH   1   7
BRANCH   2  13
ATOM     13  C   UNL d   1      -1.828  -2.290   0.088  0.00  0.00    -0.026 A 
ATOM     14  C   UNL d   1      -1.516  -3.461   0.806  0.00  0.00     0.012 A 
ATOM     15  C   UNL d   1      -2.417  -4.527   0.901  0.00  0.00     0.001 A 
ATOM     16  C   UNL d   1      -3.662  -4.444   0.286  0.00  0.00     0.000 A 
ATOM     17  C   UNL d   1      -3.997  -3.305  -0.438  0.00  0.00     0.001 A 
ATOM     18  C   UNL d   1      -3.086  -2.247  -0.543  0.00  0.00     0.012 A 
ENDBRANCH   2  13
BRANCH   3  19
ATOM     19  C   UNL d   1      -1.077   2.692   0.271  0.00  0.00    -0.026 A 
ATOM     20  C   UNL d   1      -0.361   3.819  -0.177  0.00  0.00     0.012 A 
ATOM     21  C   UNL d   1      -0.855   5.120  -0.011  0.00  0.00     0.001 A 
ATOM     22  C   UNL d   1      -2.092   5.327   0.587  0.00  0.00     0.000 A 
ATOM     23  C   UNL d   1      -2.832   4.236   1.025  0.00  0.00     0.001 A 
ATOM     24  C   UNL d   1      -2.325   2.939   0.876  0.00  0.00     0.012 A 
ENDBRANCH   3  19
TORSDOF 3
