REMARK  1 active torsions:
REMARK  status: ('A' for Active; 'I' for Inactive)
REMARK    1  A    between atoms: N_12  and  C_6 
ROOT
ATOM      1  C   UNL d   1      -1.406  -0.786   0.009  0.00  0.00     0.068 A 
ATOM      2  C   UNL d   1      -0.095  -1.211   0.075  0.00  0.00     0.081 A 
ATOM      3  N   UNL d   1      -1.325   0.580  -0.064  0.00  0.00    -0.298 N 
ATOM      4  N   UNL d   1      -0.069   1.056  -0.050  0.00  0.00    -0.285 N 
ATOM      5  HN  UNL d   1       0.238   2.027  -0.102  1.00  0.00     0.188 HD
ATOM      6  C   UNL d   1       0.679  -0.036   0.046  0.00  0.00     0.115 A 
ATOM      7  C   UNL d   1      -2.636  -1.525   0.016  0.00  0.00     0.033 A 
ATOM      8  S   UNL d   1      -4.166  -0.755  -0.097  0.00  0.00    -0.100 SA
ATOM      9  C   UNL d   1      -2.780  -2.897   0.113  0.00  0.00     0.021 A 
ATOM     10  C   UNL d   1      -5.003  -2.242  -0.016  0.00  0.00     0.050 A 
ATOM     11  C   UNL d   1      -4.144  -3.311   0.094  0.00  0.00     0.008 A 
ATOM     12  H   UNL d   1      -2.093   1.239  -0.123  0.00  0.00     0.187 HD
ENDROOT
BRANCH   6  13
ATOM     13  N   UNL d   1       2.014  -0.018   0.103  0.00  0.00    -0.384 N 
ATOM     14  H   UNL d   1       2.565  -0.840  -0.107  0.00  0.00     0.157 HD
ATOM     15  H   UNL d   1       2.470   0.861  -0.115  0.00  0.00     0.157 HD
ENDBRANCH   6  13
TORSDOF 1
