REMARK  15 active torsions:
REMARK  status: ('A' for Active; 'I' for Inactive)
REMARK    1  A    between atoms: C_1  and  O_7 
REMARK    2  A    between atoms: C_2  and  C_1 
REMARK    3  A    between atoms: C_3  and  C_1 
REMARK    4  A    between atoms: C_2  and  O_8 
REMARK    5  A    between atoms: C_2  and  C_4 
REMARK    6  A    between atoms: C_3  and  O_9 
REMARK    7  A    between atoms: C_3  and  C_5 
REMARK    8  A    between atoms: C_6  and  C_4 
REMARK    9  A    between atoms: C_4  and  O_10 
REMARK       I    between atoms: N_11  and  C_5 
REMARK       I    between atoms: N_12  and  C_6 
REMARK   10  A    between atoms: C_13  and  O_7 
REMARK   11  A    between atoms: C_15  and  O_8 
REMARK   12  A    between atoms: C_14  and  O_9 
REMARK   13  A    between atoms: C_16  and  O_10 
REMARK   14  A    between atoms: C_24  and  N_11 
REMARK   15  A    between atoms: C_23  and  N_12 
ROOT
ATOM      1  C   UNL d   1      -0.975   3.463  -2.329  0.00  0.00     0.203 C 
ENDROOT
BRANCH   1   2
ATOM      2  O   UNL d   1      -1.232   2.016  -2.371  0.00  0.00    -0.310 OA
BRANCH   2   3
ATOM      3  C   UNL d   1      -2.292   1.491  -1.710  0.00  0.00     0.255 C 
ATOM      4  O   UNL d   1      -3.146   2.139  -1.133  0.00  0.00    -0.266 OA
ATOM      5  C   UNL d   1      -2.274  -0.008  -1.743  0.00  0.00     0.126 C 
ENDBRANCH   2   3
ENDBRANCH   1   2
BRANCH   1   6
ATOM      6  C   UNL d   1      -0.738   3.979  -0.869  0.00  0.00     0.203 C 
BRANCH   6   7
ATOM      7  O   UNL d   1       0.385   3.202  -0.357  0.00  0.00    -0.310 OA
BRANCH   7   8
ATOM      8  C   UNL d   1       0.360   2.773   0.927  0.00  0.00     0.255 C 
ATOM      9  O   UNL d   1      -0.554   2.951   1.716  0.00  0.00    -0.266 OA
ATOM     10  C   UNL d   1       1.604   1.989   1.228  0.00  0.00     0.126 C 
ENDBRANCH   7   8
ENDBRANCH   6   7
BRANCH   6  11
ATOM     11  C   UNL d   1      -0.456   5.510  -0.764  0.00  0.00     0.256 C 
BRANCH  11  12
ATOM     12  C   UNL d   1       0.943   5.951  -1.257  0.00  0.00     0.254 C 
ATOM     13  N   UNL d   1       1.056   7.343  -1.355  0.00  0.00    -0.325 N 
ATOM     14  H   UNL d   1       0.191   7.867  -1.313  0.00  0.00     0.169 HD
ATOM     15  O   UNL d   1       1.773   5.150  -1.672  0.00  0.00    -0.270 OA
BRANCH  13  16
ATOM     16  C   UNL d   1       2.125   7.946  -2.053  0.00  0.00     0.034 A 
ATOM     17  C   UNL d   1       1.840   8.997  -2.928  0.00  0.00     0.029 A 
ATOM     18  C   UNL d   1       2.840   9.489  -3.772  0.00  0.00     0.002 A 
ATOM     19  C   UNL d   1       4.135   8.978  -3.696  0.00  0.00     0.000 A 
ATOM     20  C   UNL d   1       4.441   7.996  -2.757  0.00  0.00     0.002 A 
ATOM     21  C   UNL d   1       3.436   7.478  -1.939  0.00  0.00     0.029 A 
ENDBRANCH  13  16
ENDBRANCH  11  12
BRANCH  11  22
ATOM     22  O   UNL d   1      -0.952   6.043   0.470  0.00  0.00    -0.304 OA
BRANCH  22  23
ATOM     23  C   UNL d   1      -0.169   6.011   1.575  0.00  0.00     0.255 C 
ATOM     24  O   UNL d   1       1.006   5.670   1.593  0.00  0.00    -0.266 OA
ATOM     25  C   UNL d   1      -0.963   6.422   2.771  0.00  0.00     0.126 C 
ENDBRANCH  22  23
ENDBRANCH  11  22
ENDBRANCH   6  11
ENDBRANCH   1   6
BRANCH   1  26
ATOM     26  C   UNL d   1      -1.956   4.279  -3.207  0.00  0.00     0.256 C 
BRANCH  26  27
ATOM     27  O   UNL d   1      -2.046   3.757  -4.548  0.00  0.00    -0.304 OA
BRANCH  27  28
ATOM     28  C   UNL d   1      -1.540   4.584  -5.511  0.00  0.00     0.255 C 
ATOM     29  O   UNL d   1      -0.983   5.655  -5.308  0.00  0.00    -0.266 OA
ATOM     30  C   UNL d   1      -1.779   4.046  -6.887  0.00  0.00     0.126 C 
ENDBRANCH  27  28
ENDBRANCH  26  27
BRANCH  26  31
ATOM     31  C   UNL d   1      -3.329   4.552  -2.578  0.00  0.00     0.254 C 
ATOM     32  N   UNL d   1      -4.398   3.935  -3.205  0.00  0.00    -0.325 N 
ATOM     33  H   UNL d   1      -4.171   3.279  -3.942  0.00  0.00     0.169 HD
ATOM     34  O   UNL d   1      -3.399   5.318  -1.616  0.00  0.00    -0.270 OA
BRANCH  32  35
ATOM     35  C   UNL d   1      -5.763   4.069  -2.863  0.00  0.00     0.034 A 
ATOM     36  C   UNL d   1      -6.231   4.935  -1.870  0.00  0.00     0.029 A 
ATOM     37  C   UNL d   1      -7.596   5.032  -1.585  0.00  0.00     0.002 A 
ATOM     38  C   UNL d   1      -8.513   4.261  -2.291  0.00  0.00     0.000 A 
ATOM     39  C   UNL d   1      -8.063   3.394  -3.282  0.00  0.00     0.002 A 
ATOM     40  C   UNL d   1      -6.696   3.299  -3.569  0.00  0.00     0.029 A 
ENDBRANCH  32  35
ENDBRANCH  26  31
ENDBRANCH   1  26
TORSDOF 15
