REMARK  4 active torsions:
REMARK  status: ('A' for Active; 'I' for Inactive)
REMARK    1  A    between atoms: C_7  and  N_1 
REMARK    2  A    between atoms: S_12  and  C_2 
REMARK    3  A    between atoms: C_9  and  C_7 
REMARK    4  A    between atoms: C_11  and  C_9 
ROOT
ATOM      1  N   UNL d   1       2.220  -0.419   0.762  0.00  0.00    -0.287 N 
ATOM      2  C   UNL d   1       2.111   0.934   1.057  0.00  0.00     0.149 C 
ATOM      3  C   UNL d   1       1.103  -1.232   0.833  0.00  0.00     0.262 C 
ATOM      4  N   UNL d   1       0.979   1.557   1.157  0.00  0.00    -0.336 N 
ATOM      5  HN  UNL d   1       0.937   2.535   1.445  1.00  0.00     0.168 HD
ATOM      6  C   UNL d   1      -0.186  -0.550   0.724  0.00  0.00     0.059 A 
ATOM      7  C   UNL d   1      -0.188   0.838   0.855  0.00  0.00     0.049 A 
ATOM      8  O   UNL d   1       1.137  -2.452   0.974  0.00  0.00    -0.267 OA
ATOM      9  C   UNL d   1      -1.333  -1.272   0.385  0.00  0.00     0.019 A 
ATOM     10  C   UNL d   1      -1.389   1.515   0.622  0.00  0.00     0.030 A 
ATOM     11  C   UNL d   1      -2.511  -0.583   0.130  0.00  0.00     0.001 A 
ATOM     12  C   UNL d   1      -2.537   0.808   0.244  0.00  0.00     0.002 A 
ENDROOT
BRANCH   1  13
ATOM     13  C   UNL d   1       3.477  -1.091   0.450  0.00  0.00     0.213 C 
BRANCH  13  14
ATOM     14  C   UNL d   1       3.979  -0.694  -0.952  0.00  0.00     0.152 C 
ATOM     15  O   UNL d   1       3.332   0.042  -1.696  0.00  0.00    -0.295 OA
BRANCH  14  16
ATOM     16  C   UNL d   1       5.286  -1.357  -1.438  0.00  0.00     0.011 C 
ATOM     17  C   UNL d   1       4.900  -2.652  -2.166  0.00  0.00     0.022 C 
ATOM     18  C   UNL d   1       6.010  -0.415  -2.413  0.00  0.00     0.022 C 
ATOM     19  C   UNL d   1       6.232  -1.659  -0.267  0.00  0.00     0.022 C 
ENDBRANCH  14  16
ENDBRANCH  13  14
ENDBRANCH   1  13
BRANCH   2  20
ATOM     20  S   UNL d   1       3.614   1.809   1.325  0.00  0.00    -0.098 SA
ATOM     21  C   UNL d   1       3.029   3.405   1.920  0.00  0.00     0.099 C 
ENDBRANCH   2  20
TORSDOF 4
