REMARK  0 active torsions:
REMARK  status: ('A' for Active; 'I' for Inactive)
ROOT
ATOM      1  C   UNL d   1      -1.591  -1.283  -0.001  0.00  0.00     0.241 A 
ATOM      2  S   UNL d   1      -2.754   0.060  -0.000  0.00  0.00     0.030 SA
ATOM      3  C   UNL d   1      -0.239  -0.711  -0.002  0.00  0.00     0.050 A 
ATOM      4  N   UNL d   1      -1.570   1.238  -0.009  0.00  0.00    -0.323 N 
ATOM      5  C   UNL d   1      -0.289   0.689  -0.001  0.00  0.00     0.053 A 
ATOM      6  O   UNL d   1      -1.873  -2.466   0.000  0.00  0.00    -0.278 OA
ATOM      7  C   UNL d   1       0.953  -1.421  -0.001  0.00  0.00     0.018 A 
ATOM      8  C   UNL d   1       0.897   1.407  -0.001  0.00  0.00     0.031 A 
ATOM      9  C   UNL d   1       2.142  -0.694  -0.000  0.00  0.00     0.001 A 
ATOM     10  C   UNL d   1       2.113   0.711   0.001  0.00  0.00     0.002 A 
ATOM     11  H   UNL d   1      -1.731   2.237   0.004  0.00  0.00     0.174 HD
ENDROOT
TORSDOF 0
