REMARK  7 active torsions:
REMARK  status: ('A' for Active; 'I' for Inactive)
REMARK    1  A    between atoms: C_8  and  C_1 
REMARK    2  A    between atoms: O_11  and  C_6 
REMARK    3  A    between atoms: C_17  and  C_9 
REMARK    4  A    between atoms: C_19  and  O_11 
REMARK    5  A    between atoms: O_14  and  C_17 
REMARK    6  A    between atoms: O_16  and  C_21 
REMARK    7  A    between atoms: C_21  and  C_19 
ROOT
ATOM      1  C   UNL d   1       0.086   1.250   0.014  0.00  0.00     0.117 A 
ATOM      2  N   UNL d   1       1.236   0.563   0.011  0.00  0.00    -0.322 N 
ATOM      3  HN  UNL d   1       2.142   1.031  -0.007  1.00  0.00     0.169 HD
ATOM      4  N   UNL d   1      -1.140   0.692   0.016  0.00  0.00    -0.343 N 
ATOM      5  HN  UNL d   1      -1.984   1.264   0.025  1.00  0.00     0.167 HD
ATOM      6  C   UNL d   1       1.131  -0.773   0.033  0.00  0.00     0.145 A 
ATOM      7  C   UNL d   1      -0.066  -1.447   0.005  0.00  0.00     0.083 A 
ATOM      8  C   UNL d   1      -1.203  -0.659   0.006  0.00  0.00     0.038 A 
ENDROOT
BRANCH   1   9
ATOM      9  C   UNL d   1       0.176   2.717   0.026  0.00  0.00     0.009 A 
ATOM     10  C   UNL d   1      -0.802   3.500   0.666  0.00  0.00     0.022 A 
ATOM     11  C   UNL d   1      -0.715   4.899   0.703  0.00  0.00    -0.061 A 
ATOM     12  C   UNL d   1      -1.754   5.713   1.416  0.00  0.00     0.048 C 
ATOM     13  C   UNL d   1       0.360   5.532   0.070  0.00  0.00     0.007 A 
ATOM     14  C   UNL d   1       1.338   4.779  -0.575  0.00  0.00     0.002 A 
ATOM     15  C   UNL d   1       1.250   3.386  -0.589  0.00  0.00     0.015 A 
ENDBRANCH   1   9
BRANCH   6  16
ATOM     16  O   UNL d   1       2.288  -1.530   0.040  0.00  0.00    -0.334 OA
BRANCH  16  17
ATOM     17  C   UNL d   1       3.389  -0.806   0.604  0.00  0.00     0.203 C 
BRANCH  17  18
ATOM     18  C   UNL d   1       4.653  -1.658   0.543  0.00  0.00     0.193 C 
BRANCH  18  19
ATOM     19  O   UNL d   1       5.720  -0.949   1.176  0.00  0.00    -0.394 OA
ATOM     20  C   UNL d   1       6.937  -1.680   1.143  0.00  0.00     0.201 C 
ENDBRANCH  18  19
ENDBRANCH  17  18
ENDBRANCH  16  17
ENDBRANCH   6  16
BRANCH   8  21
ATOM     21  C   UNL d   1      -2.577  -1.281  -0.032  0.00  0.00     0.224 C 
BRANCH  21  22
ATOM     22  O   UNL d   1      -2.754  -2.158   1.082  0.00  0.00    -0.390 OA
ATOM     23  C   UNL d   1      -4.063  -2.713   1.098  0.00  0.00     0.201 C 
ENDBRANCH  21  22
ENDBRANCH   8  21
TORSDOF 7
