REMARK  8 active torsions:
REMARK  status: ('A' for Active; 'I' for Inactive)
REMARK    1  A    between atoms: C_15  and  N_4 
REMARK    2  A    between atoms: C_12  and  C_6 
REMARK    3  A    between atoms: C_7  and  C_11 
REMARK    4  A    between atoms: C_10  and  O_27 
REMARK    5  A    between atoms: C_13  and  C_10 
REMARK    6  A    between atoms: C_31  and  C_15 
REMARK    7  A    between atoms: O_27  and  C_31 
REMARK    8  A    between atoms: O_33  and  C_28 
ROOT
ATOM      1  N   UNL d   1      -1.743   1.518  -0.235  0.00  0.00    -0.305 N 
ATOM      2  HN  UNL d   1      -1.459   2.434  -0.582  1.00  0.00     0.186 HD
ATOM      3  C   UNL d   1      -0.979   0.503   0.045  0.00  0.00     0.043 C 
ATOM      4  N   UNL d   1      -3.008   1.086   0.038  0.00  0.00    -0.316 N 
ATOM      5  C   UNL d   1      -1.698  -0.694   0.609  0.00  0.00     0.067 C 
ATOM      6  C   UNL d   1      -3.128  -0.385   0.146  0.00  0.00     0.145 C 
ATOM      7  C   UNL d   1       0.486   0.448  -0.040  0.00  0.00    -0.005 A 
ATOM      8  C   UNL d   1      -1.054  -2.052   0.354  0.00  0.00     0.018 C 
ATOM      9  C   UNL d   1       1.073  -0.814  -0.223  0.00  0.00    -0.046 A 
ATOM     10  C   UNL d   1       0.199  -2.006  -0.523  0.00  0.00     0.040 C 
ATOM     11  C   UNL d   1       1.268   1.588   0.139  0.00  0.00     0.014 A 
ATOM     12  C   UNL d   1       2.469  -0.922  -0.206  0.00  0.00     0.008 A 
ATOM     13  C   UNL d   1       2.660   1.464   0.168  0.00  0.00     0.001 A 
ATOM     14  C   UNL d   1       3.256   0.212   0.003  0.00  0.00     0.001 A 
ENDROOT
BRANCH   4  15
ATOM     15  C   UNL d   1      -4.204   1.855  -0.319  0.00  0.00     0.170 C 
BRANCH  15  16
ATOM     16  C   UNL d   1      -4.311   3.162   0.494  0.00  0.00     0.200 C 
BRANCH  16  17
ATOM     17  O   UNL d   1      -5.515   3.925   0.202  0.00  0.00    -0.316 OA
BRANCH  17  18
ATOM     18  C   UNL d   1      -6.609   3.628   0.956  0.00  0.00     0.293 C 
ATOM     19  O   UNL d   1      -6.692   2.707   1.742  0.00  0.00    -0.259 OA
BRANCH  18  20
ATOM     20  C   UNL d   1      -7.760   4.564   0.694  0.00  0.00     0.039 A 
ATOM     21  C   UNL d   1      -9.001   4.267   1.283  0.00  0.00     0.018 A 
ATOM     22  C   UNL d   1     -10.137   5.043   1.006  0.00  0.00     0.017 A 
ATOM     23  C   UNL d   1     -10.056   6.138   0.138  0.00  0.00     0.048 A 
ATOM     24  C   UNL d   1      -8.799   6.482  -0.387  0.00  0.00     0.017 A 
ATOM     25  C   UNL d   1      -7.661   5.701  -0.115  0.00  0.00     0.018 A 
BRANCH  23  26
ATOM     26  C   UNL d   1     -11.293   6.915  -0.265  0.00  0.00     0.417 C 
ATOM     27  F   UNL d   1     -12.446   6.421   0.269  0.00  0.00    -0.166 F 
ATOM     28  F   UNL d   1     -11.242   8.224   0.102  0.00  0.00    -0.166 F 
ATOM     29  F   UNL d   1     -11.484   6.913  -1.615  0.00  0.00    -0.166 F 
ENDBRANCH  23  26
ENDBRANCH  18  20
ENDBRANCH  17  18
ENDBRANCH  16  17
ENDBRANCH  15  16
ENDBRANCH   4  15
BRANCH   6  30
ATOM     30  C   UNL d   1      -3.661  -1.069  -1.101  0.00  0.00    -0.033 A 
ATOM     31  C   UNL d   1      -3.028  -1.028  -2.349  0.00  0.00     0.012 A 
ATOM     32  C   UNL d   1      -3.673  -1.529  -3.489  0.00  0.00     0.037 A 
ATOM     33  C   UNL d   1      -4.950  -2.089  -3.405  0.00  0.00     0.068 A 
ATOM     34  C   UNL d   1      -5.559  -2.198  -2.159  0.00  0.00     0.037 A 
ATOM     35  C   UNL d   1      -4.916  -1.700  -1.021  0.00  0.00     0.012 A 
BRANCH  33  36
ATOM     36  O   UNL d   1      -5.525  -2.416  -4.602  0.00  0.00    -0.356 OA
ATOM     37  C   UNL d   1      -6.566  -3.385  -4.572  0.00  0.00     0.210 C 
ENDBRANCH  33  36
ENDBRANCH   6  30
TORSDOF 8
