REMARK  2 active torsions:
REMARK  status: ('A' for Active; 'I' for Inactive)
REMARK    1  A    between atoms: C_6  and  N_1 
REMARK    2  A    between atoms: C_5  and  C_11 
ROOT
ATOM      1  C   UNL d   1      -2.978   3.571  -2.444  0.00  0.00     0.189 C 
ATOM      2  C   UNL d   1      -2.256   4.221  -3.568  0.00  0.00    -0.006 C 
ATOM      3  C   UNL d   1      -4.210   2.850  -2.853  0.00  0.00     0.021 A 
ATOM      4  C   UNL d   1      -1.267   3.479  -4.099  0.00  0.00     0.022 C 
ATOM      5  O   UNL d   1      -2.517   3.503  -1.314  0.00  0.00    -0.287 OA
ATOM      6  C   UNL d   1      -5.229   3.459  -3.608  0.00  0.00    -0.044 A 
ATOM      7  C   UNL d   1      -2.784   5.543  -4.029  0.00  0.00     0.043 C 
ATOM      8  C   UNL d   1      -4.270   1.485  -2.539  0.00  0.00     0.016 A 
ATOM      9  C   UNL d   1      -4.104   5.417  -4.788  0.00  0.00     0.009 C 
ATOM     10  C   UNL d   1      -5.255   4.939  -3.903  0.00  0.00     0.040 C 
ATOM     11  C   UNL d   1      -6.288   2.656  -4.065  0.00  0.00     0.008 A 
ATOM     12  C   UNL d   1      -5.324   0.705  -3.011  0.00  0.00     0.001 A 
ATOM     13  C   UNL d   1      -6.327   1.289  -3.780  0.00  0.00     0.001 A 
ENDROOT
BRANCH   4  14
ATOM     14  C   UNL d   1      -0.648   3.776  -5.390  0.00  0.00    -0.035 A 
ATOM     15  C   UNL d   1       0.514   4.545  -5.499  0.00  0.00     0.014 A 
ATOM     16  C   UNL d   1       1.030   4.855  -6.762  0.00  0.00     0.037 A 
ATOM     17  C   UNL d   1       0.374   4.391  -7.913  0.00  0.00     0.102 A 
ATOM     18  C   UNL d   1      -0.768   3.590  -7.809  0.00  0.00     0.037 A 
ATOM     19  C   UNL d   1      -1.272   3.285  -6.545  0.00  0.00     0.014 A 
BRANCH  17  20
ATOM     20  N   UNL d   1       0.868   4.770  -9.244  0.00  0.00    -0.116 N 
ATOM     21  O   UNL d   1       0.212   4.404 -10.228  0.00  0.00    -0.532 OA
ATOM     22  O   UNL d   1       1.905   5.447  -9.301  0.00  0.00    -0.532 OA
ENDBRANCH  17  20
ENDBRANCH   4  14
TORSDOF 2
