REMARK  4 active torsions:
REMARK  status: ('A' for Active; 'I' for Inactive)
REMARK    1  A    between atoms: C_2  and  S_1 
REMARK    2  A    between atoms: N_4  and  S_1 
REMARK    3  A    between atoms: C_9  and  N_4 
REMARK    4  A    between atoms: C_13  and  C_9 
ROOT
ATOM      1  C   UNL d   1       0.438  -1.568  -0.240  0.00  0.00     0.102 A 
ATOM      2  C   UNL d   1      -0.364  -1.877  -1.340  0.00  0.00     0.065 A 
ATOM      3  N   UNL d   1      -0.755  -0.968  -2.259  0.00  0.00    -0.364 N 
ATOM      4  HN  UNL d   1      -0.478   0.009  -2.161  1.00  0.00     0.165 HD
ATOM      5  C   UNL d   1      -0.772  -3.228  -1.469  0.00  0.00    -0.008 A 
ATOM      6  C   UNL d   1       0.825  -2.542   0.703  0.00  0.00     0.027 A 
ATOM      7  C   UNL d   1       0.404  -3.856   0.561  0.00  0.00     0.003 A 
ATOM      8  C   UNL d   1      -1.514  -1.353  -3.308  0.00  0.00     0.088 A 
ATOM      9  C   UNL d   1      -0.392  -4.198  -0.524  0.00  0.00     0.014 A 
ATOM     10  C   UNL d   1      -1.562  -3.596  -2.568  0.00  0.00     0.015 A 
ATOM     11  C   UNL d   1      -1.938  -2.646  -3.506  0.00  0.00     0.018 A 
ENDROOT
BRANCH   1  12
ATOM     12  S   UNL d   1       1.092   0.060   0.009  0.00  0.00     0.243 S 
ATOM     13  O   UNL d   1       0.607   1.024  -0.950  0.00  0.00    -0.206 OA
ATOM     14  O   UNL d   1       2.512  -0.100   0.252  0.00  0.00    -0.206 OA
BRANCH  12  15
ATOM     15  N   UNL d   1       0.431   0.477   1.510  0.00  0.00    -0.213 NA
ATOM     16  H   UNL d   1       1.132   0.923   2.108  0.00  0.00     0.140 HD
BRANCH  15  17
ATOM     17  C   UNL d   1      -0.882   1.151   1.496  0.00  0.00     0.136 C 
BRANCH  17  18
ATOM     18  C   UNL d   1      -1.307   1.464   2.936  0.00  0.00     0.135 C 
ATOM     19  O   UNL d   1      -0.369   2.383   3.542  0.00  0.00    -0.385 OA
ATOM     20  C   UNL d   1      -1.108   3.409   4.219  0.00  0.00     0.168 C 
ATOM     21  C   UNL d   1      -2.549   2.951   4.274  0.00  0.00     0.029 C 
ATOM     22  C   UNL d   1      -2.669   2.135   3.013  0.00  0.00     0.035 C 
ENDBRANCH  17  18
ENDBRANCH  15  17
ENDBRANCH  12  15
ENDBRANCH   1  12
TORSDOF 4
