REMARK  8 active torsions:
REMARK  status: ('A' for Active; 'I' for Inactive)
REMARK    1  A    between atoms: C_9  and  C_3 
REMARK    2  A    between atoms: C_4  and  C_8 
REMARK    3  A    between atoms: C_11  and  C_5 
REMARK    4  A    between atoms: C_10  and  C_22 
REMARK    5  A    between atoms: O_21  and  C_10 
REMARK    6  A    between atoms: C_23  and  C_11 
REMARK    7  A    between atoms: S_20  and  C_23 
REMARK    8  A    between atoms: C_22  and  S_20 
ROOT
ATOM      1  N   UNL d   1       1.443  -0.598  -0.051  0.00  0.00    -0.353 N 
ATOM      2  HN  UNL d   1       2.336  -1.089  -0.096  1.00  0.00     0.166 HD
ATOM      3  C   UNL d   1       1.295   0.782  -0.021  0.00  0.00     0.049 A 
ATOM      4  C   UNL d   1       0.263  -1.183  -0.011  0.00  0.00     0.051 A 
ATOM      5  S   UNL d   1      -1.081  -0.117   0.114  0.00  0.00    -0.086 SA
ATOM      6  C   UNL d   1      -0.013   1.219   0.062  0.00  0.00     0.081 A 
ENDROOT
BRANCH   3   7
ATOM      7  C   UNL d   1       2.450   1.672  -0.063  0.00  0.00    -0.009 A 
ATOM      8  C   UNL d   1       2.358   2.962  -0.606  0.00  0.00     0.014 A 
ATOM      9  C   UNL d   1       3.474   3.802  -0.645  0.00  0.00     0.017 A 
ATOM     10  C   UNL d   1       4.708   3.375  -0.139  0.00  0.00     0.048 A 
ATOM     11  C   UNL d   1       4.804   2.085   0.405  0.00  0.00     0.017 A 
ATOM     12  C   UNL d   1       3.685   1.242   0.440  0.00  0.00     0.014 A 
BRANCH  10  13
ATOM     13  C   UNL d   1       5.918   4.277  -0.179  0.00  0.00     0.417 C 
ATOM     14  F   UNL d   1       5.668   5.495  -0.739  0.00  0.00    -0.166 F 
ATOM     15  F   UNL d   1       6.418   4.535   1.060  0.00  0.00    -0.166 F 
ATOM     16  F   UNL d   1       6.945   3.743  -0.896  0.00  0.00    -0.166 F 
ENDBRANCH  10  13
ENDBRANCH   3   7
BRANCH   4  17
ATOM     17  C   UNL d   1       0.061  -2.672  -0.012  0.00  0.00     0.075 C 
BRANCH  17  18
ATOM     18  C   UNL d   1      -0.748  -3.154  -1.217  0.00  0.00     0.081 C 
BRANCH  18  19
ATOM     19  S   UNL d   1      -0.989  -4.966  -1.116  0.00  0.00    -0.159 SA
BRANCH  19  20
ATOM     20  C   UNL d   1      -1.985  -5.236  -2.617  0.00  0.00     0.184 C 
BRANCH  20  21
ATOM     21  C   UNL d   1      -3.295  -4.488  -2.570  0.00  0.00     0.267 C 
ATOM     22  O   UNL d   1      -3.457  -3.364  -3.032  0.00  0.00    -0.264 OA
BRANCH  21  23
ATOM     23  O   UNL d   1      -4.252  -5.209  -1.922  0.00  0.00    -0.326 OA
ATOM     24  C   UNL d   1      -5.502  -4.531  -1.796  0.00  0.00     0.213 C 
ENDBRANCH  21  23
ENDBRANCH  20  21
ENDBRANCH  19  20
ENDBRANCH  18  19
ENDBRANCH  17  18
ENDBRANCH   4  17
TORSDOF 8
