REMARK  4 active torsions:
REMARK  status: ('A' for Active; 'I' for Inactive)
REMARK    1  A    between atoms: C_9  and  C_1 
REMARK    2  A    between atoms: N_6  and  C_2 
REMARK    3  A    between atoms: C_11  and  C_4 
REMARK       I    between atoms: C_7  and  N_6 
REMARK    4  A    between atoms: C_8  and  C_7 
ROOT
ATOM      1  C   UNL d   1       0.004   1.198  -0.224  0.00  0.00     0.077 C 
ATOM      2  C   UNL d   1       1.304   0.837   0.089  0.00  0.00     0.057 C 
ATOM      3  S   UNL d   1      -1.056  -0.148  -0.123  0.00  0.00    -0.084 SA
ATOM      4  C   UNL d   1       0.228  -1.273   0.007  0.00  0.00     0.018 C 
ATOM      5  C   UNL d   1       1.422  -0.593   0.180  0.00  0.00     0.051 C 
ENDROOT
BRANCH   2   6
ATOM      6  N   UNL d   1       2.432   1.640   0.246  0.00  0.00    -0.321 N 
ATOM      7  C   UNL d   1       2.470   3.004   0.485  0.00  0.00     0.263 C 
ATOM      8  O   UNL d   1       1.470   3.686   0.679  0.00  0.00    -0.267 OA
ATOM      9  H   UNL d   1       3.322   1.159   0.310  0.00  0.00     0.169 HD
BRANCH   7  10
ATOM     10  C   UNL d   1       3.809   3.590   0.495  0.00  0.00     0.072 A 
ATOM     11  S   UNL d   1       5.222   2.671   0.175  0.00  0.00    -0.097 SA
ATOM     12  C   UNL d   1       6.233   4.042   0.311  0.00  0.00     0.050 A 
ATOM     13  C   UNL d   1       5.521   5.180   0.613  0.00  0.00     0.009 A 
ATOM     14  C   UNL d   1       4.126   4.918   0.724  0.00  0.00     0.025 A 
ENDBRANCH   7  10
ENDBRANCH   2   6
BRANCH   1  15
ATOM     15  C   UNL d   1      -0.594   2.442  -0.687  0.00  0.00     0.164 C 
ATOM     16  O   UNL d   1      -1.690   2.859  -0.305  0.00  0.00    -0.292 OA
ATOM     17  C   UNL d   1       0.095   3.130  -1.848  0.00  0.00     0.097 C 
ENDBRANCH   1  15
BRANCH   4  18
ATOM     18  C   UNL d   1      -0.019  -2.730  -0.062  0.00  0.00    -0.019 A 
ATOM     19  C   UNL d   1      -1.157  -3.259  -0.699  0.00  0.00     0.013 A 
ATOM     20  C   UNL d   1      -1.351  -4.639  -0.816  0.00  0.00     0.001 A 
ATOM     21  C   UNL d   1      -0.407  -5.521  -0.302  0.00  0.00     0.000 A 
ATOM     22  C   UNL d   1       0.725  -5.023   0.337  0.00  0.00     0.001 A 
ATOM     23  C   UNL d   1       0.915  -3.641   0.459  0.00  0.00     0.013 A 
ENDBRANCH   4  18
TORSDOF 4
