REMARK  5 active torsions:
REMARK  status: ('A' for Active; 'I' for Inactive)
REMARK    1  A    between atoms: N_2  and  C_1 
REMARK    2  A    between atoms: C_3  and  C_8 
REMARK    3  A    between atoms: O_7  and  C_4 
REMARK    4  A    between atoms: C_6  and  O_7 
REMARK    5  A    between atoms: C_10  and  C_6 
ROOT
ATOM      1  C   UNL d   1       1.176   0.222  -0.079  0.00  0.00     0.137 A 
ATOM      2  C   UNL d   1       0.616  -1.056  -0.154  0.00  0.00     0.112 A 
ATOM      3  C   UNL d   1       0.393   1.374  -0.003  0.00  0.00     0.055 A 
ATOM      4  C   UNL d   1      -1.002   1.247   0.021  0.00  0.00     0.050 A 
ATOM      5  C   UNL d   1      -0.767  -1.195  -0.128  0.00  0.00     0.041 A 
ATOM      6  C   UNL d   1      -1.569  -0.044  -0.030  0.00  0.00     0.019 A 
ENDROOT
BRANCH   2   7
ATOM      7  O   UNL d   1       1.518  -2.131  -0.323  0.00  0.00    -0.272 OA
BRANCH   7   8
ATOM      8  C   UNL d   1       1.318  -3.492  -0.169  0.00  0.00     0.298 C 
ATOM      9  O   UNL d   1       0.314  -4.042   0.246  0.00  0.00    -0.259 OA
BRANCH   8  10
ATOM     10  C   UNL d   1       2.585  -4.181  -0.570  0.00  0.00     0.040 A 
ATOM     11  C   UNL d   1       2.750  -5.536  -0.255  0.00  0.00     0.020 A 
ATOM     12  C   UNL d   1       3.927  -6.201  -0.617  0.00  0.00     0.043 A 
ATOM     13  C   UNL d   1       4.933  -5.512  -1.293  0.00  0.00     0.116 A 
ATOM     14  C   UNL d   1       4.782  -4.173  -1.617  0.00  0.00     0.043 A 
ATOM     15  F   UNL d   1       6.056  -6.155  -1.634  0.00  0.00    -0.206 F 
ATOM     16  C   UNL d   1       3.608  -3.505  -1.260  0.00  0.00     0.020 A 
ENDBRANCH   8  10
ENDBRANCH   7   8
ENDBRANCH   2   7
BRANCH   1  17
ATOM     17  N   UNL d   1       2.611   0.361  -0.020  0.00  0.00    -0.113 N 
ATOM     18  O   UNL d   1       3.101   0.577   1.095  0.00  0.00    -0.532 OA
ATOM     19  O   UNL d   1       3.234   0.260  -1.085  0.00  0.00    -0.532 OA
ENDBRANCH   1  17
BRANCH   4  20
ATOM     20  C   UNL d   1      -1.880   2.472   0.143  0.00  0.00     0.417 C 
ATOM     21  F   UNL d   1      -1.190   3.639   0.003  0.00  0.00    -0.166 F 
ATOM     22  F   UNL d   1      -2.867   2.508  -0.792  0.00  0.00    -0.166 F 
ATOM     23  F   UNL d   1      -2.497   2.546   1.352  0.00  0.00    -0.166 F 
ENDBRANCH   4  20
TORSDOF 5
