REMARK  5 active torsions:
REMARK  status: ('A' for Active; 'I' for Inactive)
REMARK    1  A    between atoms: N_14  and  C_1 
REMARK    2  A    between atoms: C_13  and  N_2 
REMARK    3  A    between atoms: C_10  and  C_3 
REMARK    4  A    between atoms: O_16  and  C_10 
REMARK    5  A    between atoms: C_21  and  O_16 
ROOT
ATOM      1  C   UNL d   1       1.162  -0.711   0.527  0.00  0.00     0.126 C 
ATOM      2  N   UNL d   1       1.504   0.304   1.423  0.00  0.00    -0.281 N 
ATOM      3  C   UNL d   1       0.225  -1.440   1.250  0.00  0.00     0.114 C 
ATOM      4  C   UNL d   1       1.657  -0.347   2.635  0.00  0.00     0.143 A 
ATOM      5  C   UNL d   1       0.713  -1.380   2.588  0.00  0.00     0.098 A 
ATOM      6  N   UNL d   1       2.401  -0.001   3.705  0.00  0.00    -0.338 N 
ATOM      7  HN  UNL d   1       3.055   0.781   3.713  1.00  0.00     0.167 HD
ATOM      8  N   UNL d   1       0.409  -2.087   3.704  0.00  0.00    -0.350 N 
ATOM      9  HN  UNL d   1      -0.344  -2.775   3.732  1.00  0.00     0.166 HD
ATOM     10  C   UNL d   1       2.183  -0.803   4.759  0.00  0.00     0.060 A 
ATOM     11  C   UNL d   1       1.177  -1.813   4.767  0.00  0.00     0.059 A 
ATOM     12  C   UNL d   1       2.978  -0.634   5.888  0.00  0.00     0.032 A 
ATOM     13  C   UNL d   1       1.000  -2.567   5.919  0.00  0.00     0.032 A 
ATOM     14  C   UNL d   1       1.801  -2.385   7.052  0.00  0.00     0.002 A 
ATOM     15  C   UNL d   1       2.806  -1.419   7.028  0.00  0.00     0.002 A 
ENDROOT
BRANCH   2  16
ATOM     16  C   UNL d   1       1.184   1.691   1.221  0.00  0.00     0.042 A 
ATOM     17  C   UNL d   1       1.291   2.611   2.267  0.00  0.00     0.030 A 
ATOM     18  C   UNL d   1       0.707   3.876   2.145  0.00  0.00     0.002 A 
ATOM     19  C   UNL d   1       0.022   4.237   0.983  0.00  0.00     0.000 A 
ATOM     20  C   UNL d   1      -0.061   3.341  -0.076  0.00  0.00     0.002 A 
ATOM     21  C   UNL d   1       0.524   2.083   0.039  0.00  0.00     0.030 A 
ENDBRANCH   2  16
BRANCH   1  22
ATOM     22  N   UNL d   1       1.552  -0.688  -0.766  0.00  0.00    -0.384 N 
ATOM     23  H   UNL d   1       0.981  -1.083  -1.509  0.00  0.00     0.157 HD
ATOM     24  H   UNL d   1       2.334  -0.116  -1.082  0.00  0.00     0.157 HD
ENDBRANCH   1  22
BRANCH   3  25
ATOM     25  C   UNL d   1      -0.964  -2.088   0.734  0.00  0.00     0.299 C 
ATOM     26  O   UNL d   1      -1.704  -2.807   1.392  0.00  0.00    -0.259 OA
BRANCH  25  27
ATOM     27  O   UNL d   1      -1.273  -1.621  -0.516  0.00  0.00    -0.318 OA
BRANCH  27  28
ATOM     28  C   UNL d   1      -2.666  -1.597  -0.854  0.00  0.00     0.174 C 
ATOM     29  C   UNL d   1      -3.125  -2.930  -1.415  0.00  0.00     0.034 C 
ENDBRANCH  27  28
ENDBRANCH  25  27
ENDBRANCH   3  25
TORSDOF 5
