REMARK  6 active torsions:
REMARK  status: ('A' for Active; 'I' for Inactive)
REMARK    1  A    between atoms: N_2  and  S_1 
REMARK    2  A    between atoms: C_13  and  S_1 
REMARK       I    between atoms: N_7  and  C_4 
REMARK       I    between atoms: N_8  and  C_4 
REMARK       I    between atoms: C_5  and  N_9 
REMARK    3  A    between atoms: C_14  and  C_5 
REMARK       I    between atoms: C_6  and  N_10 
REMARK    4  A    between atoms: C_15  and  C_6 
REMARK    5  A    between atoms: N_9  and  N_7 
REMARK    6  A    between atoms: N_10  and  N_8 
ROOT
ATOM      1  N   UNL d   1       0.569  -0.936  -1.369  0.00  0.00    -0.258 N 
ATOM      2  HN  UNL d   1       0.107  -1.845  -1.391  1.00  0.00     0.181 HD
ATOM      3  C   UNL d   1       0.865  -0.336  -2.482  0.00  0.00     0.177 C 
ATOM      4  N   UNL d   1       1.536   0.866  -2.645  0.00  0.00    -0.175 NA
ATOM      5  N   UNL d   1       0.457  -0.905  -3.676  0.00  0.00    -0.175 NA
ATOM      6  H   UNL d   1       2.523   0.846  -2.352  0.00  0.00     0.155 HD
ATOM      7  H   UNL d   1       0.980  -0.595  -4.497  0.00  0.00     0.155 HD
ENDROOT
BRANCH   1   8
ATOM      8  S   UNL d   1       0.927  -0.252   0.052  0.00  0.00     0.264 S 
ATOM      9  O   UNL d   1       0.298   1.050   0.164  0.00  0.00    -0.200 OA
ATOM     10  O   UNL d   1       2.348  -0.413   0.296  0.00  0.00    -0.200 OA
BRANCH   8  11
ATOM     11  C   UNL d   1       0.060  -1.311   1.204  0.00  0.00     0.079 A 
ATOM     12  C   UNL d   1       0.764  -2.087   2.128  0.00  0.00     0.025 A 
ATOM     13  C   UNL d   1       0.059  -2.929   2.992  0.00  0.00     0.002 A 
ATOM     14  C   UNL d   1      -1.335  -2.989   2.932  0.00  0.00     0.000 A 
ATOM     15  C   UNL d   1      -2.034  -2.200   2.017  0.00  0.00     0.002 A 
ATOM     16  C   UNL d   1      -1.339  -1.357   1.150  0.00  0.00     0.025 A 
ENDBRANCH   8  11
ENDBRANCH   1   8
BRANCH   4  17
ATOM     17  N   UNL d   1       1.375   1.548  -3.883  0.00  0.00    -0.281 N 
ATOM     18  C   UNL d   1       2.480   2.246  -4.354  0.00  0.00     0.266 C 
ATOM     19  O   UNL d   1       3.604   2.103  -3.882  0.00  0.00    -0.266 OA
ATOM     20  H   UNL d   1       0.447   1.947  -4.006  0.00  0.00     0.184 HD
BRANCH  18  21
ATOM     21  C   UNL d   1       2.226   3.216  -5.459  0.00  0.00     0.033 A 
ATOM     22  C   UNL d   1       3.075   4.327  -5.595  0.00  0.00     0.020 A 
ATOM     23  C   UNL d   1       2.872   5.249  -6.625  0.00  0.00     0.043 A 
ATOM     24  C   UNL d   1       1.829   5.055  -7.525  0.00  0.00     0.116 A 
ATOM     25  C   UNL d   1       0.987   3.952  -7.413  0.00  0.00     0.043 A 
ATOM     26  F   UNL d   1       1.637   5.933  -8.517  0.00  0.00    -0.206 F 
ATOM     27  C   UNL d   1       1.183   3.029  -6.380  0.00  0.00     0.020 A 
ENDBRANCH  18  21
ENDBRANCH   4  17
BRANCH   5  28
ATOM     28  N   UNL d   1       0.254  -2.299  -3.653  0.00  0.00    -0.281 N 
ATOM     29  C   UNL d   1       0.097  -2.932  -4.870  0.00  0.00     0.266 C 
ATOM     30  O   UNL d   1       0.173  -2.326  -5.938  0.00  0.00    -0.266 OA
ATOM     31  H   UNL d   1       0.054  -2.698  -2.741  0.00  0.00     0.184 HD
BRANCH  29  32
ATOM     32  C   UNL d   1      -0.165  -4.404  -4.859  0.00  0.00     0.033 A 
ATOM     33  C   UNL d   1       0.065  -5.216  -3.738  0.00  0.00     0.020 A 
ATOM     34  C   UNL d   1      -0.153  -6.598  -3.817  0.00  0.00     0.043 A 
ATOM     35  C   UNL d   1      -0.596  -7.164  -5.008  0.00  0.00     0.116 A 
ATOM     36  C   UNL d   1      -0.830  -6.375  -6.125  0.00  0.00     0.043 A 
ATOM     37  F   UNL d   1      -0.786  -8.487  -5.080  0.00  0.00    -0.206 F 
ATOM     38  C   UNL d   1      -0.614  -4.998  -6.052  0.00  0.00     0.020 A 
ENDBRANCH  29  32
ENDBRANCH   5  28
TORSDOF 6
