REMARK  4 active torsions:
REMARK  status: ('A' for Active; 'I' for Inactive)
REMARK    1  A    between atoms: C_9  and  C_3 
REMARK    2  A    between atoms: O_12  and  C_4 
REMARK    3  A    between atoms: C_14  and  C_8 
REMARK    4  A    between atoms: O_15  and  C_14 
ROOT
ATOM      1  N   UNL d   1      -0.681   1.236  -0.032  0.00  0.00    -0.321 N 
ATOM      2  HN  UNL d   1      -1.192   2.119  -0.052  1.00  0.00     0.169 HD
ATOM      3  C   UNL d   1      -1.308   0.048  -0.006  0.00  0.00     0.134 A 
ATOM      4  C   UNL d   1       0.652   1.187  -0.029  0.00  0.00     0.149 A 
ATOM      5  N   UNL d   1      -0.664  -1.142   0.006  0.00  0.00    -0.342 N 
ATOM      6  HN  UNL d   1      -1.182  -2.020   0.010  1.00  0.00     0.167 HD
ATOM      7  C   UNL d   1       1.424   0.048  -0.007  0.00  0.00     0.014 A 
ATOM      8  C   UNL d   1       0.694  -1.132   0.013  0.00  0.00     0.044 A 
ATOM      9  C   UNL d   1       2.917   0.089  -0.016  0.00  0.00     0.055 C 
ENDROOT
BRANCH   3  10
ATOM     10  C   UNL d   1      -2.795   0.030  -0.007  0.00  0.00     0.076 A 
ATOM     11  N   UNL d   1      -3.443   1.232  -0.025  0.00  0.00    -0.363 N 
ATOM     12  C   UNL d   1      -4.794   1.230  -0.019  0.00  0.00     0.088 A 
ATOM     13  HN  UNL d   1      -2.920   2.108  -0.043  1.00  0.00     0.165 HD
ATOM     14  C   UNL d   1      -5.564   0.082   0.001  0.00  0.00     0.017 A 
ATOM     15  C   UNL d   1      -4.910  -1.141   0.016  0.00  0.00     0.004 A 
ATOM     16  C   UNL d   1      -3.516  -1.168   0.013  0.00  0.00     0.033 A 
ENDBRANCH   3  10
BRANCH   4  17
ATOM     17  O   UNL d   1       1.216   2.422  -0.069  0.00  0.00    -0.346 OA
ATOM     18  H   UNL d   1       0.409   2.971  -0.075  0.00  0.00     0.219 HD
ENDBRANCH   4  17
BRANCH   8  19
ATOM     19  C   UNL d   1       1.364  -2.489  -0.012  0.00  0.00     0.224 C 
BRANCH  19  20
ATOM     20  O   UNL d   1       2.208  -2.668   1.126  0.00  0.00    -0.390 OA
ATOM     21  C   UNL d   1       2.881  -3.919   1.081  0.00  0.00     0.201 C 
ENDBRANCH  19  20
ENDBRANCH   8  19
TORSDOF 4
