REMARK  1 active torsions:
REMARK  status: ('A' for Active; 'I' for Inactive)
REMARK    1  A    between atoms: C_3  and  N_1 
ROOT
ATOM      1  N   UNL d   1      -1.049  -1.016   0.480  0.00  0.00    -0.298 N 
ATOM      2  C   UNL d   1       0.234  -0.328   0.254  0.00  0.00     0.089 C 
ATOM      3  C   UNL d   1      -2.170  -0.424  -0.114  0.00  0.00     0.235 C 
ATOM      4  S   UNL d   1      -0.270   1.438   0.126  0.00  0.00    -0.128 SA
ATOM      5  C   UNL d   1      -1.925   1.028  -0.458  0.00  0.00     0.179 C 
ATOM      6  O   UNL d   1      -3.257  -0.960  -0.307  0.00  0.00    -0.272 OA
ATOM      7  C   UNL d   1       0.857  -0.751  -1.105  0.00  0.00     0.043 C 
ATOM      8  C   UNL d   1       1.276  -0.484   1.383  0.00  0.00     0.043 C 
ATOM      9  C   UNL d   1       2.226  -0.122  -1.389  0.00  0.00     0.003 C 
ATOM     10  C   UNL d   1       2.632   0.158   1.084  0.00  0.00     0.003 C 
ATOM     11  C   UNL d   1       3.202  -0.340  -0.239  0.00  0.00     0.000 C 
ENDROOT
BRANCH   1  12
ATOM     12  C   UNL d   1      -1.083  -2.374   0.885  0.00  0.00     0.039 A 
ATOM     13  C   UNL d   1      -1.443  -3.398   0.003  0.00  0.00     0.037 A 
ATOM     14  C   UNL d   1      -1.445  -4.742   0.421  0.00  0.00    -0.054 A 
ATOM     15  C   UNL d   1      -1.814  -5.823  -0.559  0.00  0.00     0.049 C 
ATOM     16  C   UNL d   1      -1.104  -5.053   1.754  0.00  0.00    -0.056 A 
ATOM     17  C   UNL d   1      -0.800  -4.016   2.643  0.00  0.00     0.009 A 
ATOM     18  C   UNL d   1      -1.073  -6.474   2.250  0.00  0.00     0.049 C 
ATOM     19  C   UNL d   1      -0.794  -2.690   2.213  0.00  0.00     0.030 A 
ENDBRANCH   1  12
TORSDOF 1
