REMARK  5 active torsions:
REMARK  status: ('A' for Active; 'I' for Inactive)
REMARK    1  A    between atoms: C_9  and  N_1 
REMARK    2  A    between atoms: C_11  and  C_4 
REMARK    3  A    between atoms: C_8  and  C_12 
REMARK    4  A    between atoms: C_10  and  C_9 
REMARK    5  A    between atoms: C_14  and  C_10 
ROOT
ATOM      1  N   UNL d   1      -0.212  -1.148  -0.220  0.00  0.00    -0.209 N 
ATOM      2  N   UNL d   1       0.940  -0.621  -0.684  0.00  0.00    -0.268 N 
ATOM      3  HN  UNL d   1       1.672  -1.049  -1.250  1.00  0.00     0.190 HD
ATOM      4  C   UNL d   1       0.853   0.630  -0.191  0.00  0.00     0.144 A 
ATOM      5  N   UNL d   1      -0.324   0.848   0.481  0.00  0.00    -0.266 N 
ATOM      6  HN  UNL d   1      -0.626   1.723   0.910  1.00  0.00     0.186 HD
ATOM      7  N   UNL d   1      -0.994  -0.296   0.466  0.00  0.00    -0.002 NA
ENDROOT
BRANCH   1   8
ATOM      8  C   UNL d   1      -0.347  -2.579  -0.076  0.00  0.00     0.251 C 
BRANCH   8   9
ATOM      9  C   UNL d   1      -1.144  -3.181  -1.194  0.00  0.00     0.180 C 
ATOM     10  O   UNL d   1      -2.365  -3.324  -1.085  0.00  0.00    -0.290 OA
BRANCH   9  11
ATOM     11  C   UNL d   1      -0.481  -3.643  -2.454  0.00  0.00     0.012 A 
ATOM     12  C   UNL d   1       0.889  -3.490  -2.708  0.00  0.00     0.017 A 
ATOM     13  C   UNL d   1       1.427  -3.904  -3.934  0.00  0.00     0.025 A 
ATOM     14  C   UNL d   1       0.606  -4.474  -4.906  0.00  0.00     0.034 A 
ATOM     15  C   UNL d   1      -0.750  -4.659  -4.655  0.00  0.00     0.025 A 
ATOM     16 CL   UNL d   1       1.267  -4.934  -6.425  0.00  0.00    -0.084 Cl
ATOM     17  C   UNL d   1      -1.289  -4.249  -3.432  0.00  0.00     0.017 A 
ENDBRANCH   9  11
ENDBRANCH   8   9
ENDBRANCH   1   8
BRANCH   4  18
ATOM     18  C   UNL d   1       1.947   1.591  -0.235  0.00  0.00     0.011 A 
ATOM     19  C   UNL d   1       3.114   1.295  -0.957  0.00  0.00     0.031 A 
ATOM     20  C   UNL d   1       4.227   2.150  -0.931  0.00  0.00     0.048 A 
ATOM     21  C   UNL d   1       4.152   3.330  -0.175  0.00  0.00     0.016 A 
ATOM     22  C   UNL d   1       2.991   3.647   0.528  0.00  0.00     0.002 A 
ATOM     23  C   UNL d   1       1.890   2.785   0.498  0.00  0.00     0.015 A 
BRANCH  20  24
ATOM     24  C   UNL d   1       5.490   1.799  -1.677  0.00  0.00     0.417 C 
ATOM     25  F   UNL d   1       5.402   0.634  -2.377  0.00  0.00    -0.166 F 
ATOM     26  F   UNL d   1       5.844   2.752  -2.582  0.00  0.00    -0.166 F 
ATOM     27  F   UNL d   1       6.559   1.653  -0.847  0.00  0.00    -0.166 F 
ENDBRANCH  20  24
ENDBRANCH   4  18
TORSDOF 5
