REMARK  8 active torsions:
REMARK  status: ('A' for Active; 'I' for Inactive)
REMARK    1  A    between atoms: C_4  and  N_1 
REMARK    2  A    between atoms: C_2  and  C_3 
REMARK       I    between atoms: C_3  and  N_14 
REMARK    3  A    between atoms: C_18  and  N_5 
REMARK    4  A    between atoms: O_17  and  C_12 
REMARK    5  A    between atoms: N_14  and  C_21 
REMARK    6  A    between atoms: C_23  and  C_18 
REMARK    7  A    between atoms: C_21  and  C_24 
REMARK    8  A    between atoms: C_24  and  C_23 
ROOT
ATOM      1  N   UNL d   1      -1.385   0.046   0.504  0.00  0.00    -0.375 N 
ATOM      2  N   UNL d   1       1.406   0.030  -0.436  0.00  0.00     0.091 N 
ATOM      3  C   UNL d   1      -0.872  -1.144  -0.189  0.00  0.00     0.153 C 
ATOM      4  C   UNL d   1      -0.777   1.296   0.021  0.00  0.00     0.153 C 
ATOM      5  C   UNL d   1       0.670  -1.197  -0.035  0.00  0.00     0.292 C 
ATOM      6  C   UNL d   1       0.756   1.203   0.211  0.00  0.00     0.292 C 
ENDROOT
BRANCH   2   7
ATOM      7  C   UNL d   1       1.494   0.153  -1.896  0.00  0.00     0.272 C 
BRANCH   7   8
ATOM      8  C   UNL d   1       2.451   1.269  -2.345  0.00  0.00     0.032 C 
BRANCH   8   9
ATOM      9  C   UNL d   1       3.860   1.171  -1.747  0.00  0.00     0.021 C 
BRANCH   9  10
ATOM     10  C   UNL d   1       4.593  -0.082  -2.209  0.00  0.00     0.123 C 
BRANCH  10  11
ATOM     11  N   UNL d   1       5.940  -0.128  -1.692  0.00  0.00    -0.355 N 
ATOM     12  C   UNL d   1       6.956  -0.766  -2.374  0.00  0.00     0.275 C 
ATOM     13  O   UNL d   1       6.800  -1.237  -3.500  0.00  0.00    -0.265 OA
ATOM     14  H   UNL d   1       6.106   0.056  -0.708  0.00  0.00     0.162 HD
BRANCH  12  15
ATOM     15  C   UNL d   1       8.208  -0.831  -1.657  0.00  0.00     0.142 A 
ATOM     16  O   UNL d   1       8.308  -0.276  -0.405  0.00  0.00    -0.317 OA
ATOM     17  C   UNL d   1       9.591  -0.455   0.007  0.00  0.00     0.143 A 
ATOM     18  C   UNL d   1      10.319  -1.122  -0.950  0.00  0.00     0.027 A 
ATOM     19  C   UNL d   1       9.428  -1.370  -2.019  0.00  0.00     0.045 A 
ENDBRANCH  12  15
ENDBRANCH  10  11
ENDBRANCH   9  10
ENDBRANCH   8   9
ENDBRANCH   7   8
ENDBRANCH   2   7
BRANCH   1  20
ATOM     20  C   UNL d   1      -2.665   0.092   1.048  0.00  0.00     0.064 A 
ATOM     21  C   UNL d   1      -2.997   0.944   2.137  0.00  0.00     0.094 A 
ATOM     22  C   UNL d   1      -4.300   0.963   2.658  0.00  0.00     0.039 A 
ATOM     23  C   UNL d   1      -5.277   0.108   2.159  0.00  0.00     0.003 A 
ATOM     24  C   UNL d   1      -4.964  -0.764   1.126  0.00  0.00     0.002 A 
ATOM     25  C   UNL d   1      -3.678  -0.764   0.577  0.00  0.00     0.032 A 
BRANCH  21  26
ATOM     26  O   UNL d   1      -1.989   1.727   2.663  0.00  0.00    -0.354 OA
ATOM     27  C   UNL d   1      -2.143   2.130   4.019  0.00  0.00     0.210 C 
ENDBRANCH  21  26
ENDBRANCH   1  20
TORSDOF 8
