REMARK  4 active torsions:
REMARK  status: ('A' for Active; 'I' for Inactive)
REMARK    1  A    between atoms: N_7  and  C_3 
REMARK    2  A    between atoms: C_14  and  C_4 
REMARK       I    between atoms: C_8  and  N_9 
REMARK    3  A    between atoms: C_15  and  C_8 
REMARK    4  A    between atoms: C_17  and  C_18 
ROOT
ATOM      1  C   UNL d   1       0.055  -0.574  -0.024  0.00  0.00     0.070 A 
ATOM      2  S   UNL d   1       1.760  -0.761   0.061  0.00  0.00    -0.084 SA
ATOM      3  C   UNL d   1      -0.965  -1.540   0.066  0.00  0.00     0.103 A 
ATOM      4  C   UNL d   1       2.069   0.921  -0.036  0.00  0.00     0.018 A 
ATOM      5  C   UNL d   1       0.881   1.615  -0.167  0.00  0.00     0.050 A 
ATOM      6  C   UNL d   1      -0.272   0.770  -0.160  0.00  0.00     0.054 A 
ATOM      7  N   UNL d   1      -2.239  -1.081   0.013  0.00  0.00    -0.342 N 
ATOM      8  HN  UNL d   1      -3.023  -1.729   0.091  1.00  0.00     0.167 HD
ATOM      9  N   UNL d   1      -1.552   1.207  -0.237  0.00  0.00    -0.351 N 
ATOM     10  HN  UNL d   1      -1.799   2.190  -0.357  1.00  0.00     0.166 HD
ATOM     11  C   UNL d   1      -2.460   0.233  -0.141  0.00  0.00     0.182 A 
ENDROOT
BRANCH   3  12
ATOM     12  N   UNL d   1      -0.714  -2.887   0.339  0.00  0.00    -0.265 NA
ATOM     13  C   UNL d   1      -1.877  -3.626   0.891  0.00  0.00     0.117 C 
ATOM     14  C   UNL d   1      -1.426  -5.012   1.401  0.00  0.00     0.141 C 
ATOM     15  N   UNL d   1      -0.691  -5.741   0.360  0.00  0.00    -0.346 N 
ATOM     16  C   UNL d   1      -1.149  -6.988  -0.048  0.00  0.00     0.253 C 
ATOM     17  C   UNL d   1       0.461  -4.984  -0.158  0.00  0.00     0.141 C 
ATOM     18  O   UNL d   1      -2.063  -7.571   0.533  0.00  0.00    -0.267 OA
ATOM     19  C   UNL d   1      -0.021  -3.634  -0.733  0.00  0.00     0.117 C 
BRANCH  16  20
ATOM     20  C   UNL d   1      -0.544  -7.683  -1.216  0.00  0.00     0.032 A 
ATOM     21  C   UNL d   1      -0.348  -9.066  -1.135  0.00  0.00     0.017 A 
ATOM     22  C   UNL d   1       0.218  -9.761  -2.208  0.00  0.00     0.007 A 
ATOM     23  C   UNL d   1       0.600  -9.081  -3.370  0.00  0.00    -0.062 A 
ATOM     24  C   UNL d   1       0.349  -7.708  -3.470  0.00  0.00     0.007 A 
ATOM     25  C   UNL d   1       1.241  -9.826  -4.503  0.00  0.00     0.048 C 
ATOM     26  C   UNL d   1      -0.250  -7.021  -2.411  0.00  0.00     0.017 A 
ENDBRANCH  16  20
ENDBRANCH   3  12
BRANCH   4  27
ATOM     27  C   UNL d   1       3.457   1.421   0.012  0.00  0.00    -0.019 A 
ATOM     28  C   UNL d   1       3.807   2.641  -0.578  0.00  0.00     0.013 A 
ATOM     29  C   UNL d   1       5.135   3.097  -0.557  0.00  0.00     0.009 A 
ATOM     30  C   UNL d   1       6.164   2.352   0.049  0.00  0.00    -0.051 A 
ATOM     31  C   UNL d   1       5.800   1.148   0.660  0.00  0.00     0.009 A 
ATOM     32  C   UNL d   1       4.475   0.696   0.646  0.00  0.00     0.013 A 
BRANCH  30  33
ATOM     33  C   UNL d   1       7.618   2.849   0.018  0.00  0.00    -0.024 C 
ATOM     34  C   UNL d   1       8.620   1.877   0.688  0.00  0.00     0.019 C 
ATOM     35  C   UNL d   1       8.075   3.031  -1.444  0.00  0.00     0.019 C 
ATOM     36  C   UNL d   1       7.727   4.197   0.760  0.00  0.00     0.019 C 
ENDBRANCH  30  33
ENDBRANCH   4  27
TORSDOF 4
