REMARK  10 active torsions:
REMARK  status: ('A' for Active; 'I' for Inactive)
REMARK    1  A    between atoms: C_4  and  C_1 
REMARK    2  A    between atoms: C_7  and  C_1 
REMARK    3  A    between atoms: N_6  and  C_2 
REMARK    4  A    between atoms: C_5  and  C_3 
REMARK    5  A    between atoms: O_12  and  C_4 
REMARK    6  A    between atoms: O_13  and  C_5 
REMARK    7  A    between atoms: C_8  and  N_6 
REMARK    8  A    between atoms: C_15  and  C_7 
REMARK    9  A    between atoms: C_17  and  O_12 
REMARK   10  A    between atoms: C_19  and  C_15 
ROOT
ATOM      1  C   UNL d   1       1.096  -0.042  -0.181  0.00  0.00     0.100 C 
ATOM      2  C   UNL d   1       0.435   0.875   0.556  0.00  0.00     0.110 C 
ENDROOT
BRANCH   2   3
ATOM      3  N   UNL d   1       0.905   1.804   1.472  0.00  0.00    -0.364 N 
ATOM      4  H   UNL d   1       0.329   1.845   2.319  0.00  0.00     0.165 HD
BRANCH   3   5
ATOM      5  C   UNL d   1       1.328   3.123   1.136  0.00  0.00     0.048 A 
ATOM      6  C   UNL d   1       1.365   4.170   2.094  0.00  0.00     0.066 A 
ATOM      7  C   UNL d   1       1.819   5.449   1.710  0.00  0.00     0.020 A 
ATOM      8  C   UNL d   1       2.272   5.698   0.418  0.00  0.00     0.001 A 
ATOM      9  C   UNL d   1       2.293   4.667  -0.509  0.00  0.00     0.002 A 
ATOM     10  C   UNL d   1       1.833   3.397  -0.151  0.00  0.00     0.030 A 
BRANCH   6  11
ATOM     11  C   UNL d   1       0.957   4.053   3.529  0.00  0.00     0.295 C 
ATOM     12  O   UNL d   1       1.088   4.967   4.332  0.00  0.00    -0.259 OA
BRANCH  11  13
ATOM     13  O   UNL d   1       0.423   2.840   3.824  0.00  0.00    -0.322 OA
ATOM     14  C   UNL d   1       0.107   2.666   5.209  0.00  0.00     0.213 C 
ENDBRANCH  11  13
ENDBRANCH   6  11
ENDBRANCH   3   5
ENDBRANCH   2   3
BRANCH   1  15
ATOM     15  C   UNL d   1       0.341  -0.960  -1.071  0.00  0.00     0.298 C 
ATOM     16  O   UNL d   1       0.795  -2.017  -1.484  0.00  0.00    -0.259 OA
BRANCH  15  17
ATOM     17  O   UNL d   1      -0.890  -0.474  -1.384  0.00  0.00    -0.318 OA
BRANCH  17  18
ATOM     18  C   UNL d   1      -1.677  -1.292  -2.266  0.00  0.00     0.174 C 
ATOM     19  C   UNL d   1      -2.320  -2.440  -1.508  0.00  0.00     0.034 C 
ENDBRANCH  17  18
ENDBRANCH  15  17
ENDBRANCH   1  15
BRANCH   1  20
ATOM     20  C   UNL d   1       2.579  -0.198  -0.023  0.00  0.00     0.167 C 
ATOM     21  O   UNL d   1       3.141   0.073   1.039  0.00  0.00    -0.292 OA
BRANCH  20  22
ATOM     22  C   UNL d   1       3.407  -0.701  -1.192  0.00  0.00     0.084 C 
BRANCH  22  23
ATOM     23  C   UNL d   1       4.149  -1.968  -0.767  0.00  0.00     0.003 C 
ATOM     24  C   UNL d   1       4.963  -2.571  -1.896  0.00  0.00     0.005 C 
ENDBRANCH  22  23
ENDBRANCH  20  22
ENDBRANCH   1  20
TORSDOF 10
