REMARK  8 active torsions:
REMARK  status: ('A' for Active; 'I' for Inactive)
REMARK    1  A    between atoms: C_9  and  C_1 
REMARK    2  A    between atoms: C_8  and  C_2 
REMARK    3  A    between atoms: C_7  and  C_3 
REMARK    4  A    between atoms: O_18  and  C_8 
REMARK    5  A    between atoms: O_19  and  C_9 
REMARK    6  A    between atoms: O_17  and  C_10 
REMARK    7  A    between atoms: O_21  and  C_11 
REMARK    8  A    between atoms: O_20  and  C_12 
ROOT
ATOM      1  C   UNL d   1      -1.280  -0.997   0.103  0.00  0.00     0.052 C 
ATOM      2  C   UNL d   1       1.292  -1.012   0.093  0.00  0.00     0.052 C 
ATOM      3  C   UNL d   1       0.008  -1.829  -0.086  0.00  0.00     0.101 C 
ATOM      4  C   UNL d   1      -1.222   0.357   0.031  0.00  0.00     0.018 C 
ATOM      5  C   UNL d   1       1.237   0.341   0.027  0.00  0.00     0.018 C 
ATOM      6  N   UNL d   1       0.015   0.971  -0.138  0.00  0.00    -0.362 N 
ATOM      7  C   UNL d   1      -2.356   1.347   0.142  0.00  0.00     0.069 C 
ATOM      8  C   UNL d   1       2.432   1.257   0.126  0.00  0.00     0.069 C 
ATOM      9  H   UNL d   1       0.023   1.988  -0.114  0.00  0.00     0.165 HD
ENDROOT
BRANCH   3  10
ATOM     10  C   UNL d   1      -0.017  -2.507  -1.466  0.00  0.00    -0.039 A 
ATOM     11  C   UNL d   1      -0.065  -3.903  -1.581  0.00  0.00     0.048 A 
ATOM     12  C   UNL d   1      -0.101  -4.539  -2.838  0.00  0.00     0.104 A 
ATOM     13  C   UNL d   1      -0.090  -3.760  -4.019  0.00  0.00     0.135 A 
ATOM     14  C   UNL d   1      -0.072  -2.354  -3.902  0.00  0.00     0.104 A 
ATOM     15  C   UNL d   1      -0.015  -1.749  -2.643  0.00  0.00     0.048 A 
BRANCH  12  16
ATOM     16  O   UNL d   1      -0.152  -5.904  -2.964  0.00  0.00    -0.353 OA
ATOM     17  C   UNL d   1      -0.150  -6.700  -1.788  0.00  0.00     0.210 C 
ENDBRANCH  12  16
BRANCH  13  18
ATOM     18  O   UNL d   1      -0.064  -4.229  -5.308  0.00  0.00    -0.351 OA
ATOM     19  C   UNL d   1      -0.028  -5.619  -5.575  0.00  0.00     0.210 C 
ENDBRANCH  13  18
BRANCH  14  20
ATOM     20  O   UNL d   1      -0.042  -1.440  -4.929  0.00  0.00    -0.353 OA
ATOM     21  C   UNL d   1      -0.808  -1.758  -6.086  0.00  0.00     0.210 C 
ENDBRANCH  14  20
ENDBRANCH   3  10
BRANCH   2  22
ATOM     22  C   UNL d   1       2.579  -1.716   0.367  0.00  0.00     0.291 C 
ATOM     23  O   UNL d   1       3.663  -1.165   0.490  0.00  0.00    -0.260 OA
BRANCH  22  24
ATOM     24  O   UNL d   1       2.393  -3.055   0.509  0.00  0.00    -0.323 OA
ATOM     25  C   UNL d   1       3.601  -3.767   0.793  0.00  0.00     0.213 C 
ENDBRANCH  22  24
ENDBRANCH   2  22
BRANCH   1  26
ATOM     26  C   UNL d   1      -2.481  -1.833   0.392  0.00  0.00     0.291 C 
ATOM     27  O   UNL d   1      -2.409  -2.955   0.872  0.00  0.00    -0.260 OA
BRANCH  26  28
ATOM     28  O   UNL d   1      -3.635  -1.214   0.054  0.00  0.00    -0.323 OA
ATOM     29  C   UNL d   1      -4.828  -1.901   0.430  0.00  0.00     0.213 C 
ENDBRANCH  26  28
ENDBRANCH   1  26
TORSDOF 8
