REMARK  3 active torsions:
REMARK  status: ('A' for Active; 'I' for Inactive)
REMARK    1  A    between atoms: C_5  and  C_1 
REMARK    2  A    between atoms: O_7  and  C_6 
REMARK    3  A    between atoms: C_11  and  O_7 
ROOT
ATOM      1  C   UNL d   1       0.203   1.159  -0.043  0.00  0.00     0.031 A 
ATOM      2  C   UNL d   1      -0.376  -0.109   0.104  0.00  0.00     0.050 A 
ATOM      3  C   UNL d   1       0.432  -1.252   0.061  0.00  0.00     0.062 A 
ATOM      4  C   UNL d   1       1.591   1.262  -0.243  0.00  0.00     0.020 A 
ATOM      5  C   UNL d   1       1.815  -1.136  -0.096  0.00  0.00     0.077 A 
ATOM      6 CL   UNL d   1      -2.054  -0.353   0.429  0.00  0.00    -0.083 Cl
ATOM      7  C   UNL d   1       2.390   0.118  -0.293  0.00  0.00     0.038 A 
ENDROOT
BRANCH   5   8
ATOM      8  O   UNL d   1       2.537  -2.308  -0.091  0.00  0.00    -0.311 OA
BRANCH   8   9
ATOM      9  C   UNL d   1       3.747  -2.346   0.568  0.00  0.00     0.076 A 
ATOM     10  C   UNL d   1       4.032  -1.629   1.736  0.00  0.00     0.039 A 
ATOM     11  C   UNL d   1       5.296  -1.726   2.325  0.00  0.00     0.026 A 
ATOM     12  C   UNL d   1       6.257  -2.569   1.770  0.00  0.00     0.034 A 
ATOM     13  C   UNL d   1       5.963  -3.325   0.638  0.00  0.00     0.026 A 
ATOM     14 CL   UNL d   1       7.814  -2.681   2.493  0.00  0.00    -0.084 Cl
ATOM     15  C   UNL d   1       4.705  -3.215   0.039  0.00  0.00     0.039 A 
ENDBRANCH   8   9
ENDBRANCH   5   8
BRANCH   1  16
ATOM     16  C   UNL d   1      -0.533   2.441   0.064  0.00  0.00     0.157 C 
ATOM     17  O   UNL d   1      -0.036   3.350   0.727  0.00  0.00    -0.293 OA
ATOM     18  C   UNL d   1      -1.816   2.646  -0.693  0.00  0.00     0.097 C 
ENDBRANCH   1  16
TORSDOF 3
