REMARK  6 active torsions:
REMARK  status: ('A' for Active; 'I' for Inactive)
REMARK    1  A    between atoms: C_2  and  C_1 
REMARK       I    between atoms: N_12  and  C_2 
REMARK    2  A    between atoms: C_10  and  C_5 
REMARK    3  A    between atoms: C_17  and  C_6 
REMARK    4  A    between atoms: N_11  and  C_7 
REMARK    5  A    between atoms: O_21  and  C_10 
REMARK    6  A    between atoms: C_16  and  N_12 
ROOT
ATOM      1  C   UNL d   1       1.036  -3.218  -0.659  0.00  0.00     0.261 C 
ATOM      2  N   UNL d   1       0.065  -3.488   0.289  0.00  0.00    -0.323 N 
ATOM      3  O   UNL d   1       0.801  -2.679  -1.733  0.00  0.00    -0.267 OA
ATOM      4  H   UNL d   1       0.338  -4.037   1.087  0.00  0.00     0.169 HD
ENDROOT
BRANCH   2   5
ATOM      5  C   UNL d   1      -1.313  -3.162   0.199  0.00  0.00     0.036 A 
ATOM      6  C   UNL d   1      -1.874  -2.323  -0.760  0.00  0.00     0.049 A 
ATOM      7  C   UNL d   1      -3.257  -2.006  -0.752  0.00  0.00     0.063 A 
ATOM      8  C   UNL d   1      -4.135  -2.475   0.257  0.00  0.00     0.027 A 
ATOM      9  C   UNL d   1      -3.541  -3.389   1.159  0.00  0.00     0.027 A 
ATOM     10  C   UNL d   1      -2.171  -3.714   1.144  0.00  0.00     0.031 A 
BRANCH   7  11
ATOM     11  C   UNL d   1      -3.665  -1.135  -1.873  0.00  0.00     0.294 C 
ATOM     12  O   UNL d   1      -3.172  -0.035  -2.068  0.00  0.00    -0.259 OA
BRANCH  11  13
ATOM     13  O   UNL d   1      -4.618  -1.743  -2.621  0.00  0.00    -0.322 OA
ATOM     14  C   UNL d   1      -5.136  -0.961  -3.702  0.00  0.00     0.213 C 
ENDBRANCH  11  13
ENDBRANCH   7  11
BRANCH   8  15
ATOM     15  N   UNL d   1      -5.502  -2.106   0.389  0.00  0.00    -0.279 NA
ATOM     16  C   UNL d   1      -6.249  -2.682   1.546  0.00  0.00     0.122 C 
ATOM     17  C   UNL d   1      -7.738  -2.298   1.536  0.00  0.00     0.182 C 
ATOM     18  O   UNL d   1      -7.926  -0.882   1.448  0.00  0.00    -0.389 OA
ATOM     19  C   UNL d   1      -7.317  -0.398   0.246  0.00  0.00     0.182 C 
ATOM     20  C   UNL d   1      -5.801  -0.650   0.249  0.00  0.00     0.122 C 
ENDBRANCH   8  15
ENDBRANCH   2   5
BRANCH   1  21
ATOM     21  C   UNL d   1       2.388  -3.691  -0.374  0.00  0.00     0.093 A 
ATOM     22  C   UNL d   1       3.178  -3.909   0.803  0.00  0.00     0.083 A 
ATOM     23  N   UNL d   1       4.425  -4.291   0.471  0.00  0.00    -0.259 N 
ATOM     24  O   UNL d   1       4.471  -4.357  -0.893  0.00  0.00    -0.241 OA
ATOM     25  HN  UNL d   1       5.190  -4.493   1.115  1.00  0.00     0.195 HD
ATOM     26  C   UNL d   1       3.268  -4.013  -1.401  0.00  0.00     0.090 A 
ATOM     27  C   UNL d   1       3.163  -4.083  -2.873  0.00  0.00     0.080 C 
BRANCH  22  28
ATOM     28  C   UNL d   1       2.906  -3.792   2.232  0.00  0.00    -0.006 A 
ATOM     29  C   UNL d   1       3.700  -2.932   3.014  0.00  0.00     0.014 A 
ATOM     30  C   UNL d   1       3.632  -2.968   4.409  0.00  0.00     0.001 A 
ATOM     31  C   UNL d   1       2.759  -3.852   5.037  0.00  0.00     0.000 A 
ATOM     32  C   UNL d   1       1.957  -4.700   4.273  0.00  0.00     0.001 A 
ATOM     33  C   UNL d   1       2.041  -4.681   2.876  0.00  0.00     0.014 A 
ENDBRANCH  22  28
ENDBRANCH   1  21
TORSDOF 6
