REMARK  4 active torsions:
REMARK  status: ('A' for Active; 'I' for Inactive)
REMARK    1  A    between atoms: C_4  and  C_1 
REMARK       I    between atoms: N_9  and  C_4 
REMARK    2  A    between atoms: C_7  and  C_8 
REMARK       I    between atoms: C_8  and  N_10 
REMARK    3  A    between atoms: N_10  and  N_9 
REMARK    4  A    between atoms: N_15  and  C_11 
ROOT
ATOM      1  C   UNL d   1       3.813  -0.159  -0.139  0.00  0.00     0.278 C 
ATOM      2  N   UNL d   1       4.682  -1.236  -0.228  0.00  0.00    -0.262 N 
ATOM      3  O   UNL d   1       2.667  -0.366   0.281  0.00  0.00    -0.265 OA
ATOM      4  H   UNL d   1       5.662  -1.179  -0.503  0.00  0.00     0.190 HD
ENDROOT
BRANCH   2   5
ATOM      5  N   UNL d   1       4.172  -2.500   0.115  0.00  0.00    -0.263 N 
ATOM      6  C   UNL d   1       4.997  -3.598   0.216  0.00  0.00     0.271 C 
ATOM      7  O   UNL d   1       6.178  -3.590  -0.113  0.00  0.00    -0.266 OA
ATOM      8  H   UNL d   1       3.177  -2.545   0.357  0.00  0.00     0.190 HD
BRANCH   6   9
ATOM      9  C   UNL d   1       4.346  -4.831   0.751  0.00  0.00     0.054 A 
ATOM     10  C   UNL d   1       3.409  -4.798   1.807  0.00  0.00     0.021 A 
ATOM     11  C   UNL d   1       2.788  -6.000   2.181  0.00  0.00     0.024 A 
ATOM     12  C   UNL d   1       3.154  -7.217   1.601  0.00  0.00     0.002 A 
ATOM     13  C   UNL d   1       4.127  -7.248   0.606  0.00  0.00     0.001 A 
ATOM     14  C   UNL d   1       4.723  -6.059   0.181  0.00  0.00     0.019 A 
BRANCH  10  15
ATOM     15  N   UNL d   1       2.913  -3.600   2.358  0.00  0.00    -0.302 NA
ATOM     16  H   UNL d   1       3.588  -2.836   2.365  0.00  0.00     0.124 HD
ATOM     17  H   UNL d   1       2.497  -3.719   3.279  0.00  0.00     0.124 HD
ENDBRANCH  10  15
ENDBRANCH   6   9
ENDBRANCH   2   5
BRANCH   1  18
ATOM     18  C   UNL d   1       4.286   1.159  -0.542  0.00  0.00     0.097 A 
ATOM     19  S   UNL d   1       3.190   2.465  -0.324  0.00  0.00    -0.082 SA
ATOM     20  C   UNL d   1       4.262   3.622  -0.986  0.00  0.00     0.017 A 
ATOM     21  C   UNL d   1       4.011   5.000  -1.143  0.00  0.00     0.020 A 
ATOM     22  C   UNL d   1       5.467   3.036  -1.376  0.00  0.00     0.004 A 
ATOM     23  C   UNL d   1       4.995   5.809  -1.710  0.00  0.00     0.001 A 
ATOM     24  C   UNL d   1       6.202   5.261  -2.116  0.00  0.00     0.001 A 
ATOM     25  C   UNL d   1       6.446   3.891  -1.955  0.00  0.00     0.014 A 
ATOM     26  C   UNL d   1       5.469   1.611  -1.098  0.00  0.00     0.068 A 
ATOM     27 CL   UNL d   1       6.839   0.638  -1.469  0.00  0.00    -0.082 Cl
ENDBRANCH   1  18
TORSDOF 4
