REMARK  3 active torsions:
REMARK  status: ('A' for Active; 'I' for Inactive)
REMARK    1  A    between atoms: N_3  and  C_1 
REMARK    2  A    between atoms: C_7  and  C_2 
REMARK       I    between atoms: N_12  and  C_7 
REMARK    3  A    between atoms: N_13  and  N_12 
REMARK       I    between atoms: C_14  and  N_13 
ROOT
ATOM      1  C   UNL d   1      -2.076  -0.681   0.145  0.00  0.00     0.098 A 
ATOM      2  C   UNL d   1      -1.071  -1.630  -0.054  0.00  0.00     0.075 A 
ATOM      3  S   UNL d   1      -1.473   0.913   0.226  0.00  0.00    -0.075 SA
ATOM      4  C   UNL d   1       0.234  -0.969  -0.029  0.00  0.00    -0.026 A 
ATOM      5  C   UNL d   1       0.122   0.407   0.039  0.00  0.00    -0.008 A 
ATOM      6  C   UNL d   1       1.591  -1.619  -0.124  0.00  0.00     0.041 C 
ATOM      7  C   UNL d   1       1.250   1.391   0.030  0.00  0.00     0.047 C 
ATOM      8  C   UNL d   1       2.710  -0.661   0.323  0.00  0.00     0.005 C 
ATOM      9  C   UNL d   1       2.573   0.712  -0.344  0.00  0.00     0.005 C 
ENDROOT
BRANCH   2  10
ATOM     10  C   UNL d   1      -1.224  -3.080  -0.248  0.00  0.00     0.273 C 
ATOM     11  N   UNL d   1      -2.345  -3.507  -0.937  0.00  0.00    -0.263 N 
ATOM     12  H   UNL d   1      -3.106  -2.897  -1.235  0.00  0.00     0.190 HD
ATOM     13  O   UNL d   1      -0.389  -3.891   0.145  0.00  0.00    -0.266 OA
BRANCH  11  14
ATOM     14  N   UNL d   1      -2.561  -4.892  -1.074  0.00  0.00    -0.268 N 
ATOM     15  C   UNL d   1      -3.801  -5.329  -1.485  0.00  0.00     0.232 C 
ATOM     16  O   UNL d   1      -4.700  -4.568  -1.831  0.00  0.00    -0.272 OA
ATOM     17  C   UNL d   1      -3.969  -6.824  -1.453  0.00  0.00     0.119 C 
ATOM     18  H   UNL d   1      -1.869  -5.502  -0.635  0.00  0.00     0.190 HD
ENDBRANCH  11  14
ENDBRANCH   2  10
BRANCH   1  19
ATOM     19  N   UNL d   1      -3.461  -0.841   0.393  0.00  0.00    -0.313 N 
ATOM     20  C   UNL d   1      -4.054  -1.838   1.182  0.00  0.00     0.013 C 
ATOM     21  C   UNL d   1      -5.428  -1.733   1.082  0.00  0.00     0.027 C 
ATOM     22  C   UNL d   1      -3.337  -2.784   2.086  0.00  0.00     0.068 C 
ATOM     23  C   UNL d   1      -5.715  -0.590   0.331  0.00  0.00     0.027 C 
ATOM     24  C   UNL d   1      -4.515  -0.025  -0.060  0.00  0.00     0.013 C 
ATOM     25  C   UNL d   1      -4.382   1.219  -0.877  0.00  0.00     0.068 C 
ENDBRANCH   1  19
TORSDOF 3
