REMARK  4 active torsions:
REMARK  status: ('A' for Active; 'I' for Inactive)
REMARK       I    between atoms: N_2  and  C_1 
REMARK    1  A    between atoms: C_3  and  C_1 
REMARK       I    between atoms: C_4  and  N_2 
REMARK       I    between atoms: N_5  and  C_4 
REMARK    2  A    between atoms: C_9  and  N_5 
REMARK    3  A    between atoms: O_6  and  C_10 
REMARK    4  A    between atoms: C_7  and  O_6 
ROOT
ATOM      1  C   UNL d   1      -0.936  -1.252   1.028  0.00  0.00     0.263 C 
ATOM      2  N   UNL d   1       0.352  -0.778   1.177  0.00  0.00    -0.275 N 
ATOM      3  C   UNL d   1       0.944  -0.579   2.401  0.00  0.00     0.327 C 
ATOM      4  N   UNL d   1       2.268  -0.230   2.411  0.00  0.00    -0.306 N 
ATOM      5  O   UNL d   1      -1.777  -1.270   1.928  0.00  0.00    -0.267 OA
ATOM      6  O   UNL d   1       0.433  -0.813   3.494  0.00  0.00    -0.247 OA
ATOM      7  H   UNL d   1       0.924  -0.668   0.357  0.00  0.00     0.173 HD
ATOM      8  H   UNL d   1       2.697  -0.505   3.288  0.00  0.00     0.171 HD
ENDROOT
BRANCH   4   9
ATOM      9  C   UNL d   1       3.109   0.122   1.349  0.00  0.00     0.070 C 
ATOM     10  C   UNL d   1       2.792   1.094   0.389  0.00  0.00     0.102 C 
ATOM     11  C   UNL d   1       3.613   1.254  -0.731  0.00  0.00     0.039 C 
ATOM     12  C   UNL d   1       4.791   0.514  -0.849  0.00  0.00     0.003 C 
ATOM     13  C   UNL d   1       5.167  -0.361   0.169  0.00  0.00     0.002 C 
ATOM     14  C   UNL d   1       4.338  -0.542   1.275  0.00  0.00     0.032 C 
BRANCH  10  15
ATOM     15  O   UNL d   1       1.683   1.909   0.445  0.00  0.00    -0.307 OA
BRANCH  15  16
ATOM     16  C   UNL d   1       1.460   2.697   1.560  0.00  0.00     0.098 A 
ATOM     17  C   UNL d   1       0.145   3.139   1.786  0.00  0.00     0.069 A 
ATOM     18  C   UNL d   1      -0.167   3.921   2.901  0.00  0.00     0.050 A 
ATOM     19 CL   UNL d   1      -1.143   2.761   0.699  0.00  0.00    -0.081 Cl
ATOM     20  C   UNL d   1       0.840   4.281   3.788  0.00  0.00     0.035 A 
ATOM     21  C   UNL d   1       2.157   3.888   3.558  0.00  0.00     0.026 A 
ATOM     22 CL   UNL d   1       0.461   5.235   5.169  0.00  0.00    -0.084 Cl
ATOM     23  C   UNL d   1       2.471   3.109   2.438  0.00  0.00     0.041 A 
ENDBRANCH  15  16
ENDBRANCH  10  15
ENDBRANCH   4   9
BRANCH   1  24
ATOM     24  C   UNL d   1      -1.400  -1.693  -0.318  0.00  0.00     0.075 A 
ATOM     25  C   UNL d   1      -2.229  -2.831  -0.408  0.00  0.00     0.051 A 
ATOM     26 CL   UNL d   1      -2.369  -4.005   0.861  0.00  0.00    -0.083 Cl
ATOM     27  C   UNL d   1      -2.938  -3.116  -1.585  0.00  0.00     0.025 A 
ATOM     28  C   UNL d   1      -2.816  -2.289  -2.694  0.00  0.00     0.003 A 
ATOM     29  C   UNL d   1      -1.932  -1.217  -2.649  0.00  0.00     0.025 A 
ATOM     30  C   UNL d   1      -1.214  -0.930  -1.479  0.00  0.00     0.051 A 
ATOM     31 CL   UNL d   1      -0.101   0.376  -1.608  0.00  0.00    -0.083 Cl
ENDBRANCH   1  24
TORSDOF 4
