REMARK  4 active torsions:
REMARK  status: ('A' for Active; 'I' for Inactive)
REMARK    1  A    between atoms: C_6  and  C_1 
REMARK    2  A    between atoms: C_9  and  C_2 
REMARK    3  A    between atoms: O_11  and  C_6 
REMARK    4  A    between atoms: C_17  and  O_11 
ROOT
ATOM      1  C   UNL d   1      -1.942   1.220  -0.153  0.00  0.00     0.073 A 
ATOM      2  C   UNL d   1      -0.631   1.743   0.005  0.00  0.00     0.005 A 
ATOM      3  C   UNL d   1      -2.138  -0.163  -0.148  0.00  0.00     0.023 A 
ATOM      4  N   UNL d   1      -1.102  -1.031  -0.047  0.00  0.00    -0.358 N 
ATOM      5  HN  UNL d   1      -1.275  -2.036  -0.054  1.00  0.00     0.166 HD
ATOM      6  C   UNL d   1       0.453   0.809   0.140  0.00  0.00     0.003 A 
ATOM      7  C   UNL d   1       0.145  -0.567   0.062  0.00  0.00     0.043 A 
ATOM      8  C   UNL d   1      -3.465  -0.853  -0.253  0.00  0.00     0.069 C 
ATOM      9  C   UNL d   1       1.822   1.149   0.337  0.00  0.00     0.014 A 
ATOM     10  C   UNL d   1       1.164  -1.509   0.085  0.00  0.00     0.030 A 
ATOM     11  C   UNL d   1       2.834   0.188   0.346  0.00  0.00     0.001 A 
ATOM     12  C   UNL d   1       2.505  -1.148   0.202  0.00  0.00     0.002 A 
ENDROOT
BRANCH   2  13
ATOM     13  C   UNL d   1      -0.378   3.218   0.019  0.00  0.00    -0.024 A 
ATOM     14  C   UNL d   1      -1.073   4.078   0.888  0.00  0.00     0.012 A 
ATOM     15  C   UNL d   1      -0.821   5.455   0.905  0.00  0.00     0.001 A 
ATOM     16  C   UNL d   1       0.160   5.998   0.081  0.00  0.00     0.000 A 
ATOM     17  C   UNL d   1       0.863   5.171  -0.787  0.00  0.00     0.001 A 
ATOM     18  C   UNL d   1       0.574   3.804  -0.839  0.00  0.00     0.012 A 
ENDBRANCH   2  13
BRANCH   1  19
ATOM     19  C   UNL d   1      -3.072   2.117  -0.464  0.00  0.00     0.296 C 
ATOM     20  O   UNL d   1      -3.067   2.889  -1.409  0.00  0.00    -0.259 OA
BRANCH  19  21
ATOM     21  O   UNL d   1      -4.063   1.961   0.443  0.00  0.00    -0.318 OA
BRANCH  21  22
ATOM     22  C   UNL d   1      -5.227   2.792   0.258  0.00  0.00     0.174 C 
ATOM     23  C   UNL d   1      -6.027   2.427  -0.984  0.00  0.00     0.034 C 
ENDBRANCH  21  22
ENDBRANCH  19  21
ENDBRANCH   1  19
TORSDOF 4
