REMARK  4 active torsions:
REMARK  status: ('A' for Active; 'I' for Inactive)
REMARK    1  A    between atoms: N_8  and  C_2 
REMARK    2  A    between atoms: C_7  and  N_8 
REMARK    3  A    between atoms: N_13  and  C_7 
REMARK    4  A    between atoms: N_14  and  N_13 
ROOT
ATOM      1  C   UNL d   1       1.826   0.703  -1.011  0.00  0.00     0.017 C 
ATOM      2  C   UNL d   1       2.649   1.960  -0.629  0.00  0.00     0.089 C 
ATOM      3  C   UNL d   1       0.270   2.304  -0.949  0.00  0.00    -0.007 C 
ATOM      4  C   UNL d   1       0.953   0.297   0.204  0.00  0.00     0.018 A 
ATOM      5  C   UNL d   1       0.798   1.304  -1.980  0.00  0.00     0.012 C 
ATOM      6  C   UNL d   1      -0.145   1.394   0.229  0.00  0.00     0.001 A 
ATOM      7  C   UNL d   1       1.557   3.052  -0.539  0.00  0.00     0.030 C 
ATOM      8  C   UNL d   1       0.179  -0.971   0.038  0.00  0.00    -0.025 A 
ATOM      9  C   UNL d   1      -1.140  -0.762  -0.039  0.00  0.00    -0.030 A 
ATOM     10  C   UNL d   1      -1.495   0.685   0.035  0.00  0.00     0.032 A 
ENDROOT
BRANCH   2  11
ATOM     11  N   UNL d   1       3.621   2.307  -1.672  0.00  0.00    -0.361 N 
ATOM     12  H   UNL d   1       3.230   2.731  -2.502  0.00  0.00     0.162 HD
BRANCH  11  13
ATOM     13  C   UNL d   1       4.918   1.850  -1.810  0.00  0.00     0.182 C 
ATOM     14  S   UNL d   1       5.707   0.840  -0.735  0.00  0.00    -0.040 SA
BRANCH  13  15
ATOM     15  N   UNL d   1       5.482   2.352  -2.986  0.00  0.00    -0.298 N 
ATOM     16  H   UNL d   1       5.014   3.135  -3.430  0.00  0.00     0.183 HD
BRANCH  15  17
ATOM     17  N   UNL d   1       6.852   2.199  -3.291  0.00  0.00    -0.243 NA
ATOM     18  C   UNL d   1       7.021   1.533  -4.578  0.00  0.00     0.133 C 
ATOM     19  H   UNL d   1       7.276   1.617  -2.555  0.00  0.00     0.146 HD
ENDBRANCH  15  17
ENDBRANCH  13  15
ENDBRANCH  11  13
ENDBRANCH   2  11
TORSDOF 4
