REMARK  5 active torsions:
REMARK  status: ('A' for Active; 'I' for Inactive)
REMARK    1  A    between atoms: C_8  and  C_3 
REMARK    2  A    between atoms: C_9  and  N_4 
REMARK    3  A    between atoms: C_11  and  C_9 
REMARK       I    between atoms: C_10  and  N_12 
REMARK       I    between atoms: N_14  and  C_10 
REMARK       I    between atoms: N_13  and  C_11 
REMARK    4  A    between atoms: N_12  and  N_13 
REMARK    5  A    between atoms: C_24  and  N_14 
ROOT
ATOM      1  N   UNL d   1      -0.451  -0.701   1.220  0.00  0.00    -0.268 N 
ATOM      2  HN  UNL d   1      -0.660  -1.678   1.423  1.00  0.00     0.190 HD
ATOM      3  C   UNL d   1       0.579   0.063   1.630  0.00  0.00     0.144 A 
ATOM      4  N   UNL d   1      -1.129   0.186   0.466  0.00  0.00    -0.207 N 
ATOM      5  N   UNL d   1       0.526   1.336   1.117  0.00  0.00    -0.266 N 
ATOM      6  HN  UNL d   1       1.198   2.086   1.279  1.00  0.00     0.186 HD
ATOM      7  N   UNL d   1      -0.566   1.404   0.371  0.00  0.00    -0.002 NA
ENDROOT
BRANCH   4   8
ATOM      8  C   UNL d   1      -2.442  -0.043  -0.097  0.00  0.00     0.271 C 
BRANCH   8   9
ATOM      9  C   UNL d   1      -3.079  -1.401   0.048  0.00  0.00     0.257 C 
ATOM     10  N   UNL d   1      -2.334  -2.477   0.465  0.00  0.00    -0.265 N 
ATOM     11  H   UNL d   1      -1.455  -2.367   0.985  0.00  0.00     0.190 HD
ATOM     12  O   UNL d   1      -4.263  -1.555  -0.275  0.00  0.00    -0.270 OA
BRANCH  10  13
ATOM     13  N   UNL d   1      -2.995  -3.718   0.578  0.00  0.00    -0.249 N 
ATOM     14  C   UNL d   1      -2.563  -4.617   1.533  0.00  0.00     0.335 C 
ATOM     15  N   UNL d   1      -3.339  -5.753   1.554  0.00  0.00    -0.338 N 
ATOM     16  O   UNL d   1      -1.568  -4.436   2.227  0.00  0.00    -0.246 OA
ATOM     17  H   UNL d   1      -4.181  -5.766   1.000  0.00  0.00     0.164 HD
ATOM     18  H   UNL d   1      -3.983  -3.687   0.342  0.00  0.00     0.192 HD
BRANCH  15  19
ATOM     19  C   UNL d   1      -3.083  -6.871   2.453  0.00  0.00     0.078 C 
ATOM     20  C   UNL d   1      -3.928  -6.751   3.718  0.00  0.00     0.032 C 
ATOM     21  C   UNL d   1      -3.374  -8.191   1.743  0.00  0.00     0.032 C 
ENDBRANCH  15  19
ENDBRANCH  10  13
ENDBRANCH   8   9
ENDBRANCH   4   8
BRANCH   3  22
ATOM     22  C   UNL d   1       1.596  -0.369   2.576  0.00  0.00     0.014 A 
ATOM     23  C   UNL d   1       1.670  -1.711   2.976  0.00  0.00     0.039 A 
ATOM     24  C   UNL d   1       2.598  -2.105   3.939  0.00  0.00     0.036 A 
ATOM     25 CL   UNL d   1       2.664  -3.752   4.434  0.00  0.00    -0.084 Cl
ATOM     26  C   UNL d   1       3.462  -1.178   4.515  0.00  0.00     0.047 A 
ATOM     27  C   UNL d   1       3.402   0.151   4.108  0.00  0.00     0.036 A 
ATOM     28  C   UNL d   1       2.483   0.561   3.140  0.00  0.00     0.039 A 
ATOM     29 CL   UNL d   1       4.458   1.307   4.822  0.00  0.00    -0.084 Cl
ENDBRANCH   3  22
TORSDOF 5
