REMARK  4 active torsions:
REMARK  status: ('A' for Active; 'I' for Inactive)
REMARK    1  A    between atoms: C_3  and  C_1 
REMARK    2  A    between atoms: C_6  and  C_2 
REMARK    3  A    between atoms: O_13  and  C_6 
REMARK    4  A    between atoms: C_14  and  O_13 
ROOT
ATOM      1  C   UNL d   1      -0.377   1.127   0.076  0.00  0.00     0.150 A 
ATOM      2  C   UNL d   1       1.022   0.854  -0.027  0.00  0.00     0.089 A 
ATOM      3  N   UNL d   1      -1.081  -0.024   0.171  0.00  0.00    -0.296 N 
ATOM      4  HN  UNL d   1      -2.091  -0.130   0.269  1.00  0.00     0.187 HD
ATOM      5  N   UNL d   1      -0.161  -0.992   0.106  0.00  0.00    -0.310 N 
ATOM      6  C   UNL d   1       1.109  -0.526  -0.026  0.00  0.00     0.127 A 
ATOM      7  H   UNL d   1      -0.475  -1.959   0.150  0.00  0.00     0.186 HD
ENDROOT
BRANCH   2   8
ATOM      8  C   UNL d   1       2.119   1.788  -0.145  0.00  0.00     0.297 C 
ATOM      9  O   UNL d   1       2.074   2.937   0.273  0.00  0.00    -0.259 OA
BRANCH   8  10
ATOM     10  O   UNL d   1       3.175   1.249  -0.822  0.00  0.00    -0.318 OA
BRANCH  10  11
ATOM     11  C   UNL d   1       4.177   2.183  -1.248  0.00  0.00     0.174 C 
ATOM     12  C   UNL d   1       3.760   2.783  -2.579  0.00  0.00     0.034 C 
ENDBRANCH  10  11
ENDBRANCH   8  10
ENDBRANCH   2   8
BRANCH   1  13
ATOM     13  C   UNL d   1      -1.069   2.471   0.042  0.00  0.00     0.435 C 
ATOM     14  F   UNL d   1      -0.288   3.474  -0.432  0.00  0.00    -0.165 F 
ATOM     15  F   UNL d   1      -2.164   2.454  -0.770  0.00  0.00    -0.165 F 
ATOM     16  F   UNL d   1      -1.504   2.855   1.272  0.00  0.00    -0.165 F 
ENDBRANCH   1  13
TORSDOF 4
