REMARK  5 active torsions:
REMARK  status: ('A' for Active; 'I' for Inactive)
REMARK    1  A    between atoms: C_8  and  N_1 
REMARK    2  A    between atoms: C_11  and  C_2 
REMARK    3  A    between atoms: C_10  and  C_20 
REMARK    4  A    between atoms: O_18  and  N_12 
REMARK    5  A    between atoms: C_20  and  O_18 
ROOT
ATOM      1  N   UNL d   1       1.723   5.822   0.066  0.00  0.00    -0.243 N 
ATOM      2  C   UNL d   1       0.441   4.034   0.019  0.00  0.00     0.097 A 
ATOM      3  N   UNL d   1       2.406   4.812  -0.518  0.00  0.00    -0.235 N 
ATOM      4  HN  UNL d   1       3.357   4.875  -0.883  1.00  0.00     0.209 HD
ATOM      5  C   UNL d   1       0.463   5.357   0.452  0.00  0.00     0.062 A 
ATOM      6  N   UNL d   1       1.651   3.733  -0.542  0.00  0.00    -0.282 N 
ATOM      7  HN  UNL d   1       1.924   2.824  -0.916  1.00  0.00     0.188 HD
ATOM      8  C   UNL d   1      -0.583   6.180   1.109  0.00  0.00     0.073 C 
ENDROOT
BRANCH   2   9
ATOM      9  C   UNL d   1      -0.609   3.023   0.061  0.00  0.00     0.058 C 
ATOM     10  N   UNL d   1      -1.855   3.405   0.128  0.00  0.00    -0.269 N 
ATOM     11  HN  UNL d   1      -2.165   4.373   0.216  1.00  0.00     0.194 HD
ATOM     12  C   UNL d   1      -0.203   1.564  -0.025  0.00  0.00     0.072 C 
BRANCH  10  13
ATOM     13  O   UNL d   1      -2.710   2.287   0.061  0.00  0.00    -0.276 OA
BRANCH  13  14
ATOM     14  C   UNL d   1      -4.074   2.704   0.135  0.00  0.00     0.243 C 
BRANCH  14  15
ATOM     15  C   UNL d   1      -4.958   1.478   0.145  0.00  0.00     0.011 A 
ATOM     16  C   UNL d   1      -4.893   0.557   1.212  0.00  0.00     0.044 A 
ATOM     17 CL   UNL d   1      -3.838   0.790   2.565  0.00  0.00    -0.084 Cl
ATOM     18  C   UNL d   1      -5.696  -0.591   1.235  0.00  0.00     0.024 A 
ATOM     19  C   UNL d   1      -6.590  -0.844   0.201  0.00  0.00     0.003 A 
ATOM     20  C   UNL d   1      -6.679   0.054  -0.858  0.00  0.00     0.024 A 
ATOM     21  C   UNL d   1      -5.872   1.201  -0.889  0.00  0.00     0.044 A 
ATOM     22 CL   UNL d   1      -6.076   2.243  -2.254  0.00  0.00    -0.084 Cl
ENDBRANCH  14  15
ENDBRANCH  13  14
ENDBRANCH  10  13
ENDBRANCH   2   9
BRANCH   1  23
ATOM     23  C   UNL d   1       2.381   7.062   0.308  0.00  0.00     0.081 A 
ATOM     24  C   UNL d   1       3.315   7.598  -0.610  0.00  0.00     0.084 A 
ATOM     25  C   UNL d   1       4.021   8.767  -0.267  0.00  0.00     0.058 A 
ATOM     26 CL   UNL d   1       3.522   6.946  -2.211  0.00  0.00    -0.080 Cl
ATOM     27 CL   UNL d   1       5.196   9.495  -1.314  0.00  0.00    -0.082 Cl
ATOM     28  C   UNL d   1       3.796   9.404   0.956  0.00  0.00     0.026 A 
ATOM     29  C   UNL d   1       2.863   8.889   1.847  0.00  0.00     0.004 A 
ATOM     30  C   UNL d   1       2.160   7.726   1.528  0.00  0.00     0.033 A 
ENDBRANCH   1  23
TORSDOF 5
