REMARK  5 active torsions:
REMARK  status: ('A' for Active; 'I' for Inactive)
REMARK    1  A    between atoms: C_5  and  C_1 
REMARK    2  A    between atoms: C_7  and  C_2 
REMARK    3  A    between atoms: S_4  and  C_3 
REMARK    4  A    between atoms: C_6  and  S_4 
REMARK       I    between atoms: N_12  and  C_5 
REMARK       I    between atoms: N_13  and  C_7 
REMARK    5  A    between atoms: O_17  and  C_14 
ROOT
ATOM      1  C   UNL d   1       1.280  -0.151  -0.385  0.00  0.00     0.051 A 
ATOM      2  C   UNL d   1       0.527  -1.339  -0.352  0.00  0.00     0.021 A 
ATOM      3  C   UNL d   1       0.629   1.095  -0.250  0.00  0.00     0.055 A 
ATOM      4  C   UNL d   1      -0.873  -1.217  -0.231  0.00  0.00     0.023 A 
ATOM      5  C   UNL d   1      -0.751   1.194  -0.087  0.00  0.00     0.069 A 
ATOM      6  C   UNL d   1      -1.506   0.030  -0.105  0.00  0.00     0.038 A 
ENDROOT
BRANCH   2   7
ATOM      7  S   UNL d   1       1.187  -2.990  -0.142  0.00  0.00    -0.088 SA
BRANCH   7   8
ATOM      8  C   UNL d   1       1.372  -3.723  -1.768  0.00  0.00     0.021 A 
ATOM      9  C   UNL d   1       0.392  -4.455  -2.473  0.00  0.00     0.049 A 
ATOM     10  C   UNL d   1       0.754  -5.186  -3.627  0.00  0.00     0.018 A 
ATOM     11  C   UNL d   1       2.073  -5.226  -4.069  0.00  0.00     0.001 A 
ATOM     12  C   UNL d   1       3.042  -4.502  -3.387  0.00  0.00     0.001 A 
ATOM     13  C   UNL d   1       2.693  -3.755  -2.256  0.00  0.00     0.020 A 
BRANCH   9  14
ATOM     14  C   UNL d   1      -1.046  -4.580  -2.092  0.00  0.00     0.252 C 
ATOM     15  O   UNL d   1      -1.905  -4.588  -2.969  0.00  0.00    -0.268 OA
ATOM     16  N   UNL d   1      -1.313  -4.785  -0.762  0.00  0.00    -0.361 N 
ATOM     17  C   UNL d   1      -2.644  -5.057  -0.281  0.00  0.00     0.149 C 
ATOM     18  H   UNL d   1      -0.539  -4.857  -0.112  0.00  0.00     0.162 HD
ENDBRANCH   9  14
ENDBRANCH   7   8
ENDBRANCH   2   7
BRANCH   1  19
ATOM     19  C   UNL d   1       2.755  -0.034  -0.546  0.00  0.00     0.252 C 
ATOM     20  O   UNL d   1       3.211   0.886  -1.220  0.00  0.00    -0.268 OA
ATOM     21  N   UNL d   1       3.559  -0.926   0.120  0.00  0.00    -0.361 N 
ATOM     22  C   UNL d   1       4.994  -0.830   0.037  0.00  0.00     0.149 C 
ATOM     23  H   UNL d   1       3.137  -1.697   0.629  0.00  0.00     0.162 HD
ENDBRANCH   1  19
BRANCH   5  24
ATOM     24  O   UNL d   1      -1.211   2.465   0.101  0.00  0.00    -0.356 OA
ATOM     25  C   UNL d   1      -2.614   2.648   0.229  0.00  0.00     0.210 C 
ENDBRANCH   5  24
TORSDOF 5
