REMARK  5 active torsions:
REMARK  status: ('A' for Active; 'I' for Inactive)
REMARK    1  A    between atoms: C_3  and  C_1 
REMARK    2  A    between atoms: C_2  and  C_10 
REMARK    3  A    between atoms: N_6  and  C_3 
REMARK    4  A    between atoms: C_13  and  C_3 
REMARK    5  A    between atoms: O_22  and  C_4 
ROOT
ATOM      1  C   UNL d   1       2.745  -2.123  -0.191  0.00  0.00     0.291 C 
ENDROOT
BRANCH   1   2
ATOM      2  C   UNL d   1       1.772  -0.963   0.109  0.00  0.00     0.015 A 
ATOM      3  C   UNL d   1       1.101  -0.819   1.346  0.00  0.00     0.077 A 
ATOM      4  C   UNL d   1       0.225   0.248   1.591  0.00  0.00     0.076 A 
ATOM      5  C   UNL d   1       0.074   1.197   0.604  0.00  0.00     0.107 A 
ATOM      6  C   UNL d   1       0.707   1.078  -0.605  0.00  0.00     0.105 A 
ATOM      7  O   UNL d   1      -0.675   2.329   0.685  0.00  0.00    -0.323 OA
ATOM      8  C   UNL d   1       1.524   0.007  -0.891  0.00  0.00     0.052 A 
ATOM      9  O   UNL d   1       0.445   2.119  -1.438  0.00  0.00    -0.323 OA
ATOM     10  C   UNL d   1      -0.352   2.955  -0.574  0.00  0.00     0.352 A 
BRANCH   3  11
ATOM     11  O   UNL d   1       1.238  -1.703   2.378  0.00  0.00    -0.360 OA
ATOM     12  H   UNL d   1       2.153  -2.028   2.385  0.00  0.00     0.217 HD
ENDBRANCH   3  11
ENDBRANCH   1   2
BRANCH   1  13
ATOM     13  N   UNL d   1       2.491  -2.704  -1.542  0.00  0.00     0.102 N 
ATOM     14  C   UNL d   1       1.194  -3.415  -1.586  0.00  0.00     0.273 C 
ATOM     15  C   UNL d   1       1.475  -4.820  -1.068  0.00  0.00     0.032 C 
ATOM     16  C   UNL d   1       2.945  -5.058  -1.376  0.00  0.00     0.032 C 
ATOM     17  C   UNL d   1       3.440  -3.747  -1.967  0.00  0.00     0.273 C 
ENDBRANCH   1  13
BRANCH   1  18
ATOM     18  C   UNL d   1       4.214  -1.692   0.011  0.00  0.00    -0.021 A 
ATOM     19  C   UNL d   1       5.094  -2.528   0.725  0.00  0.00     0.010 A 
ATOM     20  C   UNL d   1       6.462  -2.236   0.805  0.00  0.00     0.017 A 
ATOM     21  C   UNL d   1       6.987  -1.094   0.184  0.00  0.00     0.047 A 
ATOM     22  C   UNL d   1       6.110  -0.232  -0.482  0.00  0.00     0.017 A 
ATOM     23  C   UNL d   1       4.750  -0.535  -0.580  0.00  0.00     0.010 A 
BRANCH  21  24
ATOM     24  C   UNL d   1       8.463  -0.789   0.207  0.00  0.00     0.417 C 
ATOM     25  F   UNL d   1       9.224  -1.812   0.690  0.00  0.00    -0.166 F 
ATOM     26  F   UNL d   1       8.962  -0.514  -1.033  0.00  0.00    -0.166 F 
ATOM     27  F   UNL d   1       8.763   0.294   0.975  0.00  0.00    -0.166 F 
ENDBRANCH  21  24
ENDBRANCH   1  18
TORSDOF 5
