REMARK  4 active torsions:
REMARK  status: ('A' for Active; 'I' for Inactive)
REMARK    1  A    between atoms: C_10  and  C_5 
REMARK    2  A    between atoms: C_11  and  C_6 
REMARK    3  A    between atoms: C_8  and  C_10 
REMARK    4  A    between atoms: C_12  and  C_11 
ROOT
ATOM      1  N   UNL d   1      -1.453  -0.649   0.140  0.00  0.00    -0.305 N 
ATOM      2  HN  UNL d   1      -2.251  -1.276   0.242  1.00  0.00     0.186 HD
ATOM      3  N   UNL d   1      -0.141  -1.002   0.046  0.00  0.00    -0.270 N 
ATOM      4  C   UNL d   1       0.738   0.053  -0.134  0.00  0.00     0.246 A 
ATOM      5  C   UNL d   1      -0.116   1.299  -0.037  0.00  0.00     0.130 A 
ATOM      6  C   UNL d   1      -1.483   0.650   0.073  0.00  0.00     0.017 A 
ATOM      7  O   UNL d   1       1.936  -0.025  -0.315  0.00  0.00    -0.271 OA
ATOM      8  H   UNL d   1       0.138  -1.976   0.020  0.00  0.00     0.190 HD
ENDROOT
BRANCH   5   9
ATOM      9  C   UNL d   1       0.249   2.120   1.200  0.00  0.00     0.046 C 
BRANCH   9  10
ATOM     10  C   UNL d   1       1.585   2.806   1.069  0.00  0.00    -0.036 C 
ATOM     11  C   UNL d   1       1.788   4.126   1.162  0.00  0.00     0.007 C 
ENDBRANCH   9  10
ENDBRANCH   5   9
BRANCH   6  12
ATOM     12  C   UNL d   1      -2.778   1.412   0.053  0.00  0.00     0.054 C 
BRANCH  12  13
ATOM     13  C   UNL d   1      -3.023   2.146  -1.263  0.00  0.00     0.001 C 
ATOM     14  C   UNL d   1      -3.042   1.231  -2.481  0.00  0.00     0.005 C 
ENDBRANCH  12  13
ENDBRANCH   6  12
TORSDOF 4
