REMARK  9 active torsions:
REMARK  status: ('A' for Active; 'I' for Inactive)
REMARK    1  A    between atoms: C_16  and  N_1 
REMARK    2  A    between atoms: C_11  and  C_2 
REMARK    3  A    between atoms: S_9  and  C_5 
REMARK    4  A    between atoms: C_8  and  C_10 
REMARK    5  A    between atoms: C_10  and  S_9 
REMARK    6  A    between atoms: C_14  and  C_15 
REMARK    7  A    between atoms: C_23  and  C_16 
REMARK    8  A    between atoms: C_31  and  C_23 
REMARK    9  A    between atoms: O_25  and  C_31 
ROOT
ATOM      1  N   UNL d   1      -0.315  -1.215  -0.009  0.00  0.00    -0.311 N 
ATOM      2  C   UNL d   1       0.929  -0.588  -0.011  0.00  0.00     0.134 A 
ATOM      3  N   UNL d   1       0.713   0.720  -0.016  0.00  0.00    -0.283 N 
ATOM      4  HN  UNL d   1       1.439   1.436  -0.005  1.00  0.00     0.188 HD
ATOM      5  C   UNL d   1      -1.243  -0.197  -0.057  0.00  0.00     0.163 A 
ATOM      6  N   UNL d   1      -0.635   0.962  -0.040  0.00  0.00    -0.278 N 
ATOM      7  HN  UNL d   1      -1.084   1.878  -0.044  1.00  0.00     0.189 HD
ENDROOT
BRANCH   2   8
ATOM      8  C   UNL d   1       2.277  -1.183  -0.105  0.00  0.00     0.009 A 
ATOM      9  C   UNL d   1       3.288  -0.488  -0.790  0.00  0.00     0.016 A 
ATOM     10  C   UNL d   1       4.568  -1.042  -0.983  0.00  0.00     0.009 A 
ATOM     11  C   UNL d   1       4.888  -2.324  -0.508  0.00  0.00    -0.051 A 
ATOM     12  C   UNL d   1       3.901  -2.969   0.252  0.00  0.00     0.009 A 
ATOM     13  C   UNL d   1       2.635  -2.402   0.470  0.00  0.00     0.016 A 
BRANCH  11  14
ATOM     14  C   UNL d   1       6.242  -2.984  -0.826  0.00  0.00    -0.024 C 
ATOM     15  C   UNL d   1       6.368  -4.420  -0.262  0.00  0.00     0.019 C 
ATOM     16  C   UNL d   1       6.423  -3.086  -2.357  0.00  0.00     0.019 C 
ATOM     17  C   UNL d   1       7.409  -2.161  -0.242  0.00  0.00     0.019 C 
ENDBRANCH  11  14
ENDBRANCH   2   8
BRANCH   1  18
ATOM     18  C   UNL d   1      -0.624  -2.631   0.030  0.00  0.00     0.135 C 
BRANCH  18  19
ATOM     19  C   UNL d   1      -0.637  -3.314  -1.338  0.00  0.00     0.046 C 
BRANCH  19  20
ATOM     20  C   UNL d   1      -0.919  -4.811  -1.214  0.00  0.00     0.168 C 
BRANCH  20  21
ATOM     21  O   UNL d   1      -2.161  -4.997  -0.538  0.00  0.00    -0.396 OA
ATOM     22  C   UNL d   1      -2.533  -6.367  -0.457  0.00  0.00     0.201 C 
ENDBRANCH  20  21
ENDBRANCH  19  20
ENDBRANCH  18  19
ENDBRANCH   1  18
BRANCH   5  23
ATOM     23  S   UNL d   1      -2.961  -0.437  -0.135  0.00  0.00    -0.087 SA
BRANCH  23  24
ATOM     24  C   UNL d   1      -3.527   1.198  -0.706  0.00  0.00     0.126 C 
BRANCH  24  25
ATOM     25  C   UNL d   1      -5.021   1.240  -0.928  0.00  0.00     0.012 A 
ATOM     26  C   UNL d   1      -5.854   1.744   0.079  0.00  0.00     0.125 A 
ATOM     27  F   UNL d   1      -5.317   2.190   1.227  0.00  0.00    -0.205 F 
ATOM     28  C   UNL d   1      -7.238   1.817  -0.067  0.00  0.00     0.043 A 
ATOM     29  C   UNL d   1      -7.835   1.375  -1.242  0.00  0.00     0.005 A 
ATOM     30  C   UNL d   1      -7.033   0.863  -2.262  0.00  0.00     0.024 A 
ATOM     31  C   UNL d   1      -5.641   0.793  -2.108  0.00  0.00     0.044 A 
ATOM     32 CL   UNL d   1      -4.731   0.152  -3.429  0.00  0.00    -0.084 Cl
ENDBRANCH  24  25
ENDBRANCH  23  24
ENDBRANCH   5  23
TORSDOF 9
