REMARK  9 active torsions:
REMARK  status: ('A' for Active; 'I' for Inactive)
REMARK    1  A    between atoms: O_10  and  C_1 
REMARK    2  A    between atoms: N_3  and  C_2 
REMARK    3  A    between atoms: C_11  and  C_4 
REMARK    4  A    between atoms: C_12  and  C_5 
REMARK    5  A    between atoms: C_8  and  O_10 
REMARK    6  A    between atoms: C_9  and  O_14 
REMARK    7  A    between atoms: O_28  and  C_11 
REMARK    8  A    between atoms: O_27  and  C_12 
REMARK    9  A    between atoms: O_14  and  C_13 
ROOT
ATOM      1  C   UNL d   1      -0.434   1.270  -0.058  0.00  0.00     0.183 A 
ATOM      2  C   UNL d   1       0.955   1.219  -0.035  0.00  0.00     0.154 A 
ATOM      3  N   UNL d   1      -1.173   0.129  -0.066  0.00  0.00    -0.315 N 
ATOM      4  HN  UNL d   1      -2.191   0.173  -0.104  1.00  0.00     0.170 HD
ATOM      5  C   UNL d   1      -0.540  -1.066  -0.024  0.00  0.00     0.150 A 
ATOM      6  C   UNL d   1       1.597  -0.035  -0.029  0.00  0.00     0.045 A 
ATOM      7  C   UNL d   1       0.834  -1.199  -0.040  0.00  0.00     0.059 A 
ENDROOT
BRANCH   1   8
ATOM      8  O   UNL d   1      -1.243   2.358  -0.215  0.00  0.00    -0.290 OA
BRANCH   8   9
ATOM      9  C   UNL d   1      -1.137   3.505   0.528  0.00  0.00     0.094 A 
ATOM     10  C   UNL d   1      -1.645   4.691  -0.044  0.00  0.00     0.075 A 
ATOM     11  C   UNL d   1      -1.536   5.905   0.652  0.00  0.00     0.044 A 
ATOM     12  C   UNL d   1      -0.924   5.936   1.899  0.00  0.00     0.035 A 
ATOM     13  C   UNL d   1      -0.468   4.760   2.492  0.00  0.00     0.026 A 
ATOM     14 CL   UNL d   1      -0.739   7.436   2.720  0.00  0.00    -0.084 Cl
ATOM     15  C   UNL d   1      -0.601   3.539   1.822  0.00  0.00     0.040 A 
BRANCH  10  16
ATOM     16  C   UNL d   1      -2.348   4.755  -1.355  0.00  0.00     0.295 C 
ATOM     17  O   UNL d   1      -3.187   5.607  -1.608  0.00  0.00    -0.259 OA
BRANCH  16  18
ATOM     18  O   UNL d   1      -1.905   3.809  -2.215  0.00  0.00    -0.322 OA
ATOM     19  C   UNL d   1      -2.555   3.823  -3.487  0.00  0.00     0.213 C 
ENDBRANCH  16  18
ENDBRANCH  10  16
ENDBRANCH   8   9
ENDBRANCH   1   8
BRANCH   2  20
ATOM     20  N   UNL d   1       1.803   2.395   0.001  0.00  0.00    -0.111 N 
ATOM     21  O   UNL d   1       1.478   3.381  -0.667  0.00  0.00    -0.532 OA
ATOM     22  O   UNL d   1       2.826   2.319   0.699  0.00  0.00    -0.532 OA
ENDBRANCH   2  20
BRANCH   5  23
ATOM     23  O   UNL d   1      -1.286  -2.234   0.059  0.00  0.00    -0.293 OA
BRANCH  23  24
ATOM     24  C   UNL d   1      -2.456  -2.205   0.794  0.00  0.00     0.094 A 
ATOM     25  C   UNL d   1      -3.512  -3.061   0.441  0.00  0.00     0.075 A 
ATOM     26  C   UNL d   1      -4.679  -3.090   1.229  0.00  0.00     0.044 A 
ATOM     27  C   UNL d   1      -4.793  -2.269   2.346  0.00  0.00     0.035 A 
ATOM     28  C   UNL d   1      -3.745  -1.434   2.714  0.00  0.00     0.026 A 
ATOM     29 CL   UNL d   1      -6.228  -2.296   3.292  0.00  0.00    -0.084 Cl
ATOM     30  C   UNL d   1      -2.575  -1.420   1.953  0.00  0.00     0.040 A 
BRANCH  25  31
ATOM     31  C   UNL d   1      -3.477  -4.003  -0.702  0.00  0.00     0.295 C 
ATOM     32  O   UNL d   1      -4.098  -5.061  -0.699  0.00  0.00    -0.259 OA
BRANCH  31  33
ATOM     33  O   UNL d   1      -2.758  -3.518  -1.741  0.00  0.00    -0.322 OA
ATOM     34  C   UNL d   1      -2.760  -4.374  -2.885  0.00  0.00     0.213 C 
ENDBRANCH  31  33
ENDBRANCH  25  31
ENDBRANCH  23  24
ENDBRANCH   5  23
TORSDOF 9
