REMARK  4 active torsions:
REMARK  status: ('A' for Active; 'I' for Inactive)
REMARK    1  A    between atoms: C_2  and  S_1 
REMARK    2  A    between atoms: C_6  and  S_1 
REMARK    3  A    between atoms: N_9  and  C_3 
REMARK    4  A    between atoms: C_10  and  N_9 
ROOT
ATOM      1  C   UNL d   1       0.305   1.620   0.268  0.00  0.00     0.159 C 
ATOM      2  C   UNL d   1      -0.290   2.261  -0.754  0.00  0.00     0.124 C 
ATOM      3  C   UNL d   1       0.737   0.275   0.185  0.00  0.00     0.113 C 
ATOM      4  N   UNL d   1       1.083  -0.827   0.085  0.00  0.00    -0.191 NA
ENDROOT
BRANCH   1   5
ATOM      5  S   UNL d   1       0.741   2.518   1.684  0.00  0.00     0.218 S 
ATOM      6  O   UNL d   1       0.250   3.881   1.585  0.00  0.00    -0.216 OA
ATOM      7  O   UNL d   1       2.141   2.294   1.992  0.00  0.00    -0.216 OA
BRANCH   5   8
ATOM      8  C   UNL d   1      -0.195   1.760   3.014  0.00  0.00     0.065 A 
ATOM      9  C   UNL d   1       0.388   0.731   3.763  0.00  0.00     0.025 A 
ATOM     10  C   UNL d   1      -0.261   0.251   4.905  0.00  0.00     0.025 A 
ATOM     11  C   UNL d   1      -1.479   0.805   5.298  0.00  0.00     0.034 A 
ATOM     12  C   UNL d   1      -2.063   1.830   4.553  0.00  0.00     0.025 A 
ATOM     13 CL   UNL d   1      -2.247   0.247   6.734  0.00  0.00    -0.084 Cl
ATOM     14  C   UNL d   1      -1.420   2.315   3.408  0.00  0.00     0.025 A 
ENDBRANCH   5   8
ENDBRANCH   1   5
BRANCH   2  15
ATOM     15  N   UNL d   1      -0.698   1.748  -1.965  0.00  0.00    -0.350 N 
ATOM     16  H   UNL d   1      -0.984   0.772  -1.998  0.00  0.00     0.166 HD
BRANCH  15  17
ATOM     17  C   UNL d   1      -1.238   2.433  -3.055  0.00  0.00     0.104 A 
ATOM     18  N   UNL d   1      -2.109   1.729  -3.805  0.00  0.00    -0.352 N 
ATOM     19  C   UNL d   1      -2.660   2.342  -4.877  0.00  0.00     0.089 A 
ATOM     20  HN  UNL d   1      -2.346   0.765  -3.571  1.00  0.00     0.166 HD
ATOM     21  C   UNL d   1      -2.363   3.636  -5.263  0.00  0.00     0.017 A 
ATOM     22  C   UNL d   1      -1.446   4.345  -4.502  0.00  0.00     0.005 A 
ATOM     23  C   UNL d   1      -0.881   3.741  -3.379  0.00  0.00     0.048 A 
ENDBRANCH  15  17
ENDBRANCH   2  15
TORSDOF 4
