REMARK  6 active torsions:
REMARK  status: ('A' for Active; 'I' for Inactive)
REMARK    1  A    between atoms: N_5  and  C_1 
REMARK       I    between atoms: C_4  and  N_5 
REMARK       I    between atoms: N_11  and  C_4 
REMARK    2  A    between atoms: C_6  and  C_12 
REMARK    3  A    between atoms: O_24  and  C_9 
REMARK    4  A    between atoms: C_10  and  N_11 
REMARK    5  A    between atoms: C_26  and  C_17 
REMARK    6  A    between atoms: C_27  and  C_26 
ROOT
ATOM      1  C   UNL d   1       2.984  -2.209  -0.022  0.00  0.00     0.691 C 
ATOM      2  N   UNL d   1       1.641  -2.246  -0.196  0.00  0.00    -0.022 N 
ATOM      3  N   UNL d   1       3.625  -3.404  -0.182  0.00  0.00    -0.190 N 
ATOM      4  N   UNL d   1       3.691  -1.186   0.332  0.00  0.00    -0.234 N 
ATOM      5  HN  UNL d   1       4.697  -1.172   0.501  1.00  0.00     0.174 HD
ATOM      6  H   UNL d   1       1.179  -3.141  -0.196  0.00  0.00     0.203 HD
ATOM      7  H   UNL d   1       4.601  -3.316   0.098  0.00  0.00     0.184 HD
ATOM      8  H   UNL d   1       3.043  -0.385   0.413  0.00  0.00     0.174 HD
ENDROOT
BRANCH   2   9
ATOM      9  C   UNL d   1       0.748  -1.187  -0.212  0.00  0.00     0.699 A 
ATOM     10  N   UNL d   1      -0.551  -1.516  -0.258  0.00  0.00    -0.170 N 
ATOM     11  C   UNL d   1      -1.403  -0.490  -0.304  0.00  0.00     0.157 A 
ATOM     12  HN  UNL d   1      -0.867  -2.486  -0.257  1.00  0.00     0.186 HD
ATOM     13  C   UNL d   1      -1.058   0.832  -0.325  0.00  0.00     0.082 A 
ATOM     14  C   UNL d   1       0.294   1.085  -0.293  0.00  0.00     0.030 A 
ATOM     15  N   UNL d   1       1.200   0.083  -0.210  0.00  0.00    -0.195 N 
ATOM     16  HN  UNL d   1       2.198   0.283  -0.147  1.00  0.00     0.184 HD
BRANCH  11  17
ATOM     17  O   UNL d   1      -2.712  -0.842  -0.318  0.00  0.00    -0.346 OA
ATOM     18  H   UNL d   1      -2.647  -1.814  -0.275  0.00  0.00     0.219 HD
ENDBRANCH  11  17
BRANCH  14  19
ATOM     19  C   UNL d   1       0.788   2.510  -0.245  0.00  0.00     0.057 C 
BRANCH  19  20
ATOM     20  C   UNL d   1       2.104   2.795  -0.976  0.00  0.00     0.002 C 
ATOM     21  C   UNL d   1       2.016   2.611  -2.485  0.00  0.00     0.005 C 
ENDBRANCH  19  20
ENDBRANCH  14  19
ENDBRANCH   2   9
BRANCH   3  22
ATOM     22  C   UNL d   1       3.527  -4.266  -1.306  0.00  0.00     0.071 A 
ATOM     23  C   UNL d   1       2.935  -3.858  -2.514  0.00  0.00     0.048 A 
ATOM     24  C   UNL d   1       2.857  -4.718  -3.624  0.00  0.00     0.050 A 
ATOM     25  C   UNL d   1       3.339  -6.029  -3.504  0.00  0.00     0.018 A 
ATOM     26  C   UNL d   1       3.942  -6.451  -2.320  0.00  0.00     0.027 A 
ATOM     27  C   UNL d   1       4.053  -5.572  -1.239  0.00  0.00     0.061 A 
ATOM     28 CL   UNL d   1       4.865  -6.133   0.181  0.00  0.00    -0.082 Cl
BRANCH  24  29
ATOM     29  C   UNL d   1       2.285  -4.243  -4.940  0.00  0.00     0.417 C 
ATOM     30  F   UNL d   1       2.058  -2.902  -4.984  0.00  0.00    -0.166 F 
ATOM     31  F   UNL d   1       3.110  -4.516  -5.989  0.00  0.00    -0.166 F 
ATOM     32  F   UNL d   1       1.096  -4.836  -5.234  0.00  0.00    -0.166 F 
ENDBRANCH  24  29
ENDBRANCH   3  22
TORSDOF 6
