REMARK  4 active torsions:
REMARK  status: ('A' for Active; 'I' for Inactive)
REMARK    1  A    between atoms: C_3  and  C_1 
REMARK       I    between atoms: C_2  and  N_7 
REMARK       I    between atoms: N_6  and  C_2 
REMARK    2  A    between atoms: C_4  and  N_6 
REMARK    3  A    between atoms: N_7  and  C_5 
REMARK    4  A    between atoms: O_23  and  C_17 
ROOT
ATOM      1  C   UNL d   1      -1.971   2.035   3.391  0.00  0.00     0.325 C 
ATOM      2  N   UNL d   1      -2.341   0.831   2.871  0.00  0.00    -0.309 N 
ATOM      3  N   UNL d   1      -1.309   2.927   2.618  0.00  0.00    -0.309 N 
ATOM      4  O   UNL d   1      -2.269   2.434   4.519  0.00  0.00    -0.247 OA
ATOM      5  H   UNL d   1      -2.512   0.840   1.875  0.00  0.00     0.170 HD
ATOM      6  H   UNL d   1      -1.302   3.811   3.113  0.00  0.00     0.170 HD
ENDROOT
BRANCH   3   7
ATOM      7  C   UNL d   1      -0.549   2.893   1.442  0.00  0.00     0.039 A 
ATOM      8  C   UNL d   1      -0.162   1.749   0.750  0.00  0.00     0.046 A 
ATOM      9  C   UNL d   1       0.685   1.859  -0.373  0.00  0.00     0.052 A 
ATOM     10  C   UNL d   1       1.144   3.127  -0.775  0.00  0.00     0.053 A 
ATOM     11  C   UNL d   1       0.767   4.274  -0.085  0.00  0.00     0.071 A 
ATOM     12  C   UNL d   1      -0.083   4.149   1.010  0.00  0.00     0.066 A 
BRANCH   9  13
ATOM     13  C   UNL d   1       1.156   0.644  -1.135  0.00  0.00     0.417 C 
ATOM     14  F   UNL d   1       0.522  -0.504  -0.767  0.00  0.00    -0.166 F 
ATOM     15  F   UNL d   1       2.486   0.409  -0.971  0.00  0.00    -0.166 F 
ATOM     16  F   UNL d   1       0.959   0.762  -2.478  0.00  0.00    -0.166 F 
ENDBRANCH   9  13
BRANCH  11  17
ATOM     17  O   UNL d   1       1.298   5.441  -0.558  0.00  0.00    -0.356 OA
ATOM     18  C   UNL d   1       0.982   6.632   0.158  0.00  0.00     0.210 C 
ENDBRANCH  11  17
ENDBRANCH   3   7
BRANCH   2  19
ATOM     19  C   UNL d   1      -3.055  -0.131   3.637  0.00  0.00     0.039 A 
ATOM     20  C   UNL d   1      -4.003  -0.935   3.004  0.00  0.00     0.053 A 
ATOM     21  C   UNL d   1      -4.803  -1.798   3.764  0.00  0.00     0.037 A 
ATOM     22 CL   UNL d   1      -6.028  -2.726   2.989  0.00  0.00    -0.084 Cl
ATOM     23  C   UNL d   1      -4.644  -1.897   5.145  0.00  0.00     0.048 A 
ATOM     24  C   UNL d   1      -3.659  -1.139   5.764  0.00  0.00     0.037 A 
ATOM     25  C   UNL d   1      -2.862  -0.269   5.020  0.00  0.00     0.053 A 
ATOM     26 CL   UNL d   1      -3.433  -1.258   7.466  0.00  0.00    -0.084 Cl
ENDBRANCH   2  19
TORSDOF 4
