REMARK  3 active torsions:
REMARK  status: ('A' for Active; 'I' for Inactive)
REMARK    1  A    between atoms: C_7  and  C_2 
REMARK    2  A    between atoms: C_8  and  C_4 
REMARK    3  A    between atoms: C_9  and  C_7 
ROOT
ATOM      1  C   UNL d   1       0.276   1.376  -0.059  0.00  0.00     0.283 C 
ATOM      2  C   UNL d   1       1.371   0.354   0.000  0.00  0.00     0.234 C 
ATOM      3  C   UNL d   1       0.931  -1.065  -0.173  0.00  0.00     0.173 C 
ATOM      4  C   UNL d   1      -1.373  -0.414  -0.000  0.00  0.00     0.093 C 
ATOM      5  C   UNL d   1      -0.483  -1.405  -0.050  0.00  0.00     0.089 C 
ATOM      6  O   UNL d   1      -1.013   0.946  -0.027  0.00  0.00    -0.277 OA
ATOM      7  O   UNL d   1       0.530   2.576  -0.163  0.00  0.00    -0.263 OA
ATOM      8  O   UNL d   1       1.726  -1.977  -0.400  0.00  0.00    -0.292 OA
ENDROOT
BRANCH   2   9
ATOM      9  C   UNL d   1       2.183   0.498   1.267  0.00  0.00     0.180 C 
ATOM     10  O   UNL d   1       1.652   0.856   2.320  0.00  0.00    -0.291 OA
BRANCH   9  11
ATOM     11  C   UNL d   1       3.636   0.122   1.283  0.00  0.00     0.011 A 
ATOM     12  C   UNL d   1       4.299  -0.414   0.170  0.00  0.00     0.016 A 
ATOM     13  C   UNL d   1       5.638  -0.809   0.262  0.00  0.00     0.020 A 
ATOM     14  C   UNL d   1       6.327  -0.657   1.461  0.00  0.00     0.011 A 
ATOM     15  C   UNL d   1       5.691  -0.108   2.572  0.00  0.00     0.020 A 
ATOM     16 BR   UNL d   1       8.129  -1.211   1.582  0.00  0.00    -0.051 Br
ATOM     17  C   UNL d   1       4.350   0.279   2.483  0.00  0.00     0.016 A 
ENDBRANCH   9  11
ENDBRANCH   2   9
BRANCH   4  18
ATOM     18  C   UNL d   1      -2.829  -0.665   0.050  0.00  0.00    -0.002 A 
ATOM     19  C   UNL d   1      -3.680   0.224   0.724  0.00  0.00     0.015 A 
ATOM     20  C   UNL d   1      -5.063   0.013   0.752  0.00  0.00     0.020 A 
ATOM     21  C   UNL d   1      -5.608  -1.090   0.100  0.00  0.00     0.011 A 
ATOM     22  C   UNL d   1      -4.786  -1.981  -0.580  0.00  0.00     0.020 A 
ATOM     23 BR   UNL d   1      -7.477  -1.372   0.126  0.00  0.00    -0.051 Br
ATOM     24  C   UNL d   1      -3.405  -1.767  -0.608  0.00  0.00     0.015 A 
ENDBRANCH   4  18
TORSDOF 3
