REMARK  4 active torsions:
REMARK  status: ('A' for Active; 'I' for Inactive)
REMARK    1  A    between atoms: O_9  and  S_1 
REMARK    2  A    between atoms: C_2  and  C_10 
REMARK    3  A    between atoms: N_3  and  C_12 
REMARK    4  A    between atoms: N_7  and  O_9 
ROOT
ATOM      1  C   UNL d   1      -0.467  -0.456  -4.042  0.00  0.00     0.101 A 
ATOM      2  O   UNL d   1      -1.486  -0.943  -3.270  0.00  0.00    -0.308 OA
ATOM      3  C   UNL d   1      -0.344  -1.236  -5.179  0.00  0.00     0.053 A 
ATOM      4  C   UNL d   1      -1.325  -2.260  -5.092  0.00  0.00     0.003 A 
ATOM      5  C   UNL d   1      -2.003  -2.028  -3.902  0.00  0.00     0.086 A 
ATOM      6  C   UNL d   1      -2.771  -4.166  -5.428  0.00  0.00     0.103 A 
ATOM      7  C   UNL d   1      -1.712  -3.356  -5.886  0.00  0.00     0.050 A 
ATOM      8  C   UNL d   1      -3.059  -2.803  -3.430  0.00  0.00     0.040 A 
ATOM      9  C   UNL d   1      -3.438  -3.893  -4.222  0.00  0.00     0.039 A 
ENDROOT
BRANCH   1  10
ATOM     10  C   UNL d   1       0.262   0.706  -3.583  0.00  0.00     0.063 C 
ATOM     11  N   UNL d   1       1.231   1.163  -4.324  0.00  0.00    -0.251 N 
ATOM     12  HN  UNL d   1       1.537   0.742  -5.201  1.00  0.00     0.195 HD
ATOM     13  C   UNL d   1      -0.139   1.341  -2.268  0.00  0.00     0.073 C 
BRANCH  11  14
ATOM     14  O   UNL d   1       1.803   2.323  -3.748  0.00  0.00    -0.151 OA
BRANCH  14  15
ATOM     15  S   UNL d   1       3.006   3.032  -4.620  0.00  0.00     0.282 S 
ATOM     16  O   UNL d   1       3.451   4.211  -3.902  0.00  0.00    -0.197 OA
ATOM     17  O   UNL d   1       2.641   3.096  -6.021  0.00  0.00    -0.197 OA
ATOM     18  C   UNL d   1       4.237   1.767  -4.404  0.00  0.00     0.196 C 
ENDBRANCH  14  15
ENDBRANCH  11  14
ENDBRANCH   1  10
BRANCH   6  19
ATOM     19  N   UNL d   1      -3.179  -5.331  -6.226  0.00  0.00    -0.116 N 
ATOM     20  O   UNL d   1      -2.559  -5.554  -7.276  0.00  0.00    -0.532 OA
ATOM     21  O   UNL d   1      -4.114  -6.024  -5.801  0.00  0.00    -0.532 OA
ENDBRANCH   6  19
TORSDOF 4
