REMARK  4 active torsions:
REMARK  status: ('A' for Active; 'I' for Inactive)
REMARK    1  A    between atoms: O_9  and  N_1 
REMARK    2  A    between atoms: C_12  and  C_2 
REMARK    3  A    between atoms: C_8  and  C_10 
REMARK    4  A    between atoms: C_10  and  O_9 
ROOT
ATOM      1  N   UNL d   1       2.245  -0.664   0.024  0.00  0.00    -0.166 N 
ATOM      2  C   UNL d   1       2.251   0.731  -0.020  0.00  0.00     0.147 C 
ATOM      3  C   UNL d   1       1.090  -1.399  -0.192  0.00  0.00     0.285 C 
ATOM      4  N   UNL d   1       1.153   1.425  -0.102  0.00  0.00    -0.339 N 
ATOM      5  HN  UNL d   1       1.188   2.444  -0.138  1.00  0.00     0.167 HD
ATOM      6  C   UNL d   1      -0.164  -0.627  -0.192  0.00  0.00     0.061 A 
ATOM      7  C   UNL d   1      -0.074   0.758  -0.141  0.00  0.00     0.049 A 
ATOM      8  O   UNL d   1       1.000  -2.608  -0.382  0.00  0.00    -0.265 OA
ATOM      9  C   UNL d   1      -1.409  -1.272  -0.213  0.00  0.00     0.019 A 
ATOM     10  C   UNL d   1      -1.253   1.508  -0.130  0.00  0.00     0.030 A 
ATOM     11  C   UNL d   1      -2.579  -0.515  -0.188  0.00  0.00     0.001 A 
ATOM     12  C   UNL d   1      -2.501   0.876  -0.151  0.00  0.00     0.002 A 
ENDROOT
BRANCH   1  13
ATOM     13  O   UNL d   1       3.506  -1.278   0.285  0.00  0.00    -0.264 OA
BRANCH  13  14
ATOM     14  C   UNL d   1       3.452  -2.688   0.507  0.00  0.00     0.244 C 
BRANCH  14  15
ATOM     15  C   UNL d   1       4.755  -3.219   1.065  0.00  0.00     0.011 A 
ATOM     16  C   UNL d   1       4.882  -3.563   2.424  0.00  0.00     0.044 A 
ATOM     17 CL   UNL d   1       3.639  -3.242   3.585  0.00  0.00    -0.084 Cl
ATOM     18  C   UNL d   1       6.034  -4.200   2.905  0.00  0.00     0.024 A 
ATOM     19  C   UNL d   1       7.090  -4.483   2.046  0.00  0.00     0.003 A 
ATOM     20  C   UNL d   1       7.008  -4.101   0.711  0.00  0.00     0.024 A 
ATOM     21  C   UNL d   1       5.857  -3.467   0.226  0.00  0.00     0.044 A 
ATOM     22 CL   UNL d   1       5.851  -3.028  -1.448  0.00  0.00    -0.084 Cl
ENDBRANCH  14  15
ENDBRANCH  13  14
ENDBRANCH   1  13
BRANCH   2  23
ATOM     23  C   UNL d   1       3.535   1.504   0.003  0.00  0.00     0.010 A 
ATOM     24  C   UNL d   1       4.679   1.091  -0.689  0.00  0.00     0.015 A 
ATOM     25  C   UNL d   1       5.820   1.900  -0.711  0.00  0.00     0.001 A 
ATOM     26  C   UNL d   1       5.816   3.139  -0.070  0.00  0.00     0.000 A 
ATOM     27  C   UNL d   1       4.672   3.573   0.595  0.00  0.00     0.001 A 
ATOM     28  C   UNL d   1       3.537   2.761   0.630  0.00  0.00     0.015 A 
ENDBRANCH   2  23
TORSDOF 4
