REMARK  3 active torsions:
REMARK  status: ('A' for Active; 'I' for Inactive)
REMARK    1  A    between atoms: S_2  and  N_1 
REMARK    2  A    between atoms: S_3  and  N_1 
REMARK    3  A    between atoms: C_4  and  N_1 
ROOT
ATOM      1  C   UNL d   1       2.388   0.117  -0.044  0.00  0.00     0.063 A 
ATOM      2  N   UNL d   1       5.782  -0.002   3.411  0.00  0.00    -0.191 NA
ATOM      3  C   UNL d   1       5.202   0.035   2.406  0.00  0.00     0.099 C 
ATOM      4  C   UNL d   1       3.083   0.105   1.169  0.00  0.00     0.054 A 
ATOM      5  C   UNL d   1       4.483   0.073   1.167  0.00  0.00     0.046 A 
ATOM      6  C   UNL d   1       3.085   0.111  -1.256  0.00  0.00     0.031 A 
ATOM      7  C   UNL d   1       4.481   0.086  -1.256  0.00  0.00     0.004 A 
ATOM      8  C   UNL d   1       5.179   0.063  -0.048  0.00  0.00     0.023 A 
ENDROOT
BRANCH   1   9
ATOM      9  N   UNL d   1       0.961   0.102  -0.044  0.00  0.00    -0.166 N 
BRANCH   9  10
ATOM     10  S   UNL d   1       0.161   1.549   0.105  0.00  0.00     0.242 S 
ATOM     11  O   UNL d   1      -0.663   1.486   1.295  0.00  0.00    -0.205 OA
ATOM     12  O   UNL d   1       1.103   2.640  -0.057  0.00  0.00    -0.205 OA
ATOM     13  C   UNL d   1      -0.928   1.606  -1.305  0.00  0.00     0.187 C 
ENDBRANCH   9  10
BRANCH   9  14
ATOM     14  S   UNL d   1       0.209  -1.370  -0.217  0.00  0.00     0.242 S 
ATOM     15  O   UNL d   1      -0.567  -1.339  -1.440  0.00  0.00    -0.205 OA
ATOM     16  O   UNL d   1       1.175  -2.431  -0.007  0.00  0.00    -0.205 OA
ATOM     17  C   UNL d   1      -0.930  -1.452   1.151  0.00  0.00     0.187 C 
ENDBRANCH   9  14
ENDBRANCH   1   9
TORSDOF 3
