REMARK  1 active torsions:
REMARK  status: ('A' for Active; 'I' for Inactive)
REMARK    1  A    between atoms: C_8  and  C_3 
ROOT
ATOM      1  N   UNL d   1      -1.788  -1.585   0.053  0.00  0.00    -0.296 N 
ATOM      2  HN  UNL d   1      -2.503  -2.312   0.031  1.00  0.00     0.187 HD
ATOM      3  C   UNL d   1      -0.528  -1.895  -0.072  0.00  0.00     0.069 A 
ATOM      4  N   UNL d   1      -2.135  -0.284   0.213  0.00  0.00    -0.265 N 
ATOM      5  C   UNL d   1       0.546  -0.860  -0.081  0.00  0.00     0.009 A 
ATOM      6  C   UNL d   1      -1.274   0.780   0.285  0.00  0.00     0.271 A 
ATOM      7  C   UNL d   1       0.155   0.463   0.129  0.00  0.00     0.046 A 
ATOM      8  O   UNL d   1      -1.661   1.929   0.453  0.00  0.00    -0.266 OA
ATOM      9  C   UNL d   1       1.900  -1.127  -0.325  0.00  0.00     0.015 A 
ATOM     10  C   UNL d   1       1.099   1.500   0.157  0.00  0.00     0.018 A 
ATOM     11  C   UNL d   1       2.847  -0.097  -0.283  0.00  0.00     0.001 A 
ATOM     12  C   UNL d   1       2.448   1.215  -0.036  0.00  0.00     0.001 A 
ATOM     13  H   UNL d   1      -3.126  -0.088   0.310  0.00  0.00     0.190 HD
ENDROOT
BRANCH   3  14
ATOM     14  C   UNL d   1      -0.223  -3.350  -0.228  0.00  0.00    -0.007 A 
ATOM     15  C   UNL d   1      -1.027  -4.104  -1.092  0.00  0.00     0.014 A 
ATOM     16  C   UNL d   1      -0.786  -5.468  -1.268  0.00  0.00     0.001 A 
ATOM     17  C   UNL d   1       0.258  -6.084  -0.581  0.00  0.00     0.000 A 
ATOM     18  C   UNL d   1       1.040  -5.346   0.309  0.00  0.00     0.001 A 
ATOM     19  C   UNL d   1       0.786  -3.985   0.504  0.00  0.00     0.014 A 
ENDBRANCH   3  14
TORSDOF 1
