REMARK  8 active torsions:
REMARK  status: ('A' for Active; 'I' for Inactive)
REMARK    1  A    between atoms: S_2  and  C_1 
REMARK    2  A    between atoms: N_8  and  S_2 
REMARK    3  A    between atoms: C_7  and  C_3 
REMARK    4  A    between atoms: C_11  and  N_4 
REMARK    5  A    between atoms: C_12  and  C_5 
REMARK    6  A    between atoms: O_16  and  C_7 
REMARK    7  A    between atoms: C_14  and  N_8 
REMARK    8  A    between atoms: C_27  and  O_16 
ROOT
ATOM      1  C   UNL d   1      -0.266  -1.243  -0.080  0.00  0.00     0.121 A 
ATOM      2  C   UNL d   1       1.073  -0.742  -0.096  0.00  0.00     0.087 A 
ATOM      3  N   UNL d   1      -0.363   1.016  -0.022  0.00  0.00    -0.312 N 
ATOM      4  C   UNL d   1      -1.157  -0.157  -0.009  0.00  0.00     0.074 A 
ATOM      5  C   UNL d   1       0.980   0.643  -0.033  0.00  0.00     0.031 A 
ATOM      6  C   UNL d   1       2.118   1.616   0.089  0.00  0.00     0.070 C 
ENDROOT
BRANCH   1   7
ATOM      7  S   UNL d   1      -0.667  -2.937  -0.247  0.00  0.00     0.249 S 
ATOM      8  O   UNL d   1       0.466  -3.521  -0.935  0.00  0.00    -0.205 OA
ATOM      9  O   UNL d   1      -1.086  -3.348   1.068  0.00  0.00    -0.205 OA
BRANCH   7  10
ATOM     10  N   UNL d   1      -1.945  -3.074  -1.353  0.00  0.00    -0.181 NA
ATOM     11  H   UNL d   1      -1.614  -2.679  -2.235  0.00  0.00     0.146 HD
BRANCH  10  12
ATOM     12  C   UNL d   1      -2.452  -4.399  -1.547  0.00  0.00     0.022 A 
ATOM     13  C   UNL d   1      -3.636  -4.760  -0.908  0.00  0.00     0.026 A 
ATOM     14  C   UNL d   1      -4.221  -6.001  -1.176  0.00  0.00     0.026 A 
ATOM     15  C   UNL d   1      -3.603  -6.883  -2.063  0.00  0.00     0.034 A 
ATOM     16  C   UNL d   1      -2.385  -6.549  -2.654  0.00  0.00     0.026 A 
ATOM     17 CL   UNL d   1      -4.361  -8.378  -2.449  0.00  0.00    -0.084 Cl
ATOM     18  C   UNL d   1      -1.803  -5.306  -2.389  0.00  0.00     0.026 A 
ENDBRANCH  10  12
ENDBRANCH   7  10
ENDBRANCH   1   7
BRANCH   2  19
ATOM     19  C   UNL d   1       2.341  -1.461  -0.233  0.00  0.00     0.296 C 
ATOM     20  O   UNL d   1       3.228  -1.063  -0.975  0.00  0.00    -0.259 OA
BRANCH  19  21
ATOM     21  O   UNL d   1       2.433  -2.577   0.542  0.00  0.00    -0.318 OA
BRANCH  21  22
ATOM     22  C   UNL d   1       3.474  -3.497   0.170  0.00  0.00     0.174 C 
ATOM     23  C   UNL d   1       4.443  -3.690   1.318  0.00  0.00     0.034 C 
ENDBRANCH  21  22
ENDBRANCH  19  21
ENDBRANCH   2  19
BRANCH   4  24
ATOM     24  C   UNL d   1      -2.643  -0.165  -0.034  0.00  0.00    -0.007 A 
ATOM     25  C   UNL d   1      -3.371   0.681  -0.888  0.00  0.00     0.014 A 
ATOM     26  C   UNL d   1      -4.766   0.765  -0.813  0.00  0.00     0.001 A 
ATOM     27  C   UNL d   1      -5.468  -0.062   0.057  0.00  0.00     0.000 A 
ATOM     28  C   UNL d   1      -4.772  -0.960   0.860  0.00  0.00     0.001 A 
ATOM     29  C   UNL d   1      -3.372  -0.992   0.833  0.00  0.00     0.014 A 
ENDBRANCH   4  24
BRANCH   3  30
ATOM     30  C   UNL d   1      -0.825   2.378  -0.054  0.00  0.00     0.040 A 
ATOM     31  C   UNL d   1      -1.891   2.801   0.750  0.00  0.00     0.030 A 
ATOM     32  C   UNL d   1      -2.388   4.103   0.631  0.00  0.00     0.002 A 
ATOM     33  C   UNL d   1      -1.804   5.004  -0.259  0.00  0.00     0.000 A 
ATOM     34  C   UNL d   1      -0.721   4.604  -1.036  0.00  0.00     0.002 A 
ATOM     35  C   UNL d   1      -0.239   3.294  -0.943  0.00  0.00     0.030 A 
ENDBRANCH   3  30
TORSDOF 8
