REMARK  6 active torsions:
REMARK  status: ('A' for Active; 'I' for Inactive)
REMARK    1  A    between atoms: C_7  and  N_1 
REMARK    2  A    between atoms: S_8  and  C_2 
REMARK    3  A    between atoms: C_14  and  S_8 
REMARK    4  A    between atoms: C_11  and  C_14 
REMARK    5  A    between atoms: C_12  and  C_11 
REMARK    6  A    between atoms: C_23  and  C_13 
ROOT
ATOM      1  S   UNL d   1       2.562  -1.407  -0.496  0.00  0.00    -0.084 SA
ENDROOT
BRANCH   1   2
ATOM      2  C   UNL d   1       2.954  -1.359  -2.188  0.00  0.00     0.177 C 
ATOM      3  N   UNL d   1       3.661  -0.341  -2.808  0.00  0.00    -0.219 N 
ATOM      4  N   UNL d   1       3.410  -0.427  -4.140  0.00  0.00     0.001 NA
ATOM      5  N   UNL d   1       2.711  -1.542  -4.309  0.00  0.00    -0.006 NA
ATOM      6  N   UNL d   1       2.403  -2.122  -3.107  0.00  0.00    -0.264 N 
ATOM      7  HN  UNL d   1       1.857  -2.970  -2.955  1.00  0.00     0.186 HD
BRANCH   3   8
ATOM      8  C   UNL d   1       4.465   0.692  -2.268  0.00  0.00     0.057 A 
ATOM      9  C   UNL d   1       5.171   0.499  -1.075  0.00  0.00     0.038 A 
ATOM     10  C   UNL d   1       5.878   1.554  -0.478  0.00  0.00    -0.054 A 
ATOM     11  C   UNL d   1       6.593   1.306   0.822  0.00  0.00     0.049 C 
ATOM     12  C   UNL d   1       5.893   2.815  -1.104  0.00  0.00    -0.056 A 
ATOM     13  C   UNL d   1       5.232   2.981  -2.332  0.00  0.00     0.009 A 
ATOM     14  C   UNL d   1       6.598   3.987  -0.478  0.00  0.00     0.049 C 
ATOM     15  C   UNL d   1       4.536   1.925  -2.923  0.00  0.00     0.032 A 
ENDBRANCH   3   8
ENDBRANCH   1   2
BRANCH   1  16
ATOM     16  C   UNL d   1       2.471  -3.188  -0.204  0.00  0.00     0.166 C 
BRANCH  16  17
ATOM     17  C   UNL d   1       3.857  -3.814  -0.144  0.00  0.00     0.169 C 
ATOM     18  O   UNL d   1       4.795  -3.472  -0.859  0.00  0.00    -0.291 OA
BRANCH  17  19
ATOM     19  C   UNL d   1       4.054  -4.963   0.778  0.00  0.00     0.011 A 
ATOM     20  C   UNL d   1       4.813  -6.054   0.348  0.00  0.00     0.016 A 
ATOM     21  C   UNL d   1       4.964  -7.174   1.174  0.00  0.00     0.013 A 
ATOM     22  C   UNL d   1       4.379  -7.230   2.453  0.00  0.00    -0.026 A 
ATOM     23  C   UNL d   1       3.674  -6.090   2.883  0.00  0.00     0.013 A 
ATOM     24  C   UNL d   1       3.506  -4.972   2.061  0.00  0.00     0.016 A 
BRANCH  22  25
ATOM     25  C   UNL d   1       4.478  -8.437   3.310  0.00  0.00    -0.026 A 
ATOM     26  C   UNL d   1       3.417  -8.815   4.158  0.00  0.00     0.012 A 
ATOM     27  C   UNL d   1       3.490  -9.954   4.965  0.00  0.00     0.001 A 
ATOM     28  C   UNL d   1       4.625 -10.755   4.934  0.00  0.00     0.000 A 
ATOM     29  C   UNL d   1       5.687 -10.413   4.103  0.00  0.00     0.001 A 
ATOM     30  C   UNL d   1       5.616  -9.264   3.306  0.00  0.00     0.012 A 
ENDBRANCH  22  25
ENDBRANCH  17  19
ENDBRANCH  16  17
ENDBRANCH   1  16
TORSDOF 6
