REMARK  5 active torsions:
REMARK  status: ('A' for Active; 'I' for Inactive)
REMARK    1  A    between atoms: C_2  and  S_1 
REMARK    2  A    between atoms: N_3  and  S_1 
REMARK    3  A    between atoms: C_10  and  N_5 
REMARK    4  A    between atoms: C_15  and  C_10 
REMARK    5  A    between atoms: C_16  and  C_10 
ROOT
ATOM      1  N   UNL d   1       0.661   0.770  -0.725  0.00  0.00    -0.203 NA
ATOM      2  N   UNL d   1      -0.808   2.961   0.728  0.00  0.00     0.104 N 
ATOM      3  C   UNL d   1       1.118   2.179  -0.797  0.00  0.00     0.138 C 
ATOM      4  C   UNL d   1      -0.841   0.778  -0.650  0.00  0.00     0.138 C 
ATOM      5  C   UNL d   1      -1.361   1.595   0.557  0.00  0.00     0.289 C 
ATOM      6  C   UNL d   1       0.635   3.005   0.400  0.00  0.00     0.289 C 
ENDROOT
BRANCH   1   7
ATOM      7  S   UNL d   1       1.376  -0.255   0.445  0.00  0.00     0.246 S 
ATOM      8  O   UNL d   1       1.121   0.252   1.780  0.00  0.00    -0.206 OA
ATOM      9  O   UNL d   1       0.897  -1.592   0.125  0.00  0.00    -0.206 OA
BRANCH   7  10
ATOM     10  C   UNL d   1       3.133  -0.273   0.145  0.00  0.00     0.102 A 
ATOM     11  C   UNL d   1       3.990   0.524   0.919  0.00  0.00     0.065 A 
ATOM     12  N   UNL d   1       3.580   1.607   1.619  0.00  0.00    -0.364 N 
ATOM     13  C   UNL d   1       5.355   0.144   0.950  0.00  0.00    -0.008 A 
ATOM     14  C   UNL d   1       4.458   2.264   2.412  0.00  0.00     0.088 A 
ATOM     15  HN  UNL d   1       2.614   1.928   1.548  1.00  0.00     0.165 HD
ATOM     16  C   UNL d   1       5.781   1.906   2.551  0.00  0.00     0.018 A 
ATOM     17  C   UNL d   1       6.235   0.834   1.798  0.00  0.00     0.015 A 
ATOM     18  C   UNL d   1       5.831  -0.922   0.172  0.00  0.00     0.014 A 
ATOM     19  C   UNL d   1       4.973  -1.633  -0.657  0.00  0.00     0.003 A 
ATOM     20  C   UNL d   1       3.621  -1.319  -0.661  0.00  0.00     0.027 A 
ENDBRANCH   7  10
ENDBRANCH   1   7
BRANCH   2  21
ATOM     21  C   UNL d   1      -1.659   4.033   0.157  0.00  0.00     0.289 C 
BRANCH  21  22
ATOM     22  C   UNL d   1      -3.056   4.056   0.804  0.00  0.00    -0.021 A 
ATOM     23  C   UNL d   1      -3.212   4.209   2.194  0.00  0.00     0.010 A 
ATOM     24  C   UNL d   1      -4.481   4.240   2.777  0.00  0.00     0.001 A 
ATOM     25  C   UNL d   1      -5.616   4.104   1.982  0.00  0.00     0.000 A 
ATOM     26  C   UNL d   1      -5.481   3.941   0.604  0.00  0.00     0.001 A 
ATOM     27  C   UNL d   1      -4.213   3.920   0.017  0.00  0.00     0.010 A 
ENDBRANCH  21  22
BRANCH  21  28
ATOM     28  C   UNL d   1      -1.052   5.446   0.239  0.00  0.00    -0.021 A 
ATOM     29  C   UNL d   1      -1.278   6.361  -0.802  0.00  0.00     0.010 A 
ATOM     30  C   UNL d   1      -0.679   7.623  -0.781  0.00  0.00     0.001 A 
ATOM     31  C   UNL d   1       0.150   7.990   0.276  0.00  0.00     0.000 A 
ATOM     32  C   UNL d   1       0.350   7.114   1.339  0.00  0.00     0.001 A 
ATOM     33  C   UNL d   1      -0.270   5.865   1.334  0.00  0.00     0.010 A 
ENDBRANCH  21  28
ENDBRANCH   2  21
TORSDOF 5
