REMARK  5 active torsions:
REMARK  status: ('A' for Active; 'I' for Inactive)
REMARK    1  A    between atoms: C_8  and  N_1 
REMARK    2  A    between atoms: C_7  and  C_2 
REMARK    3  A    between atoms: C_10  and  C_4 
REMARK    4  A    between atoms: O_22  and  C_7 
REMARK    5  A    between atoms: C_17  and  C_8 
ROOT
ATOM      1  N   UNL d   1      -2.108  -0.226  -0.034  0.00  0.00    -0.334 N 
ATOM      2  C   UNL d   1      -0.426  -2.012   0.285  0.00  0.00     0.145 C 
ATOM      3  C   UNL d   1      -1.195   0.772   0.292  0.00  0.00     0.255 C 
ATOM      4  C   UNL d   1      -1.668  -1.545  -0.513  0.00  0.00     0.141 C 
ATOM      5  C   UNL d   1       0.655  -0.946   0.255  0.00  0.00    -0.026 A 
ATOM      6  C   UNL d   1       0.252   0.406   0.260  0.00  0.00     0.039 A 
ATOM      7  O   UNL d   1      -1.523   1.908   0.621  0.00  0.00    -0.267 OA
ATOM      8  C   UNL d   1       2.026  -1.240   0.239  0.00  0.00     0.009 A 
ATOM      9  C   UNL d   1       1.203   1.431   0.202  0.00  0.00     0.017 A 
ATOM     10  C   UNL d   1       2.968  -0.212   0.160  0.00  0.00     0.001 A 
ATOM     11  C   UNL d   1       2.559   1.119   0.134  0.00  0.00     0.001 A 
ENDROOT
BRANCH   1  12
ATOM     12  C   UNL d   1      -3.538   0.036   0.125  0.00  0.00     0.165 C 
BRANCH  12  13
ATOM     13  C   UNL d   1      -4.025  -0.417   1.486  0.00  0.00    -0.037 A 
ATOM     14  C   UNL d   1      -4.571  -1.699   1.665  0.00  0.00     0.048 A 
ATOM     15  C   UNL d   1      -4.918  -2.086   2.944  0.00  0.00     0.105 A 
ATOM     16  O   UNL d   1      -5.417  -3.301   3.295  0.00  0.00    -0.323 OA
ATOM     17  C   UNL d   1      -4.765  -1.250   4.024  0.00  0.00     0.105 A 
ATOM     18  C   UNL d   1      -5.532  -3.144   4.726  0.00  0.00     0.352 A 
ATOM     19  O   UNL d   1      -5.153  -1.832   5.190  0.00  0.00    -0.323 OA
ATOM     20  C   UNL d   1      -4.257   0.022   3.888  0.00  0.00     0.040 A 
ATOM     21  C   UNL d   1      -3.877   0.435   2.607  0.00  0.00     0.012 A 
ENDBRANCH  12  13
ENDBRANCH   1  12
BRANCH   4  22
ATOM     22  C   UNL d   1      -1.553  -1.579  -2.033  0.00  0.00    -0.019 A 
ATOM     23  C   UNL d   1      -2.478  -2.311  -2.780  0.00  0.00     0.096 A 
ATOM     24  N   UNL d   1      -2.447  -2.454  -4.125  0.00  0.00    -0.375 N 
ATOM     25  C   UNL d   1      -1.434  -1.847  -4.777  0.00  0.00     0.087 A 
ATOM     26  HN  UNL d   1      -3.154  -2.995  -4.622  1.00  0.00     0.164 HD
ATOM     27  C   UNL d   1      -0.474  -1.080  -4.147  0.00  0.00     0.018 A 
ATOM     28  C   UNL d   1      -0.545  -0.938  -2.764  0.00  0.00     0.012 A 
ENDBRANCH   4  22
BRANCH   2  29
ATOM     29  C   UNL d   1      -0.043  -3.406  -0.176  0.00  0.00     0.150 C 
ATOM     30  O   UNL d   1       0.758  -3.667  -1.064  0.00  0.00    -0.649 OA
BRANCH  29  31
ATOM     31  O   UNL d   1      -0.704  -4.393   0.479  0.00  0.00    -0.776 OA
ATOM     32  H   UNL d   1      -1.288  -4.114   1.209  0.00  0.00     0.167 HD
ENDBRANCH  29  31
ENDBRANCH   2  29
TORSDOF 5
