REMARK  5 active torsions:
REMARK  status: ('A' for Active; 'I' for Inactive)
REMARK    1  A    between atoms: C_4  and  N_1 
REMARK    2  A    between atoms: C_6  and  C_4 
REMARK    3  A    between atoms: N_5  and  C_6 
REMARK    4  A    between atoms: C_8  and  N_5 
REMARK    5  A    between atoms: C_7  and  C_6 
ROOT
ATOM      1  C   UNL d   1       3.787  -0.056   0.083  0.00  0.00     0.182 C 
ENDROOT
BRANCH   1   2
ATOM      2  N   UNL d   1       4.365   0.839   1.102  0.00  0.00    -0.273 NA
ATOM      3  H   UNL d   1       3.913   0.723   2.006  0.00  0.00     0.129 HD
BRANCH   2   4
ATOM      4  C   UNL d   1       4.597   2.192   0.854  0.00  0.00     0.009 A 
ATOM      5  C   UNL d   1       3.946   2.955  -0.122  0.00  0.00     0.025 A 
ATOM      6  C   UNL d   1       4.221   4.322  -0.276  0.00  0.00     0.020 A 
ATOM      7  C   UNL d   1       5.151   4.946   0.553  0.00  0.00     0.006 A 
ATOM      8  C   UNL d   1       5.800   4.213   1.540  0.00  0.00     0.020 A 
ATOM      9  I   UNL d   1       5.564   6.968   0.322  0.00  0.00    -0.045 I 
ATOM     10  C   UNL d   1       5.511   2.852   1.691  0.00  0.00     0.025 A 
ENDBRANCH   2   4
ENDBRANCH   1   2
BRANCH   1  11
ATOM     11  C   UNL d   1       2.267  -0.056   0.083  0.00  0.00    -0.052 C 
BRANCH  11  12
ATOM     12  N   UNL d   1       1.006  -0.056   0.083  0.00  0.00    -0.368 N 
ATOM     13  HN2 UNL d   1       2.026  -0.056   0.083  1.00  0.00     0.165 HD
ATOM     14  HN1 UNL d   1      -0.014  -0.056   0.083  1.00  0.00     0.165 HD
ENDBRANCH  11  12
ENDBRANCH   1  11
BRANCH   1  15
ATOM     15  C   UNL d   1       4.325  -1.467   0.290  0.00  0.00    -0.028 A 
ATOM     16  C   UNL d   1       4.081  -2.187   1.473  0.00  0.00     0.010 A 
ATOM     17  C   UNL d   1       4.539  -3.498   1.616  0.00  0.00     0.001 A 
ATOM     18  C   UNL d   1       5.250  -4.108   0.585  0.00  0.00     0.000 A 
ATOM     19  C   UNL d   1       5.516  -3.404  -0.586  0.00  0.00     0.001 A 
ATOM     20  C   UNL d   1       5.061  -2.092  -0.733  0.00  0.00     0.010 A 
ENDBRANCH   1  15
TORSDOF 5
