REMARK  7 active torsions:
REMARK  status: ('A' for Active; 'I' for Inactive)
REMARK    1  A    between atoms: N_4  and  C_1 
REMARK    2  A    between atoms: C_6  and  C_2 
REMARK       I    between atoms: C_8  and  N_4 
REMARK       I    between atoms: N_13  and  C_6 
REMARK    3  A    between atoms: C_16  and  C_8 
REMARK    4  A    between atoms: C_9  and  C_17 
REMARK    5  A    between atoms: O_15  and  C_9 
REMARK    6  A    between atoms: S_14  and  C_16 
REMARK    7  A    between atoms: C_17  and  S_14 
ROOT
ATOM      1  C   UNL d   1       0.484  -1.222   0.057  0.00  0.00     0.092 A 
ATOM      2  C   UNL d   1       1.310  -0.166   0.397  0.00  0.00     0.072 A 
ATOM      3  S   UNL d   1      -1.081  -0.748  -0.406  0.00  0.00    -0.083 SA
ATOM      4  C   UNL d   1       0.612   1.100   0.180  0.00  0.00    -0.037 A 
ATOM      5  C   UNL d   1      -0.660   0.897  -0.328  0.00  0.00     0.059 A 
ATOM      6  C   UNL d   1       1.141   2.467   0.482  0.00  0.00     0.050 C 
ENDROOT
BRANCH   1   7
ATOM      7  N   UNL d   1       0.628  -2.595   0.021  0.00  0.00    -0.320 N 
ATOM      8  C   UNL d   1       1.761  -3.190  -0.511  0.00  0.00     0.231 C 
ATOM      9  O   UNL d   1       2.704  -2.602  -1.030  0.00  0.00    -0.272 OA
ATOM     10  H   UNL d   1      -0.235  -3.120  -0.096  0.00  0.00     0.169 HD
BRANCH   8  11
ATOM     11  C   UNL d   1       1.716  -4.705  -0.432  0.00  0.00     0.177 C 
BRANCH  11  12
ATOM     12  S   UNL d   1       0.634  -5.407  -1.718  0.00  0.00    -0.150 SA
BRANCH  12  13
ATOM     13  C   UNL d   1       1.538  -4.912  -3.229  0.00  0.00     0.185 C 
BRANCH  13  14
ATOM     14  C   UNL d   1       2.952  -5.453  -3.320  0.00  0.00     0.267 C 
ATOM     15  O   UNL d   1       3.497  -6.212  -2.531  0.00  0.00    -0.264 OA
BRANCH  14  16
ATOM     16  O   UNL d   1       3.537  -4.964  -4.455  0.00  0.00    -0.326 OA
ATOM     17  C   UNL d   1       4.895  -5.369  -4.635  0.00  0.00     0.213 C 
ENDBRANCH  14  16
ENDBRANCH  13  14
ENDBRANCH  12  13
ENDBRANCH  11  12
ENDBRANCH   8  11
ENDBRANCH   1   7
BRANCH   2  18
ATOM     18  C   UNL d   1       2.665  -0.274   0.947  0.00  0.00     0.252 C 
ATOM     19  O   UNL d   1       3.542   0.568   0.772  0.00  0.00    -0.268 OA
ATOM     20  N   UNL d   1       2.895  -1.327   1.786  0.00  0.00    -0.366 N 
ATOM     21  H   UNL d   1       2.203  -2.037   1.961  0.00  0.00     0.159 HD
ATOM     22  H   UNL d   1       3.832  -1.435   2.146  0.00  0.00     0.159 HD
ENDBRANCH   2  18
TORSDOF 7
