REMARK  2 active torsions:
REMARK  status: ('A' for Active; 'I' for Inactive)
REMARK    1  A    between atoms: N_7  and  C_3 
REMARK    2  A    between atoms: C_12  and  C_4 
ROOT
ATOM      1  C   UNL d   1       0.062  -0.566   0.047  0.00  0.00     0.070 A 
ATOM      2  S   UNL d   1       1.767  -0.779   0.012  0.00  0.00    -0.088 SA
ATOM      3  C   UNL d   1      -0.959  -1.532   0.059  0.00  0.00     0.103 A 
ATOM      4  C   UNL d   1       2.086   0.907  -0.001  0.00  0.00    -0.007 A 
ATOM      5  C   UNL d   1       0.892   1.611   0.004  0.00  0.00     0.046 A 
ATOM      6  C   UNL d   1      -0.266   0.778   0.028  0.00  0.00     0.054 A 
ATOM      7  N   UNL d   1      -2.235  -1.090   0.012  0.00  0.00    -0.342 N 
ATOM      8  HN  UNL d   1      -3.014  -1.748  -0.015  1.00  0.00     0.167 HD
ATOM      9  N   UNL d   1      -1.550   1.218   0.016  0.00  0.00    -0.351 N 
ATOM     10  HN  UNL d   1      -1.801   2.207   0.017  1.00  0.00     0.166 HD
ATOM     11  C   UNL d   1      -2.456   0.234   0.002  0.00  0.00     0.182 A 
ENDROOT
BRANCH   3  12
ATOM     12  N   UNL d   1      -0.664  -2.893   0.036  0.00  0.00    -0.268 NA
ATOM     13  C   UNL d   1      -1.634  -3.757  -0.630  0.00  0.00     0.097 C 
ATOM     14  C   UNL d   1      -0.902  -5.051  -1.001  0.00  0.00     0.015 C 
ATOM     15  C   UNL d   1      -0.244  -5.701   0.221  0.00  0.00     0.002 C 
ATOM     16  C   UNL d   1       0.598  -4.702   1.019  0.00  0.00     0.015 C 
ATOM     17  C   UNL d   1      -0.188  -3.425   1.315  0.00  0.00     0.097 C 
ENDBRANCH   3  12
BRANCH   4  18
ATOM     18  C   UNL d   1       3.528   1.423  -0.029  0.00  0.00    -0.018 C 
ATOM     19  C   UNL d   1       4.258   0.922  -1.293  0.00  0.00     0.020 C 
ATOM     20  C   UNL d   1       3.559   2.965  -0.040  0.00  0.00     0.020 C 
ATOM     21  C   UNL d   1       4.300   0.946   1.219  0.00  0.00     0.020 C 
ENDBRANCH   4  18
TORSDOF 2
