REMARK  4 active torsions:
REMARK  status: ('A' for Active; 'I' for Inactive)
REMARK    1  A    between atoms: O_13  and  C_4 
REMARK    2  A    between atoms: O_14  and  C_8 
REMARK    3  A    between atoms: O_15  and  C_9 
REMARK    4  A    between atoms: C_16  and  O_13 
ROOT
ATOM      1  C   UNL d   1       0.076   0.705   0.065  0.00  0.00     0.044 A 
ATOM      2  C   UNL d   1       0.052  -0.677   0.011  0.00  0.00     0.050 A 
ATOM      3  C   UNL d   1       1.325   1.369   0.075  0.00  0.00     0.057 A 
ATOM      4  C   UNL d   1      -1.186   1.310   0.117  0.00  0.00     0.155 A 
ATOM      5  C   UNL d   1       1.271  -1.335  -0.035  0.00  0.00     0.070 A 
ATOM      6  N   UNL d   1      -2.348   0.632   0.111  0.00  0.00    -0.332 N 
ATOM      7  HN  UNL d   1      -3.253   1.100   0.150  1.00  0.00     0.168 HD
ATOM      8  C   UNL d   1       2.571   0.694   0.038  0.00  0.00     0.102 A 
ATOM      9  C   UNL d   1       2.545  -0.701  -0.024  0.00  0.00     0.103 A 
ATOM     10  N   UNL d   1      -1.087  -1.386   0.002  0.00  0.00    -0.351 N 
ATOM     11  HN  UNL d   1      -1.080  -2.406  -0.039  1.00  0.00     0.166 HD
ATOM     12  C   UNL d   1      -2.233  -0.696   0.051  0.00  0.00     0.182 A 
ENDROOT
BRANCH   4  13
ATOM     13  O   UNL d   1      -1.234   2.695   0.140  0.00  0.00    -0.335 OA
BRANCH  13  14
ATOM     14  C   UNL d   1      -2.505   3.204   0.556  0.00  0.00     0.173 C 
ATOM     15  C   UNL d   1      -2.470   4.718   0.466  0.00  0.00     0.034 C 
ENDBRANCH  13  14
ENDBRANCH   4  13
BRANCH   8  16
ATOM     16  O   UNL d   1       3.540   1.644   0.080  0.00  0.00    -0.353 OA
ATOM     17  C   UNL d   1       4.921   1.419  -0.011  0.00  0.00     0.210 C 
ENDBRANCH   8  16
BRANCH   9  18
ATOM     18  O   UNL d   1       3.470  -1.690  -0.094  0.00  0.00    -0.353 OA
ATOM     19  C   UNL d   1       4.860  -1.553   0.020  0.00  0.00     0.210 C 
ENDBRANCH   9  18
TORSDOF 4
