REMARK  2 active torsions:
REMARK  status: ('A' for Active; 'I' for Inactive)
REMARK    1  A    between atoms: C_2  and  C_1 
REMARK       I    between atoms: N_4  and  C_2 
REMARK    2  A    between atoms: C_8  and  N_4 
ROOT
ATOM      1  C   UNL d   1      -2.948  -0.720   0.290  0.00  0.00     0.265 C 
ATOM      2  N   UNL d   1      -3.731   0.413   0.154  0.00  0.00    -0.322 N 
ATOM      3  O   UNL d   1      -3.381  -1.868   0.339  0.00  0.00    -0.267 OA
ATOM      4  H   UNL d   1      -3.222   1.271  -0.039  0.00  0.00     0.169 HD
ENDROOT
BRANCH   1   5
ATOM      5  C   UNL d   1      -1.453  -0.452   0.296  0.00  0.00     0.097 C 
ATOM      6  C   UNL d   1      -0.575  -1.333   0.839  0.00  0.00     0.064 C 
ATOM      7  O   UNL d   1       0.806  -1.242   0.780  0.00  0.00    -0.353 OA
ATOM      8  C   UNL d   1      -0.969  -2.569   1.610  0.00  0.00     0.078 C 
ATOM      9  C   UNL d   1       1.415  -0.065   0.253  0.00  0.00     0.185 C 
ATOM     10  C   UNL d   1       0.726   0.467  -0.987  0.00  0.00     0.106 C 
ATOM     11  S   UNL d   1      -0.934   1.008  -0.518  0.00  0.00    -0.120 SA
ENDBRANCH   1   5
BRANCH   2  12
ATOM     12  C   UNL d   1      -5.138   0.481   0.152  0.00  0.00     0.035 A 
ATOM     13  C   UNL d   1      -5.964  -0.587   0.521  0.00  0.00     0.032 A 
ATOM     14  C   UNL d   1      -7.356  -0.449   0.504  0.00  0.00     0.044 A 
ATOM     15  C   UNL d   1      -7.920   0.756   0.114  0.00  0.00     0.116 A 
ATOM     16  C   UNL d   1      -7.120   1.829  -0.253  0.00  0.00     0.044 A 
ATOM     17  F   UNL d   1      -9.253   0.887   0.093  0.00  0.00    -0.206 F 
ATOM     18  C   UNL d   1      -5.728   1.695  -0.227  0.00  0.00     0.032 A 
ENDBRANCH   2  12
TORSDOF 2
