REMARK  2 active torsions:
REMARK  status: ('A' for Active; 'I' for Inactive)
REMARK    1  A    between atoms: C_2  and  C_1 
REMARK    2  A    between atoms: N_3  and  C_1 
ROOT
ATOM      1  C   UNL d   1       0.985  -0.012  -0.063  0.00  0.00     0.368 C 
ATOM      2  N   UNL d   1       2.817   0.143   1.844  0.00  0.00    -0.195 NA
ATOM      3  C   UNL d   1       2.016   0.075   1.005  0.00  0.00     0.101 C 
ENDROOT
BRANCH   1   4
ATOM      4  C   UNL d   1       1.601   0.408  -1.392  0.00  0.00     0.029 A 
ATOM      5  S   UNL d   1       0.695   1.377  -2.487  0.00  0.00    -0.103 SA
ATOM      6  C   UNL d   1       1.983   1.439  -3.607  0.00  0.00     0.050 A 
ATOM      7  C   UNL d   1       3.081   0.732  -3.175  0.00  0.00     0.008 A 
ATOM      8  C   UNL d   1       2.864   0.141  -1.899  0.00  0.00     0.018 A 
ENDBRANCH   1   4
BRANCH   1   9
ATOM      9  N   UNL d   1       0.230  -1.287  -0.177  0.00  0.00     0.115 N 
ATOM     10  C   UNL d   1       0.984  -2.481  -0.600  0.00  0.00     0.300 C 
ATOM     11  C   UNL d   1       1.720  -3.218   0.529  0.00  0.00     0.198 C 
ATOM     12  O   UNL d   1       0.823  -3.555   1.593  0.00  0.00    -0.388 OA
ATOM     13  C   UNL d   1       0.187  -2.387   2.120  0.00  0.00     0.198 C 
ATOM     14  C   UNL d   1      -0.570  -1.616   1.022  0.00  0.00     0.300 C 
ENDBRANCH   1   9
TORSDOF 2
