REMARK  7 active torsions:
REMARK  status: ('A' for Active; 'I' for Inactive)
REMARK    1  A    between atoms: N_2  and  C_1 
REMARK    2  A    between atoms: C_3  and  C_1 
REMARK    3  A    between atoms: C_4  and  C_1 
REMARK    4  A    between atoms: N_7  and  C_1 
REMARK       I    between atoms: C_5  and  N_2 
REMARK    5  A    between atoms: C_8  and  C_5 
REMARK    6  A    between atoms: C_6  and  C_9 
REMARK    7  A    between atoms: C_11  and  N_7 
ROOT
ATOM      1  C   UNL d   1       0.723   0.050   0.055  0.00  0.00     0.306 C 
ENDROOT
BRANCH   1   2
ATOM      2  N   UNL d   1       0.607  -1.251   0.788  0.00  0.00    -0.315 N 
ATOM      3  C   UNL d   1       1.248  -2.410   0.450  0.00  0.00     0.254 C 
ATOM      4  O   UNL d   1       1.883  -2.485  -0.602  0.00  0.00    -0.268 OA
ATOM      5  H   UNL d   1       0.157  -1.178   1.686  0.00  0.00     0.165 HD
BRANCH   3   6
ATOM      6  C   UNL d   1       1.120  -3.585   1.399  0.00  0.00     0.037 A 
ATOM      7  C   UNL d   1       1.971  -4.715   1.317  0.00  0.00    -0.046 A 
ATOM      8  C   UNL d   1       3.150  -4.840   0.391  0.00  0.00     0.049 C 
ATOM      9  C   UNL d   1       1.712  -5.838   2.135  0.00  0.00     0.007 A 
ATOM     10  C   UNL d   1       0.690  -5.828   3.079  0.00  0.00     0.001 A 
ATOM     11  C   UNL d   1      -0.102  -4.699   3.215  0.00  0.00     0.001 A 
ATOM     12  C   UNL d   1       0.099  -3.597   2.375  0.00  0.00     0.017 A 
ENDBRANCH   3   6
ENDBRANCH   1   2
BRANCH   1  13
ATOM     13  C   UNL d   1      -0.413   1.022   0.516  0.00  0.00     0.441 C 
ATOM     14  F   UNL d   1      -0.812   0.698   1.782  0.00  0.00    -0.166 F 
ATOM     15  F   UNL d   1      -0.015   2.314   0.566  0.00  0.00    -0.166 F 
ATOM     16  F   UNL d   1      -1.535   0.967  -0.236  0.00  0.00    -0.166 F 
ENDBRANCH   1  13
BRANCH   1  17
ATOM     17  C   UNL d   1       0.523  -0.050  -1.499  0.00  0.00     0.441 C 
ATOM     18  F   UNL d   1      -0.283  -1.079  -1.854  0.00  0.00    -0.166 F 
ATOM     19  F   UNL d   1      -0.006   1.073  -2.041  0.00  0.00    -0.166 F 
ATOM     20  F   UNL d   1       1.716  -0.224  -2.133  0.00  0.00    -0.166 F 
ENDBRANCH   1  17
BRANCH   1  21
ATOM     21  N   UNL d   1       2.094   0.601   0.354  0.00  0.00    -0.349 N 
ATOM     22  H   UNL d   1       2.722   0.443  -0.438  0.00  0.00     0.162 HD
BRANCH  21  23
ATOM     23  C   UNL d   1       2.760   0.633   1.564  0.00  0.00     0.031 A 
ATOM     24  C   UNL d   1       2.153   0.428   2.802  0.00  0.00     0.045 A 
ATOM     25  C   UNL d   1       2.884   0.414   4.004  0.00  0.00     0.050 A 
ATOM     26  C   UNL d   1       4.248   0.723   3.967  0.00  0.00     0.016 A 
ATOM     27  C   UNL d   1       4.858   1.027   2.755  0.00  0.00     0.003 A 
ATOM     28  C   UNL d   1       4.119   0.980   1.574  0.00  0.00     0.029 A 
BRANCH  25  29
ATOM     29  C   UNL d   1       2.210   0.020   5.287  0.00  0.00     0.417 C 
ATOM     30  F   UNL d   1       0.859  -0.129   5.169  0.00  0.00    -0.166 F 
ATOM     31  F   UNL d   1       2.666  -1.173   5.764  0.00  0.00    -0.166 F 
ATOM     32  F   UNL d   1       2.398   0.923   6.290  0.00  0.00    -0.166 F 
ENDBRANCH  25  29
ENDBRANCH  21  23
ENDBRANCH   1  21
TORSDOF 7
