REMARK  3 active torsions:
REMARK  status: ('A' for Active; 'I' for Inactive)
REMARK    1  A    between atoms: C_3  and  C_1 
REMARK    2  A    between atoms: N_2  and  C_10 
REMARK       I    between atoms: N_9  and  C_3 
REMARK    3  A    between atoms: C_14  and  N_9 
ROOT
ATOM      1  C   UNL d   1      -0.358  -2.479   0.046  0.00  0.00     0.266 C 
ATOM      2  N   UNL d   1       0.722  -3.355  -0.030  0.00  0.00    -0.322 N 
ATOM      3  O   UNL d   1      -0.219  -1.269   0.201  0.00  0.00    -0.267 OA
ATOM      4  H   UNL d   1       0.521  -4.308  -0.304  0.00  0.00     0.169 HD
ENDROOT
BRANCH   2   5
ATOM      5  C   UNL d   1       2.086  -2.988   0.048  0.00  0.00     0.037 A 
ATOM      6  C   UNL d   1       2.517  -1.747   0.529  0.00  0.00     0.065 A 
ATOM      7  C   UNL d   1       3.872  -1.398   0.472  0.00  0.00     0.105 A 
ATOM      8  C   UNL d   1       4.817  -2.298  -0.031  0.00  0.00     0.036 A 
ATOM      9  C   UNL d   1       4.399  -3.559  -0.454  0.00  0.00     0.005 A 
ATOM     10  C   UNL d   1       3.042  -3.905  -0.407  0.00  0.00     0.029 A 
BRANCH   7  11
ATOM     11  N   UNL d   1       4.293  -0.067   0.926  0.00  0.00    -0.116 N 
ATOM     12  O   UNL d   1       3.433   0.689   1.398  0.00  0.00    -0.532 OA
ATOM     13  O   UNL d   1       5.494   0.222   0.813  0.00  0.00    -0.532 OA
ENDBRANCH   7  11
ENDBRANCH   2   5
BRANCH   1  14
ATOM     14  C   UNL d   1      -1.677  -3.049  -0.122  0.00  0.00     0.110 A 
ATOM     15  C   UNL d   1      -2.911  -2.409  -0.196  0.00  0.00     0.043 A 
ATOM     16  N   UNL d   1      -3.995  -3.265  -0.368  0.00  0.00    -0.296 N 
ATOM     17  C   UNL d   1      -3.212  -0.953  -0.122  0.00  0.00     0.071 C 
ATOM     18  N   UNL d   1      -3.625  -4.532  -0.419  0.00  0.00    -0.061 NA
ATOM     19  HN  UNL d   1      -4.963  -2.951  -0.446  1.00  0.00     0.183 HD
ATOM     20  S   UNL d   1      -1.978  -4.729  -0.261  0.00  0.00     0.007 SA
ENDBRANCH   1  14
TORSDOF 3
