REMARK  6 active torsions:
REMARK  status: ('A' for Active; 'I' for Inactive)
REMARK    1  A    between atoms: C_3  and  C_1 
REMARK    2  A    between atoms: C_8  and  C_2 
REMARK       I    between atoms: N_6  and  C_3 
REMARK    3  A    between atoms: C_7  and  N_6 
REMARK    4  A    between atoms: N_11  and  C_7 
REMARK    5  A    between atoms: C_19  and  N_11 
REMARK    6  A    between atoms: C_15  and  C_16 
ROOT
ATOM      1  C   UNL d   1       0.768  -4.952  -0.554  0.00  0.00     0.262 C 
ATOM      2  N   UNL d   1      -0.101  -3.879  -0.407  0.00  0.00    -0.299 N 
ATOM      3  O   UNL d   1       1.755  -4.917   0.187  0.00  0.00    -0.267 OA
ATOM      4  H   UNL d   1       0.398  -3.245   0.207  0.00  0.00     0.171 HD
ENDROOT
BRANCH   1   5
ATOM      5  C   UNL d   1       0.615  -5.988  -1.563  0.00  0.00     0.093 A 
ATOM      6  C   UNL d   1      -0.276  -6.282  -2.653  0.00  0.00     0.085 A 
ATOM      7  N   UNL d   1       0.104  -7.416  -3.275  0.00  0.00    -0.259 N 
ATOM      8  O   UNL d   1       1.230  -7.861  -2.647  0.00  0.00    -0.241 OA
ATOM      9  HN  UNL d   1      -0.362  -7.858  -4.067  1.00  0.00     0.195 HD
ATOM     10  C   UNL d   1       1.545  -7.019  -1.642  0.00  0.00     0.090 A 
ATOM     11  C   UNL d   1       2.772  -7.362  -0.888  0.00  0.00     0.080 C 
BRANCH   6  12
ATOM     12  C   UNL d   1      -1.480  -5.637  -3.175  0.00  0.00     0.015 A 
ATOM     13  C   UNL d   1      -1.536  -4.312  -3.624  0.00  0.00     0.046 A 
ATOM     14 CL   UNL d   1      -0.151  -3.282  -3.661  0.00  0.00    -0.083 Cl
ATOM     15  C   UNL d   1      -2.733  -3.796  -4.144  0.00  0.00     0.025 A 
ATOM     16  C   UNL d   1      -3.865  -4.599  -4.268  0.00  0.00     0.002 A 
ATOM     17  C   UNL d   1      -3.810  -5.932  -3.876  0.00  0.00     0.001 A 
ATOM     18  C   UNL d   1      -2.630  -6.443  -3.332  0.00  0.00     0.015 A 
ENDBRANCH   6  12
ENDBRANCH   1   5
BRANCH   2  19
ATOM     19  C   UNL d   1      -1.433  -3.769  -0.096  0.00  0.00     0.179 C 
ATOM     20  S   UNL d   1      -2.486  -5.035   0.181  0.00  0.00    -0.040 SA
BRANCH  19  21
ATOM     21  N   UNL d   1      -1.896  -2.484   0.095  0.00  0.00    -0.333 N 
ATOM     22  H   UNL d   1      -2.848  -2.463   0.448  0.00  0.00     0.168 HD
BRANCH  21  23
ATOM     23  C   UNL d   1      -1.278  -1.214  -0.056  0.00  0.00     0.034 A 
ATOM     24  C   UNL d   1      -0.057  -0.983  -0.686  0.00  0.00     0.030 A 
ATOM     25  C   UNL d   1       0.492   0.303  -0.761  0.00  0.00     0.010 A 
ATOM     26  C   UNL d   1      -0.168   1.421  -0.235  0.00  0.00    -0.051 A 
ATOM     27  C   UNL d   1      -1.411   1.189   0.374  0.00  0.00     0.010 A 
ATOM     28  C   UNL d   1      -1.956  -0.105   0.460  0.00  0.00     0.030 A 
BRANCH  26  29
ATOM     29  C   UNL d   1       0.429   2.825  -0.427  0.00  0.00    -0.024 C 
ATOM     30  C   UNL d   1      -0.275   3.919   0.407  0.00  0.00     0.019 C 
ATOM     31  C   UNL d   1       1.925   2.865  -0.037  0.00  0.00     0.019 C 
ATOM     32  C   UNL d   1       0.291   3.200  -1.917  0.00  0.00     0.019 C 
ENDBRANCH  26  29
ENDBRANCH  21  23
ENDBRANCH  19  21
ENDBRANCH   2  19
TORSDOF 6
