REMARK  5 active torsions:
REMARK  status: ('A' for Active; 'I' for Inactive)
REMARK    1  A    between atoms: C_8  and  C_3 
REMARK    2  A    between atoms: C_15  and  C_4 
REMARK    3  A    between atoms: C_7  and  C_11 
REMARK    4  A    between atoms: O_16  and  C_15 
REMARK    5  A    between atoms: C_17  and  O_16 
ROOT
ATOM      1  N   UNL d   1      -0.023  -0.325  -0.892  0.00  0.00    -0.351 N 
ATOM      2  HN  UNL d   1      -0.471  -0.559  -1.778  1.00  0.00     0.166 HD
ATOM      3  C   UNL d   1       0.363   0.950  -0.508  0.00  0.00     0.049 A 
ATOM      4  C   UNL d   1       0.274  -1.192   0.057  0.00  0.00     0.075 A 
ATOM      5  S   UNL d   1       0.952  -0.513   1.488  0.00  0.00    -0.084 SA
ATOM      6  C   UNL d   1       0.897   1.035   0.762  0.00  0.00     0.082 A 
ENDROOT
BRANCH   4   7
ATOM      7  C   UNL d   1       0.010  -2.666  -0.016  0.00  0.00     0.240 C 
BRANCH   7   8
ATOM      8  O   UNL d   1       1.271  -3.333   0.091  0.00  0.00    -0.345 OA
BRANCH   8   9
ATOM      9  C   UNL d   1       1.225  -4.696  -0.005  0.00  0.00     0.069 A 
ATOM     10  C   UNL d   1       2.387  -5.300  -0.483  0.00  0.00     0.037 A 
ATOM     11  C   UNL d   1       2.446  -6.685  -0.658  0.00  0.00     0.012 A 
ATOM     12  C   UNL d   1       1.345  -7.495  -0.340  0.00  0.00    -0.035 A 
ATOM     13  C   UNL d   1       0.202  -6.878   0.197  0.00  0.00     0.012 A 
ATOM     14  C   UNL d   1       0.141  -5.491   0.359  0.00  0.00     0.037 A 
BRANCH  12  15
ATOM     15  C   UNL d   1       1.393  -8.982  -0.624  0.00  0.00     0.141 C 
ATOM     16  S   UNL d   1       0.108  -9.476  -1.820  0.00  0.00    -0.148 SA
ATOM     17  C   UNL d   1      -0.166 -11.124  -1.143  0.00  0.00     0.085 C 
ATOM     18  C   UNL d   1      -0.135 -11.021   0.368  0.00  0.00     0.085 C 
ATOM     19  S   UNL d   1       1.277 -10.004   0.879  0.00  0.00    -0.148 SA
ENDBRANCH  12  15
ENDBRANCH   8   9
ENDBRANCH   7   8
ENDBRANCH   4   7
BRANCH   3  20
ATOM     20  C   UNL d   1       0.182   2.093  -1.389  0.00  0.00    -0.006 A 
ATOM     21  C   UNL d   1      -0.887   2.108  -2.296  0.00  0.00     0.056 A 
ATOM     22  C   UNL d   1      -1.069   3.203  -3.134  0.00  0.00     0.117 A 
ATOM     23  F   UNL d   1      -2.099   3.216  -3.989  0.00  0.00    -0.206 F 
ATOM     24  C   UNL d   1      -0.199   4.289  -3.099  0.00  0.00     0.042 A 
ATOM     25  C   UNL d   1       0.874   4.279  -2.214  0.00  0.00     0.004 A 
ATOM     26  C   UNL d   1       1.063   3.186  -1.363  0.00  0.00     0.014 A 
ENDBRANCH   3  20
TORSDOF 5
