REMARK  5 active torsions:
REMARK  status: ('A' for Active; 'I' for Inactive)
REMARK    1  A    between atoms: N_6  and  C_1 
REMARK    2  A    between atoms: N_2  and  N_6 
REMARK    3  A    between atoms: C_5  and  N_2 
REMARK    4  A    between atoms: C_4  and  C_5 
REMARK    5  A    between atoms: O_10  and  C_8 
ROOT
ATOM      1  C   UNL d   1       0.380   0.898  -3.393  0.00  0.00     0.035 C 
ATOM      2  C   UNL d   1       1.107   1.198  -4.689  0.00  0.00     0.070 C 
ENDROOT
BRANCH   1   3
ATOM      3  C   UNL d   1      -1.116   0.896  -3.403  0.00  0.00     0.021 A 
ATOM      4  C   UNL d   1      -1.832   1.292  -2.263  0.00  0.00     0.077 A 
ATOM      5  C   UNL d   1      -3.225   1.326  -2.273  0.00  0.00     0.037 A 
ATOM      6  C   UNL d   1      -3.921   0.948  -3.421  0.00  0.00     0.003 A 
ATOM      7  C   UNL d   1      -3.223   0.528  -4.552  0.00  0.00     0.001 A 
ATOM      8  C   UNL d   1      -1.825   0.496  -4.544  0.00  0.00     0.016 A 
BRANCH   4   9
ATOM      9  O   UNL d   1      -1.226   1.672  -1.095  0.00  0.00    -0.360 OA
ATOM     10  H   UNL d   1      -0.266   1.486  -1.188  0.00  0.00     0.217 HD
ENDBRANCH   4   9
ENDBRANCH   1   3
BRANCH   1  11
ATOM     11  N   UNL d   1       0.982   0.673  -2.256  0.00  0.00    -0.302 N 
ATOM     12  HN  UNL d   1       0.446   0.502  -1.406  1.00  0.00     0.186 HD
BRANCH  11  13
ATOM     13  N   UNL d   1       2.346   0.675  -2.237  0.00  0.00    -0.276 N 
ATOM     14  H   UNL d   1       2.884   0.816  -3.086  0.00  0.00     0.189 HD
BRANCH  13  15
ATOM     15  C   UNL d   1       3.051   0.447  -1.090  0.00  0.00     0.184 C 
ATOM     16  S   UNL d   1       4.710   0.437  -1.069  0.00  0.00    -0.040 SA
ATOM     17  N   UNL d   1       2.321   0.246   0.031  0.00  0.00    -0.375 N 
ATOM     18  H   UNL d   1       1.339   0.034  -0.089  0.00  0.00     0.158 HD
ATOM     19  H   UNL d   1       2.783  -0.030   0.886  0.00  0.00     0.158 HD
ENDBRANCH  13  15
ENDBRANCH  11  13
ENDBRANCH   1  11
TORSDOF 5
