REMARK  3 active torsions:
REMARK  status: ('A' for Active; 'I' for Inactive)
REMARK    1  A    between atoms: C_10  and  C_3 
REMARK    2  A    between atoms: N_6  and  C_9 
REMARK    3  A    between atoms: C_15  and  C_8 
ROOT
ATOM      1  N   UNL d   1       1.576  -0.070  -0.023  0.00  0.00    -0.331 N 
ATOM      2  HN  UNL d   1       2.525  -0.438  -0.094  1.00  0.00     0.168 HD
ATOM      3  C   UNL d   1       1.190   1.164   0.041  0.00  0.00     0.162 A 
ATOM      4  C   UNL d   1       0.389  -0.760   0.028  0.00  0.00     0.111 A 
ATOM      5  O   UNL d   1      -0.136   1.406   0.137  0.00  0.00    -0.256 OA
ATOM      6  C   UNL d   1      -0.755   0.195   0.136  0.00  0.00     0.316 A 
ATOM      7  C   UNL d   1       0.293  -2.095  -0.028  0.00  0.00     0.047 C 
ATOM      8  O   UNL d   1      -1.949  -0.005   0.211  0.00  0.00    -0.257 OA
ENDROOT
BRANCH   3   9
ATOM      9  C   UNL d   1       2.034   2.370   0.010  0.00  0.00     0.018 A 
ATOM     10  C   UNL d   1       3.416   2.238  -0.176  0.00  0.00     0.052 A 
ATOM     11  C   UNL d   1       4.214   3.391  -0.220  0.00  0.00     0.103 A 
ATOM     12  C   UNL d   1       3.644   4.665  -0.076  0.00  0.00     0.036 A 
ATOM     13  C   UNL d   1       2.269   4.786   0.113  0.00  0.00     0.003 A 
ATOM     14  C   UNL d   1       1.466   3.645   0.156  0.00  0.00     0.016 A 
BRANCH  11  15
ATOM     15  N   UNL d   1       5.663   3.268  -0.422  0.00  0.00    -0.116 N 
ATOM     16  O   UNL d   1       6.133   2.129  -0.542  0.00  0.00    -0.532 OA
ATOM     17  O   UNL d   1       6.330   4.312  -0.461  0.00  0.00    -0.532 OA
ENDBRANCH  11  15
ENDBRANCH   3   9
BRANCH   7  18
ATOM     18  C   UNL d   1      -0.970  -2.834  -0.010  0.00  0.00    -0.032 A 
ATOM     19  C   UNL d   1      -1.617  -3.137  -1.213  0.00  0.00     0.037 A 
ATOM     20  C   UNL d   1      -2.852  -3.795  -1.205  0.00  0.00     0.056 A 
ATOM     21 CL   UNL d   1      -3.595  -4.125  -2.730  0.00  0.00    -0.083 Cl
ATOM     22  C   UNL d   1      -3.442  -4.157   0.011  0.00  0.00     0.055 A 
ATOM     23  C   UNL d   1      -2.793  -3.860   1.213  0.00  0.00     0.026 A 
ATOM     24 CL   UNL d   1      -4.965  -4.968   0.097  0.00  0.00    -0.083 Cl
ATOM     25  C   UNL d   1      -1.561  -3.200   1.204  0.00  0.00     0.013 A 
ENDBRANCH   7  18
TORSDOF 3
