REMARK  3 active torsions:
REMARK  status: ('A' for Active; 'I' for Inactive)
REMARK    1  A    between atoms: C_7  and  C_1 
REMARK    2  A    between atoms: C_8  and  C_4 
REMARK    3  A    between atoms: O_10  and  C_7 
ROOT
ATOM      1  C   UNL d   1      -0.011  -1.360  -0.047  0.00  0.00     0.100 A 
ATOM      2  N   UNL d   1      -1.298   0.517   0.011  0.00  0.00    -0.259 N 
ATOM      3  HN  UNL d   1      -2.096   1.151   0.019  1.00  0.00     0.195 HD
ATOM      4  C   UNL d   1      -1.340  -0.827  -0.003  0.00  0.00     0.084 A 
ATOM      5  O   UNL d   1       0.030   0.871   0.014  0.00  0.00    -0.241 OA
ATOM      6  C   UNL d   1       0.801  -0.243  -0.011  0.00  0.00     0.091 A 
ATOM      7  C   UNL d   1       2.260  -0.017  -0.021  0.00  0.00     0.080 C 
ENDROOT
BRANCH   4   8
ATOM      8  C   UNL d   1      -2.631  -1.520   0.064  0.00  0.00    -0.006 A 
ATOM      9  C   UNL d   1      -3.766  -0.958  -0.544  0.00  0.00     0.014 A 
ATOM     10  C   UNL d   1      -5.006  -1.601  -0.475  0.00  0.00     0.001 A 
ATOM     11  C   UNL d   1      -5.127  -2.813   0.200  0.00  0.00     0.000 A 
ATOM     12  C   UNL d   1      -4.015  -3.376   0.819  0.00  0.00     0.001 A 
ATOM     13  C   UNL d   1      -2.779  -2.727   0.762  0.00  0.00     0.014 A 
ENDBRANCH   4   8
BRANCH   1  14
ATOM     14  C   UNL d   1       0.421  -2.735  -0.126  0.00  0.00     0.297 C 
ATOM     15  O   UNL d   1      -0.248  -3.633  -0.624  0.00  0.00    -0.259 OA
BRANCH  14  16
ATOM     16  O   UNL d   1       1.641  -2.940   0.456  0.00  0.00    -0.322 OA
ATOM     17  C   UNL d   1       2.028  -4.315   0.515  0.00  0.00     0.213 C 
ENDBRANCH  14  16
ENDBRANCH   1  14
TORSDOF 3
