REMARK  6 active torsions:
REMARK  status: ('A' for Active; 'I' for Inactive)
REMARK    1  A    between atoms: C_13  and  N_1 
REMARK    2  A    between atoms: C_7  and  C_4 
REMARK    3  A    between atoms: C_14  and  C_5 
REMARK    4  A    between atoms: O_15  and  C_8 
REMARK    5  A    between atoms: O_16  and  C_9 
REMARK    6  A    between atoms: O_17  and  C_10 
ROOT
ATOM      1  N   UNL d   1       0.150  -1.118  -0.006  0.00  0.00    -0.283 N 
ATOM      2  N   UNL d   1       1.154  -0.197   0.051  0.00  0.00    -0.301 N 
ATOM      3  HN  UNL d   1       2.150  -0.391   0.153  1.00  0.00     0.187 HD
ATOM      4  C   UNL d   1      -1.185  -0.527  -0.073  0.00  0.00     0.147 A 
ATOM      5  C   UNL d   1       0.601   0.974  -0.051  0.00  0.00     0.038 A 
ATOM      6  C   UNL d   1      -0.900   0.972  -0.138  0.00  0.00     0.091 A 
ENDROOT
BRANCH   4   7
ATOM      7  C   UNL d   1      -2.042  -0.866   1.137  0.00  0.00    -0.028 A 
ATOM      8  C   UNL d   1      -1.482  -1.034   2.414  0.00  0.00     0.049 A 
ATOM      9  C   UNL d   1      -2.272  -1.308   3.539  0.00  0.00     0.104 A 
ATOM     10  C   UNL d   1      -3.667  -1.424   3.378  0.00  0.00     0.135 A 
ATOM     11  C   UNL d   1      -4.240  -1.258   2.095  0.00  0.00     0.104 A 
ATOM     12  C   UNL d   1      -3.429  -0.967   0.995  0.00  0.00     0.049 A 
BRANCH   9  13
ATOM     13  O   UNL d   1      -1.748  -1.427   4.800  0.00  0.00    -0.353 OA
ATOM     14  C   UNL d   1      -0.332  -1.373   4.942  0.00  0.00     0.210 C 
ENDBRANCH   9  13
BRANCH  10  15
ATOM     15  O   UNL d   1      -4.572  -1.625   4.396  0.00  0.00    -0.351 OA
ATOM     16  C   UNL d   1      -4.169  -2.480   5.458  0.00  0.00     0.210 C 
ENDBRANCH  10  15
BRANCH  11  17
ATOM     17  O   UNL d   1      -5.609  -1.371   2.007  0.00  0.00    -0.353 OA
ATOM     18  C   UNL d   1      -6.139  -1.675   0.723  0.00  0.00     0.210 C 
ENDBRANCH  11  17
ENDBRANCH   4   7
BRANCH   1  19
ATOM     19  C   UNL d   1       0.415  -2.486   0.010  0.00  0.00     0.051 A 
ATOM     20  C   UNL d   1       1.603  -2.981   0.569  0.00  0.00     0.031 A 
ATOM     21  C   UNL d   1       1.864  -4.353   0.639  0.00  0.00     0.002 A 
ATOM     22  C   UNL d   1       0.950  -5.262   0.118  0.00  0.00     0.000 A 
ATOM     23  C   UNL d   1      -0.226  -4.799  -0.462  0.00  0.00     0.002 A 
ATOM     24  C   UNL d   1      -0.491  -3.427  -0.506  0.00  0.00     0.031 A 
ENDBRANCH   1  19
BRANCH   5  25
ATOM     25  C   UNL d   1       1.371   2.239  -0.110  0.00  0.00    -0.012 A 
ATOM     26  C   UNL d   1       2.769   2.188  -0.065  0.00  0.00     0.013 A 
ATOM     27  C   UNL d   1       3.516   3.364  -0.161  0.00  0.00     0.001 A 
ATOM     28  C   UNL d   1       2.876   4.591  -0.303  0.00  0.00     0.000 A 
ATOM     29  C   UNL d   1       1.481   4.650  -0.347  0.00  0.00     0.001 A 
ATOM     30  C   UNL d   1       0.729   3.476  -0.248  0.00  0.00     0.013 A 
ENDBRANCH   5  25
TORSDOF 6
