REMARK  3 active torsions:
REMARK  status: ('A' for Active; 'I' for Inactive)
REMARK    1  A    between atoms: N_7  and  C_2 
REMARK    2  A    between atoms: C_6  and  C_14 
REMARK    3  A    between atoms: N_9  and  N_7 
ROOT
ATOM      1  N   UNL d   1       2.043   1.488   0.005  0.00  0.00    -0.280 N 
ATOM      2  HN  UNL d   1       1.910   2.499  -0.002  1.00  0.00     0.189 HD
ENDROOT
BRANCH   1   3
ATOM      3  C   UNL d   1       1.074   0.634  -0.001  0.00  0.00     0.162 A 
ATOM      4  N   UNL d   1       1.226  -0.710  -0.003  0.00  0.00    -0.306 N 
ATOM      5  C   UNL d   1       0.110  -1.488  -0.000  0.00  0.00     0.233 A 
ATOM      6  H   UNL d   1       2.159  -1.092  -0.018  0.00  0.00     0.171 HD
ATOM      7  O   UNL d   1       0.133  -2.712  -0.022  0.00  0.00    -0.272 OA
ATOM      8  C   UNL d   1      -1.149  -0.658   0.042  0.00  0.00     0.185 A 
ATOM      9  S   UNL d   1      -0.602   1.075  -0.005  0.00  0.00    -0.083 SA
ENDBRANCH   1   3
BRANCH   1  10
ATOM     10  N   UNL d   1       3.298   0.864   0.022  0.00  0.00    -0.307 N 
ATOM     11  C   UNL d   1       4.264   1.729   0.040  0.00  0.00     0.144 C 
ATOM     12  HN  UNL d   1       3.435  -0.147   0.021  1.00  0.00     0.186 HD
BRANCH  11  13
ATOM     13  C   UNL d   1       5.627   1.280   0.071  0.00  0.00     0.092 A 
ATOM     14  O   UNL d   1       6.628   2.212   0.082  0.00  0.00    -0.314 OA
ATOM     15  C   UNL d   1       7.810   1.532   0.114  0.00  0.00     0.050 A 
ATOM     16  C   UNL d   1       9.049   2.335   0.131  0.00  0.00     0.076 C 
ATOM     17  C   UNL d   1       7.577   0.174   0.125  0.00  0.00     0.035 A 
ATOM     18  C   UNL d   1       6.174   0.012   0.097  0.00  0.00     0.041 A 
ENDBRANCH  11  13
ENDBRANCH   1  10
TORSDOF 3
