REMARK  2 active torsions:
REMARK  status: ('A' for Active; 'I' for Inactive)
REMARK    1  A    between atoms: N_2  and  C_1 
REMARK    2  A    between atoms: N_9  and  C_8 
ROOT
ATOM      1  C   UNL d   1      -1.849   0.077  -0.106  0.00  0.00     0.103 A 
ATOM      2  N   UNL d   1      -1.266  -0.054   1.104  0.00  0.00    -0.351 N 
ATOM      3  HN  UNL d   1      -1.833  -0.129   1.949  1.00  0.00     0.166 HD
ATOM      4  C   UNL d   1      -1.052   0.185  -1.246  0.00  0.00     0.050 A 
ATOM      5  C   UNL d   1       0.090  -0.084   1.174  0.00  0.00     0.113 A 
ATOM      6  C   UNL d   1       0.947  -0.055   0.081  0.00  0.00     0.021 A 
ATOM      7  C   UNL d   1       0.342   0.138  -1.151  0.00  0.00     0.028 A 
ENDROOT
BRANCH   1   8
ATOM      8  N   UNL d   1      -3.223   0.067  -0.184  0.00  0.00    -0.363 N 
ATOM      9  C   UNL d   1      -3.979   0.806  -1.199  0.00  0.00     0.150 C 
ATOM     10  C   UNL d   1      -4.909   1.835  -0.534  0.00  0.00     0.187 C 
ATOM     11  O   UNL d   1      -5.752   1.231   0.460  0.00  0.00    -0.388 OA
ATOM     12  C   UNL d   1      -4.942   0.648   1.496  0.00  0.00     0.187 C 
ATOM     13  C   UNL d   1      -4.019  -0.444   0.939  0.00  0.00     0.150 C 
ENDBRANCH   1   8
BRANCH   6  14
ATOM     14  N   UNL d   1       2.336   0.017   0.215  0.00  0.00    -0.302 NA
ATOM     15  H   UNL d   1       2.844  -0.273  -0.617  0.00  0.00     0.124 HD
ATOM     16  H   UNL d   1       2.693  -0.431   1.054  0.00  0.00     0.124 HD
ENDBRANCH   6  14
TORSDOF 2
