REMARK  0 active torsions:
REMARK  status: ('A' for Active; 'I' for Inactive)
ROOT
ATOM      1  C   UNL d   1      -0.511   0.290   0.126  0.00  0.00    -0.029 C 
ATOM      2  C   UNL d   1       0.725  -0.575   0.051  0.00  0.00     0.167 C 
ATOM      3  O   UNL d   1       0.731  -1.722   0.887  0.00  0.00    -0.311 OA
ATOM      4  C   UNL d   1       2.034  -2.118   1.028  0.00  0.00     0.263 C 
ATOM      5  C   UNL d   1      -1.755  -0.258   0.206  0.00  0.00    -0.006 C 
ATOM      6  C   UNL d   1       1.979   0.157   0.443  0.00  0.00     0.033 C 
ATOM      7  C   UNL d   1      -0.331   1.809  -0.119  0.00  0.00     0.000 C 
ATOM      8  C   UNL d   1       2.971  -0.983   0.666  0.00  0.00     0.088 C 
ATOM      9  C   UNL d   1      -2.934   0.625  -0.067  0.00  0.00     0.177 C 
ATOM     10  C   UNL d   1      -1.429   2.259  -1.084  0.00  0.00    -0.009 C 
ATOM     11  C   UNL d   1      -2.668   1.747  -1.004  0.00  0.00     0.052 C 
ATOM     12  C   UNL d   1       2.234   1.220  -0.604  0.00  0.00     0.010 C 
ATOM     13  O   UNL d   1       2.371  -3.235   1.385  0.00  0.00    -0.265 OA
ATOM     14  C   UNL d   1       1.097   2.258  -0.617  0.00  0.00     0.018 C 
ATOM     15  O   UNL d   1      -4.056   0.392   0.342  0.00  0.00    -0.288 OA
ATOM     16  C   UNL d   1      -2.124  -1.712   0.327  0.00  0.00     0.052 C 
ATOM     17  C   UNL d   1      -0.622   2.659   1.156  0.00  0.00     0.025 C 
ATOM     18  C   UNL d   1       3.892  -1.385  -0.477  0.00  0.00     0.021 C 
ENDROOT
TORSDOF 0
