REMARK  3 active torsions:
REMARK  status: ('A' for Active; 'I' for Inactive)
REMARK    1  A    between atoms: C_3  and  C_1 
REMARK    2  A    between atoms: C_13  and  C_2 
REMARK    3  A    between atoms: C_15  and  C_12 
ROOT
ATOM      1  C   UNL d   1       1.162   0.673  -0.048  0.00  0.00     0.058 A 
ATOM      2  C   UNL d   1      -0.148   1.107  -0.021  0.00  0.00     0.174 A 
ATOM      3  O   UNL d   1      -0.976   0.010  -0.013  0.00  0.00    -0.304 OA
ATOM      4  C   UNL d   1       1.129  -0.744  -0.105  0.00  0.00     0.056 A 
ATOM      5  C   UNL d   1      -0.199  -1.113  -0.039  0.00  0.00     0.087 A 
ENDROOT
BRANCH   1   6
ATOM      6  C   UNL d   1       2.387   1.508   0.010  0.00  0.00     0.177 A 
ATOM      7  O   UNL d   1       2.398   2.859   0.213  0.00  0.00    -0.271 OA
ATOM      8  C   UNL d   1       3.738   3.151   0.255  0.00  0.00     0.198 A 
ATOM      9  C   UNL d   1       4.248   4.463   0.504  0.00  0.00     0.127 A 
ATOM     10  N   UNL d   1       4.478   2.075   0.070  0.00  0.00    -0.275 N 
ATOM     11  O   UNL d   1       3.434   5.537   0.762  0.00  0.00    -0.318 OA
ATOM     12  C   UNL d   1       5.566   4.888   0.552  0.00  0.00     0.043 A 
ATOM     13  C   UNL d   1       4.227   6.617   0.978  0.00  0.00     0.142 A 
ATOM     14  C   UNL d   1       5.550   6.271   0.859  0.00  0.00     0.027 A 
ATOM     15  N   UNL d   1       3.607   1.016  -0.079  0.00  0.00    -0.277 N 
ATOM     16  HN  UNL d   1       5.497   2.034   0.043  1.00  0.00     0.189 HD
ATOM     17  HN  UNL d   1       3.859   0.039  -0.229  1.00  0.00     0.189 HD
ENDBRANCH   1   6
BRANCH   2  18
ATOM     18  C   UNL d   1      -0.830   2.423   0.015  0.00  0.00     0.440 C 
ATOM     19  F   UNL d   1       0.005   3.474  -0.172  0.00  0.00    -0.164 F 
ATOM     20  F   UNL d   1      -1.782   2.523  -0.951  0.00  0.00    -0.164 F 
ATOM     21  F   UNL d   1      -1.456   2.631   1.203  0.00  0.00    -0.164 F 
ENDBRANCH   2  18
BRANCH   5  22
ATOM     22  C   UNL d   1      -0.899  -2.393   0.047  0.00  0.00    -0.002 A 
ATOM     23  C   UNL d   1      -0.183  -3.599   0.006  0.00  0.00     0.016 A 
ATOM     24  C   UNL d   1      -0.836  -4.828   0.148  0.00  0.00     0.024 A 
ATOM     25  C   UNL d   1      -2.215  -4.863   0.331  0.00  0.00     0.034 A 
ATOM     26  C   UNL d   1      -2.948  -3.680   0.361  0.00  0.00     0.024 A 
ATOM     27 CL   UNL d   1      -3.015  -6.372   0.532  0.00  0.00    -0.084 Cl
ATOM     28  C   UNL d   1      -2.292  -2.452   0.217  0.00  0.00     0.016 A 
ENDBRANCH   5  22
TORSDOF 3
