REMARK  4 active torsions:
REMARK  status: ('A' for Active; 'I' for Inactive)
REMARK    1  A    between atoms: C_11  and  N_1 
REMARK    2  A    between atoms: N_6  and  C_8 
REMARK    3  A    between atoms: O_24  and  C_20 
REMARK    4  A    between atoms: C_26  and  O_24 
ROOT
ATOM      1  N   UNL d   1       2.305  -0.068   0.137  0.00  0.00    -0.244 N 
ATOM      2  C   UNL d   1       1.618  -1.289   0.111  0.00  0.00     0.266 A 
ATOM      3  C   UNL d   1       1.686   1.189   0.048  0.00  0.00     0.266 A 
ATOM      4  C   UNL d   1       0.138  -1.233   0.077  0.00  0.00     0.047 A 
ATOM      5  C   UNL d   1       0.206   1.205   0.002  0.00  0.00     0.045 A 
ATOM      6  C   UNL d   1      -0.511   0.006   0.030  0.00  0.00     0.006 A 
ATOM      7  C   UNL d   1      -1.992  -2.379   0.084  0.00  0.00     0.104 A 
ATOM      8  C   UNL d   1      -0.596  -2.429   0.094  0.00  0.00     0.054 A 
ATOM      9  C   UNL d   1      -1.928   0.048   0.011  0.00  0.00    -0.021 A 
ATOM     10  C   UNL d   1      -2.659  -1.148   0.043  0.00  0.00     0.048 A 
ATOM     11  O   UNL d   1       2.142  -2.401   0.066  0.00  0.00    -0.267 OA
ATOM     12  O   UNL d   1       2.264   2.272   0.048  0.00  0.00    -0.267 OA
ATOM     13  C   UNL d   1      -0.464   2.436  -0.043  0.00  0.00     0.018 A 
ATOM     14  C   UNL d   1      -2.582   1.289  -0.036  0.00  0.00     0.012 A 
ATOM     15  C   UNL d   1      -1.855   2.477  -0.064  0.00  0.00     0.002 A 
ENDROOT
BRANCH   1  16
ATOM     16  C   UNL d   1       3.734  -0.105   0.244  0.00  0.00     0.046 A 
ATOM     17  C   UNL d   1       4.538   0.638  -0.629  0.00  0.00     0.033 A 
ATOM     18  C   UNL d   1       5.932   0.615  -0.513  0.00  0.00     0.039 A 
ATOM     19  C   UNL d   1       6.538  -0.128   0.499  0.00  0.00     0.068 A 
ATOM     20  C   UNL d   1       5.742  -0.848   1.390  0.00  0.00     0.039 A 
ATOM     21  C   UNL d   1       4.351  -0.861   1.249  0.00  0.00     0.033 A 
BRANCH  19  22
ATOM     22  O   UNL d   1       7.884  -0.177   0.740  0.00  0.00    -0.352 OA
BRANCH  22  23
ATOM     23  C   UNL d   1       8.722  -0.046  -0.408  0.00  0.00     0.171 C 
ATOM     24  C   UNL d   1      10.164  -0.189   0.044  0.00  0.00     0.034 C 
ENDBRANCH  22  23
ENDBRANCH  19  22
ENDBRANCH   1  16
BRANCH   7  25
ATOM     25  N   UNL d   1      -2.769  -3.625   0.126  0.00  0.00    -0.116 N 
ATOM     26  O   UNL d   1      -2.144  -4.692   0.152  0.00  0.00    -0.532 OA
ATOM     27  O   UNL d   1      -4.004  -3.529   0.138  0.00  0.00    -0.532 OA
ENDBRANCH   7  25
TORSDOF 4
