REMARK  3 active torsions:
REMARK  status: ('A' for Active; 'I' for Inactive)
REMARK       I    between atoms: C_2  and  N_1 
REMARK    1  A    between atoms: C_5  and  C_2 
REMARK    2  A    between atoms: C_11  and  N_3 
REMARK    3  A    between atoms: N_4  and  C_5 
ROOT
ATOM      1  N   UNL d   1      -1.325  -0.072  -0.137  0.00  0.00    -0.348 N 
ATOM      2  C   UNL d   1      -2.562  -0.040   0.482  0.00  0.00     0.248 C 
ATOM      3  N   UNL d   1       1.540  -0.279  -0.093  0.00  0.00    -0.378 N 
ATOM      4  C   UNL d   1      -0.681  -1.365  -0.404  0.00  0.00     0.145 C 
ATOM      5  C   UNL d   1      -0.516   1.081  -0.544  0.00  0.00     0.145 C 
ATOM      6  C   UNL d   1       0.701  -1.441   0.278  0.00  0.00     0.143 C 
ATOM      7  C   UNL d   1       0.893   1.035   0.070  0.00  0.00     0.143 C 
ATOM      8  O   UNL d   1      -3.185  -1.086   0.707  0.00  0.00    -0.271 OA
ENDROOT
BRANCH   2   9
ATOM      9  C   UNL d   1      -3.136   1.278   1.015  0.00  0.00     0.374 C 
BRANCH   9  10
ATOM     10  N   UNL d   1      -3.311   2.375   0.031  0.00  0.00     0.097 N 
ATOM     11  C   UNL d   1      -4.104   1.994  -1.140  0.00  0.00     0.273 C 
ATOM     12  C   UNL d   1      -3.564   2.708  -2.388  0.00  0.00     0.030 C 
ATOM     13  C   UNL d   1      -3.866   4.201  -2.505  0.00  0.00     0.002 C 
ATOM     14  C   UNL d   1      -3.484   5.047  -1.294  0.00  0.00     0.002 C 
ATOM     15  C   UNL d   1      -4.348   4.726  -0.083  0.00  0.00     0.030 C 
ATOM     16  C   UNL d   1      -3.849   3.543   0.749  0.00  0.00     0.273 C 
ENDBRANCH   9  10
ENDBRANCH   2   9
BRANCH   3  17
ATOM     17  C   UNL d   1       2.526  -0.484  -1.047  0.00  0.00     0.030 A 
ATOM     18  C   UNL d   1       3.547  -1.414  -0.793  0.00  0.00     0.029 A 
ATOM     19  C   UNL d   1       4.594  -1.626  -1.697  0.00  0.00     0.002 A 
ATOM     20  C   UNL d   1       4.632  -0.915  -2.890  0.00  0.00     0.000 A 
ATOM     21  C   UNL d   1       3.626   0.004  -3.173  0.00  0.00     0.002 A 
ATOM     22  C   UNL d   1       2.590   0.220  -2.258  0.00  0.00     0.029 A 
ENDBRANCH   3  17
TORSDOF 3
