REMARK  1 active torsions:
REMARK  status: ('A' for Active; 'I' for Inactive)
REMARK    1  A    between atoms: C_6  and  N_1 
ROOT
ATOM      1  N   UNL d   1       1.976  -0.199  -0.066  0.00  0.00    -0.278 N 
ATOM      2  C   UNL d   1       1.259   0.998   0.091  0.00  0.00     0.264 A 
ATOM      3  C   UNL d   1       1.113  -1.290  -0.103  0.00  0.00     0.044 A 
ATOM      4  C   UNL d   1      -0.162   0.619   0.084  0.00  0.00     0.045 A 
ATOM      5  C   UNL d   1      -0.251  -0.769  -0.022  0.00  0.00     0.006 A 
ATOM      6  O   UNL d   1       1.647   2.148   0.174  0.00  0.00    -0.267 OA
ATOM      7  C   UNL d   1       1.450  -2.585  -0.115  0.00  0.00     0.044 C 
ATOM      8  C   UNL d   1      -1.274   1.442   0.133  0.00  0.00     0.018 A 
ATOM      9  C   UNL d   1      -1.493  -1.381  -0.045  0.00  0.00     0.014 A 
ATOM     10  C   UNL d   1      -2.527   0.829   0.096  0.00  0.00     0.001 A 
ATOM     11  C   UNL d   1      -2.635  -0.572   0.016  0.00  0.00     0.001 A 
ENDROOT
BRANCH   1  12
ATOM     12  C   UNL d   1       3.376  -0.193  -0.253  0.00  0.00     0.043 A 
ATOM     13  C   UNL d   1       4.208   0.504   0.634  0.00  0.00     0.033 A 
ATOM     14  C   UNL d   1       5.591   0.504   0.448  0.00  0.00     0.044 A 
ATOM     15  C   UNL d   1       6.136  -0.151  -0.650  0.00  0.00     0.116 A 
ATOM     16  C   UNL d   1       5.325  -0.821  -1.558  0.00  0.00     0.044 A 
ATOM     17  F   UNL d   1       7.462  -0.132  -0.841  0.00  0.00    -0.206 F 
ATOM     18  C   UNL d   1       3.945  -0.857  -1.351  0.00  0.00     0.033 A 
ENDBRANCH   1  12
TORSDOF 1
