REMARK  7 active torsions:
REMARK  status: ('A' for Active; 'I' for Inactive)
REMARK    1  A    between atoms: C_2  and  C_1 
REMARK    2  A    between atoms: C_4  and  C_1 
REMARK    3  A    between atoms: C_7  and  C_1 
REMARK    4  A    between atoms: O_17  and  C_1 
REMARK       I    between atoms: C_3  and  N_6 
REMARK    5  A    between atoms: C_5  and  C_3 
REMARK    6  A    between atoms: O_23  and  C_4 
REMARK    7  A    between atoms: N_6  and  C_21 
ROOT
ATOM      1  C   UNL d   1       0.631  -0.902  -1.025  0.00  0.00    -0.005 A 
ATOM      2  C   UNL d   1       1.435  -2.057  -1.003  0.00  0.00     0.013 A 
ATOM      3  C   UNL d   1      -0.486  -0.914  -1.877  0.00  0.00     0.013 A 
ATOM      4  C   UNL d   1      -0.015  -3.181  -2.602  0.00  0.00     0.035 A 
ATOM      5  C   UNL d   1      -0.805  -2.036  -2.651  0.00  0.00     0.030 A 
ATOM      6  C   UNL d   1       1.118  -3.175  -1.784  0.00  0.00     0.030 A 
ENDROOT
BRANCH   4   7
ATOM      7  N   UNL d   1      -0.289  -4.361  -3.325  0.00  0.00    -0.323 N 
ATOM      8  C   UNL d   1      -1.387  -4.608  -4.131  0.00  0.00     0.256 C 
ATOM      9  O   UNL d   1      -2.316  -3.848  -4.371  0.00  0.00    -0.267 OA
ATOM     10  H   UNL d   1       0.417  -5.080  -3.256  0.00  0.00     0.169 HD
BRANCH   8  11
ATOM     11  C   UNL d   1      -1.390  -5.936  -4.804  0.00  0.00     0.034 A 
ATOM     12  C   UNL d   1      -0.886  -7.086  -4.186  0.00  0.00     0.042 A 
ATOM     13  C   UNL d   1      -0.847  -8.295  -4.892  0.00  0.00     0.056 A 
ATOM     14 CL   UNL d   1      -0.175  -9.667  -4.084  0.00  0.00    -0.083 Cl
ATOM     15  C   UNL d   1      -1.329  -8.360  -6.205  0.00  0.00     0.055 A 
ATOM     16  C   UNL d   1      -1.878  -7.221  -6.801  0.00  0.00     0.026 A 
ATOM     17 CL   UNL d   1      -1.266  -9.807  -7.145  0.00  0.00    -0.083 Cl
ATOM     18  C   UNL d   1      -1.913  -6.014  -6.101  0.00  0.00     0.019 A 
ENDBRANCH   8  11
ENDBRANCH   4   7
BRANCH   1  19
ATOM     19  C   UNL d   1       0.951   0.310  -0.139  0.00  0.00     0.271 C 
BRANCH  19  20
ATOM     20  C   UNL d   1       2.383   0.875  -0.332  0.00  0.00     0.432 C 
ATOM     21  F   UNL d   1       3.135   0.832   0.793  0.00  0.00    -0.167 F 
ATOM     22  F   UNL d   1       3.094   0.248  -1.298  0.00  0.00    -0.167 F 
ATOM     23  F   UNL d   1       2.326   2.188  -0.689  0.00  0.00    -0.167 F 
ENDBRANCH  19  20
BRANCH  19  24
ATOM     24  C   UNL d   1       0.862  -0.048   1.355  0.00  0.00     0.307 C 
ATOM     25  O   UNL d   1       1.151  -1.131   1.855  0.00  0.00    -0.261 OA
BRANCH  24  26
ATOM     26  O   UNL d   1       0.445   1.036   2.086  0.00  0.00    -0.324 OA
ATOM     27  C   UNL d   1       0.293   0.769   3.483  0.00  0.00     0.213 C 
ENDBRANCH  24  26
ENDBRANCH  19  24
BRANCH  19  28
ATOM     28  O   UNL d   1      -0.048   1.336  -0.416  0.00  0.00    -0.368 OA
ATOM     29  H   UNL d   1       0.197   2.116   0.118  0.00  0.00     0.212 HD
ENDBRANCH  19  28
ENDBRANCH   1  19
TORSDOF 7
