REMARK  4 active torsions:
REMARK  status: ('A' for Active; 'I' for Inactive)
REMARK    1  A    between atoms: C_2  and  S_1 
REMARK    2  A    between atoms: N_3  and  S_1 
REMARK    3  A    between atoms: N_6  and  N_3 
REMARK       I    between atoms: C_7  and  N_6 
REMARK    4  A    between atoms: C_10  and  C_7 
ROOT
ATOM      1  N   UNL d   1       0.385   0.074  -1.454  0.00  0.00    -0.220 N 
ATOM      2  H   UNL d   1      -0.167  -0.705  -1.830  0.00  0.00     0.200 HD
ENDROOT
BRANCH   1   3
ATOM      3  S   UNL d   1       1.000   0.041   0.111  0.00  0.00     0.278 S 
ATOM      4  O   UNL d   1       2.362  -0.443  -0.008  0.00  0.00    -0.199 OA
ATOM      5  O   UNL d   1       0.739   1.311   0.746  0.00  0.00    -0.199 OA
BRANCH   3   6
ATOM      6  C   UNL d   1       0.049  -1.213   0.915  0.00  0.00     0.104 A 
ATOM      7  C   UNL d   1       0.720  -2.352   1.387  0.00  0.00     0.052 A 
ATOM      8  C   UNL d   1       0.016  -3.361   2.048  0.00  0.00     0.057 A 
ATOM      9 CL   UNL d   1       0.906  -4.733   2.599  0.00  0.00    -0.083 Cl
ATOM     10  C   UNL d   1      -1.363  -3.232   2.242  0.00  0.00     0.057 A 
ATOM     11  C   UNL d   1      -2.027  -2.092   1.778  0.00  0.00     0.051 A 
ATOM     12 CL   UNL d   1      -2.302  -4.442   3.039  0.00  0.00    -0.082 Cl
ATOM     13  C   UNL d   1      -1.326  -1.077   1.116  0.00  0.00     0.059 A 
ATOM     14 CL   UNL d   1      -2.249   0.274   0.572  0.00  0.00    -0.083 Cl
ENDBRANCH   3   6
ENDBRANCH   1   3
BRANCH   1  15
ATOM     15  N   UNL d   1       0.935   1.022  -2.399  0.00  0.00    -0.256 N 
ATOM     16  C   UNL d   1       0.672   0.828  -3.741  0.00  0.00     0.272 C 
ATOM     17  O   UNL d   1       0.028  -0.138  -4.145  0.00  0.00    -0.266 OA
ATOM     18  H   UNL d   1       1.557   1.733  -2.027  0.00  0.00     0.191 HD
BRANCH  16  19
ATOM     19  C   UNL d   1       1.207   1.837  -4.691  0.00  0.00     0.049 A 
ATOM     20  C   UNL d   1       1.111   1.576  -6.054  0.00  0.00     0.104 A 
ATOM     21  N   UNL d   1       1.520   2.434  -7.023  0.00  0.00    -0.374 N 
ATOM     22  C   UNL d   1       2.043   3.609  -6.616  0.00  0.00     0.087 A 
ATOM     23  HN  UNL d   1       1.435   2.201  -8.013  1.00  0.00     0.164 HD
ATOM     24  C   UNL d   1       2.190   3.960  -5.285  0.00  0.00     0.018 A 
ATOM     25  C   UNL d   1       1.766   3.060  -4.306  0.00  0.00     0.020 A 
ENDBRANCH  16  19
ENDBRANCH   1  15
TORSDOF 4
