REMARK  6 active torsions:
REMARK  status: ('A' for Active; 'I' for Inactive)
REMARK    1  A    between atoms: C_5  and  S_1 
REMARK    2  A    between atoms: N_9  and  S_1 
REMARK    3  A    between atoms: S_2  and  C_13 
REMARK    4  A    between atoms: N_3  and  S_2 
REMARK    5  A    between atoms: C_4  and  N_3 
REMARK    6  A    between atoms: C_22  and  N_9 
ROOT
ATOM      1  C   UNL d   1       1.294  -2.700   4.738  0.00  0.00     0.075 A 
ATOM      2  C   UNL d   1       0.853  -0.841   2.719  0.00  0.00     0.042 A 
ATOM      3  C   UNL d   1       0.074  -2.022   4.681  0.00  0.00     0.027 A 
ATOM      4  C   UNL d   1       2.312  -2.416   3.820  0.00  0.00     0.027 A 
ATOM      5  C   UNL d   1       2.086  -1.486   2.804  0.00  0.00     0.031 A 
ATOM      6  C   UNL d   1      -0.139  -1.082   3.671  0.00  0.00     0.031 A 
ENDROOT
BRANCH   2   7
ATOM      7  N   UNL d   1       0.603   0.047   1.648  0.00  0.00    -0.281 N 
ATOM      8  H   UNL d   1       0.393   1.022   1.852  0.00  0.00     0.179 HD
BRANCH   7   9
ATOM      9  S   UNL d   1      -0.059  -0.511   0.201  0.00  0.00     0.263 S 
ATOM     10  O   UNL d   1      -0.420   0.687  -0.533  0.00  0.00    -0.200 OA
ATOM     11  O   UNL d   1       0.824  -1.485  -0.398  0.00  0.00    -0.200 OA
BRANCH   9  12
ATOM     12  C   UNL d   1      -1.594  -1.312   0.691  0.00  0.00     0.086 A 
ATOM     13  C   UNL d   1      -2.747  -0.495   0.705  0.00  0.00     0.034 A 
ATOM     14  C   UNL d   1      -4.005  -0.999   1.078  0.00  0.00    -0.039 A 
ATOM     15  C   UNL d   1      -5.183  -0.069   1.169  0.00  0.00     0.050 C 
ATOM     16  C   UNL d   1      -4.104  -2.353   1.410  0.00  0.00     0.040 A 
ATOM     17  C   UNL d   1      -2.973  -3.174   1.372  0.00  0.00     0.032 A 
ATOM     18 CL   UNL d   1      -5.599  -3.062   1.904  0.00  0.00    -0.084 Cl
ATOM     19  C   UNL d   1      -1.699  -2.674   1.029  0.00  0.00    -0.037 A 
ATOM     20  C   UNL d   1      -0.574  -3.668   1.103  0.00  0.00     0.050 C 
ENDBRANCH   9  12
ENDBRANCH   7   9
ENDBRANCH   2   7
BRANCH   1  21
ATOM     21  S   UNL d   1       1.577  -4.002   5.911  0.00  0.00     0.247 S 
ATOM     22  O   UNL d   1       1.788  -5.209   5.144  0.00  0.00    -0.205 OA
ATOM     23  O   UNL d   1       2.556  -3.532   6.866  0.00  0.00    -0.205 OA
BRANCH  21  24
ATOM     24  N   UNL d   1       0.071  -4.238   6.657  0.00  0.00    -0.165 NA
ATOM     25  H   UNL d   1      -0.221  -5.174   6.372  0.00  0.00     0.147 HD
BRANCH  24  26
ATOM     26  C   UNL d   1       0.024  -4.033   8.033  0.00  0.00     0.117 A 
ATOM     27  N   UNL d   1      -0.246  -2.843   8.570  0.00  0.00    -0.249 N 
ATOM     28  O   UNL d   1      -0.226  -3.045   9.942  0.00  0.00    -0.241 OA
ATOM     29  HN  UNL d   1      -0.428  -1.969   8.077  1.00  0.00     0.196 HD
ATOM     30  C   UNL d   1       0.042  -4.354  10.201  0.00  0.00     0.075 A 
ATOM     31  C   UNL d   1       0.178  -5.029   9.013  0.00  0.00     0.079 A 
ATOM     32  C   UNL d   1       0.130  -4.742  11.619  0.00  0.00     0.079 C 
ENDBRANCH  24  26
ENDBRANCH  21  24
ENDBRANCH   1  21
TORSDOF 6
