REMARK  3 active torsions:
REMARK  status: ('A' for Active; 'I' for Inactive)
REMARK    1  A    between atoms: N_3  and  C_1 
REMARK    2  A    between atoms: C_2  and  N_3 
REMARK    3  A    between atoms: O_14  and  C_10 
ROOT
ATOM      1  C   UNL d   1       1.252  -3.190   0.255  0.00  0.00     0.054 A 
ATOM      2  C   UNL d   1       1.664  -4.171  -0.663  0.00  0.00     0.067 A 
ATOM      3  C   UNL d   1       2.123  -2.879   1.316  0.00  0.00     0.037 A 
ATOM      4  C   UNL d   1       3.362  -3.511   1.443  0.00  0.00     0.024 A 
ATOM      5  C   UNL d   1       2.900  -4.812  -0.544  0.00  0.00     0.070 A 
ATOM      6 BR   UNL d   1       1.657  -1.568   2.614  0.00  0.00    -0.049 Br
ATOM      7  C   UNL d   1       3.747  -4.472   0.509  0.00  0.00     0.038 A 
ENDROOT
BRANCH   1   8
ATOM      8  N   UNL d   1       0.033  -2.498   0.103  0.00  0.00    -0.336 N 
ATOM      9  H   UNL d   1      -0.254  -1.954   0.907  0.00  0.00     0.168 HD
BRANCH   8  10
ATOM     10  C   UNL d   1      -0.650  -2.258  -1.051  0.00  0.00     0.140 C 
ATOM     11  N   UNL d   1      -0.373  -2.615  -2.258  0.00  0.00    -0.370 N 
ATOM     12  C   UNL d   1      -1.351  -2.044  -3.199  0.00  0.00     0.132 C 
ATOM     13  HN  UNL d   1       0.413  -3.209  -2.523  1.00  0.00     0.161 HD
ATOM     14  C   UNL d   1      -2.668  -1.819  -2.485  0.00  0.00     0.102 C 
ATOM     15  S   UNL d   1      -2.125  -1.327  -0.839  0.00  0.00    -0.093 SA
ENDBRANCH   8  10
ENDBRANCH   1   8
BRANCH   5  16
ATOM     16  O   UNL d   1       3.384  -5.776  -1.387  0.00  0.00    -0.356 OA
ATOM     17  C   UNL d   1       2.554  -6.141  -2.484  0.00  0.00     0.210 C 
ENDBRANCH   5  16
TORSDOF 3
