REMARK  8 active torsions:
REMARK  status: ('A' for Active; 'I' for Inactive)
REMARK    1  A    between atoms: O_5  and  N_1 
REMARK    2  A    between atoms: C_6  and  C_3 
REMARK    3  A    between atoms: N_13  and  C_3 
REMARK    4  A    between atoms: C_4  and  O_5 
REMARK    5  A    between atoms: C_7  and  C_4 
REMARK    6  A    between atoms: C_8  and  C_7 
REMARK    7  A    between atoms: C_18  and  C_15 
REMARK    8  A    between atoms: C_23  and  C_18 
ROOT
ATOM      1  C   UNL d   1       0.849  -0.660  -2.033  0.00  0.00     0.289 C 
ATOM      2  O   UNL d   1       0.232   0.024  -1.228  0.00  0.00    -0.262 OA
ENDROOT
BRANCH   1   3
ATOM      3  O   UNL d   1       0.289  -1.562  -2.916  0.00  0.00    -0.198 OA
BRANCH   3   4
ATOM      4  N   UNL d   1      -0.636  -2.372  -2.216  0.00  0.00    -0.246 N 
ATOM      5  C   UNL d   1      -1.305  -3.154  -3.010  0.00  0.00     0.109 C 
ATOM      6  HN  UNL d   1      -0.763  -2.345  -1.204  1.00  0.00     0.196 HD
BRANCH   5   7
ATOM      7  C   UNL d   1      -2.188  -4.188  -2.380  0.00  0.00     0.005 A 
ATOM      8  C   UNL d   1      -2.396  -5.418  -3.018  0.00  0.00     0.038 A 
ATOM      9  C   UNL d   1      -3.193  -6.387  -2.404  0.00  0.00     0.035 A 
ATOM     10 CL   UNL d   1      -3.438  -7.905  -3.179  0.00  0.00    -0.084 Cl
ATOM     11  C   UNL d   1      -3.787  -6.141  -1.168  0.00  0.00     0.024 A 
ATOM     12  C   UNL d   1      -3.578  -4.917  -0.530  0.00  0.00     0.003 A 
ATOM     13  C   UNL d   1      -2.774  -3.944  -1.132  0.00  0.00     0.015 A 
ENDBRANCH   5   7
BRANCH   5  14
ATOM     14  N   UNL d   1      -1.255  -3.095  -4.386  0.00  0.00    -0.286 NA
ATOM     15  H   UNL d   1      -0.894  -2.206  -4.720  0.00  0.00     0.125 HD
ATOM     16  H   UNL d   1      -2.114  -3.347  -4.861  0.00  0.00     0.125 HD
ENDBRANCH   5  14
ENDBRANCH   3   4
ENDBRANCH   1   3
BRANCH   1  17
ATOM     17  C   UNL d   1       2.367  -0.648  -2.212  0.00  0.00     0.116 C 
ATOM     18  C   UNL d   1       3.097  -0.494  -0.872  0.00  0.00     0.025 C 
BRANCH  17  19
ATOM     19  C   UNL d   1       2.855   0.389  -3.205  0.00  0.00    -0.045 A 
ATOM     20  C   UNL d   1       2.518   1.745  -3.092  0.00  0.00     0.008 A 
ATOM     21  C   UNL d   1       3.018   2.682  -4.003  0.00  0.00     0.007 A 
ATOM     22  C   UNL d   1       3.877   2.287  -5.037  0.00  0.00    -0.058 A 
ATOM     23  C   UNL d   1       4.229   0.937  -5.137  0.00  0.00     0.007 A 
ATOM     24  C   UNL d   1       3.722  -0.001  -4.236  0.00  0.00     0.008 A 
BRANCH  22  25
ATOM     25  C   UNL d   1       4.452   3.308  -5.995  0.00  0.00     0.042 C 
BRANCH  25  26
ATOM     26  C   UNL d   1       4.155   3.042  -7.486  0.00  0.00    -0.019 C 
ATOM     27  C   UNL d   1       2.657   3.078  -7.795  0.00  0.00     0.010 C 
ATOM     28  C   UNL d   1       4.880   4.073  -8.355  0.00  0.00     0.010 C 
ENDBRANCH  25  26
ENDBRANCH  22  25
ENDBRANCH  17  19
ENDBRANCH   1  17
TORSDOF 8
