REMARK  2 active torsions:
REMARK  status: ('A' for Active; 'I' for Inactive)
REMARK    1  A    between atoms: C_4  and  C_1 
REMARK    2  A    between atoms: C_14  and  C_6 
ROOT
ATOM      1  C   UNL d   1      -3.730  -0.033   0.005  0.00  0.00     0.089 C 
ATOM      2  C   UNL d   1      -4.441   1.127  -0.005  0.00  0.00     0.038 C 
ATOM      3  C   UNL d   1      -2.251  -0.015  -0.003  0.00  0.00     0.103 C 
ATOM      4  N   UNL d   1      -1.090   0.001  -0.010  0.00  0.00    -0.191 NA
ENDROOT
BRANCH   1   5
ATOM      5  C   UNL d   1      -4.518  -1.250   0.010  0.00  0.00     0.127 A 
ATOM      6  N   UNL d   1      -5.835  -1.427   0.011  0.00  0.00    -0.339 N 
ATOM      7  C   UNL d   1      -6.042  -2.787  -0.005  0.00  0.00     0.060 A 
ATOM      8  HN  UNL d   1      -6.550  -0.699   0.023  1.00  0.00     0.167 HD
ATOM      9  C   UNL d   1      -7.242  -3.512  -0.018  0.00  0.00     0.032 A 
ATOM     10  C   UNL d   1      -4.832  -3.467  -0.014  0.00  0.00     0.060 A 
ATOM     11  C   UNL d   1      -7.178  -4.910  -0.041  0.00  0.00     0.002 A 
ATOM     12  C   UNL d   1      -5.946  -5.570  -0.051  0.00  0.00     0.002 A 
ATOM     13  C   UNL d   1      -4.739  -4.860  -0.036  0.00  0.00     0.032 A 
ATOM     14  N   UNL d   1      -3.884  -2.476   0.001  0.00  0.00    -0.339 N 
ATOM     15  H   UNL d   1      -2.885  -2.628  -0.001  0.00  0.00     0.167 HD
ENDBRANCH   1   5
BRANCH   2  16
ATOM     16  C   UNL d   1      -3.802   2.449  -0.028  0.00  0.00    -0.032 A 
ATOM     17  C   UNL d   1      -3.465   3.090   1.173  0.00  0.00     0.051 A 
ATOM     18  C   UNL d   1      -2.799   4.297   1.097  0.00  0.00     0.105 A 
ATOM     19  O   UNL d   1      -2.384   5.044   2.156  0.00  0.00    -0.323 OA
ATOM     20  C   UNL d   1      -2.473   4.872  -0.108  0.00  0.00     0.105 A 
ATOM     21  C   UNL d   1      -1.729   6.137   1.478  0.00  0.00     0.352 A 
ATOM     22  O   UNL d   1      -1.810   6.050   0.040  0.00  0.00    -0.323 OA
ATOM     23  C   UNL d   1      -2.799   4.277  -1.307  0.00  0.00     0.040 A 
ATOM     24  C   UNL d   1      -3.471   3.050  -1.263  0.00  0.00     0.014 A 
ENDBRANCH   2  16
TORSDOF 2
