REMARK  3 active torsions:
REMARK  status: ('A' for Active; 'I' for Inactive)
REMARK    1  A    between atoms: N_9  and  C_3 
REMARK    2  A    between atoms: N_13  and  C_6 
REMARK    3  A    between atoms: C_11  and  N_9 
ROOT
ATOM      1  N   UNL d   1      -0.121  -1.138  -0.547  0.00  0.00    -0.166 N 
ATOM      2  HN  UNL d   1      -0.576  -2.002  -0.842  1.00  0.00     0.187 HD
ATOM      3  C   UNL d   1      -0.816  -0.099  -0.089  0.00  0.00     0.685 A 
ATOM      4  N   UNL d   1      -0.263   1.037   0.323  0.00  0.00    -0.188 N 
ATOM      5  HN  UNL d   1      -0.813   1.837   0.636  1.00  0.00     0.185 HD
ATOM      6  C   UNL d   1       1.190  -0.987  -0.601  0.00  0.00     0.170 A 
ATOM      7  N   UNL d   1       1.848   0.070  -0.151  0.00  0.00    -0.328 N 
ATOM      8  HN  UNL d   1       2.866   0.129  -0.147  1.00  0.00     0.169 HD
ATOM      9  C   UNL d   1       1.066   1.045   0.293  0.00  0.00     0.200 A 
ENDROOT
BRANCH   3  10
ATOM     10  N   UNL d   1      -2.204  -0.161  -0.065  0.00  0.00    -0.190 N 
ATOM     11  H   UNL d   1      -2.629   0.747   0.055  0.00  0.00     0.184 HD
BRANCH  10  12
ATOM     12  C   UNL d   1      -3.056  -1.267   0.102  0.00  0.00     0.070 A 
ATOM     13  C   UNL d   1      -4.370  -1.253  -0.401  0.00  0.00     0.061 A 
ATOM     14 CL   UNL d   1      -4.994   0.141  -1.217  0.00  0.00    -0.082 Cl
ATOM     15  C   UNL d   1      -5.207  -2.367  -0.270  0.00  0.00     0.026 A 
ATOM     16  C   UNL d   1      -4.747  -3.514   0.376  0.00  0.00     0.002 A 
ATOM     17  C   UNL d   1      -3.450  -3.550   0.878  0.00  0.00     0.002 A 
ATOM     18  C   UNL d   1      -2.611  -2.443   0.727  0.00  0.00     0.032 A 
ENDBRANCH  10  12
ENDBRANCH   3  10
BRANCH   6  19
ATOM     19  N   UNL d   1       1.923  -2.021  -1.143  0.00  0.00    -0.273 NA
ATOM     20  H   UNL d   1       1.389  -2.878  -1.140  0.00  0.00     0.127 HD
ATOM     21  H   UNL d   1       2.861  -2.039  -0.773  0.00  0.00     0.127 HD
ENDBRANCH   6  19
TORSDOF 3
