REMARK  3 active torsions:
REMARK  status: ('A' for Active; 'I' for Inactive)
REMARK    1  A    between atoms: C_3  and  C_1 
REMARK    2  A    between atoms: C_2  and  C_3 
REMARK    3  A    between atoms: N_10  and  C_5 
ROOT
ATOM      1  C   UNL d   1       0.244  -1.140   0.656  0.00  0.00     0.049 C 
ATOM      2  S   UNL d   1       0.836  -2.724   0.548  0.00  0.00    -0.079 SA
ENDROOT
BRANCH   1   3
ATOM      3  C   UNL d   1      -1.039  -0.945   1.343  0.00  0.00     0.026 A 
ATOM      4  S   UNL d   1      -1.363   0.532   2.176  0.00  0.00    -0.101 SA
ATOM      5  C   UNL d   1      -2.899  -0.000   2.699  0.00  0.00     0.050 A 
ATOM      6  C   UNL d   1      -3.179  -1.272   2.261  0.00  0.00     0.008 A 
ATOM      7  C   UNL d   1      -2.112  -1.815   1.487  0.00  0.00     0.021 A 
ENDBRANCH   1   3
BRANCH   1   8
ATOM      8  C   UNL d   1       0.931   0.058   0.055  0.00  0.00     0.041 C 
ATOM      9  C   UNL d   1       2.255   0.157  -0.129  0.00  0.00     0.086 C 
BRANCH   9  10
ATOM     10  N   UNL d   1       3.001   1.202  -0.661  0.00  0.00    -0.398 N 
ATOM     11  C   UNL d   1       2.436   2.439  -1.198  0.00  0.00     0.148 C 
ATOM     12  C   UNL d   1       4.458   1.117  -0.784  0.00  0.00     0.148 C 
ENDBRANCH   9  10
ENDBRANCH   1   8
TORSDOF 3
