REMARK  4 active torsions:
REMARK  status: ('A' for Active; 'I' for Inactive)
REMARK    1  A    between atoms: C_9  and  C_5 
REMARK    2  A    between atoms: N_7  and  C_10 
REMARK    3  A    between atoms: N_8  and  C_14 
REMARK       I    between atoms: N_15  and  C_9 
REMARK    4  A    between atoms: C_24  and  N_15 
ROOT
ATOM      1  C   UNL d   1      -0.505   0.724  -0.016  0.00  0.00     0.005 A 
ATOM      2  C   UNL d   1      -0.974  -0.590   0.171  0.00  0.00     0.029 A 
ATOM      3  C   UNL d   1       1.377  -0.652  -0.089  0.00  0.00     0.028 A 
ATOM      4  C   UNL d   1       0.942   0.687  -0.168  0.00  0.00    -0.010 A 
ATOM      5  C   UNL d   1      -1.442   1.746  -0.080  0.00  0.00     0.046 A 
ATOM      6  C   UNL d   1       0.190  -1.496   0.143  0.00  0.00     0.194 A 
ATOM      7  C   UNL d   1      -3.235   0.111   0.206  0.00  0.00     0.104 A 
ATOM      8  C   UNL d   1      -2.311  -0.935   0.285  0.00  0.00     0.052 A 
ATOM      9  C   UNL d   1      -2.813   1.446   0.033  0.00  0.00     0.054 A 
ATOM     10  C   UNL d   1       2.693  -1.050  -0.230  0.00  0.00     0.052 A 
ATOM     11  C   UNL d   1       3.625  -0.034  -0.459  0.00  0.00     0.103 A 
ATOM     12  C   UNL d   1       1.879   1.685  -0.381  0.00  0.00     0.016 A 
ATOM     13  O   UNL d   1       0.169  -2.699   0.279  0.00  0.00    -0.287 OA
ATOM     14  C   UNL d   1       3.228   1.322  -0.527  0.00  0.00     0.037 A 
ENDROOT
BRANCH   5  15
ATOM     15  C   UNL d   1      -1.077   3.110  -0.479  0.00  0.00     0.257 C 
ATOM     16  N   UNL d   1      -0.943   4.008   0.557  0.00  0.00    -0.323 N 
ATOM     17  H   UNL d   1      -1.003   3.653   1.505  0.00  0.00     0.169 HD
ATOM     18  O   UNL d   1      -0.953   3.304  -1.681  0.00  0.00    -0.267 OA
BRANCH  16  19
ATOM     19  C   UNL d   1      -0.818   5.411   0.430  0.00  0.00     0.035 A 
ATOM     20  C   UNL d   1      -0.754   6.167   1.608  0.00  0.00     0.029 A 
ATOM     21  C   UNL d   1      -0.728   7.565   1.555  0.00  0.00     0.002 A 
ATOM     22  C   UNL d   1      -0.756   8.219   0.327  0.00  0.00     0.000 A 
ATOM     23  C   UNL d   1      -0.788   7.476  -0.849  0.00  0.00     0.002 A 
ATOM     24  C   UNL d   1      -0.813   6.079  -0.797  0.00  0.00     0.029 A 
ENDBRANCH  16  19
ENDBRANCH   5  15
BRANCH   7  25
ATOM     25  N   UNL d   1      -4.672  -0.192   0.248  0.00  0.00    -0.116 N 
ATOM     26  O   UNL d   1      -5.010  -1.380   0.184  0.00  0.00    -0.532 OA
ATOM     27  O   UNL d   1      -5.452   0.764   0.348  0.00  0.00    -0.532 OA
ENDBRANCH   7  25
BRANCH  11  28
ATOM     28  N   UNL d   1       5.040  -0.383  -0.643  0.00  0.00    -0.116 N 
ATOM     29  O   UNL d   1       5.376  -1.554  -0.419  0.00  0.00    -0.532 OA
ATOM     30  O   UNL d   1       5.810   0.516  -1.007  0.00  0.00    -0.532 OA
ENDBRANCH  11  28
TORSDOF 4
