REMARK  5 active torsions:
REMARK  status: ('A' for Active; 'I' for Inactive)
REMARK    1  A    between atoms: S_7  and  C_1 
REMARK    2  A    between atoms: C_16  and  N_2 
REMARK    3  A    between atoms: C_8  and  S_7 
REMARK    4  A    between atoms: C_17  and  C_8 
REMARK    5  A    between atoms: C_15  and  C_10 
ROOT
ATOM      1  C   UNL d   1       2.929  -1.728   2.506  0.00  0.00     0.124 C 
ATOM      2  N   UNL d   1       4.929  -3.206   3.215  0.00  0.00    -0.191 NA
ATOM      3  N   UNL d   1       2.778   0.688   3.413  0.00  0.00    -0.191 NA
ATOM      4  C   UNL d   1       4.029  -2.536   2.906  0.00  0.00     0.110 C 
ATOM      5  C   UNL d   1       2.862  -0.395   3.002  0.00  0.00     0.110 C 
ATOM      6  C   UNL d   1       1.955  -2.173   1.681  0.00  0.00     0.035 C 
ENDROOT
BRANCH   6   7
ATOM      7  C   UNL d   1       1.814  -3.530   1.179  0.00  0.00     0.022 C 
ATOM      8  C   UNL d   1       0.954  -3.971   0.241  0.00  0.00     0.018 C 
BRANCH   8   9
ATOM      9  S   UNL d   1      -0.019  -2.952  -0.763  0.00  0.00    -0.051 SA
BRANCH   9  10
ATOM     10  C   UNL d   1      -1.626  -3.418  -0.304  0.00  0.00     0.182 A 
ATOM     11  N   UNL d   1      -2.736  -3.430  -1.147  0.00  0.00    -0.219 N 
ATOM     12  N   UNL d   1      -3.752  -4.015  -0.455  0.00  0.00     0.001 NA
ATOM     13  N   UNL d   1      -3.294  -4.242   0.766  0.00  0.00    -0.006 NA
ATOM     14  N   UNL d   1      -1.982  -3.875   0.878  0.00  0.00    -0.264 N 
ATOM     15  HN  UNL d   1      -1.397  -3.941   1.711  1.00  0.00     0.186 HD
BRANCH  11  16
ATOM     16  C   UNL d   1      -2.928  -3.016  -2.496  0.00  0.00     0.056 A 
ATOM     17  C   UNL d   1      -3.981  -3.578  -3.238  0.00  0.00     0.031 A 
ATOM     18  C   UNL d   1      -4.110  -3.299  -4.603  0.00  0.00     0.002 A 
ATOM     19  C   UNL d   1      -3.216  -2.434  -5.228  0.00  0.00     0.000 A 
ATOM     20  C   UNL d   1      -2.223  -1.808  -4.481  0.00  0.00     0.002 A 
ATOM     21  C   UNL d   1      -2.087  -2.085  -3.118  0.00  0.00     0.031 A 
ENDBRANCH  11  16
ENDBRANCH   9  10
ENDBRANCH   8   9
BRANCH   8  22
ATOM     22  C   UNL d   1       0.999  -5.409  -0.092  0.00  0.00    -0.019 A 
ATOM     23  C   UNL d   1       0.258  -6.326   0.667  0.00  0.00     0.013 A 
ATOM     24  C   UNL d   1       0.371  -7.697   0.432  0.00  0.00     0.001 A 
ATOM     25  C   UNL d   1       1.237  -8.166  -0.555  0.00  0.00     0.000 A 
ATOM     26  C   UNL d   1       1.986  -7.264  -1.310  0.00  0.00     0.001 A 
ATOM     27  C   UNL d   1       1.868  -5.891  -1.081  0.00  0.00     0.013 A 
ENDBRANCH   8  22
ENDBRANCH   6   7
TORSDOF 5
