REMARK  3 active torsions:
REMARK  status: ('A' for Active; 'I' for Inactive)
REMARK    1  A    between atoms: C_2  and  N_1 
REMARK    2  A    between atoms: C_3  and  C_5 
REMARK    3  A    between atoms: S_14  and  C_6 
ROOT
ATOM      1  C   UNL d   1       0.266   0.602   1.058  0.00  0.00     0.120 A 
ATOM      2  C   UNL d   1       0.647   1.828   1.636  0.00  0.00     0.053 A 
ATOM      3  C   UNL d   1      -0.123   2.388   2.664  0.00  0.00     0.050 A 
ATOM      4  C   UNL d   1      -0.860  -0.109   1.495  0.00  0.00     0.033 A 
ATOM      5  C   UNL d   1      -1.263   1.695   3.098  0.00  0.00     0.017 A 
ATOM      6  C   UNL d   1      -1.623   0.469   2.522  0.00  0.00     0.022 A 
ENDROOT
BRANCH   3   7
ATOM      7  C   UNL d   1       0.237   3.716   3.289  0.00  0.00     0.417 C 
ATOM      8  F   UNL d   1       1.370   4.266   2.772  0.00  0.00    -0.166 F 
ATOM      9  F   UNL d   1      -0.742   4.646   3.126  0.00  0.00    -0.166 F 
ATOM     10  F   UNL d   1       0.445   3.617   4.630  0.00  0.00    -0.166 F 
ENDBRANCH   3   7
BRANCH   1  11
ATOM     11  N   UNL d   1       1.081   0.120  -0.039  0.00  0.00    -0.114 N 
ATOM     12  O   UNL d   1       2.273  -0.100   0.211  0.00  0.00    -0.532 OA
ATOM     13  O   UNL d   1       0.545   0.012  -1.149  0.00  0.00    -0.532 OA
ENDBRANCH   1  11
BRANCH   4  14
ATOM     14  S   UNL d   1      -1.469  -1.664   0.854  0.00  0.00    -0.132 SA
ATOM     15  C   UNL d   1      -0.088  -2.772   1.247  0.00  0.00     0.095 C 
ENDBRANCH   4  14
TORSDOF 3
