REMARK  2 active torsions:
REMARK  status: ('A' for Active; 'I' for Inactive)
REMARK    1  A    between atoms: C_11  and  C_1 
REMARK    2  A    between atoms: O_19  and  C_3 
ROOT
ATOM      1  N   UNL d   2      -0.679   1.193   0.001  0.00  0.00    -0.375 N 
ATOM      2  HN  UNL d   2      -1.278   2.017   0.048  1.00  0.00     0.164 HD
ATOM      3  C   UNL d   2      -1.255  -0.644   0.341  0.00  0.00     0.087 C 
ATOM      4  C   UNL d   2       1.221   1.204  -0.443  0.00  0.00     0.087 C 
ATOM      5  C   UNL d   2      -0.138  -2.098   0.460  0.00  0.00     0.017 C 
ATOM      6  C   UNL d   2       2.366  -0.233  -0.267  0.00  0.00     0.017 C 
ATOM      7  C   UNL d   2       1.688  -1.906   0.210  0.00  0.00     0.003 C 
ENDROOT
TORSDOF 2
