REMARK  3 active torsions:
REMARK  status: ('A' for Active; 'I' for Inactive)
REMARK       I    between atoms: N_2  and  C_1 
REMARK    1  A    between atoms: C_9  and  C_1 
REMARK    2  A    between atoms: C_5  and  N_2 
REMARK    3  A    between atoms: C_6  and  C_4 
ROOT
ATOM      1  C   UNL d   1       2.041   3.111   4.100  0.00  0.00    -0.026 A 
ATOM      2  C   UNL d   1       0.693   1.632   2.062  0.00  0.00     0.034 A 
ATOM      3  C   UNL d   1       2.351   3.285   2.741  0.00  0.00     0.014 A 
ATOM      4  C   UNL d   1       1.017   2.196   4.400  0.00  0.00     0.014 A 
ATOM      5  C   UNL d   1       0.358   1.467   3.402  0.00  0.00     0.030 A 
ATOM      6  C   UNL d   1       1.690   2.557   1.737  0.00  0.00     0.030 A 
ENDROOT
BRANCH   2   7
ATOM      7  N   UNL d   1       0.109   0.888   1.012  0.00  0.00    -0.327 N 
ATOM      8  C   UNL d   1      -0.958   0.009   1.111  0.00  0.00     0.225 C 
ATOM      9  O   UNL d   1      -1.631  -0.184   2.122  0.00  0.00    -0.273 OA
ATOM     10  H   UNL d   1       0.514   1.027   0.097  0.00  0.00     0.169 HD
BRANCH   8  11
ATOM     11  C   UNL d   1      -1.229  -0.780  -0.178  0.00  0.00     0.070 C 
ATOM     12  C   UNL d   1      -2.392  -1.754   0.033  0.00  0.00     0.019 C 
ATOM     13  C   UNL d   1      -1.531   0.132  -1.365  0.00  0.00     0.019 C 
ENDBRANCH   8  11
ENDBRANCH   2   7
BRANCH   1  14
ATOM     14  C   UNL d   1       2.756   3.829   5.179  0.00  0.00    -0.026 A 
ATOM     15  C   UNL d   1       3.174   5.164   5.035  0.00  0.00     0.012 A 
ATOM     16  C   UNL d   1       3.835   5.836   6.071  0.00  0.00     0.001 A 
ATOM     17  C   UNL d   1       4.088   5.189   7.278  0.00  0.00     0.000 A 
ATOM     18  C   UNL d   1       3.691   3.868   7.446  0.00  0.00     0.001 A 
ATOM     19  C   UNL d   1       3.041   3.197   6.406  0.00  0.00     0.012 A 
ENDBRANCH   1  14
TORSDOF 3
