REMARK  10 active torsions:
REMARK  status: ('A' for Active; 'I' for Inactive)
REMARK    1  A    between atoms: C_5  and  C_1 
REMARK    2  A    between atoms: C_6  and  C_2 
REMARK    3  A    between atoms: C_9  and  C_2 
REMARK    4  A    between atoms: C_3  and  N_8 
REMARK    5  A    between atoms: N_8  and  C_4 
REMARK    6  A    between atoms: O_15  and  C_5 
REMARK    7  A    between atoms: O_16  and  C_6 
REMARK    8  A    between atoms: C_17  and  C_9 
REMARK    9  A    between atoms: C_18  and  O_16 
REMARK   10  A    between atoms: C_20  and  C_17 
ROOT
ATOM      1  C   UNL d   1       4.035   3.557   0.071  0.00  0.00     0.100 C 
ATOM      2  C   UNL d   1       2.876   2.866   0.115  0.00  0.00     0.110 C 
ENDROOT
BRANCH   2   3
ATOM      3  N   UNL d   1       2.567   1.510   0.043  0.00  0.00    -0.364 N 
ATOM      4  H   UNL d   1       3.384   0.913  -0.126  0.00  0.00     0.165 HD
BRANCH   3   5
ATOM      5  C   UNL d   1       1.322   0.936   0.131  0.00  0.00     0.055 A 
ATOM      6  C   UNL d   1       1.030  -0.419   0.013  0.00  0.00     0.106 A 
ATOM      7  S   UNL d   1      -0.678  -0.699   0.167  0.00  0.00    -0.094 SA
ATOM      8  C   UNL d   1      -1.012   0.942   0.412  0.00  0.00     0.053 A 
ATOM      9  C   UNL d   1       0.128   1.702   0.376  0.00  0.00     0.038 A 
BRANCH   6  10
ATOM     10  C   UNL d   1       1.819  -1.627  -0.198  0.00  0.00     0.302 C 
ATOM     11  O   UNL d   1       1.379  -2.771  -0.222  0.00  0.00    -0.259 OA
BRANCH  10  12
ATOM     12  O   UNL d   1       3.149  -1.345  -0.368  0.00  0.00    -0.322 OA
ATOM     13  C   UNL d   1       3.933  -2.532  -0.563  0.00  0.00     0.213 C 
ENDBRANCH  10  12
ENDBRANCH   6  10
ENDBRANCH   3   5
ENDBRANCH   2   3
BRANCH   1  14
ATOM     14  C   UNL d   1       5.367   2.938  -0.047  0.00  0.00     0.298 C 
ATOM     15  O   UNL d   1       6.413   3.520   0.207  0.00  0.00    -0.259 OA
BRANCH  14  16
ATOM     16  O   UNL d   1       5.278   1.646  -0.467  0.00  0.00    -0.318 OA
BRANCH  16  17
ATOM     17  C   UNL d   1       6.528   0.945  -0.536  0.00  0.00     0.174 C 
ATOM     18  C   UNL d   1       6.920   0.464   0.850  0.00  0.00     0.034 C 
ENDBRANCH  16  17
ENDBRANCH  14  16
ENDBRANCH   1  14
BRANCH   1  19
ATOM     19  C   UNL d   1       3.890   5.059   0.197  0.00  0.00     0.167 C 
ATOM     20  O   UNL d   1       2.886   5.547   0.727  0.00  0.00    -0.292 OA
BRANCH  19  21
ATOM     21  C   UNL d   1       4.967   5.980  -0.347  0.00  0.00     0.084 C 
BRANCH  21  22
ATOM     22  C   UNL d   1       5.209   5.807  -1.845  0.00  0.00     0.003 C 
ATOM     23  C   UNL d   1       6.289   6.752  -2.349  0.00  0.00     0.005 C 
ENDBRANCH  21  22
ENDBRANCH  19  21
ENDBRANCH   1  19
TORSDOF 10
