REMARK  3 active torsions:
REMARK  status: ('A' for Active; 'I' for Inactive)
REMARK    1  A    between atoms: S_2  and  C_1 
REMARK    2  A    between atoms: C_7  and  S_2 
REMARK    3  A    between atoms: N_4  and  C_8 
ROOT
ATOM      1  S   UNL d   1      -2.046  -2.751  -0.114  0.00  0.00    -0.033 SA
ENDROOT
BRANCH   1   2
ATOM      2  C   UNL d   1      -1.561  -1.095  -0.273  0.00  0.00     0.157 A 
ATOM      3  N   UNL d   1      -0.241  -0.686  -0.257  0.00  0.00    -0.301 N 
ATOM      4  C   UNL d   1      -0.280   0.703  -0.146  0.00  0.00     0.056 A 
ATOM      5  C   UNL d   1       0.962  -1.397  -0.310  0.00  0.00     0.099 A 
ATOM      6  C   UNL d   1       0.952   1.404  -0.035  0.00  0.00     0.031 A 
ATOM      7  C   UNL d   1      -1.614   1.039  -0.167  0.00  0.00     0.120 A 
ATOM      8  C   UNL d   1       2.109   0.714  -0.074  0.00  0.00     0.004 A 
ATOM      9  C   UNL d   1       2.128  -0.732  -0.232  0.00  0.00     0.018 A 
ATOM     10  N   UNL d   1      -2.402  -0.081  -0.256  0.00  0.00    -0.344 N 
ATOM     11  HN  UNL d   1      -3.421  -0.120  -0.299  1.00  0.00     0.167 HD
ENDBRANCH   1   2
BRANCH   1  12
ATOM     12  C   UNL d   1      -2.207  -3.164  -1.837  0.00  0.00     0.110 A 
ATOM     13  C   UNL d   1      -3.402  -3.502  -2.458  0.00  0.00     0.136 A 
ATOM     14  C   UNL d   1      -3.420  -3.915  -3.795  0.00  0.00     0.040 A 
ATOM     15  C   UNL d   1      -2.217  -3.980  -4.487  0.00  0.00     0.020 A 
ATOM     16  C   UNL d   1      -1.060  -3.621  -3.816  0.00  0.00     0.089 A 
ATOM     17  N   UNL d   1      -1.029  -3.224  -2.520  0.00  0.00    -0.358 N 
ATOM     18  HN  UNL d   1      -0.148  -2.978  -2.069  1.00  0.00     0.166 HD
BRANCH  13  19
ATOM     19  N   UNL d   1      -4.656  -3.470  -1.747  0.00  0.00    -0.113 N 
ATOM     20  O   UNL d   1      -4.798  -4.269  -0.812  0.00  0.00    -0.532 OA
ATOM     21  O   UNL d   1      -5.529  -2.716  -2.192  0.00  0.00    -0.532 OA
ENDBRANCH  13  19
ENDBRANCH   1  12
TORSDOF 3
