REMARK  4 active torsions:
REMARK  status: ('A' for Active; 'I' for Inactive)
REMARK    1  A    between atoms: C_5  and  C_1 
REMARK    2  A    between atoms: N_3  and  C_2 
REMARK       I    between atoms: C_4  and  N_3 
REMARK    3  A    between atoms: C_8  and  C_4 
REMARK    4  A    between atoms: O_15  and  C_5 
ROOT
ATOM      1  C   UNL d   1       2.435   0.200  -0.374  0.00  0.00     0.066 A 
ATOM      2  C   UNL d   1       2.050  -1.079   0.090  0.00  0.00     0.052 A 
ATOM      3  C   UNL d   1       0.692  -1.306   0.374  0.00  0.00     0.054 A 
ATOM      4  C   UNL d   1       1.470   1.226  -0.468  0.00  0.00     0.022 A 
ATOM      5  C   UNL d   1      -0.248  -0.280   0.265  0.00  0.00     0.036 A 
ATOM      6  C   UNL d   1       0.138   0.991  -0.136  0.00  0.00     0.025 A 
ATOM      7 CL   UNL d   1      -1.903  -0.584   0.626  0.00  0.00    -0.084 Cl
ENDROOT
BRANCH   2   8
ATOM      8  N   UNL d   1       3.029  -2.094   0.289  0.00  0.00    -0.322 N 
ATOM      9  C   UNL d   1       2.890  -3.199   1.114  0.00  0.00     0.256 C 
ATOM     10  O   UNL d   1       1.883  -3.489   1.756  0.00  0.00    -0.267 OA
ATOM     11  H   UNL d   1       3.962  -1.862  -0.051  0.00  0.00     0.169 HD
BRANCH   9  12
ATOM     12  C   UNL d   1       4.103  -4.055   1.308  0.00  0.00     0.032 A 
ATOM     13  C   UNL d   1       5.175  -4.087   0.403  0.00  0.00     0.020 A 
ATOM     14  C   UNL d   1       6.291  -4.888   0.671  0.00  0.00     0.043 A 
ATOM     15  C   UNL d   1       6.332  -5.660   1.828  0.00  0.00     0.116 A 
ATOM     16  C   UNL d   1       5.271  -5.660   2.723  0.00  0.00     0.043 A 
ATOM     17  F   UNL d   1       7.408  -6.417   2.079  0.00  0.00    -0.206 F 
ATOM     18  C   UNL d   1       4.156  -4.861   2.462  0.00  0.00     0.020 A 
ENDBRANCH   9  12
ENDBRANCH   2   8
BRANCH   1  19
ATOM     19  C   UNL d   1       3.848   0.496  -0.768  0.00  0.00     0.295 C 
ATOM     20  O   UNL d   1       4.702  -0.351  -0.968  0.00  0.00    -0.259 OA
BRANCH  19  21
ATOM     21  O   UNL d   1       3.998   1.842  -0.875  0.00  0.00    -0.322 OA
ATOM     22  C   UNL d   1       5.214   2.317  -1.446  0.00  0.00     0.213 C 
ENDBRANCH  19  21
ENDBRANCH   1  19
TORSDOF 4
