REMARK  4 active torsions:
REMARK  status: ('A' for Active; 'I' for Inactive)
REMARK       I    between atoms: N_2  and  C_1 
REMARK    1  A    between atoms: C_4  and  N_2 
REMARK    2  A    between atoms: O_10  and  C_5 
REMARK    3  A    between atoms: C_12  and  O_10 
REMARK    4  A    between atoms: C_13  and  C_12 
ROOT
ATOM      1  C   UNL d   1       1.163   1.502  -1.753  0.00  0.00     0.034 A 
ATOM      2  C   UNL d   1       2.385   3.105  -3.725  0.00  0.00     0.068 A 
ATOM      3  C   UNL d   1       2.240   1.014  -2.491  0.00  0.00     0.032 A 
ATOM      4  C   UNL d   1       0.682   2.785  -2.033  0.00  0.00     0.032 A 
ATOM      5  C   UNL d   1       1.288   3.582  -3.010  0.00  0.00     0.039 A 
ATOM      6  C   UNL d   1       2.845   1.812  -3.473  0.00  0.00     0.039 A 
ENDROOT
BRANCH   1   7
ATOM      7  N   UNL d   1       0.512   0.789  -0.726  0.00  0.00    -0.328 N 
ATOM      8  C   UNL d   1       0.868  -0.435  -0.195  0.00  0.00     0.218 C 
ATOM      9  O   UNL d   1       1.837  -1.120  -0.506  0.00  0.00    -0.274 OA
ATOM     10  C   UNL d   1      -0.058  -0.875   0.912  0.00  0.00     0.117 C 
ATOM     11  H   UNL d   1      -0.276   1.258  -0.298  0.00  0.00     0.169 HD
ENDBRANCH   1   7
BRANCH   2  12
ATOM     12  O   UNL d   1       3.079   3.799  -4.681  0.00  0.00    -0.351 OA
BRANCH  12  13
ATOM     13  C   UNL d   1       2.741   5.180  -4.819  0.00  0.00     0.175 C 
BRANCH  13  14
ATOM     14  C   UNL d   1       3.702   5.832  -5.806  0.00  0.00     0.022 C 
ATOM     15  C   UNL d   1       3.368   7.301  -6.003  0.00  0.00     0.007 C 
ENDBRANCH  13  14
ENDBRANCH  12  13
ENDBRANCH   2  12
TORSDOF 4
