REMARK  2 active torsions:
REMARK  status: ('A' for Active; 'I' for Inactive)
REMARK    1  A    between atoms: N_7  and  N_2 
REMARK    2  A    between atoms: C_6  and  N_7 
ROOT
ATOM      1  C   UNL d   1      -0.842   1.005   1.173  0.00  0.00     0.012 C 
ATOM      2  N   UNL d   1      -1.329   1.774   2.100  0.00  0.00    -0.306 N 
ATOM      3  HN  UNL d   1      -0.708   2.211   2.782  1.00  0.00     0.186 HD
ATOM      4  C   UNL d   1      -1.591   0.266   0.069  0.00  0.00     0.034 C 
ATOM      5  C   UNL d   1       0.671   0.786   1.151  0.00  0.00     0.034 C 
ATOM      6  C   UNL d   1       0.491   0.503  -1.348  0.00  0.00    -0.013 C 
ATOM      7  C   UNL d   1       0.224  -1.493   0.170  0.00  0.00    -0.013 C 
ATOM      8  C   UNL d   1      -1.026   0.764  -1.271  0.00  0.00     0.015 C 
ATOM      9  C   UNL d   1      -1.293  -1.232   0.246  0.00  0.00     0.015 C 
ATOM     10  C   UNL d   1       1.188   1.273  -0.209  0.00  0.00     0.015 C 
ATOM     11  C   UNL d   1       0.921  -0.720   1.306  0.00  0.00     0.015 C 
ATOM     12  C   UNL d   1       0.758  -1.003  -1.186  0.00  0.00     0.009 C 
ENDROOT
BRANCH   2  13
ATOM     13  N   UNL d   1      -2.671   1.996   2.155  0.00  0.00    -0.277 N 
ATOM     14  H   UNL d   1      -3.312   1.576   1.493  0.00  0.00     0.189 HD
BRANCH  13  15
ATOM     15  C   UNL d   1      -3.211   2.800   3.122  0.00  0.00     0.184 C 
ATOM     16  S   UNL d   1      -4.840   3.093   3.226  0.00  0.00    -0.040 SA
ATOM     17  N   UNL d   1      -2.328   3.344   3.991  0.00  0.00    -0.375 N 
ATOM     18  H   UNL d   1      -1.351   3.111   3.860  0.00  0.00     0.158 HD
ATOM     19  H   UNL d   1      -2.623   3.950   4.743  0.00  0.00     0.158 HD
ENDBRANCH  13  15
ENDBRANCH   2  13
TORSDOF 2
