REMARK  5 active torsions:
REMARK  status: ('A' for Active; 'I' for Inactive)
REMARK    1  A    between atoms: C_4  and  C_1 
REMARK    2  A    between atoms: C_13  and  C_2 
REMARK    3  A    between atoms: C_8  and  C_10 
REMARK    4  A    between atoms: C_15  and  C_9 
REMARK    5  A    between atoms: O_24  and  C_13 
ROOT
ATOM      1  C   UNL d   1       1.439  -1.436   0.105  0.00  0.00     0.062 A 
ATOM      2  C   UNL d   1      -1.175  -1.543   0.003  0.00  0.00     0.053 A 
ATOM      3  C   UNL d   1       0.098  -0.890   0.035  0.00  0.00     0.023 A 
ATOM      4  N   UNL d   1      -1.181   1.192  -0.007  0.00  0.00    -0.355 N 
ATOM      5  HN  UNL d   1      -1.172   2.212  -0.036  1.00  0.00     0.166 HD
ATOM      6  C   UNL d   1      -0.021   0.521   0.006  0.00  0.00     0.045 A 
ATOM      7  C   UNL d   1      -2.359   0.537   0.018  0.00  0.00     0.044 A 
ATOM      8  C   UNL d   1       2.402   0.818   0.007  0.00  0.00     0.050 A 
ATOM      9  C   UNL d   1       2.554  -0.563   0.068  0.00  0.00     0.033 A 
ATOM     10  C   UNL d   1      -2.388  -0.839   0.015  0.00  0.00     0.049 A 
ATOM     11  C   UNL d   1       1.105   1.328  -0.012  0.00  0.00     0.046 A 
ENDROOT
BRANCH   7  12
ATOM     12  C   UNL d   1      -3.576   1.380   0.013  0.00  0.00    -0.008 A 
ATOM     13  C   UNL d   1      -3.571   2.648  -0.600  0.00  0.00     0.032 A 
ATOM     14  C   UNL d   1      -4.716   3.445  -0.620  0.00  0.00     0.011 A 
ATOM     15 BR   UNL d   1      -4.667   5.141  -1.458  0.00  0.00    -0.051 Br
ATOM     16  C   UNL d   1      -5.896   3.008  -0.024  0.00  0.00     0.019 A 
ATOM     17  C   UNL d   1      -5.924   1.763   0.598  0.00  0.00     0.002 A 
ATOM     18  C   UNL d   1      -4.777   0.962   0.619  0.00  0.00     0.014 A 
ENDBRANCH   7  12
BRANCH   2  19
ATOM     19  C   UNL d   1      -1.369  -2.996  -0.095  0.00  0.00     0.177 C 
ATOM     20  O   UNL d   1      -2.039  -3.678   0.646  0.00  0.00    -0.646 OA
BRANCH  19  21
ATOM     21  O   UNL d   1      -0.799  -3.461  -1.220  0.00  0.00    -0.773 OA
ATOM     22  H   UNL d   1      -0.999  -4.422  -1.207  0.00  0.00     0.167 HD
ENDBRANCH  19  21
ENDBRANCH   2  19
BRANCH   1  23
ATOM     23  C   UNL d   1       1.818  -2.902   0.218  0.00  0.00     0.418 C 
ATOM     24  F   UNL d   1       0.866  -3.737   0.702  0.00  0.00    -0.166 F 
ATOM     25  F   UNL d   1       2.228  -3.420  -0.972  0.00  0.00    -0.166 F 
ATOM     26  F   UNL d   1       2.877  -3.078   1.068  0.00  0.00    -0.166 F 
ENDBRANCH   1  23
BRANCH   8  27
ATOM     27  C   UNL d   1       3.588   1.750  -0.015  0.00  0.00     0.417 C 
ATOM     28  F   UNL d   1       4.783   1.097  -0.048  0.00  0.00    -0.166 F 
ATOM     29  F   UNL d   1       3.583   2.576  -1.095  0.00  0.00    -0.166 F 
ATOM     30  F   UNL d   1       3.633   2.557   1.080  0.00  0.00    -0.166 F 
ENDBRANCH   8  27
TORSDOF 5
