REMARK  2 active torsions:
REMARK  status: ('A' for Active; 'I' for Inactive)
REMARK       I    between atoms: C_3  and  N_1 
REMARK    1  A    between atoms: C_4  and  N_2 
REMARK    2  A    between atoms: O_15  and  C_12 
ROOT
ATOM      1  N   UNL d   1      -1.407   0.015   0.215  0.00  0.00    -0.349 N 
ATOM      2  N   UNL d   1       1.413  -0.089  -0.235  0.00  0.00    -0.378 N 
ATOM      3  C   UNL d   1      -2.558   0.148   0.965  0.00  0.00     0.215 C 
ATOM      4  C   UNL d   1      -0.773  -1.230  -0.246  0.00  0.00     0.145 C 
ATOM      5  C   UNL d   1      -0.677   1.228  -0.192  0.00  0.00     0.145 C 
ATOM      6  C   UNL d   1       0.698  -1.298   0.202  0.00  0.00     0.143 C 
ATOM      7  C   UNL d   1       0.810   1.178   0.222  0.00  0.00     0.143 C 
ATOM      8  O   UNL d   1      -2.985   1.254   1.307  0.00  0.00    -0.274 OA
ATOM      9  C   UNL d   1      -3.326  -1.076   1.397  0.00  0.00     0.117 C 
ENDROOT
BRANCH   2  10
ATOM     10  C   UNL d   1       2.579  -0.139  -0.969  0.00  0.00     0.030 A 
ATOM     11  C   UNL d   1       3.574   0.845  -0.854  0.00  0.00     0.032 A 
ATOM     12  C   UNL d   1       4.755   0.794  -1.605  0.00  0.00     0.039 A 
ATOM     13  C   UNL d   1       4.961  -0.249  -2.493  0.00  0.00     0.065 A 
ATOM     14  C   UNL d   1       4.002  -1.238  -2.643  0.00  0.00     0.039 A 
ATOM     15  C   UNL d   1       2.826  -1.175  -1.886  0.00  0.00     0.032 A 
BRANCH  13  16
ATOM     16  O   UNL d   1       6.122  -0.269  -3.204  0.00  0.00    -0.361 OA
ATOM     17  H   UNL d   1       6.126  -1.060  -3.765  0.00  0.00     0.217 HD
ENDBRANCH  13  16
ENDBRANCH   2  10
TORSDOF 2
