REMARK  4 active torsions:
REMARK  status: ('A' for Active; 'I' for Inactive)
REMARK    1  A    between atoms: C_7  and  N_1 
REMARK    2  A    between atoms: N_13  and  C_4 
REMARK    3  A    between atoms: C_10  and  C_6 
REMARK    4  A    between atoms: O_22  and  C_19 
ROOT
ATOM      1  N   UNL d   1       0.869  -0.735   0.033  0.00  0.00    -0.240 N 
ATOM      2  N   UNL d   1       0.904   0.595   0.316  0.00  0.00    -0.291 N 
ATOM      3  HN  UNL d   1       1.701   1.135   0.653  1.00  0.00     0.187 HD
ATOM      4  C   UNL d   1      -0.441  -1.173  -0.172  0.00  0.00     0.123 C 
ATOM      5  C   UNL d   1      -1.209  -0.039  -0.219  0.00  0.00     0.081 C 
ATOM      6  C   UNL d   1      -0.335   1.044   0.057  0.00  0.00     0.062 C 
ENDROOT
BRANCH   1   7
ATOM      7  C   UNL d   1       2.074  -1.493  -0.002  0.00  0.00     0.060 A 
ATOM      8  C   UNL d   1       2.167  -2.657  -0.780  0.00  0.00     0.057 A 
ATOM      9  C   UNL d   1       3.343  -3.415  -0.773  0.00  0.00     0.058 A 
ATOM     10 CL   UNL d   1       3.385  -4.833  -1.761  0.00  0.00    -0.082 Cl
ATOM     11  C   UNL d   1       4.430  -3.015   0.012  0.00  0.00     0.055 A 
ATOM     12  C   UNL d   1       4.349  -1.835   0.758  0.00  0.00     0.028 A 
ATOM     13 CL   UNL d   1       5.891  -3.932   0.106  0.00  0.00    -0.083 Cl
ATOM     14  C   UNL d   1       3.184  -1.064   0.736  0.00  0.00     0.033 A 
ENDBRANCH   1   7
BRANCH   4  15
ATOM     15  N   UNL d   1      -0.840  -2.471  -0.246  0.00  0.00    -0.384 N 
ATOM     16  H   UNL d   1      -0.276  -3.199   0.191  0.00  0.00     0.157 HD
ATOM     17  H   UNL d   1      -1.833  -2.679  -0.154  0.00  0.00     0.157 HD
ENDBRANCH   4  15
BRANCH   6  18
ATOM     18  C   UNL d   1      -0.678   2.467   0.100  0.00  0.00    -0.008 A 
ATOM     19  C   UNL d   1      -1.768   2.962  -0.633  0.00  0.00     0.016 A 
ATOM     20  C   UNL d   1      -2.099   4.322  -0.605  0.00  0.00     0.037 A 
ATOM     21  C   UNL d   1      -1.343   5.210   0.158  0.00  0.00     0.068 A 
ATOM     22  C   UNL d   1      -0.267   4.725   0.903  0.00  0.00     0.037 A 
ATOM     23  C   UNL d   1       0.072   3.368   0.865  0.00  0.00     0.016 A 
BRANCH  21  24
ATOM     24  O   UNL d   1      -1.583   6.551   0.276  0.00  0.00    -0.356 OA
ATOM     25  C   UNL d   1      -2.231   7.162  -0.835  0.00  0.00     0.210 C 
ENDBRANCH  21  24
ENDBRANCH   6  18
TORSDOF 4
