REMARK  2 active torsions:
REMARK  status: ('A' for Active; 'I' for Inactive)
REMARK    1  A    between atoms: C_6  and  C_1 
REMARK       I    between atoms: N_8  and  C_6 
REMARK    2  A    between atoms: C_14  and  N_8 
ROOT
ATOM      1  C   UNL d   1      -3.831   0.089  -0.792  0.00  0.00     0.272 C 
ATOM      2  N   UNL d   1      -4.404  -0.979  -1.456  0.00  0.00    -0.322 N 
ATOM      3  O   UNL d   1      -4.433   1.102  -0.448  0.00  0.00    -0.266 OA
ATOM      4  H   UNL d   1      -3.781  -1.575  -1.982  0.00  0.00     0.169 HD
ENDROOT
BRANCH   1   5
ATOM      5  C   UNL d   1      -2.406  -0.045  -0.588  0.00  0.00     0.102 A 
ATOM      6  N   UNL d   1      -1.593   1.040  -0.361  0.00  0.00    -0.351 N 
ATOM      7  C   UNL d   1      -0.276   0.662  -0.267  0.00  0.00     0.044 A 
ATOM      8  H   UNL d   1      -1.933   1.994  -0.319  0.00  0.00     0.166 HD
ATOM      9  C   UNL d   1       0.877   1.445  -0.159  0.00  0.00     0.037 A 
ATOM     10  C   UNL d   1      -0.249  -0.733  -0.296  0.00  0.00    -0.001 A 
ATOM     11  C   UNL d   1       2.112   0.786  -0.102  0.00  0.00    -0.059 A 
ATOM     12  C   UNL d   1       3.396   1.565  -0.119  0.00  0.00     0.048 C 
ATOM     13  C   UNL d   1       2.156  -0.614  -0.071  0.00  0.00     0.014 A 
ATOM     14  C   UNL d   1       0.988  -1.402  -0.142  0.00  0.00    -0.049 A 
ATOM     15  C   UNL d   1       1.126  -2.899  -0.094  0.00  0.00     0.049 C 
ATOM     16  C   UNL d   1      -1.591  -1.162  -0.507  0.00  0.00     0.049 A 
ENDBRANCH   1   5
BRANCH   2  17
ATOM     17  C   UNL d   1      -5.779  -1.278  -1.514  0.00  0.00     0.037 A 
ATOM     18  C   UNL d   1      -6.677  -0.829  -0.540  0.00  0.00     0.069 A 
ATOM     19  C   UNL d   1      -7.957  -1.339  -0.564  0.00  0.00     0.107 A 
ATOM     20  O   UNL d   1      -8.921  -1.113   0.371  0.00  0.00    -0.323 OA
ATOM     21  C   UNL d   1      -8.379  -2.205  -1.546  0.00  0.00     0.105 A 
ATOM     22  C   UNL d   1      -9.932  -2.045  -0.059  0.00  0.00     0.352 C 
ATOM     23  O   UNL d   1      -9.658  -2.623  -1.353  0.00  0.00    -0.323 OA
ATOM     24  C   UNL d   1      -7.544  -2.604  -2.564  0.00  0.00     0.042 A 
ATOM     25  C   UNL d   1      -6.219  -2.155  -2.529  0.00  0.00     0.032 A 
ENDBRANCH   2  17
TORSDOF 2
