REMARK  3 active torsions:
REMARK  status: ('A' for Active; 'I' for Inactive)
REMARK    1  A    between atoms: C_9  and  C_6 
REMARK    2  A    between atoms: O_17  and  C_10 
REMARK    3  A    between atoms: O_18  and  C_11 
ROOT
ATOM      1  C   UNL d   1      -1.176  -0.735   0.047  0.00  0.00     0.046 A 
ATOM      2  C   UNL d   1      -1.778   0.653   0.062  0.00  0.00     0.257 A 
ATOM      3  C   UNL d   1       0.288  -0.563   0.039  0.00  0.00     0.009 A 
ATOM      4  N   UNL d   1      -0.690   1.510   0.067  0.00  0.00    -0.322 N 
ATOM      5  C   UNL d   1       0.510   0.811   0.053  0.00  0.00     0.049 A 
ATOM      6  C   UNL d   1      -1.837  -1.900   0.020  0.00  0.00     0.036 C 
ATOM      7  C   UNL d   1       1.363  -1.441   0.001  0.00  0.00     0.054 A 
ATOM      8  C   UNL d   1       1.775   1.357   0.044  0.00  0.00     0.070 A 
ATOM      9  C   UNL d   1       2.676  -0.918  -0.020  0.00  0.00     0.102 A 
ATOM     10  C   UNL d   1       2.876   0.488   0.010  0.00  0.00     0.103 A 
ATOM     11  O   UNL d   1      -2.947   0.982   0.081  0.00  0.00    -0.267 OA
ATOM     12  H   UNL d   1      -0.791   2.513   0.071  0.00  0.00     0.169 HD
ENDROOT
BRANCH   6  13
ATOM     13  C   UNL d   1      -3.255  -1.984  -0.041  0.00  0.00     0.005 A 
ATOM     14  S   UNL d   1      -4.029  -2.188  -1.564  0.00  0.00    -0.102 SA
ATOM     15  C   UNL d   1      -5.583  -2.212  -0.855  0.00  0.00     0.050 A 
ATOM     16  C   UNL d   1      -5.527  -2.093   0.515  0.00  0.00     0.008 A 
ATOM     17  C   UNL d   1      -4.186  -1.962   0.983  0.00  0.00     0.019 A 
ENDBRANCH   6  13
BRANCH   9  18
ATOM     18  O   UNL d   1       3.791  -1.712  -0.076  0.00  0.00    -0.353 OA
ATOM     19  C   UNL d   1       3.634  -3.122  -0.141  0.00  0.00     0.210 C 
ENDBRANCH   9  18
BRANCH  10  20
ATOM     20  O   UNL d   1       4.058   1.187   0.008  0.00  0.00    -0.353 OA
ATOM     21  C   UNL d   1       5.289   0.483  -0.014  0.00  0.00     0.210 C 
ENDBRANCH  10  20
TORSDOF 3
