REMARK  1 active torsions:
REMARK  status: ('A' for Active; 'I' for Inactive)
REMARK    1  A    between atoms: N_4  and  C_1 
ROOT
ATOM      1  C   UNL d   1      -0.687   1.234   0.006  0.00  0.00     0.082 A 
ATOM      2  C   UNL d   1      -1.386   0.008  -0.044  0.00  0.00     0.064 A 
ATOM      3  C   UNL d   1       0.723   1.196   0.057  0.00  0.00     0.064 A 
ATOM      4  C   UNL d   1      -0.692  -1.210  -0.035  0.00  0.00     0.045 A 
ATOM      5  C   UNL d   1       1.405  -0.029   0.046  0.00  0.00     0.045 A 
ATOM      6  C   UNL d   1       0.696  -1.222   0.005  0.00  0.00     0.014 A 
ATOM      7 CL   UNL d   1       1.734   2.587   0.284  0.00  0.00    -0.082 Cl
ATOM      8 CL   UNL d   1      -3.100  -0.136  -0.266  0.00  0.00    -0.082 Cl
ATOM      9 BR   UNL d   1       1.624  -2.868   0.002  0.00  0.00    -0.051 Br
ENDROOT
BRANCH   1  10
ATOM     10  N   UNL d   1      -1.386   2.477   0.004  0.00  0.00    -0.330 N 
ATOM     11  C   UNL d   1      -2.528   2.781   0.721  0.00  0.00     0.097 A 
ATOM     12  C   UNL d   1      -2.903   4.079   0.455  0.00  0.00     0.019 A 
ATOM     13  C   UNL d   1      -1.960   4.607  -0.447  0.00  0.00     0.019 A 
ATOM     14  C   UNL d   1      -1.051   3.609  -0.715  0.00  0.00     0.097 A 
ENDBRANCH   1  10
TORSDOF 1
