REMARK  6 active torsions:
REMARK  status: ('A' for Active; 'I' for Inactive)
REMARK    1  A    between atoms: N_5  and  C_1 
REMARK    2  A    between atoms: C_2  and  O_11 
REMARK    3  A    between atoms: C_3  and  C_2 
REMARK    4  A    between atoms: C_4  and  C_12 
REMARK    5  A    between atoms: N_9  and  N_5 
REMARK    6  A    between atoms: O_11  and  C_6 
ROOT
ATOM      1  C   UNL d   1       1.116   6.237  -0.439  0.00  0.00     0.024 A 
ATOM      2  C   UNL d   1       1.589   6.786   0.768  0.00  0.00     0.091 A 
ATOM      3  C   UNL d   1       2.063   5.772  -1.373  0.00  0.00     0.058 A 
ATOM      4  C   UNL d   1       2.972   6.950   0.968  0.00  0.00     0.041 A 
ATOM      5  C   UNL d   1       3.425   5.844  -1.106  0.00  0.00     0.117 A 
ATOM      6  C   UNL d   1       3.890   6.444   0.048  0.00  0.00     0.045 A 
ATOM      7  F   UNL d   1       4.296   5.319  -1.977  0.00  0.00    -0.206 F 
ENDROOT
BRANCH   1   8
ATOM      8  C   UNL d   1      -0.321   6.004  -0.787  0.00  0.00     0.030 C 
ATOM      9  N   UNL d   1      -1.359   6.761  -0.619  0.00  0.00    -0.320 N 
ATOM     10  HN  UNL d   1      -2.272   6.403  -0.899  1.00  0.00     0.181 HD
ATOM     11  C   UNL d   1      -0.645   4.702  -1.507  0.00  0.00     0.070 C 
BRANCH   9  12
ATOM     12  N   UNL d   1      -1.290   8.002  -0.092  0.00  0.00    -0.202 NA
ATOM     13  H   UNL d   1      -0.594   8.625  -0.513  0.00  0.00     0.153 HD
BRANCH  12  14
ATOM     14  C   UNL d   1      -2.556   8.662   0.019  0.00  0.00     0.071 A 
ATOM     15  C   UNL d   1      -3.744   8.027   0.461  0.00  0.00     0.060 A 
ATOM     16  C   UNL d   1      -4.946   8.741   0.585  0.00  0.00     0.049 A 
ATOM     17 CL   UNL d   1      -3.844   6.353   0.910  0.00  0.00    -0.082 Cl
ATOM     18  C   UNL d   1      -4.990  10.091   0.277  0.00  0.00     0.037 A 
ATOM     19  C   UNL d   1      -3.850  10.751  -0.158  0.00  0.00     0.049 A 
ATOM     20 CL   UNL d   1      -6.470  10.953   0.441  0.00  0.00    -0.084 Cl
ATOM     21  C   UNL d   1      -2.648  10.049  -0.272  0.00  0.00     0.060 A 
ATOM     22 CL   UNL d   1      -1.259  10.914  -0.842  0.00  0.00    -0.082 Cl
ENDBRANCH  12  14
ENDBRANCH   9  12
ENDBRANCH   1   8
BRANCH   2  23
ATOM     23  O   UNL d   1       0.668   7.108   1.798  0.00  0.00    -0.274 OA
BRANCH  23  24
ATOM     24  C   UNL d   1       1.024   7.021   3.145  0.00  0.00     0.301 C 
ATOM     25  O   UNL d   1       2.125   6.761   3.605  0.00  0.00    -0.259 OA
BRANCH  24  26
ATOM     26  C   UNL d   1      -0.152   7.218   4.012  0.00  0.00     0.078 A 
ATOM     27  C   UNL d   1       0.029   7.753   5.289  0.00  0.00     0.132 A 
ATOM     28  F   UNL d   1       1.220   8.223   5.686  0.00  0.00    -0.205 F 
ATOM     29  C   UNL d   1      -1.033   7.813   6.191  0.00  0.00     0.043 A 
ATOM     30  C   UNL d   1      -2.288   7.338   5.815  0.00  0.00     0.003 A 
ATOM     31  C   UNL d   1      -2.483   6.819   4.533  0.00  0.00     0.001 A 
ATOM     32  C   UNL d   1      -1.414   6.758   3.632  0.00  0.00     0.021 A 
ENDBRANCH  24  26
ENDBRANCH  23  24
ENDBRANCH   2  23
TORSDOF 6
