REMARK  2 active torsions:
REMARK  status: ('A' for Active; 'I' for Inactive)
REMARK    1  A    between atoms: C_3  and  C_1 
REMARK       I    between atoms: N_2  and  C_3 
REMARK    2  A    between atoms: C_7  and  C_6 
ROOT
ATOM      1  N   UNL d   1       0.775  -3.531  -0.008  0.00  0.00    -0.230 N 
ATOM      2  C   UNL d   1      -0.358  -2.685  -0.078  0.00  0.00     0.286 C 
ATOM      3  N   UNL d   1       1.064  -4.420  -1.001  0.00  0.00    -0.289 N 
ATOM      4  HN  UNL d   1       0.581  -4.540  -1.892  1.00  0.00     0.188 HD
ATOM      5  C   UNL d   1       2.125  -5.101  -0.545  0.00  0.00     0.077 C 
ATOM      6  C   UNL d   1       2.570  -4.609   0.698  0.00  0.00     0.052 C 
ATOM      7  C   UNL d   1       1.732  -3.562   0.987  0.00  0.00     0.122 C 
ATOM      8  O   UNL d   1      -0.317  -1.676   0.626  0.00  0.00    -0.265 OA
ENDROOT
BRANCH   2   9
ATOM      9  C   UNL d   1      -1.509  -2.993  -0.895  0.00  0.00     0.112 A 
ATOM     10  C   UNL d   1      -2.365  -2.167  -1.608  0.00  0.00     0.043 A 
ATOM     11  N   UNL d   1      -3.463  -2.818  -2.164  0.00  0.00    -0.296 N 
ATOM     12  C   UNL d   1      -2.247  -0.707  -1.846  0.00  0.00     0.071 C 
ATOM     13  N   UNL d   1      -3.470  -4.109  -1.883  0.00  0.00    -0.061 NA
ATOM     14  HN  UNL d   1      -4.179  -2.353  -2.722  1.00  0.00     0.183 HD
ATOM     15  S   UNL d   1      -2.160  -4.578  -0.963  0.00  0.00     0.007 SA
ENDBRANCH   2   9
BRANCH   5  16
ATOM     16  C   UNL d   1       2.748  -6.180  -1.357  0.00  0.00     0.067 A 
ATOM     17  C   UNL d   1       3.502  -7.272  -0.956  0.00  0.00    -0.031 A 
ATOM     18  C   UNL d   1       3.947  -7.909  -2.154  0.00  0.00     0.033 A 
ATOM     19  C   UNL d   1       3.790  -7.779   0.411  0.00  0.00     0.050 C 
ATOM     20  C   UNL d   1       3.439  -7.216  -3.232  0.00  0.00     0.006 A 
ATOM     21  N   UNL d   1       2.641  -6.220  -2.727  0.00  0.00    -0.358 N 
ATOM     22  C   UNL d   1       3.632  -7.426  -4.687  0.00  0.00     0.068 C 
ATOM     23  H   UNL d   1       2.124  -5.538  -3.266  0.00  0.00     0.166 HD
ENDBRANCH   5  16
TORSDOF 2
