REMARK  2 active torsions:
REMARK  status: ('A' for Active; 'I' for Inactive)
REMARK    1  A    between atoms: C_2  and  C_1 
REMARK       I    between atoms: N_4  and  C_1 
REMARK    2  A    between atoms: N_3  and  N_4 
ROOT
ATOM      1  C   UNL d   1       0.861   0.050   0.100  0.00  0.00     0.276 C 
ATOM      2  N   UNL d   1       1.937   0.197  -0.749  0.00  0.00    -0.257 N 
ATOM      3  O   UNL d   1       0.482  -1.041   0.505  0.00  0.00    -0.266 OA
ATOM      4  H   UNL d   1       2.227   1.094  -1.121  0.00  0.00     0.191 HD
ENDROOT
BRANCH   1   5
ATOM      5  C   UNL d   1       0.159   1.297   0.521  0.00  0.00     0.110 A 
ATOM      6  C   UNL d   1       0.486   2.553   0.003  0.00  0.00     0.135 A 
ATOM      7  F   UNL d   1       1.480   2.693  -0.889  0.00  0.00    -0.205 F 
ATOM      8  C   UNL d   1      -0.208   3.705   0.383  0.00  0.00     0.043 A 
ATOM      9  C   UNL d   1      -1.250   3.616   1.301  0.00  0.00     0.006 A 
ATOM     10  C   UNL d   1      -1.584   2.376   1.839  0.00  0.00     0.043 A 
ATOM     11  C   UNL d   1      -0.883   1.231   1.452  0.00  0.00     0.135 A 
ATOM     12  F   UNL d   1      -1.250   0.071   2.014  0.00  0.00    -0.205 F 
ENDBRANCH   1   5
BRANCH   2  13
ATOM     13  N   UNL d   1       2.550  -0.887  -1.276  0.00  0.00    -0.242 N 
ATOM     14  C   UNL d   1       3.050  -1.959  -0.614  0.00  0.00     0.224 A 
ATOM     15  N   UNL d   1       3.732  -2.705  -1.460  0.00  0.00    -0.293 N 
ATOM     16  N   UNL d   1       3.678  -2.089  -2.697  0.00  0.00    -0.293 N 
ATOM     17  HN  UNL d   1       4.212  -3.578  -1.242  1.00  0.00     0.187 HD
ATOM     18  C   UNL d   1       2.965  -0.992  -2.565  0.00  0.00     0.224 A 
ATOM     19  HN  UNL d   1       4.113  -2.425  -3.557  1.00  0.00     0.187 HD
ENDBRANCH   2  13
TORSDOF 2
