REMARK  7 active torsions:
REMARK  status: ('A' for Active; 'I' for Inactive)
REMARK    1  A    between atoms: N_2  and  C_1 
REMARK    2  A    between atoms: N_6  and  C_1 
REMARK    3  A    between atoms: C_9  and  N_2 
REMARK    4  A    between atoms: C_4  and  C_5 
REMARK    5  A    between atoms: C_16  and  N_6 
REMARK    6  A    between atoms: O_12  and  C_17 
REMARK    7  A    between atoms: C_17  and  C_16 
ROOT
ATOM      1  C   UNL d   1       2.095  -4.857   1.210  0.00  0.00    -0.051 A 
ATOM      2  C   UNL d   1       2.243  -3.744   2.051  0.00  0.00     0.010 A 
ATOM      3  C   UNL d   1       1.238  -4.710   0.102  0.00  0.00     0.010 A 
ATOM      4  C   UNL d   1       0.848  -2.369   0.612  0.00  0.00     0.034 A 
ATOM      5  C   UNL d   1       0.649  -3.475  -0.209  0.00  0.00     0.030 A 
ATOM      6  C   UNL d   1       1.624  -2.517   1.761  0.00  0.00     0.030 A 
ENDROOT
BRANCH   4   7
ATOM      7  N   UNL d   1       0.372  -1.110   0.189  0.00  0.00    -0.333 N 
ATOM      8  H   UNL d   1       0.200  -1.002  -0.816  0.00  0.00     0.168 HD
BRANCH   7   9
ATOM      9  C   UNL d   1      -0.066  -0.058   0.946  0.00  0.00     0.172 C 
ATOM     10  S   UNL d   1      -0.730  -0.111   2.478  0.00  0.00    -0.041 SA
BRANCH   9  11
ATOM     11  N   UNL d   1       0.012   1.170   0.340  0.00  0.00    -0.365 N 
ATOM     12  H   UNL d   1      -0.347   1.916   0.926  0.00  0.00     0.161 HD
BRANCH  11  13
ATOM     13  C   UNL d   1       1.009   1.549  -0.657  0.00  0.00     0.148 C 
BRANCH  13  14
ATOM     14  C   UNL d   1       0.532   1.386  -2.101  0.00  0.00     0.183 C 
BRANCH  14  15
ATOM     15  O   UNL d   1       0.379   0.007  -2.436  0.00  0.00    -0.399 OA
ATOM     16  H   UNL d   1       0.170  -0.020  -3.386  0.00  0.00     0.209 HD
ENDBRANCH  14  15
ENDBRANCH  13  14
ENDBRANCH  11  13
ENDBRANCH   9  11
ENDBRANCH   7   9
ENDBRANCH   4   7
BRANCH   1  17
ATOM     17  C   UNL d   1       2.880  -6.165   1.421  0.00  0.00    -0.024 C 
ATOM     18  C   UNL d   1       3.898  -6.097   2.585  0.00  0.00     0.019 C 
ATOM     19  C   UNL d   1       1.921  -7.335   1.715  0.00  0.00     0.019 C 
ATOM     20  C   UNL d   1       3.689  -6.487   0.143  0.00  0.00     0.019 C 
ENDBRANCH   1  17
TORSDOF 7
