REMARK  5 active torsions:
REMARK  status: ('A' for Active; 'I' for Inactive)
REMARK    1  A    between atoms: C_2  and  C_1 
REMARK    2  A    between atoms: C_20  and  C_10 
REMARK    3  A    between atoms: C_12  and  C_16 
REMARK    4  A    between atoms: O_21  and  C_20 
REMARK    5  A    between atoms: C_23  and  O_21 
ROOT
ATOM      1  C   UNL d   1       4.454   0.844   0.403  0.00  0.00     0.057 A 
ATOM      2  N   UNL d   1       5.403   0.729  -0.596  0.00  0.00    -0.351 N 
ATOM      3  HN  UNL d   1       5.655   1.473  -1.246  1.00  0.00     0.166 HD
ATOM      4  C   UNL d   1       4.278  -0.306   1.151  0.00  0.00     0.082 A 
ATOM      5  C   UNL d   1       5.937  -0.475  -0.592  0.00  0.00     0.075 A 
ATOM      6  S   UNL d   1       5.296  -1.558   0.580  0.00  0.00    -0.084 SA
ENDROOT
BRANCH   5   7
ATOM      7  C   UNL d   1       7.106  -0.891  -1.428  0.00  0.00     0.240 C 
BRANCH   7   8
ATOM      8  O   UNL d   1       6.630  -1.675  -2.527  0.00  0.00    -0.345 OA
BRANCH   8   9
ATOM      9  C   UNL d   1       7.627  -2.071  -3.382  0.00  0.00     0.069 A 
ATOM     10  C   UNL d   1       8.912  -2.423  -2.971  0.00  0.00     0.037 A 
ATOM     11  C   UNL d   1       9.879  -2.785  -3.908  0.00  0.00     0.012 A 
ATOM     12  C   UNL d   1       9.579  -2.820  -5.277  0.00  0.00    -0.035 A 
ATOM     13  C   UNL d   1       8.264  -2.515  -5.676  0.00  0.00     0.012 A 
ATOM     14  C   UNL d   1       7.294  -2.147  -4.732  0.00  0.00     0.037 A 
BRANCH  12  15
ATOM     15  C   UNL d   1      10.673  -3.176  -6.261  0.00  0.00     0.141 C 
ATOM     16  S   UNL d   1      11.000  -1.827  -7.441  0.00  0.00    -0.148 SA
ATOM     17  C   UNL d   1      11.200  -2.876  -8.899  0.00  0.00     0.085 C 
ATOM     18  C   UNL d   1      10.194  -4.005  -8.795  0.00  0.00     0.085 C 
ATOM     19  S   UNL d   1      10.342  -4.731  -7.146  0.00  0.00    -0.148 SA
ENDBRANCH  12  15
ENDBRANCH   8   9
ENDBRANCH   7   8
ENDBRANCH   5   7
BRANCH   1  20
ATOM     20  C   UNL d   1       3.708   2.133   0.665  0.00  0.00     0.039 A 
ATOM     21  S   UNL d   1       2.642   2.288   1.994  0.00  0.00    -0.087 SA
ATOM     22  C   UNL d   1       2.260   3.911   1.630  0.00  0.00     0.016 A 
ATOM     23  C   UNL d   1       1.389   4.750   2.355  0.00  0.00     0.021 A 
ATOM     24  C   UNL d   1       2.926   4.344   0.485  0.00  0.00    -0.010 A 
ATOM     25  C   UNL d   1       1.176   6.053   1.905  0.00  0.00     0.025 A 
ATOM     26  C   UNL d   1       1.816   6.506   0.763  0.00  0.00     0.035 A 
ATOM     27  C   UNL d   1       2.686   5.676   0.051  0.00  0.00     0.037 A 
ATOM     28 CL   UNL d   1       1.535   8.113   0.211  0.00  0.00    -0.084 Cl
ATOM     29  C   UNL d   1       3.783   3.305  -0.079  0.00  0.00    -0.031 A 
ATOM     30  C   UNL d   1       4.596   3.565  -1.313  0.00  0.00     0.050 C 
ENDBRANCH   1  20
TORSDOF 5
