REMARK  11 active torsions:
REMARK  status: ('A' for Active; 'I' for Inactive)
REMARK    1  A    between atoms: C_2  and  C_1 
REMARK    2  A    between atoms: C_1  and  O_6 
REMARK    3  A    between atoms: C_3  and  C_1 
REMARK    4  A    between atoms: C_2  and  O_7 
REMARK    5  A    between atoms: C_13  and  C_3 
REMARK    6  A    between atoms: C_3  and  O_8 
REMARK    7  A    between atoms: C_9  and  O_6 
REMARK    8  A    between atoms: C_10  and  O_7 
REMARK    9  A    between atoms: C_11  and  O_8 
REMARK   10  A    between atoms: C_12  and  O_14 
REMARK   11  A    between atoms: O_14  and  C_13 
ROOT
ATOM      1  C   UNL d   1       2.793   0.998  -2.358  0.00  0.00     0.270 C 
ATOM      2  N   UNL d   1       3.581  -1.183  -1.111  0.00  0.00    -0.194 NA
ATOM      3  C   UNL d   1       3.230  -0.229  -1.671  0.00  0.00     0.094 C 
ENDROOT
BRANCH   1   4
ATOM      4  C   UNL d   1       1.254   1.122  -2.392  0.00  0.00     0.207 C 
BRANCH   4   5
ATOM      5  O   UNL d   1       0.963   2.346  -3.112  0.00  0.00    -0.310 OA
BRANCH   5   6
ATOM      6  C   UNL d   1       0.258   2.225  -4.267  0.00  0.00     0.255 C 
ATOM      7  O   UNL d   1      -0.150   1.172  -4.741  0.00  0.00    -0.266 OA
ATOM      8  C   UNL d   1       0.088   3.556  -4.932  0.00  0.00     0.126 C 
ENDBRANCH   5   6
ENDBRANCH   4   5
BRANCH   4   9
ATOM      9  C   UNL d   1       0.535   1.134  -1.013  0.00  0.00     0.189 C 
BRANCH   9  10
ATOM     10  C   UNL d   1       0.903   2.259  -0.027  0.00  0.00     0.213 C 
BRANCH  10  11
ATOM     11  O   UNL d   1       2.309   2.316   0.259  0.00  0.00    -0.319 OA
BRANCH  11  12
ATOM     12  C   UNL d   1       2.771   1.476   1.225  0.00  0.00     0.254 C 
ATOM     13  O   UNL d   1       2.093   0.642   1.804  0.00  0.00    -0.266 OA
ATOM     14  C   UNL d   1       4.241   1.686   1.433  0.00  0.00     0.126 C 
ENDBRANCH  11  12
ENDBRANCH  10  11
ENDBRANCH   9  10
BRANCH   9  15
ATOM     15  O   UNL d   1      -0.917   1.015  -1.168  0.00  0.00    -0.311 OA
BRANCH  15  16
ATOM     16  C   UNL d   1      -1.675   2.085  -1.526  0.00  0.00     0.255 C 
ATOM     17  O   UNL d   1      -1.259   3.206  -1.778  0.00  0.00    -0.266 OA
ATOM     18  C   UNL d   1      -3.131   1.734  -1.507  0.00  0.00     0.126 C 
ENDBRANCH  15  16
ENDBRANCH   9  15
ENDBRANCH   4   9
ENDBRANCH   1   4
BRANCH   1  19
ATOM     19  O   UNL d   1       3.259   0.938  -3.732  0.00  0.00    -0.299 OA
BRANCH  19  20
ATOM     20  C   UNL d   1       4.148   1.890  -4.111  0.00  0.00     0.256 C 
ATOM     21  O   UNL d   1       4.596   2.768  -3.389  0.00  0.00    -0.266 OA
ATOM     22  C   UNL d   1       4.531   1.713  -5.548  0.00  0.00     0.126 C 
ENDBRANCH  19  20
ENDBRANCH   1  19
TORSDOF 11
