REMARK  2 active torsions:
REMARK  status: ('A' for Active; 'I' for Inactive)
REMARK    1  A    between atoms: N_10  and  C_7 
REMARK    2  A    between atoms: C_13  and  N_10 
ROOT
ATOM      1  S   UNL d   1      -1.148  -1.585   0.018  0.00  0.00     0.270 S 
ATOM      2  C   UNL d   1      -2.377  -0.484   0.488  0.00  0.00     0.146 C 
ATOM      3  N   UNL d   1      -1.715  -1.993  -1.532  0.00  0.00    -0.275 N 
ATOM      4  C   UNL d   1      -2.637   0.623  -0.442  0.00  0.00     0.209 C 
ATOM      5  C   UNL d   1      -2.370   0.390  -1.892  0.00  0.00     0.043 A 
ATOM      6  C   UNL d   1      -1.936  -0.854  -2.404  0.00  0.00     0.059 A 
ATOM      7  C   UNL d   1      -3.208  -0.781   1.495  0.00  0.00     0.118 C 
ATOM      8  O   UNL d   1       0.109  -0.886  -0.147  0.00  0.00    -0.200 OA
ATOM      9  O   UNL d   1      -1.214  -2.788   0.830  0.00  0.00    -0.200 OA
ATOM     10  O   UNL d   1      -3.139   1.672  -0.054  0.00  0.00    -0.286 OA
ATOM     11  C   UNL d   1      -1.338  -3.312  -2.054  0.00  0.00     0.170 C 
ATOM     12  C   UNL d   1      -2.662   1.454  -2.764  0.00  0.00     0.018 A 
ATOM     13  C   UNL d   1      -1.862  -1.006  -3.797  0.00  0.00     0.031 A 
ATOM     14  C   UNL d   1      -2.561   1.283  -4.143  0.00  0.00     0.001 A 
ATOM     15  C   UNL d   1      -2.166   0.054  -4.657  0.00  0.00     0.002 A 
ENDROOT
BRANCH   7  16
ATOM     16  N   UNL d   1      -4.351  -0.124   1.883  0.00  0.00    -0.364 N 
ATOM     17  H   UNL d   1      -4.536   0.757   1.397  0.00  0.00     0.165 HD
BRANCH  16  18
ATOM     18  C   UNL d   1      -5.320  -0.541   2.812  0.00  0.00     0.032 A 
ATOM     19  C   UNL d   1      -5.162  -1.670   3.630  0.00  0.00     0.032 A 
ATOM     20  C   UNL d   1      -6.164  -2.067   4.520  0.00  0.00     0.044 A 
ATOM     21  C   UNL d   1      -7.339  -1.337   4.593  0.00  0.00     0.116 A 
ATOM     22  C   UNL d   1      -7.532  -0.221   3.793  0.00  0.00     0.044 A 
ATOM     23  F   UNL d   1      -8.300  -1.719   5.445  0.00  0.00    -0.206 F 
ATOM     24  C   UNL d   1      -6.526   0.174   2.905  0.00  0.00     0.032 A 
ENDBRANCH  16  18
ENDBRANCH   7  16
TORSDOF 2
