REMARK  6 active torsions:
REMARK  status: ('A' for Active; 'I' for Inactive)
REMARK    1  A    between atoms: C_2  and  N_1 
REMARK    2  A    between atoms: C_4  and  C_3 
REMARK    3  A    between atoms: C_8  and  C_4 
REMARK    4  A    between atoms: C_6  and  C_13 
REMARK    5  A    between atoms: C_17  and  C_14 
REMARK    6  A    between atoms: C_20  and  C_17 
ROOT
ATOM      1  C   UNL d   1       1.724  -0.601  -6.532  0.00  0.00     0.182 C 
ATOM      2  O   UNL d   1       2.549   0.042  -5.896  0.00  0.00    -0.288 OA
ENDROOT
BRANCH   1   3
ATOM      3  C   UNL d   1       1.402  -2.022  -6.211  0.00  0.00     0.056 C 
ATOM      4  C   UNL d   1       2.249  -2.793  -5.508  0.00  0.00     0.015 C 
BRANCH   4   5
ATOM      5  C   UNL d   1       1.962  -4.191  -5.144  0.00  0.00    -0.034 A 
ATOM      6  C   UNL d   1       1.192  -5.038  -5.956  0.00  0.00     0.047 A 
ATOM      7  C   UNL d   1       0.913  -6.351  -5.543  0.00  0.00     0.103 A 
ATOM      8  C   UNL d   1       1.419  -6.844  -4.335  0.00  0.00     0.036 A 
ATOM      9  C   UNL d   1       2.218  -6.018  -3.546  0.00  0.00     0.003 A 
ATOM     10  C   UNL d   1       2.490  -4.706  -3.951  0.00  0.00     0.011 A 
BRANCH   7  11
ATOM     11  N   UNL d   1       0.066  -7.209  -6.380  0.00  0.00    -0.116 N 
ATOM     12  O   UNL d   1      -0.385  -6.726  -7.429  0.00  0.00    -0.532 OA
ATOM     13  O   UNL d   1      -0.155  -8.363  -5.987  0.00  0.00    -0.532 OA
ENDBRANCH   7  11
ENDBRANCH   4   5
ENDBRANCH   1   3
BRANCH   1  14
ATOM     14  C   UNL d   1       0.941   0.020  -7.639  0.00  0.00     0.014 A 
ATOM     15  C   UNL d   1       0.623   1.380  -7.578  0.00  0.00     0.016 A 
ATOM     16  C   UNL d   1      -0.150   1.968  -8.588  0.00  0.00     0.008 A 
ATOM     17  C   UNL d   1      -0.592   1.212  -9.685  0.00  0.00    -0.058 A 
ATOM     18  C   UNL d   1      -0.225  -0.137  -9.763  0.00  0.00     0.008 A 
ATOM     19  C   UNL d   1       0.530  -0.732  -8.748  0.00  0.00     0.016 A 
BRANCH  17  20
ATOM     20  C   UNL d   1      -1.408   1.856 -10.787  0.00  0.00     0.042 C 
BRANCH  20  21
ATOM     21  C   UNL d   1      -2.776   1.194 -11.063  0.00  0.00    -0.019 C 
ATOM     22  C   UNL d   1      -3.709   1.253  -9.851  0.00  0.00     0.010 C 
ATOM     23  C   UNL d   1      -3.454   1.870 -12.258  0.00  0.00     0.010 C 
ENDBRANCH  20  21
ENDBRANCH  17  20
ENDBRANCH   1  14
TORSDOF 6
