REMARK  10 active torsions:
REMARK  status: ('A' for Active; 'I' for Inactive)
REMARK    1  A    between atoms: N_3  and  C_1 
REMARK    2  A    between atoms: N_4  and  C_2 
REMARK    3  A    between atoms: C_6  and  C_8 
REMARK    4  A    between atoms: C_7  and  C_14 
REMARK    5  A    between atoms: C_8  and  O_17 
REMARK    6  A    between atoms: O_20  and  C_10 
REMARK    7  A    between atoms: O_17  and  N_12 
REMARK    8  A    between atoms: C_16  and  C_23 
REMARK    9  A    between atoms: N_32  and  C_16 
REMARK   10  A    between atoms: C_33  and  O_20 
ROOT
ATOM      1  C   UNL d   1       7.929   0.692  -1.956  0.00  0.00     0.004 A 
ATOM      2  C   UNL d   1       9.293   0.733  -2.272  0.00  0.00     0.017 A 
ATOM      3  C   UNL d   1       7.078  -0.119  -2.721  0.00  0.00     0.017 A 
ATOM      4  C   UNL d   1       8.962  -0.902  -4.029  0.00  0.00     0.076 A 
ATOM      5  C   UNL d   1       9.805  -0.048  -3.313  0.00  0.00     0.038 A 
ATOM      6  C   UNL d   1       7.593  -0.910  -3.757  0.00  0.00     0.038 A 
ENDROOT
BRANCH   1   7
ATOM      7  C   UNL d   1       7.384   1.528  -0.830  0.00  0.00     0.109 C 
ATOM      8  N   UNL d   1       6.092   1.626  -0.697  0.00  0.00    -0.246 N 
ATOM      9  HN  UNL d   1       5.412   1.162  -1.299  1.00  0.00     0.196 HD
BRANCH   8  10
ATOM     10  O   UNL d   1       5.760   2.462   0.394  0.00  0.00    -0.192 OA
BRANCH  10  11
ATOM     11  C   UNL d   1       4.396   2.580   0.519  0.00  0.00     0.339 C 
ATOM     12  O   UNL d   1       3.547   2.010  -0.158  0.00  0.00    -0.255 OA
BRANCH  11  13
ATOM     13  C   UNL d   1       4.088   3.496   1.600  0.00  0.00     0.155 A 
ATOM     14  O   UNL d   1       5.097   4.088   2.326  0.00  0.00    -0.282 OA
ATOM     15  C   UNL d   1       4.492   4.889   3.245  0.00  0.00     0.215 A 
ATOM     16  C   UNL d   1       3.123   4.834   3.145  0.00  0.00     0.066 A 
ATOM     17  C   UNL d   1       2.862   3.932   2.083  0.00  0.00     0.048 A 
BRANCH  15  18
ATOM     18  N   UNL d   1       5.351   5.621   4.122  0.00  0.00    -0.090 N 
ATOM     19  O   UNL d   1       4.794   6.361   4.944  0.00  0.00    -0.530 OA
ATOM     20  O   UNL d   1       6.572   5.459   4.000  0.00  0.00    -0.530 OA
ENDBRANCH  15  18
ENDBRANCH  11  13
ENDBRANCH  10  11
ENDBRANCH   8  10
BRANCH   7  21
ATOM     21  N   UNL d   1       8.265   2.156   0.023  0.00  0.00    -0.286 NA
ATOM     22  H   UNL d   1       7.804   2.549   0.838  0.00  0.00     0.125 HD
ATOM     23  H   UNL d   1       9.089   1.625   0.281  0.00  0.00     0.125 HD
ENDBRANCH   7  21
ENDBRANCH   1   7
BRANCH   4  24
ATOM     24  O   UNL d   1       9.406  -1.726  -5.042  0.00  0.00    -0.308 OA
BRANCH  24  25
ATOM     25  C   UNL d   1      10.625  -2.346  -4.878  0.00  0.00     0.109 A 
ATOM     26  C   UNL d   1      11.520  -2.437  -5.948  0.00  0.00     0.137 A 
ATOM     27  C   UNL d   1      12.771  -3.061  -5.813  0.00  0.00     0.055 A 
ATOM     28  C   UNL d   1      13.141  -3.617  -4.579  0.00  0.00     0.050 A 
ATOM     29  C   UNL d   1      12.226  -3.566  -3.514  0.00  0.00     0.019 A 
ATOM     30  C   UNL d   1      10.976  -2.959  -3.668  0.00  0.00     0.040 A 
BRANCH  26  31
ATOM     31  N   UNL d   1      11.179  -1.868  -7.238  0.00  0.00    -0.113 N 
ATOM     32  O   UNL d   1      11.255  -2.621  -8.217  0.00  0.00    -0.532 OA
ATOM     33  O   UNL d   1      10.898  -0.662  -7.275  0.00  0.00    -0.532 OA
ENDBRANCH  26  31
BRANCH  28  34
ATOM     34  C   UNL d   1      14.498  -4.249  -4.371  0.00  0.00     0.417 C 
ATOM     35  F   UNL d   1      15.233  -4.340  -5.511  0.00  0.00    -0.166 F 
ATOM     36  F   UNL d   1      15.258  -3.545  -3.488  0.00  0.00    -0.166 F 
ATOM     37  F   UNL d   1      14.413  -5.511  -3.872  0.00  0.00    -0.166 F 
ENDBRANCH  28  34
ENDBRANCH  24  25
ENDBRANCH   4  24
TORSDOF 10
