REMARK  9 active torsions:
REMARK  status: ('A' for Active; 'I' for Inactive)
REMARK    1  A    between atoms: C_3  and  N_1 
REMARK    2  A    between atoms: C_9  and  N_2 
REMARK    3  A    between atoms: C_7  and  C_3 
REMARK    4  A    between atoms: C_8  and  C_3 
REMARK    5  A    between atoms: S_6  and  C_13 
REMARK    6  A    between atoms: C_14  and  S_6 
REMARK    7  A    between atoms: C_12  and  C_9 
REMARK    8  A    between atoms: C_13  and  C_12 
REMARK    9  A    between atoms: O_15  and  C_12 
ROOT
ATOM      1  N   UNL d   1      -1.615   0.293   0.203  0.00  0.00     0.105 N 
ATOM      2  N   UNL d   1       1.403   0.025  -0.309  0.00  0.00     0.094 N 
ATOM      3  C   UNL d   1      -0.966  -0.925  -0.336  0.00  0.00     0.304 C 
ATOM      4  C   UNL d   1      -0.764   1.441  -0.213  0.00  0.00     0.304 C 
ATOM      5  C   UNL d   1       0.514  -1.099   0.086  0.00  0.00     0.302 C 
ATOM      6  C   UNL d   1       0.758   1.300   0.087  0.00  0.00     0.302 C 
ENDROOT
BRANCH   1   7
ATOM      7  C   UNL d   1      -1.805   0.234   1.687  0.00  0.00     0.289 C 
BRANCH   7   8
ATOM      8  C   UNL d   1      -2.517   1.469   2.255  0.00  0.00    -0.021 A 
ATOM      9  C   UNL d   1      -3.799   1.846   1.822  0.00  0.00     0.010 A 
ATOM     10  C   UNL d   1      -4.456   2.935   2.398  0.00  0.00     0.001 A 
ATOM     11  C   UNL d   1      -3.836   3.672   3.405  0.00  0.00     0.000 A 
ATOM     12  C   UNL d   1      -2.558   3.322   3.836  0.00  0.00     0.001 A 
ATOM     13  C   UNL d   1      -1.904   2.227   3.269  0.00  0.00     0.010 A 
ENDBRANCH   7   8
BRANCH   7  14
ATOM     14  C   UNL d   1      -2.519  -1.035   2.191  0.00  0.00    -0.021 A 
ATOM     15  C   UNL d   1      -2.100  -1.631   3.394  0.00  0.00     0.010 A 
ATOM     16  C   UNL d   1      -2.733  -2.776   3.885  0.00  0.00     0.001 A 
ATOM     17  C   UNL d   1      -3.795  -3.341   3.184  0.00  0.00     0.000 A 
ATOM     18  C   UNL d   1      -4.236  -2.756   1.999  0.00  0.00     0.001 A 
ATOM     19  C   UNL d   1      -3.611  -1.605   1.512  0.00  0.00     0.010 A 
ENDBRANCH   7  14
ENDBRANCH   1   7
BRANCH   2  20
ATOM     20  C   UNL d   1       1.694  -0.077  -1.750  0.00  0.00     0.304 C 
BRANCH  20  21
ATOM     21  C   UNL d   1       2.698   0.905  -2.398  0.00  0.00     0.156 C 
BRANCH  21  22
ATOM     22  C   UNL d   1       4.111   0.901  -1.774  0.00  0.00     0.113 C 
BRANCH  22  23
ATOM     23  S   UNL d   1       5.145   2.144  -2.666  0.00  0.00    -0.127 SA
BRANCH  23  24
ATOM     24  C   UNL d   1       6.737   2.086  -1.860  0.00  0.00     0.000 A 
ATOM     25  C   UNL d   1       7.867   2.348  -2.649  0.00  0.00     0.018 A 
ATOM     26  C   UNL d   1       9.140   2.437  -2.079  0.00  0.00     0.001 A 
ATOM     27  C   UNL d   1       9.297   2.272  -0.706  0.00  0.00     0.000 A 
ATOM     28  C   UNL d   1       8.183   2.011   0.089  0.00  0.00     0.001 A 
ATOM     29  C   UNL d   1       6.906   1.920  -0.482  0.00  0.00     0.018 A 
ENDBRANCH  23  24
ENDBRANCH  22  23
ENDBRANCH  21  22
BRANCH  21  30
ATOM     30  O   UNL d   1       2.762   0.539  -3.792  0.00  0.00    -0.393 OA
ATOM     31  H   UNL d   1       3.239  -0.306  -3.858  0.00  0.00     0.210 HD
ENDBRANCH  21  30
ENDBRANCH  20  21
ENDBRANCH   2  20
TORSDOF 9
