REMARK  5 active torsions:
REMARK  status: ('A' for Active; 'I' for Inactive)
REMARK    1  A    between atoms: C_6  and  N_1 
REMARK    2  A    between atoms: N_9  and  C_6 
REMARK    3  A    between atoms: O_7  and  C_11 
REMARK    4  A    between atoms: C_8  and  O_7 
REMARK    5  A    between atoms: C_15  and  N_9 
ROOT
ATOM      1  C   UNL d   1       6.002   0.934  -1.049  0.00  0.00     0.097 A 
ATOM      2  C   UNL d   1       5.255   1.540  -0.018  0.00  0.00     0.043 A 
ATOM      3  C   UNL d   1       7.290   1.412  -1.360  0.00  0.00     0.039 A 
ATOM      4  C   UNL d   1       5.906   2.506   0.776  0.00  0.00     0.026 A 
ATOM      5  C   UNL d   1       7.898   2.389  -0.574  0.00  0.00     0.003 A 
ATOM      6  C   UNL d   1       7.212   2.923   0.507  0.00  0.00     0.002 A 
ENDROOT
BRANCH   2   7
ATOM      7  N   UNL d   1       3.932   1.188   0.352  0.00  0.00    -0.273 NA
ATOM      8  H   UNL d   1       3.596   1.883   1.022  0.00  0.00     0.129 HD
BRANCH   7   9
ATOM      9  C   UNL d   1       2.969   1.109  -0.743  0.00  0.00     0.230 C 
BRANCH   9  10
ATOM     10  N   UNL d   1       1.691   1.654  -0.320  0.00  0.00    -0.267 N 
ATOM     11  C   UNL d   1       1.522   2.815   0.383  0.00  0.00     0.262 A 
ATOM     12  C   UNL d   1       0.104   3.160   0.321  0.00  0.00     0.048 A 
ATOM     13  O   UNL d   1       2.354   3.491   0.960  0.00  0.00    -0.267 OA
ATOM     14  C   UNL d   1      -0.588   4.221   0.872  0.00  0.00     0.018 A 
ATOM     15  C   UNL d   1      -0.512   2.220  -0.485  0.00  0.00     0.048 A 
ATOM     16  C   UNL d   1      -1.953   4.318   0.579  0.00  0.00     0.001 A 
ATOM     17  C   UNL d   1      -2.581   3.365  -0.250  0.00  0.00     0.001 A 
ATOM     18  C   UNL d   1      -1.857   2.298  -0.793  0.00  0.00     0.018 A 
ATOM     19  C   UNL d   1       0.522   1.284  -0.931  0.00  0.00     0.262 A 
ATOM     20  O   UNL d   1       0.325   0.408  -1.752  0.00  0.00    -0.267 OA
ENDBRANCH   9  10
ENDBRANCH   7   9
ENDBRANCH   2   7
BRANCH   1  21
ATOM     21  O   UNL d   1       5.441  -0.124  -1.748  0.00  0.00    -0.307 OA
BRANCH  21  22
ATOM     22  C   UNL d   1       6.293  -1.106  -2.223  0.00  0.00     0.098 A 
ATOM     23  C   UNL d   1       6.166  -1.534  -3.550  0.00  0.00     0.069 A 
ATOM     24  C   UNL d   1       7.051  -2.482  -4.073  0.00  0.00     0.050 A 
ATOM     25 CL   UNL d   1       4.947  -0.890  -4.588  0.00  0.00    -0.081 Cl
ATOM     26  C   UNL d   1       8.058  -3.005  -3.264  0.00  0.00     0.035 A 
ATOM     27  C   UNL d   1       8.168  -2.618  -1.929  0.00  0.00     0.026 A 
ATOM     28 CL   UNL d   1       9.179  -4.136  -3.916  0.00  0.00    -0.084 Cl
ATOM     29  C   UNL d   1       7.271  -1.686  -1.402  0.00  0.00     0.041 A 
ENDBRANCH  21  22
ENDBRANCH   1  21
TORSDOF 5
