REMARK  9 active torsions:
REMARK  status: ('A' for Active; 'I' for Inactive)
REMARK    1  A    between atoms: N_2  and  S_1 
REMARK    2  A    between atoms: C_10  and  S_1 
REMARK    3  A    between atoms: C_3  and  N_2 
REMARK    4  A    between atoms: N_8  and  C_4 
REMARK    5  A    between atoms: O_16  and  C_7 
REMARK    6  A    between atoms: O_18  and  C_9 
REMARK    7  A    between atoms: C_26  and  O_16 
REMARK    8  A    between atoms: O_23  and  C_17 
REMARK    9  A    between atoms: C_27  and  O_18 
ROOT
ATOM      1  C   UNL d   1       0.744   2.656  -0.638  0.00  0.00     0.078 A 
ATOM      2  C   UNL d   1       1.534   5.366  -0.163  0.00  0.00     0.067 A 
ATOM      3  C   UNL d   1       0.198   5.001  -0.439  0.00  0.00     0.071 A 
ATOM      4  C   UNL d   1       2.081   2.986  -0.391  0.00  0.00     0.072 A 
ATOM      5  C   UNL d   1       2.483   4.313  -0.150  0.00  0.00     0.097 A 
ATOM      6  C   UNL d   1      -0.219   3.674  -0.672  0.00  0.00     0.098 A 
ENDROOT
BRANCH   1   7
ATOM      7  N   UNL d   1       0.439   1.288  -0.915  0.00  0.00    -0.278 N 
ATOM      8  H   UNL d   1       0.917   0.866  -1.708  0.00  0.00     0.179 HD
BRANCH   7   9
ATOM      9  S   UNL d   1       0.139   0.216   0.350  0.00  0.00     0.263 S 
ATOM     10  O   UNL d   1      -0.572  -0.905  -0.238  0.00  0.00    -0.200 OA
ATOM     11  O   UNL d   1      -0.405   0.928   1.485  0.00  0.00    -0.200 OA
BRANCH   9  12
ATOM     12  C   UNL d   1       1.743  -0.380   0.809  0.00  0.00     0.080 A 
ATOM     13  C   UNL d   1       2.455   0.261   1.825  0.00  0.00     0.028 A 
ATOM     14  C   UNL d   1       3.679  -0.264   2.248  0.00  0.00     0.038 A 
ATOM     15  C   UNL d   1       4.176  -1.435   1.671  0.00  0.00     0.068 A 
ATOM     16  C   UNL d   1       3.433  -2.094   0.688  0.00  0.00     0.038 A 
ATOM     17  C   UNL d   1       2.218  -1.569   0.249  0.00  0.00     0.028 A 
BRANCH  15  18
ATOM     18  O   UNL d   1       5.343  -2.053   2.028  0.00  0.00    -0.356 OA
ATOM     19  C   UNL d   1       6.357  -1.197   2.541  0.00  0.00     0.210 C 
ENDBRANCH  15  18
ENDBRANCH   9  12
ENDBRANCH   7   9
ENDBRANCH   1   7
BRANCH   6  20
ATOM     20  O   UNL d   1      -1.563   3.585  -0.951  0.00  0.00    -0.349 OA
BRANCH  20  21
ATOM     21  C   UNL d   1      -2.141   2.303  -1.171  0.00  0.00     0.171 C 
ATOM     22  C   UNL d   1      -3.631   2.434  -1.424  0.00  0.00     0.034 C 
ENDBRANCH  20  21
ENDBRANCH   6  20
BRANCH   5  23
ATOM     23  O   UNL d   1       3.807   4.656   0.032  0.00  0.00    -0.349 OA
BRANCH  23  24
ATOM     24  C   UNL d   1       4.761   3.604   0.162  0.00  0.00     0.171 C 
ATOM     25  C   UNL d   1       6.106   4.209   0.521  0.00  0.00     0.034 C 
ENDBRANCH  23  24
ENDBRANCH   5  23
BRANCH   2  26
ATOM     26  N   UNL d   1       1.851   6.694   0.073  0.00  0.00    -0.374 N 
ATOM     27  C   UNL d   1       2.882   7.125   1.030  0.00  0.00     0.149 C 
ATOM     28  C   UNL d   1       3.925   7.976   0.296  0.00  0.00     0.187 C 
ATOM     29  O   UNL d   1       3.304   9.132  -0.301  0.00  0.00    -0.388 OA
ATOM     30  C   UNL d   1       2.310   8.724  -1.258  0.00  0.00     0.187 C 
ATOM     31  C   UNL d   1       1.221   7.817  -0.642  0.00  0.00     0.149 C 
ENDBRANCH   2  26
TORSDOF 9
