REMARK  5 active torsions:
REMARK  status: ('A' for Active; 'I' for Inactive)
REMARK    1  A    between atoms: C_9  and  N_1 
REMARK    2  A    between atoms: S_11  and  C_8 
REMARK    3  A    between atoms: C_17  and  C_9 
REMARK    4  A    between atoms: C_19  and  S_11 
REMARK    5  A    between atoms: C_18  and  C_17 
ROOT
ATOM      1  N   UNL d   1       2.257  -0.107   0.195  0.00  0.00    -0.280 N 
ATOM      2  C   UNL d   1       1.630   1.132   0.082  0.00  0.00     0.261 C 
ATOM      3  C   UNL d   1       1.599  -1.319  -0.003  0.00  0.00     0.261 C 
ATOM      4  C   UNL d   1       0.149   1.141  -0.021  0.00  0.00     0.044 A 
ATOM      5  C   UNL d   1      -0.561  -0.062  -0.066  0.00  0.00     0.007 A 
ATOM      6  C   UNL d   1       0.118  -1.288  -0.038  0.00  0.00     0.044 A 
ATOM      7  C   UNL d   1      -1.983  -0.045  -0.138  0.00  0.00    -0.007 A 
ATOM      8  C   UNL d   1      -2.654   1.211  -0.139  0.00  0.00     0.016 A 
ATOM      9  C   UNL d   1      -0.524   2.368  -0.054  0.00  0.00     0.019 A 
ATOM     10  O   UNL d   1       2.164  -2.392  -0.201  0.00  0.00    -0.267 OA
ATOM     11  O   UNL d   1       2.233   2.203   0.050  0.00  0.00    -0.267 OA
ATOM     12  C   UNL d   1      -1.915   2.402  -0.103  0.00  0.00     0.021 A 
ATOM     13  C   UNL d   1      -0.579  -2.501  -0.065  0.00  0.00     0.018 A 
ATOM     14  C   UNL d   1      -2.653  -1.291  -0.197  0.00  0.00     0.014 A 
ATOM     15  C   UNL d   1      -1.963  -2.502  -0.152  0.00  0.00     0.002 A 
ENDROOT
BRANCH   1  16
ATOM     16  C   UNL d   1       3.723  -0.138   0.258  0.00  0.00     0.141 C 
BRANCH  16  17
ATOM     17  C   UNL d   1       4.344   0.555   1.478  0.00  0.00     0.077 C 
BRANCH  17  18
ATOM     18  C   UNL d   1       3.957  -0.067   2.794  0.00  0.00     0.010 A 
ATOM     19  N   UNL d   1       4.278  -1.369   2.980  0.00  0.00    -0.369 N 
ATOM     20  C   UNL d   1       3.980  -1.919   4.181  0.00  0.00     0.088 A 
ATOM     21  HN  UNL d   1       4.726  -1.915   2.245  1.00  0.00     0.165 HD
ATOM     22  C   UNL d   1       3.385  -1.225   5.219  0.00  0.00     0.017 A 
ATOM     23  C   UNL d   1       3.068   0.112   5.016  0.00  0.00     0.003 A 
ATOM     24  C   UNL d   1       3.356   0.702   3.788  0.00  0.00     0.025 A 
ENDBRANCH  17  18
ENDBRANCH  16  17
ENDBRANCH   1  16
BRANCH   8  25
ATOM     25  S   UNL d   1      -4.439   1.357  -0.026  0.00  0.00    -0.090 SA
BRANCH  25  26
ATOM     26  C   UNL d   1      -5.011   1.654  -1.690  0.00  0.00     0.005 A 
ATOM     27  C   UNL d   1      -4.219   1.546  -2.836  0.00  0.00     0.019 A 
ATOM     28  C   UNL d   1      -4.761   1.793  -4.102  0.00  0.00     0.001 A 
ATOM     29  C   UNL d   1      -6.103   2.144  -4.237  0.00  0.00     0.000 A 
ATOM     30  C   UNL d   1      -6.907   2.244  -3.106  0.00  0.00     0.001 A 
ATOM     31  C   UNL d   1      -6.364   1.999  -1.842  0.00  0.00     0.019 A 
ENDBRANCH  25  26
ENDBRANCH   8  25
TORSDOF 5
