REMARK  2 active torsions:
REMARK  status: ('A' for Active; 'I' for Inactive)
REMARK    1  A    between atoms: O_5  and  C_3 
REMARK    2  A    between atoms: C_11  and  O_5 
ROOT
ATOM      1  C   UNL d   1      -0.909  -0.793  -0.240  0.00  0.00     0.025 A 
ATOM      2  C   UNL d   1      -0.705   0.586  -0.025  0.00  0.00     0.046 A 
ATOM      3  C   UNL d   1      -2.241  -1.256  -0.145  0.00  0.00     0.089 A 
ATOM      4  C   UNL d   1       0.590   1.082  -0.015  0.00  0.00     0.054 A 
ATOM      5  C   UNL d   1       0.210  -1.616  -0.521  0.00  0.00     0.018 A 
ATOM      6  N   UNL d   1      -1.716   1.449   0.182  0.00  0.00    -0.365 N 
ATOM      7  HN  UNL d   1      -1.532   2.441   0.333  1.00  0.00     0.165 HD
ATOM      8  C   UNL d   1       1.687   0.250  -0.228  0.00  0.00     0.036 A 
ATOM      9  C   UNL d   1      -3.292  -0.360   0.036  0.00  0.00     0.055 A 
ATOM     10  C   UNL d   1       1.503  -1.099  -0.496  0.00  0.00     0.025 A 
ATOM     11  C   UNL d   1      -2.979   0.973   0.187  0.00  0.00     0.091 A 
ATOM     12 CL   UNL d   1       3.280   0.895  -0.158  0.00  0.00    -0.084 Cl
ENDROOT
BRANCH   3  13
ATOM     13  O   UNL d   1      -2.617  -2.575  -0.291  0.00  0.00    -0.310 OA
BRANCH  13  14
ATOM     14  C   UNL d   1      -2.121  -3.526   0.575  0.00  0.00     0.076 A 
ATOM     15  C   UNL d   1      -1.450  -3.268   1.777  0.00  0.00     0.039 A 
ATOM     16  C   UNL d   1      -0.896  -4.323   2.508  0.00  0.00     0.026 A 
ATOM     17  C   UNL d   1      -1.055  -5.635   2.067  0.00  0.00     0.034 A 
ATOM     18  C   UNL d   1      -1.779  -5.904   0.907  0.00  0.00     0.026 A 
ATOM     19 CL   UNL d   1      -0.347  -6.928   2.952  0.00  0.00    -0.084 Cl
ATOM     20  C   UNL d   1      -2.310  -4.849   0.164  0.00  0.00     0.039 A 
ENDBRANCH  13  14
ENDBRANCH   3  13
TORSDOF 2
