REMARK  6 active torsions:
REMARK  status: ('A' for Active; 'I' for Inactive)
REMARK    1  A    between atoms: N_2  and  S_1 
REMARK    2  A    between atoms: C_9  and  S_1 
REMARK    3  A    between atoms: C_3  and  N_2 
REMARK       I    between atoms: C_7  and  N_13 
REMARK       I    between atoms: N_15  and  C_7 
REMARK    4  A    between atoms: N_13  and  C_18 
REMARK    5  A    between atoms: C_22  and  N_15 
REMARK    6  A    between atoms: C_23  and  C_22 
ROOT
ATOM      1  C   UNL d   1       0.391  -0.215  -1.582  0.00  0.00     0.075 A 
ATOM      2  C   UNL d   1       0.244  -1.517  -2.071  0.00  0.00     0.027 A 
ATOM      3  C   UNL d   1      -0.051   0.870  -2.333  0.00  0.00     0.027 A 
ATOM      4  C   UNL d   1      -0.698  -0.645  -4.135  0.00  0.00     0.036 A 
ATOM      5  C   UNL d   1      -0.302  -1.731  -3.343  0.00  0.00     0.031 A 
ATOM      6  C   UNL d   1      -0.591   0.647  -3.604  0.00  0.00     0.031 A 
ENDROOT
BRANCH   1   7
ATOM      7  S   UNL d   1       1.034   0.034   0.054  0.00  0.00     0.247 S 
ATOM      8  O   UNL d   1       0.578   1.330   0.517  0.00  0.00    -0.205 OA
ATOM      9  O   UNL d   1       0.770  -1.165   0.817  0.00  0.00    -0.205 OA
BRANCH   7  10
ATOM     10  N   UNL d   1       2.701   0.204  -0.217  0.00  0.00    -0.165 NA
ATOM     11  H   UNL d   1       3.016   0.920   0.441  0.00  0.00     0.147 HD
BRANCH  10  12
ATOM     12  C   UNL d   1       3.470  -0.951  -0.170  0.00  0.00     0.117 A 
ATOM     13  N   UNL d   1       4.075  -1.359   0.946  0.00  0.00    -0.249 N 
ATOM     14  O   UNL d   1       4.720  -2.538   0.603  0.00  0.00    -0.241 OA
ATOM     15  HN  UNL d   1       4.066  -0.901   1.857  1.00  0.00     0.196 HD
ATOM     16  C   UNL d   1       4.559  -2.768  -0.729  0.00  0.00     0.075 A 
ATOM     17  C   UNL d   1       3.790  -1.768  -1.270  0.00  0.00     0.079 A 
ATOM     18  C   UNL d   1       5.218  -3.967  -1.273  0.00  0.00     0.079 C 
ENDBRANCH  10  12
ENDBRANCH   7  10
ENDBRANCH   1   7
BRANCH   4  19
ATOM     19  N   UNL d   1      -1.190  -0.899  -5.439  0.00  0.00    -0.309 N 
ATOM     20  C   UNL d   1      -1.208   0.039  -6.455  0.00  0.00     0.320 C 
ATOM     21  O   UNL d   1      -0.803   1.186  -6.376  0.00  0.00    -0.247 OA
ATOM     22  N   UNL d   1      -1.694  -0.466  -7.648  0.00  0.00    -0.343 N 
ATOM     23  H   UNL d   1      -2.310  -1.263  -7.618  0.00  0.00     0.164 HD
ATOM     24  H   UNL d   1      -1.326  -1.859  -5.708  0.00  0.00     0.170 HD
BRANCH  22  25
ATOM     25  C   UNL d   1      -1.802   0.466  -8.758  0.00  0.00     0.124 C 
BRANCH  25  26
ATOM     26  C   UNL d   1      -2.359  -0.136 -10.041  0.00  0.00     0.015 C 
ATOM     27  C   UNL d   1      -1.498  -1.264 -10.582  0.00  0.00     0.006 C 
ENDBRANCH  25  26
ENDBRANCH  22  25
ENDBRANCH   4  19
TORSDOF 6
