REMARK  2 active torsions:
REMARK  status: ('A' for Active; 'I' for Inactive)
REMARK    1  A    between atoms: C_4  and  C_7 
REMARK    2  A    between atoms: C_6  and  O_8 
ROOT
ATOM      1  O   UNL d   1      -1.227   1.390   0.059  0.00  0.00    -0.341 OA
ATOM      2  C   UNL d   1      -0.065   0.670   0.009  0.00  0.00     0.078 A 
ATOM      3  C   UNL d   1      -0.026  -0.726  -0.064  0.00  0.00     0.004 A 
ATOM      4  C   UNL d   1      -2.402   0.668  -0.351  0.00  0.00     0.164 C 
ATOM      5  C   UNL d   1      -2.487  -0.681   0.360  0.00  0.00     0.074 C 
ATOM      6  C   UNL d   1      -1.300  -1.524  -0.091  0.00  0.00     0.156 C 
ATOM      7  C   UNL d   1       1.219  -1.370  -0.124  0.00  0.00     0.012 A 
ATOM      8  C   UNL d   1       1.116   1.409   0.065  0.00  0.00     0.037 A 
ATOM      9  C   UNL d   1       2.400  -0.630  -0.083  0.00  0.00     0.001 A 
ATOM     10  C   UNL d   1       2.350   0.761   0.016  0.00  0.00     0.003 A 
ENDROOT
BRANCH   4  11
ATOM     11  C   UNL d   1      -3.632   1.519  -0.089  0.00  0.00    -0.029 A 
ATOM     12  C   UNL d   1      -4.767   1.362  -0.901  0.00  0.00     0.010 A 
ATOM     13  C   UNL d   1      -5.895   2.162  -0.712  0.00  0.00     0.001 A 
ATOM     14  C   UNL d   1      -5.906   3.124   0.296  0.00  0.00     0.000 A 
ATOM     15  C   UNL d   1      -4.797   3.274   1.126  0.00  0.00     0.001 A 
ATOM     16  C   UNL d   1      -3.669   2.472   0.940  0.00  0.00     0.010 A 
ENDBRANCH   4  11
BRANCH   6  17
ATOM     17  O   UNL d   1      -1.552  -2.002  -1.413  0.00  0.00    -0.391 OA
ATOM     18  H   UNL d   1      -0.941  -1.548  -2.020  0.00  0.00     0.210 HD
ENDBRANCH   6  17
TORSDOF 2
