REMARK  1 active torsions:
REMARK  status: ('A' for Active; 'I' for Inactive)
REMARK    1  A    between atoms: C_10  and  C_1 
ROOT
ATOM      1  C   UNL d   1       2.916   0.621  -0.269  0.00  0.00     0.080 C 
ATOM      2  S   UNL d   1       2.174  -0.936  -0.962  0.00  0.00    -0.139 SA
ATOM      3  S   UNL d   1       1.668   1.983  -0.433  0.00  0.00    -0.139 SA
ATOM      4  C   UNL d   1      -0.378  -0.754   0.121  0.00  0.00    -0.041 A 
ATOM      5  C   UNL d   1      -0.609   0.611   0.354  0.00  0.00    -0.041 A 
ATOM      6  C   UNL d   1      -1.444  -1.562  -0.310  0.00  0.00     0.015 A 
ATOM      7  C   UNL d   1      -1.893   1.140   0.130  0.00  0.00     0.015 A 
ATOM      8  C   UNL d   1      -2.732  -1.038  -0.509  0.00  0.00    -0.056 A 
ATOM      9  C   UNL d   1      -2.957   0.331  -0.295  0.00  0.00    -0.056 A 
ATOM     10  C   UNL d   1       0.980  -1.380   0.333  0.00  0.00     0.115 C 
ATOM     11  C   UNL d   1       0.473   1.529   0.854  0.00  0.00     0.115 C 
ATOM     12  C   UNL d   1       4.056   1.001  -1.238  0.00  0.00     0.044 C 
ATOM     13  C   UNL d   1      -3.840  -1.954  -0.948  0.00  0.00     0.049 C 
ATOM     14  C   UNL d   1      -4.307   0.954  -0.511  0.00  0.00     0.049 C 
ENDROOT
BRANCH   1  15
ATOM     15  C   UNL d   1       3.533   0.460   1.139  0.00  0.00    -0.030 A 
ATOM     16  C   UNL d   1       4.133  -0.755   1.538  0.00  0.00     0.012 A 
ATOM     17  C   UNL d   1       4.594  -0.945   2.844  0.00  0.00     0.043 A 
ATOM     18  C   UNL d   1       4.498   0.088   3.762  0.00  0.00     0.116 A 
ATOM     19  C   UNL d   1       3.999   1.324   3.385  0.00  0.00     0.043 A 
ATOM     20  F   UNL d   1       4.898  -0.107   5.025  0.00  0.00    -0.206 F 
ATOM     21  C   UNL d   1       3.550   1.517   2.075  0.00  0.00     0.012 A 
ENDBRANCH   1  15
TORSDOF 1
