REMARK  2 active torsions:
REMARK  status: ('A' for Active; 'I' for Inactive)
REMARK    1  A    between atoms: C_8  and  C_1 
REMARK    2  A    between atoms: C_16  and  N_7 
ROOT
ATOM      1  C   UNL d   1      -0.083  -1.314  -0.001  0.00  0.00     0.144 A 
ATOM      2  N   UNL d   1       1.158  -0.830   0.172  0.00  0.00    -0.269 N 
ATOM      3  HN  UNL d   1       2.031  -1.323   0.361  1.00  0.00     0.190 HD
ATOM      4  N   UNL d   1      -1.009  -0.321  -0.223  0.00  0.00    -0.266 N 
ATOM      5  HN  UNL d   1      -2.010  -0.445  -0.374  1.00  0.00     0.186 HD
ATOM      6  N   UNL d   1      -0.348   0.830  -0.203  0.00  0.00    -0.003 NA
ATOM      7  N   UNL d   1       0.926   0.484   0.028  0.00  0.00    -0.217 N 
ENDROOT
BRANCH   1   8
ATOM      8  C   UNL d   1      -0.408  -2.733  -0.009  0.00  0.00     0.014 A 
ATOM      9  C   UNL d   1       0.589  -3.684   0.258  0.00  0.00     0.039 A 
ATOM     10  C   UNL d   1       0.299  -5.046   0.192  0.00  0.00     0.036 A 
ATOM     11 CL   UNL d   1       1.542  -6.196   0.500  0.00  0.00    -0.084 Cl
ATOM     12  C   UNL d   1      -0.981  -5.482  -0.133  0.00  0.00     0.047 A 
ATOM     13  C   UNL d   1      -1.976  -4.541  -0.382  0.00  0.00     0.036 A 
ATOM     14  C   UNL d   1      -1.702  -3.173  -0.319  0.00  0.00     0.039 A 
ATOM     15 CL   UNL d   1      -3.561  -5.073  -0.791  0.00  0.00    -0.084 Cl
ENDBRANCH   1   8
BRANCH   7  16
ATOM     16  C   UNL d   1       2.001   1.451   0.029  0.00  0.00     0.162 C 
ATOM     17  C   UNL d   1       2.603   1.632  -1.353  0.00  0.00     0.030 C 
ENDBRANCH   7  16
TORSDOF 2
