REMARK  7 active torsions:
REMARK  status: ('A' for Active; 'I' for Inactive)
REMARK    1  A    between atoms: O_9  and  C_1 
REMARK       I    between atoms: N_12  and  C_1 
REMARK    2  A    between atoms: O_17  and  C_2 
REMARK    3  A    between atoms: C_3  and  C_4 
REMARK    4  A    between atoms: N_14  and  C_4 
REMARK    5  A    between atoms: N_5  and  O_9 
REMARK    6  A    between atoms: C_18  and  N_12 
REMARK    7  A    between atoms: C_19  and  N_12 
ROOT
ATOM      1  C   UNL d   1      -1.867  -0.661  -2.167  0.00  0.00     0.109 C 
ATOM      2  N   UNL d   1      -1.160  -0.512  -1.085  0.00  0.00    -0.244 N 
ATOM      3  HN  UNL d   1      -0.169  -0.743  -1.014  1.00  0.00     0.196 HD
ENDROOT
BRANCH   1   4
ATOM      4  C   UNL d   1      -1.177  -1.170  -3.399  0.00  0.00     0.006 A 
ATOM      5  C   UNL d   1      -0.021  -1.943  -3.300  0.00  0.00     0.036 A 
ATOM      6  C   UNL d   1       0.639  -2.365  -4.463  0.00  0.00     0.046 A 
ATOM      7 BR   UNL d   1       2.201  -3.431  -4.240  0.00  0.00    -0.048 Br
ATOM      8  C   UNL d   1       0.170  -2.017  -5.746  0.00  0.00     0.102 A 
ATOM      9  C   UNL d   1      -0.992  -1.235  -5.831  0.00  0.00     0.046 A 
ATOM     10  C   UNL d   1      -1.664  -0.829  -4.665  0.00  0.00     0.036 A 
ATOM     11 BR   UNL d   1      -1.714  -0.557  -7.454  0.00  0.00    -0.048 Br
BRANCH   8  12
ATOM     12  O   UNL d   1       0.987  -2.335  -6.801  0.00  0.00    -0.353 OA
ATOM     13  C   UNL d   1       0.394  -2.997  -7.912  0.00  0.00     0.210 C 
ENDBRANCH   8  12
ENDBRANCH   1   4
BRANCH   1  14
ATOM     14  N   UNL d   1      -3.210  -0.372  -2.239  0.00  0.00    -0.286 NA
ATOM     15  H   UNL d   1      -3.762  -0.990  -2.823  0.00  0.00     0.125 HD
ATOM     16  H   UNL d   1      -3.620  -0.251  -1.319  0.00  0.00     0.125 HD
ENDBRANCH   1  14
BRANCH   2  17
ATOM     17  O   UNL d   1      -1.933   0.009  -0.018  0.00  0.00    -0.180 OA
BRANCH  17  18
ATOM     18  C   UNL d   1      -1.132   0.261   1.081  0.00  0.00     0.384 C 
ATOM     19  N   UNL d   1      -1.829   0.800   2.163  0.00  0.00    -0.327 N 
ATOM     20  O   UNL d   1       0.081   0.039   1.124  0.00  0.00    -0.236 OA
BRANCH  19  21
ATOM     21  C   UNL d   1      -1.081   1.157   3.366  0.00  0.00     0.123 C 
ATOM     22  C   UNL d   1      -1.009   0.007   4.357  0.00  0.00     0.026 C 
ENDBRANCH  19  21
BRANCH  19  23
ATOM     23  C   UNL d   1      -3.273   1.014   2.169  0.00  0.00     0.123 C 
ATOM     24  C   UNL d   1      -3.640   2.444   1.804  0.00  0.00     0.026 C 
ENDBRANCH  19  23
ENDBRANCH  17  18
ENDBRANCH   2  17
TORSDOF 7
