REMARK  5 active torsions:
REMARK  status: ('A' for Active; 'I' for Inactive)
REMARK    1  A    between atoms: C_9  and  C_1 
REMARK    2  A    between atoms: C_2  and  C_8 
REMARK    3  A    between atoms: N_17  and  C_3 
REMARK       I    between atoms: C_6  and  N_10 
REMARK    4  A    between atoms: C_7  and  C_6 
REMARK    5  A    between atoms: N_10  and  C_13 
ROOT
ATOM      1  C   UNL d   1      -1.727  -1.810  -4.032  0.00  0.00     0.256 C 
ATOM      2  N   UNL d   1      -1.212  -0.526  -4.182  0.00  0.00    -0.323 N 
ATOM      3  O   UNL d   1      -2.441  -2.419  -4.818  0.00  0.00    -0.267 OA
ATOM      4  H   UNL d   1      -0.616  -0.171  -3.447  0.00  0.00     0.169 HD
ENDROOT
BRANCH   2   5
ATOM      5  C   UNL d   1      -1.266   0.279  -5.344  0.00  0.00     0.036 A 
ATOM      6  C   UNL d   1      -1.894  -0.105  -6.528  0.00  0.00     0.045 A 
ATOM      7  C   UNL d   1      -1.792   0.676  -7.692  0.00  0.00     0.050 A 
ATOM      8  C   UNL d   1      -1.091   1.891  -7.641  0.00  0.00     0.032 A 
ATOM      9  C   UNL d   1      -0.493   2.324  -6.452  0.00  0.00     0.050 A 
ATOM     10  C   UNL d   1      -0.579   1.508  -5.309  0.00  0.00     0.045 A 
BRANCH   7  11
ATOM     11  C   UNL d   1      -2.413   0.185  -8.978  0.00  0.00     0.417 C 
ATOM     12  F   UNL d   1      -2.106   0.965 -10.053  0.00  0.00    -0.166 F 
ATOM     13  F   UNL d   1      -3.772   0.146  -8.922  0.00  0.00    -0.166 F 
ATOM     14  F   UNL d   1      -2.008  -1.072  -9.306  0.00  0.00    -0.166 F 
ENDBRANCH   7  11
BRANCH   9  15
ATOM     15  C   UNL d   1       0.247   3.642  -6.389  0.00  0.00     0.417 C 
ATOM     16  F   UNL d   1       0.315   4.285  -7.585  0.00  0.00    -0.166 F 
ATOM     17  F   UNL d   1      -0.333   4.516  -5.519  0.00  0.00    -0.166 F 
ATOM     18  F   UNL d   1       1.533   3.492  -5.965  0.00  0.00    -0.166 F 
ENDBRANCH   9  15
ENDBRANCH   2   5
BRANCH   1  19
ATOM     19  C   UNL d   1      -1.266  -2.515  -2.800  0.00  0.00     0.038 A 
ATOM     20  C   UNL d   1      -1.034  -1.852  -1.601  0.00  0.00     0.061 A 
ATOM     21  C   UNL d   1      -0.487  -2.549  -0.516  0.00  0.00     0.146 A 
ATOM     22  F   UNL d   1      -0.324  -1.848   0.622  0.00  0.00    -0.204 F 
ATOM     23  C   UNL d   1      -0.141  -3.916  -0.564  0.00  0.00     0.107 A 
ATOM     24  C   UNL d   1      -0.458  -4.562  -1.775  0.00  0.00     0.146 A 
ATOM     25  C   UNL d   1      -1.011  -3.889  -2.871  0.00  0.00     0.061 A 
ATOM     26  F   UNL d   1      -0.188  -5.867  -1.947  0.00  0.00    -0.204 F 
BRANCH  23  27
ATOM     27  N   UNL d   1       0.426  -4.553   0.544  0.00  0.00    -0.385 N 
ATOM     28  C   UNL d   1       1.503  -3.876   1.269  0.00  0.00     0.149 C 
ATOM     29  C   UNL d   1       0.428  -6.007   0.664  0.00  0.00     0.149 C 
ENDBRANCH  23  27
ENDBRANCH   1  19
TORSDOF 5
