REMARK  5 active torsions:
REMARK  status: ('A' for Active; 'I' for Inactive)
REMARK    1  A    between atoms: C_2  and  S_1 
REMARK    2  A    between atoms: C_9  and  S_1 
REMARK    3  A    between atoms: C_10  and  C_2 
REMARK    4  A    between atoms: N_11  and  C_3 
REMARK    5  A    between atoms: C_4  and  N_11 
ROOT
ATOM      1  C   UNL d   1       0.301   1.508   0.734  0.00  0.00     0.125 C 
ATOM      2  C   UNL d   1      -0.329   2.336  -0.121  0.00  0.00     0.133 C 
ENDROOT
BRANCH   1   3
ATOM      3  S   UNL d   1       0.762   2.049   2.315  0.00  0.00     0.211 S 
ATOM      4  O   UNL d   1       2.208   2.116   2.381  0.00  0.00    -0.217 OA
ATOM      5  O   UNL d   1       0.037   1.265   3.307  0.00  0.00    -0.217 OA
BRANCH   3   6
ATOM      6  C   UNL d   1       0.155   3.713   2.551  0.00  0.00     0.064 A 
ATOM      7  C   UNL d   1      -1.125   3.902   3.089  0.00  0.00     0.025 A 
ATOM      8  C   UNL d   1      -1.559   5.190   3.409  0.00  0.00     0.025 A 
ATOM      9  C   UNL d   1      -0.708   6.278   3.200  0.00  0.00     0.034 A 
ATOM     10  C   UNL d   1       0.565   6.089   2.664  0.00  0.00     0.025 A 
ATOM     11 CL   UNL d   1      -1.229   7.858   3.639  0.00  0.00    -0.084 Cl
ATOM     12  C   UNL d   1       1.008   4.803   2.340  0.00  0.00     0.025 A 
ENDBRANCH   3   6
ENDBRANCH   1   3
BRANCH   1  13
ATOM     13  C   UNL d   1       0.632   0.111   0.320  0.00  0.00     0.168 C 
ATOM     14  O   UNL d   1       0.624  -0.195  -0.878  0.00  0.00    -0.292 OA
ATOM     15  C   UNL d   1       0.980  -0.960   1.326  0.00  0.00     0.097 C 
ENDBRANCH   1  13
BRANCH   2  16
ATOM     16  N   UNL d   1      -0.905   2.056  -1.337  0.00  0.00    -0.200 N 
ATOM     17  H   UNL d   1      -1.046   1.086  -1.602  0.00  0.00     0.183 HD
BRANCH  16  18
ATOM     18  C   UNL d   1      -1.524   2.952  -2.204  0.00  0.00     0.682 A 
ATOM     19  N   UNL d   1      -1.103   4.226  -2.251  0.00  0.00    -0.196 N 
ATOM     20  C   UNL d   1      -1.689   5.044  -3.150  0.00  0.00     0.024 A 
ATOM     21  HN  UNL d   1      -0.368   4.564  -1.630  1.00  0.00     0.184 HD
ATOM     22  C   UNL d   1      -1.132   6.429  -3.294  0.00  0.00     0.068 C 
ATOM     23  C   UNL d   1      -2.749   4.639  -3.933  0.00  0.00     0.050 A 
ATOM     24  C   UNL d   1      -3.151   3.329  -3.786  0.00  0.00     0.024 A 
ATOM     25  N   UNL d   1      -2.522   2.469  -2.958  0.00  0.00    -0.196 N 
ATOM     26  C   UNL d   1      -4.333   2.812  -4.552  0.00  0.00     0.068 C 
ATOM     27  HN  UNL d   1      -2.796   1.488  -2.907  1.00  0.00     0.184 HD
ENDBRANCH  16  18
ENDBRANCH   2  16
TORSDOF 5
