REMARK  4 active torsions:
REMARK  status: ('A' for Active; 'I' for Inactive)
REMARK    1  A    between atoms: C_6  and  N_1 
REMARK    2  A    between atoms: N_9  and  C_6 
REMARK    3  A    between atoms: C_12  and  C_8 
REMARK    4  A    between atoms: O_17  and  C_8 
ROOT
ATOM      1  C   UNL d   1       6.266  -1.302   0.018  0.00  0.00     0.088 C 
ATOM      2  N   UNL d   1       3.514  -2.325   0.007  0.00  0.00     0.107 N 
ATOM      3  C   UNL d   1       5.581  -1.855   1.281  0.00  0.00     0.073 C 
ATOM      4  C   UNL d   1       5.633  -1.946  -1.226  0.00  0.00     0.073 C 
ATOM      5  C   UNL d   1       4.113  -1.778  -1.218  0.00  0.00     0.278 C 
ATOM      6  C   UNL d   1       4.060  -1.685   1.211  0.00  0.00     0.278 C 
ENDROOT
BRANCH   2   7
ATOM      7  C   UNL d   1       2.034  -2.315  -0.012  0.00  0.00     0.418 C 
BRANCH   7   8
ATOM      8  N   UNL d   1       1.464  -0.978  -0.156  0.00  0.00    -0.245 N 
ATOM      9  N   UNL d   1       1.170  -0.241   0.938  0.00  0.00    -0.018 NA
ATOM     10  N   UNL d   1       0.672   0.915   0.520  0.00  0.00    -0.282 N 
ATOM     11  C   UNL d   1       0.609   0.883  -0.847  0.00  0.00     0.074 A 
ATOM     12  HN  UNL d   1       0.385   1.694   1.114  1.00  0.00     0.184 HD
ATOM     13  C   UNL d   1       1.081  -0.339  -1.310  0.00  0.00     0.078 A 
ATOM     14  C   UNL d   1       0.163   1.845  -1.766  0.00  0.00     0.033 A 
ATOM     15  C   UNL d   1       1.119  -0.674  -2.669  0.00  0.00     0.033 A 
ATOM     16  C   UNL d   1       0.676   0.298  -3.573  0.00  0.00     0.002 A 
ATOM     17  C   UNL d   1       0.208   1.538  -3.132  0.00  0.00     0.002 A 
ENDBRANCH   7   8
ENDBRANCH   2   7
BRANCH   1  18
ATOM     18  C   UNL d   1       7.782  -1.522   0.043  0.00  0.00    -0.024 A 
ATOM     19  C   UNL d   1       8.319  -2.818   0.151  0.00  0.00     0.012 A 
ATOM     20  C   UNL d   1       9.701  -3.029   0.188  0.00  0.00     0.024 A 
ATOM     21  C   UNL d   1      10.569  -1.945   0.117  0.00  0.00     0.034 A 
ATOM     22  C   UNL d   1      10.068  -0.654  -0.006  0.00  0.00     0.024 A 
ATOM     23 CL   UNL d   1      12.269  -2.201   0.177  0.00  0.00    -0.084 Cl
ATOM     24  C   UNL d   1       8.686  -0.446  -0.051  0.00  0.00     0.012 A 
ENDBRANCH   1  18
BRANCH   1  25
ATOM     25  O   UNL d   1       5.998   0.107  -0.056  0.00  0.00    -0.385 OA
ATOM     26  H   UNL d   1       6.211   0.489   0.814  0.00  0.00     0.211 HD
ENDBRANCH   1  25
TORSDOF 4
