REMARK  4 active torsions:
REMARK  status: ('A' for Active; 'I' for Inactive)
REMARK    1  A    between atoms: C_5  and  N_1 
REMARK    2  A    between atoms: C_10  and  C_5 
REMARK    3  A    between atoms: N_8  and  N_6 
REMARK    4  A    between atoms: C_16  and  C_15 
ROOT
ATOM      1  N   UNL d   1      -0.274   0.959  -0.047  0.00  0.00    -0.296 N 
ATOM      2  C   UNL d   1       1.042   0.611  -0.203  0.00  0.00     0.164 C 
ATOM      3  C   UNL d   1      -1.152  -0.075   0.182  0.00  0.00     0.235 C 
ATOM      4  S   UNL d   1       1.222  -1.135  -0.244  0.00  0.00    -0.083 SA
ATOM      5  N   UNL d   1       2.002   1.477  -0.290  0.00  0.00    -0.280 N 
ATOM      6  HN  UNL d   1       1.849   2.483  -0.354  1.00  0.00     0.189 HD
ATOM      7  C   UNL d   1      -0.540  -1.419  -0.090  0.00  0.00     0.185 C 
ATOM      8  O   UNL d   1      -2.310   0.050   0.572  0.00  0.00    -0.272 OA
ENDROOT
BRANCH   5   9
ATOM      9  N   UNL d   1       3.260   0.892  -0.286  0.00  0.00    -0.309 N 
ATOM     10  C   UNL d   1       4.185   1.642  -0.787  0.00  0.00     0.118 C 
ATOM     11  HN  UNL d   1       3.439  -0.044   0.079  1.00  0.00     0.186 HD
BRANCH  10  12
ATOM     12  C   UNL d   1       5.580   1.164  -0.830  0.00  0.00    -0.019 A 
ATOM     13  C   UNL d   1       5.924  -0.049  -0.221  0.00  0.00     0.013 A 
ATOM     14  C   UNL d   1       7.239  -0.508  -0.274  0.00  0.00     0.007 A 
ATOM     15  C   UNL d   1       8.221   0.237  -0.938  0.00  0.00    -0.062 A 
ATOM     16  C   UNL d   1       7.868   1.454  -1.538  0.00  0.00     0.007 A 
ATOM     17  C   UNL d   1       9.624  -0.284  -1.004  0.00  0.00     0.048 C 
ATOM     18  C   UNL d   1       6.550   1.921  -1.484  0.00  0.00     0.013 A 
ENDBRANCH  10  12
ENDBRANCH   5   9
BRANCH   1  19
ATOM     19  C   UNL d   1      -0.682   2.340   0.153  0.00  0.00     0.138 C 
BRANCH  19  20
ATOM     20  C   UNL d   1      -1.015   3.091  -1.110  0.00  0.00     0.004 A 
ATOM     21  C   UNL d   1      -2.071   2.597  -2.068  0.00  0.00     0.007 A 
ATOM     22  C   UNL d   1      -0.634   2.657  -2.506  0.00  0.00     0.007 A 
ENDBRANCH  19  20
ENDBRANCH   1  19
TORSDOF 4
