REMARK  7 active torsions:
REMARK  status: ('A' for Active; 'I' for Inactive)
REMARK    1  A    between atoms: C_3  and  C_1 
REMARK       I    between atoms: N_10  and  C_1 
REMARK    2  A    between atoms: C_5  and  N_2 
REMARK    3  A    between atoms: C_12  and  C_5 
REMARK    4  A    between atoms: O_11  and  C_15 
REMARK    5  A    between atoms: C_13  and  O_11 
REMARK    6  A    between atoms: C_15  and  C_12 
REMARK    7  A    between atoms: O_21  and  C_12 
ROOT
ATOM      1  C   UNL d   1       3.505   1.689  -3.497  0.00  0.00     0.306 C 
ENDROOT
BRANCH   1   2
ATOM      2  N   UNL d   1       2.225   0.971  -3.265  0.00  0.00     0.091 N 
ATOM      3  C   UNL d   1       2.556  -0.450  -3.022  0.00  0.00     0.273 C 
ATOM      4  C   UNL d   1       1.331  -1.352  -2.875  0.00  0.00     0.044 C 
ATOM      5  C   UNL d   1       0.411  -1.248  -4.090  0.00  0.00     0.081 C 
ATOM      6  C   UNL d   1       0.074   0.227  -4.332  0.00  0.00     0.044 C 
ATOM      7  C   UNL d   1       1.322   1.116  -4.422  0.00  0.00     0.273 C 
BRANCH   5   8
ATOM      8  C   UNL d   1       1.009  -1.908  -5.328  0.00  0.00     0.219 C 
ATOM      9  O   UNL d   1       1.247  -1.327  -6.383  0.00  0.00    -0.273 OA
ATOM     10  N   UNL d   1       1.260  -3.246  -5.220  0.00  0.00    -0.370 N 
ATOM     11  H   UNL d   1       0.871  -3.810  -4.478  0.00  0.00     0.159 HD
ATOM     12  H   UNL d   1       1.581  -3.716  -6.057  0.00  0.00     0.159 HD
ENDBRANCH   5   8
ENDBRANCH   1   2
BRANCH   1  13
ATOM     13  C   UNL d   1       3.497   3.199  -3.825  0.00  0.00     0.170 C 
BRANCH  13  14
ATOM     14  C   UNL d   1       2.889   4.063  -2.709  0.00  0.00     0.209 C 
BRANCH  14  15
ATOM     15  O   UNL d   1       2.984   5.445  -3.094  0.00  0.00    -0.349 OA
BRANCH  15  16
ATOM     16  C   UNL d   1       2.206   6.327  -2.397  0.00  0.00     0.069 A 
ATOM     17  C   UNL d   1       1.643   6.085  -1.143  0.00  0.00     0.038 A 
ATOM     18  C   UNL d   1       0.800   7.034  -0.557  0.00  0.00     0.022 A 
ATOM     19  C   UNL d   1       0.536   8.231  -1.218  0.00  0.00     0.011 A 
ATOM     20  C   UNL d   1       1.137   8.508  -2.442  0.00  0.00     0.022 A 
ATOM     21 BR   UNL d   1      -0.661   9.479  -0.453  0.00  0.00    -0.051 Br
ATOM     22  C   UNL d   1       1.980   7.556  -3.026  0.00  0.00     0.038 A 
ENDBRANCH  15  16
ENDBRANCH  14  15
ENDBRANCH  13  14
BRANCH  13  23
ATOM     23  O   UNL d   1       4.865   3.586  -4.066  0.00  0.00    -0.392 OA
ATOM     24  H   UNL d   1       5.298   3.712  -3.205  0.00  0.00     0.210 HD
ENDBRANCH  13  23
ENDBRANCH   1  13
TORSDOF 7
