REMARK  7 active torsions:
REMARK  status: ('A' for Active; 'I' for Inactive)
REMARK    1  A    between atoms: C_9  and  C_1 
REMARK    2  A    between atoms: C_26  and  C_3 
REMARK    3  A    between atoms: C_4  and  C_7 
REMARK    4  A    between atoms: C_7  and  O_13 
REMARK    5  A    between atoms: C_10  and  C_9 
REMARK    6  A    between atoms: O_13  and  C_17 
REMARK    7  A    between atoms: C_33  and  C_26 
ROOT
ATOM      1  C   UNL d   1      -1.774  -1.325  -0.061  0.00  0.00     0.029 C 
ATOM      2  C   UNL d   1      -1.980   0.148  -0.007  0.00  0.00     0.295 C 
ATOM      3  C   UNL d   1      -0.526  -1.845  -0.002  0.00  0.00    -0.033 C 
ATOM      4  O   UNL d   1      -0.962   0.917  -0.525  0.00  0.00    -0.274 OA
ATOM      5  C   UNL d   1       0.344   0.438  -0.375  0.00  0.00     0.093 A 
ATOM      6  C   UNL d   1       0.609  -0.890  -0.030  0.00  0.00     0.005 A 
ATOM      7  C   UNL d   1       1.345   1.397  -0.527  0.00  0.00     0.075 A 
ATOM      8  C   UNL d   1       1.949  -1.223   0.215  0.00  0.00     0.017 A 
ATOM      9  C   UNL d   1       2.662   1.045  -0.262  0.00  0.00     0.082 A 
ATOM     10  O   UNL d   1      -3.030   0.650   0.379  0.00  0.00    -0.259 OA
ATOM     11  C   UNL d   1       2.971  -0.257   0.122  0.00  0.00     0.038 A 
ENDROOT
BRANCH   9  12
ATOM     12  O   UNL d   1       3.582   2.119  -0.335  0.00  0.00    -0.275 OA
BRANCH  12  13
ATOM     13  C   UNL d   1       4.962   2.009  -0.283  0.00  0.00     0.300 C 
ATOM     14  O   UNL d   1       5.634   0.996  -0.315  0.00  0.00    -0.259 OA
BRANCH  13  15
ATOM     15  C   UNL d   1       5.548   3.368  -0.357  0.00  0.00     0.061 A 
ATOM     16  C   UNL d   1       5.139   4.437   0.452  0.00  0.00     0.051 A 
ATOM     17  C   UNL d   1       5.717   5.702   0.281  0.00  0.00     0.048 A 
ATOM     18 CL   UNL d   1       3.984   4.264   1.724  0.00  0.00    -0.083 Cl
ATOM     19  C   UNL d   1       6.712   5.890  -0.676  0.00  0.00     0.035 A 
ATOM     20  C   UNL d   1       7.158   4.822  -1.451  0.00  0.00     0.025 A 
ATOM     21 CL   UNL d   1       7.398   7.452  -0.900  0.00  0.00    -0.084 Cl
ATOM     22  C   UNL d   1       6.581   3.560  -1.289  0.00  0.00     0.021 A 
ENDBRANCH  13  15
ENDBRANCH  12  13
ENDBRANCH   9  12
BRANCH   3  23
ATOM     23  C   UNL d   1      -0.242  -3.336  -0.084  0.00  0.00     0.040 C 
BRANCH  23  24
ATOM     24  C   UNL d   1      -0.018  -4.053   1.256  0.00  0.00     0.000 C 
ATOM     25  C   UNL d   1      -1.249  -4.129   2.148  0.00  0.00     0.005 C 
ENDBRANCH  23  24
ENDBRANCH   3  23
BRANCH   1  26
ATOM     26  C   UNL d   1      -3.067  -2.097  -0.183  0.00  0.00     0.089 C 
BRANCH  26  27
ATOM     27  C   UNL d   1      -3.623  -2.299  -1.584  0.00  0.00     0.007 A 
ATOM     28  C   UNL d   1      -2.998  -1.809  -2.745  0.00  0.00     0.124 A 
ATOM     29  F   UNL d   1      -1.854  -1.118  -2.675  0.00  0.00    -0.205 F 
ATOM     30  C   UNL d   1      -3.526  -2.020  -4.017  0.00  0.00     0.043 A 
ATOM     31  C   UNL d   1      -4.706  -2.733  -4.173  0.00  0.00     0.005 A 
ATOM     32  C   UNL d   1      -5.354  -3.233  -3.048  0.00  0.00     0.024 A 
ATOM     33  C   UNL d   1      -4.820  -3.019  -1.769  0.00  0.00     0.043 A 
ATOM     34 CL   UNL d   1      -5.693  -3.692  -0.434  0.00  0.00    -0.084 Cl
ENDBRANCH  26  27
ENDBRANCH   1  26
TORSDOF 7
