REMARK  4 active torsions:
REMARK  status: ('A' for Active; 'I' for Inactive)
REMARK    1  A    between atoms: C_5  and  N_1 
REMARK    2  A    between atoms: C_7  and  C_2 
REMARK    3  A    between atoms: C_11  and  C_5 
REMARK    4  A    between atoms: O_17  and  C_12 
ROOT
ATOM      1  N   UNL d   1      -0.517  -1.205   0.179  0.00  0.00    -0.330 N 
ATOM      2  C   UNL d   1       0.859  -1.333  -0.244  0.00  0.00     0.183 A 
ATOM      3  S   UNL d   1       1.449   0.328  -0.663  0.00  0.00    -0.130 SA
ATOM      4  C   UNL d   1      -1.077   0.059   0.173  0.00  0.00     0.230 A 
ATOM      5  C   UNL d   1      -0.128   1.123  -0.320  0.00  0.00     0.179 A 
ATOM      6  O   UNL d   1      -2.229   0.311   0.512  0.00  0.00    -0.272 OA
ENDROOT
BRANCH   1   7
ATOM      7  C   UNL d   1      -1.353  -2.387   0.352  0.00  0.00     0.166 C 
BRANCH   7   8
ATOM      8  C   UNL d   1      -2.090  -2.747  -0.919  0.00  0.00    -0.040 A 
ATOM      9  C   UNL d   1      -1.505  -3.576  -1.887  0.00  0.00     0.011 A 
ATOM     10  C   UNL d   1      -2.168  -3.842  -3.090  0.00  0.00     0.037 A 
ATOM     11  C   UNL d   1      -3.421  -3.279  -3.338  0.00  0.00     0.068 A 
ATOM     12  C   UNL d   1      -4.030  -2.493  -2.364  0.00  0.00     0.037 A 
ATOM     13  C   UNL d   1      -3.364  -2.218  -1.168  0.00  0.00     0.011 A 
BRANCH  11  14
ATOM     14  O   UNL d   1      -4.146  -3.474  -4.483  0.00  0.00    -0.356 OA
ATOM     15  C   UNL d   1      -3.364  -3.515  -5.673  0.00  0.00     0.210 C 
ENDBRANCH  11  14
ENDBRANCH   7   8
ENDBRANCH   1   7
BRANCH   2  16
ATOM     16  C   UNL d   1       1.774  -1.967   0.787  0.00  0.00    -0.023 A 
ATOM     17  C   UNL d   1       2.923  -2.651   0.367  0.00  0.00     0.027 A 
ATOM     18  C   UNL d   1       3.773  -3.189   1.322  0.00  0.00     0.088 A 
ATOM     19  N   UNL d   1       3.560  -3.102   2.650  0.00  0.00    -0.375 N 
ATOM     20  C   UNL d   1       2.458  -2.429   3.043  0.00  0.00     0.088 A 
ATOM     21  HN  UNL d   1       4.199  -3.523   3.324  1.00  0.00     0.164 HD
ATOM     22  C   UNL d   1       1.554  -1.848   2.167  0.00  0.00     0.027 A 
ENDBRANCH   2  16
TORSDOF 4
