REMARK  4 active torsions:
REMARK  status: ('A' for Active; 'I' for Inactive)
REMARK    1  A    between atoms: C_2  and  S_1 
REMARK    2  A    between atoms: N_8  and  S_1 
REMARK    3  A    between atoms: C_3  and  C_7 
REMARK    4  A    between atoms: C_9  and  N_8 
ROOT
ATOM      1  S   UNL d   1       0.938  -0.070  -0.005  0.00  0.00     0.269 S 
ATOM      2  O   UNL d   1      -0.159  -1.017  -0.095  0.00  0.00    -0.200 OA
ATOM      3  O   UNL d   1       1.362   0.476   1.268  0.00  0.00    -0.200 OA
ENDROOT
BRANCH   1   4
ATOM      4  C   UNL d   1       0.384   1.303  -1.005  0.00  0.00     0.121 A 
ATOM      5  S   UNL d   1       1.092   2.826  -0.686  0.00  0.00    -0.074 SA
ATOM      6  C   UNL d   1       0.140   3.606  -1.869  0.00  0.00     0.033 A 
ATOM      7  C   UNL d   1      -0.684   2.717  -2.528  0.00  0.00     0.023 A 
ATOM      8  C   UNL d   1      -0.541   1.389  -2.032  0.00  0.00     0.034 A 
BRANCH   6   9
ATOM      9  C   UNL d   1       0.171   5.077  -2.161  0.00  0.00     0.056 A 
ATOM     10  N   UNL d   1      -0.694   5.641  -3.086  0.00  0.00    -0.353 N 
ATOM     11  C   UNL d   1      -0.519   6.945  -3.128  0.00  0.00     0.047 A 
ATOM     12  HN  UNL d   1      -1.368   5.122  -3.650  1.00  0.00     0.166 HD
ATOM     13  C   UNL d   1      -1.323   7.880  -3.960  0.00  0.00     0.076 C 
ATOM     14  S   UNL d   1       0.733   7.557  -2.122  0.00  0.00    -0.087 SA
ATOM     15  C   UNL d   1       1.022   5.972  -1.542  0.00  0.00     0.082 A 
ENDBRANCH   6   9
ENDBRANCH   1   4
BRANCH   1  16
ATOM     16  N   UNL d   1       2.247  -0.827  -0.753  0.00  0.00    -0.278 N 
ATOM     17  H   UNL d   1       1.941  -1.367  -1.562  0.00  0.00     0.179 HD
BRANCH  16  18
ATOM     18  C   UNL d   1       3.475  -0.106  -0.910  0.00  0.00     0.066 A 
ATOM     19  C   UNL d   1       4.389  -0.110   0.147  0.00  0.00     0.057 A 
ATOM     20  C   UNL d   1       5.634   0.515   0.003  0.00  0.00     0.058 A 
ATOM     21 CL   UNL d   1       6.740   0.426   1.327  0.00  0.00    -0.082 Cl
ATOM     22  C   UNL d   1       5.955   1.168  -1.194  0.00  0.00     0.057 A 
ATOM     23  C   UNL d   1       5.028   1.204  -2.239  0.00  0.00     0.051 A 
ATOM     24 CL   UNL d   1       7.483   1.931  -1.455  0.00  0.00    -0.082 Cl
ATOM     25  C   UNL d   1       3.795   0.566  -2.098  0.00  0.00     0.063 A 
ATOM     26 CL   UNL d   1       2.712   0.588  -3.443  0.00  0.00    -0.082 Cl
ENDBRANCH  16  18
ENDBRANCH   1  16
TORSDOF 4
