REMARK  3 active torsions:
REMARK  status: ('A' for Active; 'I' for Inactive)
REMARK    1  A    between atoms: N_5  and  C_1 
REMARK    2  A    between atoms: C_2  and  C_8 
REMARK       I    between atoms: N_6  and  C_2 
REMARK    3  A    between atoms: C_7  and  N_6 
ROOT
ATOM      1  C   UNL d   1      -0.144   0.731  -0.202  0.00  0.00     0.082 A 
ATOM      2  C   UNL d   1       1.082   0.072  -0.427  0.00  0.00     0.064 A 
ATOM      3  C   UNL d   1      -1.300  -0.063  -0.024  0.00  0.00     0.064 A 
ATOM      4  C   UNL d   1      -0.006  -2.105  -0.276  0.00  0.00     0.035 A 
ATOM      5  C   UNL d   1       1.137  -1.327  -0.477  0.00  0.00     0.043 A 
ATOM      6  C   UNL d   1      -1.225  -1.467  -0.048  0.00  0.00     0.043 A 
ATOM      7 CL   UNL d   1      -2.911   0.564   0.117  0.00  0.00    -0.082 Cl
ATOM      8 CL   UNL d   1       2.630   0.851  -0.486  0.00  0.00    -0.082 Cl
ENDROOT
BRANCH   4   9
ATOM      9  C   UNL d   1       0.162  -3.580  -0.174  0.00  0.00     0.256 C 
ATOM     10  N   UNL d   1      -0.945  -4.363  -0.447  0.00  0.00    -0.321 N 
ATOM     11  H   UNL d   1      -1.716  -3.950  -0.963  0.00  0.00     0.169 HD
ATOM     12  O   UNL d   1       1.269  -4.002   0.136  0.00  0.00    -0.267 OA
BRANCH  10  13
ATOM     13  C   UNL d   1      -1.080  -5.746  -0.153  0.00  0.00     0.058 A 
ATOM     14  C   UNL d   1      -0.184  -6.428   0.681  0.00  0.00     0.057 A 
ATOM     15  C   UNL d   1      -0.391  -7.773   1.013  0.00  0.00     0.058 A 
ATOM     16 CL   UNL d   1       0.750  -8.521   2.075  0.00  0.00    -0.082 Cl
ATOM     17  C   UNL d   1      -1.500  -8.456   0.507  0.00  0.00     0.057 A 
ATOM     18  C   UNL d   1      -2.394  -7.795  -0.338  0.00  0.00     0.051 A 
ATOM     19 CL   UNL d   1      -1.832 -10.104   0.903  0.00  0.00    -0.082 Cl
ATOM     20  C   UNL d   1      -2.185  -6.451  -0.659  0.00  0.00     0.062 A 
ATOM     21 CL   UNL d   1      -3.330  -5.677  -1.703  0.00  0.00    -0.082 Cl
ENDBRANCH  10  13
ENDBRANCH   4   9
BRANCH   1  22
ATOM     22  N   UNL d   1      -0.206   2.158  -0.136  0.00  0.00    -0.330 N 
ATOM     23  C   UNL d   1       0.477   3.051  -0.942  0.00  0.00     0.097 A 
ATOM     24  C   UNL d   1       0.166   4.340  -0.570  0.00  0.00     0.019 A 
ATOM     25  C   UNL d   1      -0.754   4.254   0.491  0.00  0.00     0.019 A 
ATOM     26  C   UNL d   1      -0.953   2.915   0.749  0.00  0.00     0.097 A 
ENDBRANCH   1  22
TORSDOF 3
