REMARK  3 active torsions:
REMARK  status: ('A' for Active; 'I' for Inactive)
REMARK    1  A    between atoms: C_10  and  N_1 
REMARK    2  A    between atoms: S_4  and  C_9 
REMARK    3  A    between atoms: N_8  and  S_4 
ROOT
ATOM      1  C   UNL d   1       6.241  -2.382  -0.584  0.00  0.00     0.079 A 
ATOM      2  C   UNL d   1       3.710  -1.288  -0.124  0.00  0.00     0.045 A 
ATOM      3  C   UNL d   1       5.974  -1.747   0.630  0.00  0.00     0.027 A 
ATOM      4  C   UNL d   1       5.255  -2.469  -1.575  0.00  0.00     0.027 A 
ATOM      5  C   UNL d   1       4.712  -1.196   0.855  0.00  0.00     0.032 A 
ATOM      6  C   UNL d   1       3.983  -1.940  -1.335  0.00  0.00     0.032 A 
ENDROOT
BRANCH   2   7
ATOM      7  N   UNL d   1       2.457  -0.631   0.086  0.00  0.00    -0.254 N 
ATOM      8  C   UNL d   1       1.268  -1.365   0.204  0.00  0.00     0.186 A 
ATOM      9  N   UNL d   1       0.124  -0.645   0.442  0.00  0.00    -0.332 N 
ATOM     10  S   UNL d   1       1.079  -3.037   0.159  0.00  0.00    -0.040 SA
ATOM     11  C   UNL d   1       0.088   0.739   0.593  0.00  0.00     0.050 A 
ATOM     12  H   UNL d   1      -0.730  -1.181   0.552  0.00  0.00     0.168 HD
ATOM     13  C   UNL d   1       1.250   1.481   0.450  0.00  0.00     0.060 A 
ATOM     14  C   UNL d   1      -1.115   1.372   0.901  0.00  0.00     0.031 A 
ATOM     15  C   UNL d   1       2.517   0.773   0.188  0.00  0.00     0.267 A 
ATOM     16  C   UNL d   1       1.216   2.876   0.575  0.00  0.00     0.026 A 
ATOM     17  O   UNL d   1       3.539   1.449   0.065  0.00  0.00    -0.267 OA
ATOM     18  C   UNL d   1       0.012   3.526   0.873  0.00  0.00    -0.061 A 
ATOM     19  C   UNL d   1      -0.040   5.018   1.031  0.00  0.00     0.048 C 
ATOM     20  C   UNL d   1      -1.148   2.761   1.054  0.00  0.00     0.009 A 
ENDBRANCH   2   7
BRANCH   1  21
ATOM     21  S   UNL d   1       7.894  -2.965  -0.932  0.00  0.00     0.260 S 
ATOM     22  O   UNL d   1       8.048  -2.990  -2.370  0.00  0.00    -0.200 OA
ATOM     23  O   UNL d   1       8.805  -2.204  -0.098  0.00  0.00    -0.200 OA
BRANCH  21  24
ATOM     24  N   UNL d   1       7.878  -4.578  -0.368  0.00  0.00    -0.307 N 
ATOM     25  C   UNL d   1       7.811  -4.748   1.103  0.00  0.00     0.135 C 
ATOM     26  C   UNL d   1       8.130  -6.191   1.484  0.00  0.00     0.021 C 
ATOM     27  C   UNL d   1       7.221  -7.170   0.749  0.00  0.00     0.003 C 
ATOM     28  C   UNL d   1       7.331  -6.954  -0.755  0.00  0.00     0.021 C 
ATOM     29  C   UNL d   1       6.999  -5.510  -1.121  0.00  0.00     0.135 C 
ENDBRANCH  21  24
ENDBRANCH   1  21
TORSDOF 3
