REMARK  3 active torsions:
REMARK  status: ('A' for Active; 'I' for Inactive)
REMARK    1  A    between atoms: C_5  and  C_1 
REMARK    2  A    between atoms: O_10  and  C_5 
REMARK    3  A    between atoms: C_13  and  O_10 
ROOT
ATOM      1  C   UNL d   1      -1.825  -1.278  -0.044  0.00  0.00     0.115 A 
ATOM      2  C   UNL d   1      -2.122   0.169   0.034  0.00  0.00     0.304 A 
ATOM      3  C   UNL d   1      -0.563  -1.736  -0.007  0.00  0.00     0.038 A 
ATOM      4  O   UNL d   1      -1.025   1.031  -0.003  0.00  0.00    -0.274 OA
ATOM      5  C   UNL d   1       0.555  -0.812   0.046  0.00  0.00    -0.001 A 
ATOM      6  C   UNL d   1       0.297   0.553   0.015  0.00  0.00     0.089 A 
ATOM      7  O   UNL d   1      -3.257   0.619   0.143  0.00  0.00    -0.259 OA
ATOM      8  C   UNL d   1       1.880  -1.252   0.081  0.00  0.00     0.014 A 
ATOM      9  C   UNL d   1       1.325   1.492   0.007  0.00  0.00     0.038 A 
ATOM     10  C   UNL d   1       2.646   1.048   0.039  0.00  0.00     0.003 A 
ATOM     11  C   UNL d   1       2.923  -0.321   0.079  0.00  0.00     0.001 A 
ENDROOT
BRANCH   1  12
ATOM     12  C   UNL d   1      -2.870  -2.307  -0.239  0.00  0.00     0.299 C 
ATOM     13  O   UNL d   1      -2.713  -3.491   0.022  0.00  0.00    -0.259 OA
BRANCH  12  14
ATOM     14  O   UNL d   1      -3.931  -1.780  -0.894  0.00  0.00    -0.318 OA
BRANCH  14  15
ATOM     15  C   UNL d   1      -4.851  -2.713  -1.475  0.00  0.00     0.174 C 
ATOM     16  C   UNL d   1      -4.437  -2.937  -2.918  0.00  0.00     0.034 C 
ENDBRANCH  14  15
ENDBRANCH  12  14
ENDBRANCH   1  12
TORSDOF 3
