REMARK  5 active torsions:
REMARK  status: ('A' for Active; 'I' for Inactive)
REMARK    1  A    between atoms: N_2  and  C_1 
REMARK    2  A    between atoms: C_3  and  C_6 
REMARK    3  A    between atoms: O_9  and  C_5 
REMARK    4  A    between atoms: C_7  and  C_13 
REMARK    5  A    between atoms: C_21  and  O_9 
ROOT
ATOM      1  C   UNL d   1       0.383   3.421   1.470  0.00  0.00     0.137 A 
ATOM      2  C   UNL d   1      -0.043   4.616   2.076  0.00  0.00     0.055 A 
ATOM      3  C   UNL d   1       1.387   3.409   0.501  0.00  0.00     0.109 A 
ATOM      4  C   UNL d   1       0.556   5.833   1.712  0.00  0.00     0.050 A 
ATOM      5  C   UNL d   1       1.928   4.638   0.091  0.00  0.00     0.040 A 
ATOM      6  C   UNL d   1       1.544   5.828   0.715  0.00  0.00     0.019 A 
ENDROOT
BRANCH   3   7
ATOM      7  O   UNL d   1       1.809   2.225  -0.063  0.00  0.00    -0.308 OA
BRANCH   7   8
ATOM      8  C   UNL d   1       3.161   2.072  -0.292  0.00  0.00     0.076 A 
ATOM      9  C   UNL d   1       4.141   2.579   0.566  0.00  0.00     0.038 A 
ATOM     10  C   UNL d   1       5.492   2.447   0.251  0.00  0.00     0.012 A 
ATOM     11  C   UNL d   1       5.898   1.744  -0.895  0.00  0.00    -0.035 A 
ATOM     12  C   UNL d   1       4.901   1.191  -1.724  0.00  0.00     0.012 A 
ATOM     13  C   UNL d   1       3.541   1.351  -1.420  0.00  0.00     0.038 A 
BRANCH  11  14
ATOM     14  C   UNL d   1       7.379   1.534  -1.132  0.00  0.00     0.141 C 
ATOM     15  S   UNL d   1       7.939   2.030  -2.789  0.00  0.00    -0.148 SA
ATOM     16  C   UNL d   1       9.111   0.667  -3.009  0.00  0.00     0.085 C 
ATOM     17  C   UNL d   1       8.446  -0.579  -2.460  0.00  0.00     0.085 C 
ATOM     18  S   UNL d   1       7.865  -0.192  -0.792  0.00  0.00    -0.148 SA
ENDBRANCH  11  14
ENDBRANCH   7   8
ENDBRANCH   3   7
BRANCH   1  19
ATOM     19  N   UNL d   1      -0.240   2.183   1.897  0.00  0.00    -0.113 N 
ATOM     20  O   UNL d   1      -1.476   2.129   1.829  0.00  0.00    -0.532 OA
ATOM     21  O   UNL d   1       0.493   1.300   2.360  0.00  0.00    -0.532 OA
ENDBRANCH   1  19
BRANCH   4  22
ATOM     22  C   UNL d   1       0.172   7.137   2.364  0.00  0.00     0.417 C 
ATOM     23  F   UNL d   1      -0.866   7.026   3.236  0.00  0.00    -0.166 F 
ATOM     24  F   UNL d   1       1.201   7.680   3.070  0.00  0.00    -0.166 F 
ATOM     25  F   UNL d   1      -0.198   8.081   1.455  0.00  0.00    -0.166 F 
ENDBRANCH   4  22
TORSDOF 5
