REMARK  9 active torsions:
REMARK  status: ('A' for Active; 'I' for Inactive)
REMARK    1  A    between atoms: O_12  and  C_1 
REMARK    2  A    between atoms: O_15  and  C_2 
REMARK    3  A    between atoms: O_14  and  C_3 
REMARK    4  A    between atoms: O_17  and  C_4 
REMARK    5  A    between atoms: O_18  and  C_7 
REMARK    6  A    between atoms: C_19  and  C_9 
REMARK    7  A    between atoms: N_11  and  C_19 
REMARK    8  A    between atoms: C_20  and  N_11 
REMARK    9  A    between atoms: C_13  and  C_20 
ROOT
ATOM      1  N   UNL d   1      -3.614  -0.774  -0.274  0.00  0.00     0.091 N 
ATOM      2  H   UNL d   1      -3.434  -1.351   0.545  0.00  0.00     0.316 HD
ENDROOT
BRANCH   1   3
ATOM      3  C   UNL d   1      -2.830   0.455  -0.199  0.00  0.00     0.308 C 
BRANCH   3   4
ATOM      4  C   UNL d   1      -1.355   0.143  -0.109  0.00  0.00    -0.025 A 
ATOM      5  C   UNL d   1      -0.468   0.564  -1.103  0.00  0.00     0.048 A 
ATOM      6  C   UNL d   1       0.896   0.242  -1.046  0.00  0.00     0.104 A 
ATOM      7  C   UNL d   1       1.393  -0.501   0.039  0.00  0.00     0.135 A 
ATOM      8  C   UNL d   1       0.524  -0.837   1.100  0.00  0.00     0.104 A 
ATOM      9  C   UNL d   1      -0.842  -0.552   0.994  0.00  0.00     0.048 A 
BRANCH   6  10
ATOM     10  O   UNL d   1       1.612   0.789  -2.080  0.00  0.00    -0.353 OA
ATOM     11  C   UNL d   1       2.708   0.031  -2.570  0.00  0.00     0.210 C 
ENDBRANCH   6  10
BRANCH   7  12
ATOM     12  O   UNL d   1       2.742  -0.749   0.114  0.00  0.00    -0.351 OA
ATOM     13  C   UNL d   1       3.083  -2.124   0.309  0.00  0.00     0.210 C 
ENDBRANCH   7  12
BRANCH   8  14
ATOM     14  O   UNL d   1       1.080  -1.414   2.217  0.00  0.00    -0.353 OA
ATOM     15  C   UNL d   1       0.307  -1.372   3.412  0.00  0.00     0.210 C 
ENDBRANCH   8  14
ENDBRANCH   3   4
ENDBRANCH   1   3
BRANCH   1  16
ATOM     16  C   UNL d   1      -5.045  -0.504  -0.349  0.00  0.00     0.308 C 
BRANCH  16  17
ATOM     17  C   UNL d   1      -5.828  -1.796  -0.327  0.00  0.00    -0.028 A 
ATOM     18  C   UNL d   1      -6.762  -2.054   0.690  0.00  0.00     0.048 A 
ATOM     19  C   UNL d   1      -7.477  -3.262   0.741  0.00  0.00     0.102 A 
ATOM     20  C   UNL d   1      -7.260  -4.221  -0.263  0.00  0.00     0.101 A 
ATOM     21  C   UNL d   1      -6.321  -3.970  -1.270  0.00  0.00     0.040 A 
ATOM     22  C   UNL d   1      -5.617  -2.769  -1.311  0.00  0.00     0.012 A 
BRANCH  19  23
ATOM     23  O   UNL d   1      -8.355  -3.575   1.745  0.00  0.00    -0.353 OA
ATOM     24  C   UNL d   1      -8.553  -2.630   2.787  0.00  0.00     0.210 C 
ENDBRANCH  19  23
BRANCH  20  25
ATOM     25  O   UNL d   1      -7.838  -5.464  -0.365  0.00  0.00    -0.353 OA
ATOM     26  C   UNL d   1      -9.173  -5.586   0.103  0.00  0.00     0.210 C 
ENDBRANCH  20  25
ENDBRANCH  16  17
ENDBRANCH   1  16
TORSDOF 9
