REMARK  4 active torsions:
REMARK  status: ('A' for Active; 'I' for Inactive)
REMARK    1  A    between atoms: C_4  and  N_1 
REMARK       I    between atoms: C_2  and  N_3 
REMARK       I    between atoms: N_9  and  C_2 
REMARK    2  A    between atoms: N_5  and  C_6 
REMARK    3  A    between atoms: C_22  and  N_9 
REMARK    4  A    between atoms: C_14  and  C_15 
ROOT
ATOM      1  C   UNL d   1      -3.020  -8.307   3.047  0.00  0.00     0.323 C 
ATOM      2  N   UNL d   1      -2.458  -7.127   2.574  0.00  0.00    -0.331 N 
ATOM      3  N   UNL d   1      -1.932  -4.512   1.591  0.00  0.00    -0.364 N 
ATOM      4  N   UNL d   1      -2.963  -9.376   2.183  0.00  0.00    -0.309 N 
ATOM      5  O   UNL d   1      -3.552  -8.347   4.151  0.00  0.00    -0.247 OA
ATOM      6  C   UNL d   1      -2.431  -5.972   3.491  0.00  0.00     0.147 C 
ATOM      7  C   UNL d   1      -1.727  -6.926   1.306  0.00  0.00     0.147 C 
ATOM      8  C   UNL d   1      -2.090  -5.593   0.618  0.00  0.00     0.144 C 
ATOM      9  C   UNL d   1      -2.767  -4.646   2.786  0.00  0.00     0.144 C 
ATOM     10  H   UNL d   1      -2.252  -9.360   1.476  0.00  0.00     0.170 HD
ENDROOT
BRANCH   4  11
ATOM     11  C   UNL d   1      -3.744 -10.550   2.235  0.00  0.00     0.036 A 
ATOM     12  C   UNL d   1      -4.797 -10.745   3.124  0.00  0.00     0.030 A 
ATOM     13  C   UNL d   1      -5.631 -11.863   3.012  0.00  0.00     0.010 A 
ATOM     14  C   UNL d   1      -5.446 -12.822   2.002  0.00  0.00    -0.051 A 
ATOM     15  C   UNL d   1      -4.331 -12.656   1.166  0.00  0.00     0.010 A 
ATOM     16  C   UNL d   1      -3.494 -11.536   1.279  0.00  0.00     0.030 A 
BRANCH  14  17
ATOM     17  C   UNL d   1      -6.475 -13.949   1.806  0.00  0.00    -0.024 C 
ATOM     18  C   UNL d   1      -6.139 -14.890   0.628  0.00  0.00     0.019 C 
ATOM     19  C   UNL d   1      -6.584 -14.815   3.078  0.00  0.00     0.019 C 
ATOM     20  C   UNL d   1      -7.859 -13.327   1.507  0.00  0.00     0.019 C 
ENDBRANCH  14  17
ENDBRANCH   4  11
BRANCH   3  21
ATOM     21  C   UNL d   1      -1.262  -3.370   1.240  0.00  0.00     0.103 A 
ATOM     22  C   UNL d   1      -0.652  -2.563   2.202  0.00  0.00     0.051 A 
ATOM     23  C   UNL d   1       0.127  -1.469   1.817  0.00  0.00     0.041 A 
ATOM     24  C   UNL d   1       0.257  -1.192   0.461  0.00  0.00     0.118 A 
ATOM     25  C   UNL d   1      -0.387  -2.010  -0.446  0.00  0.00     0.125 A 
ATOM     26  N   UNL d   1      -1.123  -3.088  -0.076  0.00  0.00    -0.350 N 
ATOM     27  HN  UNL d   1      -1.565  -3.678  -0.780  1.00  0.00     0.166 HD
BRANCH  24  28
ATOM     28  N   UNL d   1       1.073  -0.083  -0.008  0.00  0.00    -0.114 N 
ATOM     29  O   UNL d   1       1.137   0.108  -1.231  0.00  0.00    -0.532 OA
ATOM     30  O   UNL d   1       1.657   0.600   0.843  0.00  0.00    -0.532 OA
ENDBRANCH  24  28
ENDBRANCH   3  21
TORSDOF 4
