REMARK  3 active torsions:
REMARK  status: ('A' for Active; 'I' for Inactive)
REMARK    1  A    between atoms: N_3  and  C_2 
REMARK    2  A    between atoms: O_19  and  C_9 
REMARK    3  A    between atoms: O_20  and  C_10 
ROOT
ATOM      1  C   UNL d   1       0.123   0.778   0.030  0.00  0.00     0.032 A 
ATOM      2  C   UNL d   1      -1.122   1.441   0.095  0.00  0.00     0.096 A 
ATOM      3  C   UNL d   1       0.079  -0.589  -0.172  0.00  0.00     0.049 A 
ATOM      4  C   UNL d   1       1.391   1.389   0.207  0.00  0.00     0.056 A 
ATOM      5  N   UNL d   1      -2.285   0.771  -0.013  0.00  0.00    -0.342 N 
ATOM      6  HN  UNL d   1      -3.186   1.246   0.044  1.00  0.00     0.167 HD
ATOM      7  C   UNL d   1       1.288  -1.272  -0.239  0.00  0.00     0.070 A 
ATOM      8  C   UNL d   1       2.622   0.699   0.144  0.00  0.00     0.102 A 
ATOM      9  C   UNL d   1       2.571  -0.672  -0.105  0.00  0.00     0.103 A 
ATOM     10  N   UNL d   1      -1.071  -1.267  -0.294  0.00  0.00    -0.351 N 
ATOM     11  HN  UNL d   1      -1.088  -2.275  -0.451  1.00  0.00     0.166 HD
ATOM     12  C   UNL d   1      -2.196  -0.550  -0.199  0.00  0.00     0.182 A 
ENDROOT
BRANCH   2  13
ATOM     13  N   UNL d   1      -1.160   2.827   0.337  0.00  0.00    -0.265 NA
ATOM     14  C   UNL d   1      -2.401   3.296   0.987  0.00  0.00     0.127 C 
ATOM     15  C   UNL d   1      -2.194   4.758   1.441  0.00  0.00     0.286 C 
ATOM     16  N   UNL d   1      -1.804   5.670   0.337  0.00  0.00     0.086 N 
ATOM     17  C   UNL d   1      -0.646   5.114  -0.403  0.00  0.00     0.286 C 
ATOM     18  C   UNL d   1      -1.484   6.996   0.865  0.00  0.00     0.310 C 
ATOM     19  C   UNL d   1      -0.856   3.649  -0.864  0.00  0.00     0.127 C 
ENDBRANCH   2  13
BRANCH   8  20
ATOM     20  O   UNL d   1       3.607   1.598   0.387  0.00  0.00    -0.353 OA
ATOM     21  C   UNL d   1       4.967   1.429   0.071  0.00  0.00     0.210 C 
ENDBRANCH   8  20
BRANCH   9  22
ATOM     22  O   UNL d   1       3.501  -1.649  -0.264  0.00  0.00    -0.353 OA
ATOM     23  C   UNL d   1       4.853  -1.537   0.101  0.00  0.00     0.210 C 
ENDBRANCH   9  22
TORSDOF 3
