REMARK  3 active torsions:
REMARK  status: ('A' for Active; 'I' for Inactive)
REMARK    1  A    between atoms: C_7  and  C_1 
REMARK    2  A    between atoms: O_10  and  C_9 
REMARK    3  A    between atoms: C_15  and  O_10 
ROOT
ATOM      1  C   UNL d   1       3.663   1.388   0.134  0.00  0.00     0.067 A 
ATOM      2  C   UNL d   1       4.441   1.151  -0.996  0.00  0.00     0.162 A 
ATOM      3  N   UNL d   1       5.619   1.798  -1.223  0.00  0.00    -0.346 N 
ATOM      4  HN  UNL d   1       6.147   1.640  -2.082  1.00  0.00     0.167 HD
ATOM      5  C   UNL d   1       4.170   2.281   1.095  0.00  0.00     0.021 A 
ATOM      6  C   UNL d   1       6.069   2.652  -0.281  0.00  0.00     0.090 A 
ATOM      7  C   UNL d   1       5.389   2.917   0.890  0.00  0.00     0.018 A 
ENDROOT
BRANCH   1   8
ATOM      8  C   UNL d   1       2.370   0.721   0.390  0.00  0.00     0.166 A 
ATOM      9  N   UNL d   1       2.065  -0.480   0.032  0.00  0.00    -0.335 N 
ATOM     10  C   UNL d   1       0.828  -0.970   0.452  0.00  0.00     0.053 A 
ATOM     11  HN  UNL d   1       2.698  -1.046  -0.533  1.00  0.00     0.168 HD
ATOM     12  C   UNL d   1       0.467  -2.283   0.131  0.00  0.00     0.031 A 
ATOM     13  C   UNL d   1      -0.033  -0.206   1.230  0.00  0.00     0.105 A 
ATOM     14  C   UNL d   1      -0.729  -2.830   0.603  0.00  0.00     0.005 A 
ATOM     15  C   UNL d   1      -1.573  -2.062   1.402  0.00  0.00     0.043 A 
ATOM     16  C   UNL d   1      -1.223  -0.750   1.709  0.00  0.00     0.135 A 
ATOM     17  F   UNL d   1      -2.053  -0.044   2.487  0.00  0.00    -0.205 F 
ATOM     18  C   UNL d   1       0.365   1.168   1.532  0.00  0.00     0.305 A 
ATOM     19  O   UNL d   1       1.579   1.571   1.086  0.00  0.00    -0.256 OA
ATOM     20  O   UNL d   1      -0.348   1.932   2.169  0.00  0.00    -0.259 OA
ENDBRANCH   1   8
BRANCH   2  21
ATOM     21  O   UNL d   1       3.985   0.269  -1.968  0.00  0.00    -0.293 OA
BRANCH  21  22
ATOM     22  C   UNL d   1       4.926  -0.262  -2.828  0.00  0.00     0.077 A 
ATOM     23  C   UNL d   1       6.095  -0.878  -2.373  0.00  0.00     0.037 A 
ATOM     24  C   UNL d   1       7.015  -1.395  -3.288  0.00  0.00     0.003 A 
ATOM     25  C   UNL d   1       6.751  -1.325  -4.655  0.00  0.00     0.000 A 
ATOM     26  C   UNL d   1       5.563  -0.749  -5.108  0.00  0.00     0.003 A 
ATOM     27  C   UNL d   1       4.646  -0.222  -4.194  0.00  0.00     0.037 A 
ENDBRANCH  21  22
ENDBRANCH   2  21
TORSDOF 3
