REMARK  4 active torsions:
REMARK  status: ('A' for Active; 'I' for Inactive)
REMARK    1  A    between atoms: C_6  and  C_1 
REMARK    2  A    between atoms: N_3  and  C_6 
REMARK    3  A    between atoms: C_8  and  N_3 
REMARK    4  A    between atoms: C_9  and  C_8 
ROOT
ATOM      1  N   UNL d   1      -1.396   2.821   1.117  0.00  0.00     0.098 N 
ATOM      2  H   UNL d   1      -1.605   3.818   1.139  0.00  0.00     0.317 HD
ENDROOT
BRANCH   1   3
ATOM      3  C   UNL d   1      -0.634   2.512  -0.106  0.00  0.00     0.273 C 
ATOM      4  C   UNL d   1      -1.370   2.965  -1.377  0.00  0.00     0.050 C 
BRANCH   3   5
ATOM      5  C   UNL d   1       0.724   3.154  -0.063  0.00  0.00     0.085 A 
ATOM      6  O   UNL d   1       1.558   2.865  -1.110  0.00  0.00    -0.325 OA
ATOM      7  C   UNL d   1       2.709   3.555  -0.914  0.00  0.00     0.142 A 
ATOM      8  C   UNL d   1       2.643   4.276   0.254  0.00  0.00     0.027 A 
ATOM      9  C   UNL d   1       1.367   4.013   0.809  0.00  0.00     0.037 A 
ENDBRANCH   3   5
ENDBRANCH   1   3
BRANCH   1  10
ATOM     10  C   UNL d   1      -2.651   2.074   1.208  0.00  0.00     0.309 C 
BRANCH  10  11
ATOM     11  C   UNL d   1      -3.431   2.432   2.451  0.00  0.00    -0.030 A 
ATOM     12  C   UNL d   1      -4.685   3.055   2.349  0.00  0.00     0.009 A 
ATOM     13  C   UNL d   1      -5.431   3.344   3.493  0.00  0.00     0.001 A 
ATOM     14  C   UNL d   1      -4.930   3.018   4.752  0.00  0.00     0.000 A 
ATOM     15  C   UNL d   1      -3.682   2.410   4.868  0.00  0.00     0.001 A 
ATOM     16  C   UNL d   1      -2.935   2.119   3.724  0.00  0.00     0.009 A 
ENDBRANCH  10  11
ENDBRANCH   1  10
TORSDOF 4
