REMARK  2 active torsions:
REMARK  status: ('A' for Active; 'I' for Inactive)
REMARK    1  A    between atoms: N_9  and  N_6 
REMARK    2  A    between atoms: C_11  and  N_9 
ROOT
ATOM      1  C   UNL d   1       0.028   0.788  -0.006  0.00  0.00     0.141 A 
ATOM      2  C   UNL d   1      -1.191  -0.078   0.102  0.00  0.00     0.290 A 
ATOM      3  N   UNL d   1       0.742  -1.397   0.017  0.00  0.00    -0.300 N 
ATOM      4  HN  UNL d   1       1.317  -2.239   0.009  1.00  0.00     0.186 HD
ATOM      5  N   UNL d   1      -0.648  -1.344   0.068  0.00  0.00    -0.264 N 
ATOM      6  N   UNL d   1       0.142   2.075  -0.097  0.00  0.00    -0.293 N 
ATOM      7  HN  UNL d   1       1.049   2.531  -0.204  1.00  0.00     0.187 HD
ATOM      8  C   UNL d   1       1.171  -0.165  -0.020  0.00  0.00     0.055 A 
ATOM      9  O   UNL d   1      -2.335   0.300   0.215  0.00  0.00    -0.264 OA
ATOM     10  C   UNL d   1       2.578   0.295  -0.036  0.00  0.00     0.072 C 
ATOM     11  H   UNL d   1      -1.190  -2.199   0.131  0.00  0.00     0.190 HD
ENDROOT
BRANCH   6  12
ATOM     12  N   UNL d   1      -1.015   2.781  -0.040  0.00  0.00    -0.300 N 
ATOM     13  H   UNL d   1      -1.880   2.372   0.327  0.00  0.00     0.187 HD
BRANCH  12  14
ATOM     14  C   UNL d   1      -0.973   4.180  -0.152  0.00  0.00     0.048 A 
ATOM     15  C   UNL d   1       0.068   4.836  -0.823  0.00  0.00     0.032 A 
ATOM     16  C   UNL d   1       0.098   6.231  -0.920  0.00  0.00     0.021 A 
ATOM     17  C   UNL d   1      -0.907   6.983  -0.319  0.00  0.00     0.011 A 
ATOM     18  C   UNL d   1      -1.940   6.354   0.371  0.00  0.00     0.021 A 
ATOM     19 BR   UNL d   1      -0.865   8.869  -0.436  0.00  0.00    -0.051 Br
ATOM     20  C   UNL d   1      -1.973   4.957   0.448  0.00  0.00     0.032 A 
ENDBRANCH  12  14
ENDBRANCH   6  12
TORSDOF 2
