REMARK  3 active torsions:
REMARK  status: ('A' for Active; 'I' for Inactive)
REMARK    1  A    between atoms: C_2  and  C_1 
REMARK    2  A    between atoms: C_4  and  C_2 
REMARK    3  A    between atoms: C_7  and  C_3 
ROOT
ATOM      1  C   UNL d   1       0.953   0.040   0.048  0.00  0.00     0.097 C 
ATOM      2  C   UNL d   1       0.314   1.002  -0.656  0.00  0.00     0.045 C 
ATOM      3  C   UNL d   1       0.256  -0.971   0.811  0.00  0.00     0.103 C 
ATOM      4  N   UNL d   1      -0.302  -1.784   1.427  0.00  0.00    -0.191 NA
ENDROOT
BRANCH   1   5
ATOM      5  C   UNL d   1       2.460   0.037  -0.030  0.00  0.00     0.209 C 
ATOM      6  O   UNL d   1       2.998   0.532  -1.020  0.00  0.00    -0.285 OA
BRANCH   5   7
ATOM      7  C   UNL d   1       3.224  -0.544   1.072  0.00  0.00     0.056 A 
ATOM      8  S   UNL d   1       4.775  -1.212   0.745  0.00  0.00    -0.098 SA
ATOM      9  C   UNL d   1       5.005  -1.665   2.376  0.00  0.00     0.050 A 
ATOM     10  C   UNL d   1       3.940  -1.298   3.166  0.00  0.00     0.009 A 
ATOM     11  C   UNL d   1       2.920  -0.640   2.418  0.00  0.00     0.023 A 
ENDBRANCH   5   7
ENDBRANCH   1   5
BRANCH   2  12
ATOM     12  C   UNL d   1      -1.105   1.115  -0.635  0.00  0.00     0.006 A 
ATOM     13  S   UNL d   1      -1.855   2.215   0.454  0.00  0.00    -0.102 SA
ATOM     14  C   UNL d   1      -3.421   1.730  -0.024  0.00  0.00     0.050 A 
ATOM     15  C   UNL d   1      -3.387   0.775  -1.014  0.00  0.00     0.008 A 
ATOM     16  C   UNL d   1      -2.051   0.428  -1.373  0.00  0.00     0.019 A 
ENDBRANCH   2  12
TORSDOF 3
