REMARK  2 active torsions:
REMARK  status: ('A' for Active; 'I' for Inactive)
REMARK    1  A    between atoms: C_5  and  C_1 
REMARK       I    between atoms: N_6  and  C_1 
REMARK    2  A    between atoms: C_4  and  N_6 
ROOT
ATOM      1  C   UNL d   1       1.033  -1.534   0.200  0.00  0.00     0.255 C 
ATOM      2  N   UNL d   1       0.285  -0.703  -0.605  0.00  0.00    -0.351 N 
ATOM      3  O   UNL d   1       0.541  -2.406   0.908  0.00  0.00    -0.268 OA
ATOM      4  H   UNL d   1       0.759  -0.025  -1.189  0.00  0.00     0.163 HD
ENDROOT
BRANCH   2   5
ATOM      5  C   UNL d   1      -1.159  -0.830  -0.734  0.00  0.00     0.094 C 
ATOM      6  C   UNL d   1      -1.980   0.215   0.097  0.00  0.00    -0.016 C 
ATOM      7  C   UNL d   1      -3.348   0.253  -0.660  0.00  0.00    -0.035 C 
ATOM      8  C   UNL d   1      -1.403   1.627  -0.200  0.00  0.00     0.012 C 
ATOM      9  C   UNL d   1      -2.047  -0.103   1.580  0.00  0.00     0.018 C 
ATOM     10  C   UNL d   1      -4.348   1.330  -0.189  0.00  0.00     0.016 C 
ATOM     11  C   UNL d   1      -4.137  -1.072  -0.686  0.00  0.00     0.016 C 
ATOM     12  C   UNL d   1      -2.646   0.599  -1.998  0.00  0.00    -0.004 C 
ATOM     13  C   UNL d   1      -1.630  -0.550  -2.180  0.00  0.00     0.031 C 
ATOM     14  C   UNL d   1      -1.826   1.866  -1.660  0.00  0.00     0.006 C 
ENDBRANCH   2   5
BRANCH   1  15
ATOM     15  C   UNL d   1       2.509  -1.362   0.162  0.00  0.00     0.075 A 
ATOM     16  C   UNL d   1       3.241  -1.332   1.363  0.00  0.00     0.051 A 
ATOM     17 CL   UNL d   1       2.499  -1.261   2.925  0.00  0.00    -0.083 Cl
ATOM     18  C   UNL d   1       4.643  -1.303   1.341  0.00  0.00     0.025 A 
ATOM     19  C   UNL d   1       5.329  -1.285   0.131  0.00  0.00     0.003 A 
ATOM     20  C   UNL d   1       4.615  -1.281  -1.064  0.00  0.00     0.025 A 
ATOM     21  C   UNL d   1       3.214  -1.323  -1.054  0.00  0.00     0.051 A 
ATOM     22 CL   UNL d   1       2.448  -1.351  -2.607  0.00  0.00    -0.083 Cl
ENDBRANCH   1  15
TORSDOF 2
