REMARK  9 active torsions:
REMARK  status: ('A' for Active; 'I' for Inactive)
REMARK       I    between atoms: N_11  and  C1_1 
REMARK    1  A    between atoms: O3_3  and  C1_1 
REMARK    2  A    between atoms: C7_4  and  O3_3 
REMARK    3  A    between atoms: C12_5  and  C7_4 
REMARK    4  A    between atoms: CA_12  and  N_11 
REMARK    5  A    between atoms: CB_14  and  CA_12 
REMARK    6  A    between atoms: CA_12  and  C_13 
REMARK    7  A    between atoms: OXT_17  and  C_13 
REMARK    8  A    between atoms: CG_16  and  CB_14 
REMARK    9  A    between atoms: OH_23  and  CZ_18 
ROOT
ATOM      1  CA  TYR d   1       1.019  -0.706  -2.389  0.00  0.00     0.188 C 
ENDROOT
BRANCH   1   2
ATOM      2  CB  TYR d   1       0.062  -0.829  -3.596  0.00  0.00     0.074 C 
BRANCH   2   3
ATOM      3  CG  TYR d   1       0.732  -1.312  -4.865  0.00  0.00    -0.056 A 
ATOM      4  CD1 TYR d   1       0.349  -2.528  -5.451  0.00  0.00     0.010 A 
ATOM      5  CE1 TYR d   1       0.982  -2.988  -6.607  0.00  0.00     0.037 A 
ATOM      6  CZ  TYR d   1       1.995  -2.233  -7.184  0.00  0.00     0.065 A 
ATOM      7  CE2 TYR d   1       2.384  -1.020  -6.625  0.00  0.00     0.037 A 
ATOM      8  CD2 TYR d   1       1.749  -0.559  -5.469  0.00  0.00     0.010 A 
BRANCH   6   9
ATOM      9  OH  TYR d   1       2.587  -2.720  -8.310  0.00  0.00    -0.361 OA
ATOM     10  HH  TYR d   1       3.264  -2.089  -8.604  0.00  0.00     0.217 HD
ENDBRANCH   6   9
ENDBRANCH   2   3
ENDBRANCH   1   2
BRANCH   1  11
ATOM     11  C   TYR d   1       0.169  -0.209  -1.206  0.00  0.00     0.163 C 
ATOM     12  O   TYR d   1      -0.426   0.859  -1.198  0.00  0.00    -0.648 OA
BRANCH  11  13
ATOM     13  OXT TYR d   1       0.070  -1.098  -0.191  0.00  0.00    -0.775 OA
ATOM     14  HXT TYR d   1       0.630  -1.877  -0.377  0.00  0.00     0.167 HD
ENDBRANCH  11  13
ENDBRANCH   1  11
BRANCH   1  15
ATOM     15  N   TYR d   1       1.697  -1.994  -2.132  0.00  0.00    -0.322 N 
ATOM     16  C1  <1> d   1       2.867  -2.110  -1.431  0.00  0.00     0.361 C 
ATOM     17  O1  <1> d   1       3.654  -3.012  -1.675  0.00  0.00    -0.238 OA
ATOM     18  H   TYR d   1       1.749  -2.621  -2.929  0.00  0.00     0.165 HD
BRANCH  16  19
ATOM     19  O3  <1> d   1       2.961  -1.217  -0.425  0.00  0.00    -0.299 OA
BRANCH  19  20
ATOM     20  C7  <1> d   1       4.032  -1.452   0.500  0.00  0.00     0.219 C 
BRANCH  20  21
ATOM     21  C12 <1> d   1       4.801  -0.177   0.711  0.00  0.00    -0.034 A 
ATOM     22  C13 <1> d   1       4.383   0.759   1.666  0.00  0.00     0.009 A 
ATOM     23  C15 <1> d   1       5.114   1.930   1.873  0.00  0.00     0.001 A 
ATOM     24  C17 <1> d   1       6.261   2.179   1.121  0.00  0.00     0.000 A 
ATOM     25  C16 <1> d   1       6.675   1.263   0.156  0.00  0.00     0.001 A 
ATOM     26  C14 <1> d   1       5.946   0.092  -0.053  0.00  0.00     0.009 A 
ENDBRANCH  20  21
ENDBRANCH  19  20
ENDBRANCH  16  19
ENDBRANCH   1  15
TORSDOF 9
