REMARK  5 active torsions:
REMARK  status: ('A' for Active; 'I' for Inactive)
REMARK    1  A    between atoms: C_3  and  N_1 
REMARK    2  A    between atoms: C_8  and  C_2 
REMARK    3  A    between atoms: C_4  and  O_9 
REMARK    4  A    between atoms: O_9  and  C_7 
REMARK    5  A    between atoms: O_21  and  C_8 
ROOT
ATOM      1  C   UNL d   1       0.030   2.273  -0.067  0.00  0.00     0.080 A 
ATOM      2  C   UNL d   1       0.661   2.921  -1.156  0.00  0.00     0.103 A 
ATOM      3  C   UNL d   1      -0.602   3.108   0.887  0.00  0.00     0.057 A 
ATOM      4  C   UNL d   1       0.600   4.329  -1.277  0.00  0.00     0.041 A 
ATOM      5  C   UNL d   1      -0.615   4.500   0.772  0.00  0.00     0.036 A 
ATOM      6  C   UNL d   1      -0.011   5.117  -0.308  0.00  0.00     0.026 A 
ATOM      7 CL   UNL d   1      -1.385   5.456   1.978  0.00  0.00    -0.084 Cl
ENDROOT
BRANCH   2   8
ATOM      8  O   UNL d   1       1.234   2.211  -2.200  0.00  0.00    -0.307 OA
BRANCH   8   9
ATOM      9  C   UNL d   1       2.385   2.646  -2.798  0.00  0.00     0.099 A 
ATOM     10  C   UNL d   1       2.690   2.372  -4.123  0.00  0.00     0.114 A 
ATOM     11  S   UNL d   1       4.156   3.162  -4.587  0.00  0.00    -0.093 SA
ATOM     12  C   UNL d   1       4.423   3.770  -3.021  0.00  0.00     0.053 A 
ATOM     13  C   UNL d   1       3.426   3.395  -2.153  0.00  0.00     0.046 A 
BRANCH  10  14
ATOM     14  C   UNL d   1       2.018   1.591  -5.147  0.00  0.00     0.302 C 
ATOM     15  O   UNL d   1       2.348   1.519  -6.325  0.00  0.00    -0.259 OA
BRANCH  14  16
ATOM     16  O   UNL d   1       0.959   0.904  -4.626  0.00  0.00    -0.322 OA
ATOM     17  C   UNL d   1       0.330   0.034  -5.568  0.00  0.00     0.213 C 
ENDBRANCH  14  16
ENDBRANCH  10  14
ENDBRANCH   8   9
ENDBRANCH   2   8
BRANCH   1  18
ATOM     18  N   UNL d   1       0.008   0.852   0.157  0.00  0.00    -0.249 N 
ATOM     19  C   UNL d   1      -0.967   0.216   0.903  0.00  0.00     0.231 A 
ATOM     20  C   UNL d   1      -0.643  -1.238   1.034  0.00  0.00     0.113 A 
ATOM     21  O   UNL d   1      -1.996   0.677   1.380  0.00  0.00    -0.273 OA
ATOM     22  C   UNL d   1       0.685  -1.390   0.346  0.00  0.00     0.113 A 
ATOM     23  C   UNL d   1       0.978  -0.039  -0.243  0.00  0.00     0.231 A 
ATOM     24  O   UNL d   1       2.009   0.153  -0.872  0.00  0.00    -0.273 OA
ENDBRANCH   1  18
TORSDOF 5
