REMARK  5 active torsions:
REMARK  status: ('A' for Active; 'I' for Inactive)
REMARK    1  A    between atoms: C_9  and  C_1 
REMARK    2  A    between atoms: C_4  and  O_6 
REMARK       I    between atoms: N_11  and  C_4 
REMARK    3  A    between atoms: O_6  and  C_5 
REMARK    4  A    between atoms: C_22  and  C_12 
REMARK    5  A    between atoms: O_21  and  C_22 
ROOT
ATOM      1  C   UNL d   1       0.146   1.359  -0.005  0.00  0.00     0.117 A 
ATOM      2  N   UNL d   1       1.230   0.563   0.002  0.00  0.00    -0.322 N 
ATOM      3  HN  UNL d   1       2.173   0.939  -0.098  1.00  0.00     0.169 HD
ATOM      4  C   UNL d   1       1.004  -0.759   0.147  0.00  0.00     0.156 A 
ATOM      5  N   UNL d   1      -1.122   0.914   0.060  0.00  0.00    -0.343 N 
ATOM      6  HN  UNL d   1      -1.912   1.557   0.006  1.00  0.00     0.167 HD
ATOM      7  C   UNL d   1      -0.256  -1.302   0.270  0.00  0.00     0.083 A 
ATOM      8  C   UNL d   1      -1.309  -0.414   0.201  0.00  0.00     0.038 A 
ENDROOT
BRANCH   1   9
ATOM      9  C   UNL d   1       0.339   2.824  -0.031  0.00  0.00     0.011 A 
ATOM     10  C   UNL d   1       1.621   3.403  -0.034  0.00  0.00     0.039 A 
ATOM     11  C   UNL d   1       1.782   4.792   0.025  0.00  0.00     0.036 A 
ATOM     12 CL   UNL d   1       3.368   5.464   0.053  0.00  0.00    -0.084 Cl
ATOM     13  C   UNL d   1       0.680   5.640   0.078  0.00  0.00     0.047 A 
ATOM     14  C   UNL d   1      -0.592   5.088   0.056  0.00  0.00     0.036 A 
ATOM     15  C   UNL d   1      -0.765   3.703  -0.003  0.00  0.00     0.039 A 
ATOM     16 CL   UNL d   1      -1.971   6.115   0.126  0.00  0.00    -0.084 Cl
ENDBRANCH   1   9
BRANCH   4  17
ATOM     17  O   UNL d   1       2.171  -1.553   0.018  0.00  0.00    -0.244 OA
BRANCH  17  18
ATOM     18  C   UNL d   1       2.269  -2.904   0.355  0.00  0.00     0.368 C 
ATOM     19  N   UNL d   1       3.457  -3.484  -0.070  0.00  0.00    -0.336 N 
ATOM     20  C   UNL d   1       3.641  -4.918   0.079  0.00  0.00     0.154 C 
ATOM     21  C   UNL d   1       4.448  -2.780  -0.865  0.00  0.00     0.154 C 
ATOM     22  O   UNL d   1       1.394  -3.527   0.951  0.00  0.00    -0.238 OA
ENDBRANCH  17  18
ENDBRANCH   4  17
BRANCH   8  23
ATOM     23  C   UNL d   1      -2.731  -0.922   0.210  0.00  0.00     0.224 C 
BRANCH  23  24
ATOM     24  O   UNL d   1      -3.040  -1.525   1.466  0.00  0.00    -0.390 OA
ATOM     25  C   UNL d   1      -4.358  -2.059   1.463  0.00  0.00     0.201 C 
ENDBRANCH  23  24
ENDBRANCH   8  23
TORSDOF 5
