REMARK  5 active torsions:
REMARK  status: ('A' for Active; 'I' for Inactive)
REMARK    1  A    between atoms: N_2  and  C_1 
REMARK    2  A    between atoms: C_3  and  C_6 
REMARK    3  A    between atoms: O_8  and  C_5 
REMARK    4  A    between atoms: C_15  and  O_8 
REMARK    5  A    between atoms: S_17  and  C_16 
ROOT
ATOM      1  C   UNL d   1       0.064   0.713   0.740  0.00  0.00     0.137 A 
ATOM      2  C   UNL d   1      -0.655  -0.493   0.793  0.00  0.00     0.055 A 
ATOM      3  C   UNL d   1       1.062   0.924  -0.214  0.00  0.00     0.109 A 
ATOM      4  C   UNL d   1      -0.400  -1.498  -0.154  0.00  0.00     0.050 A 
ATOM      5  C   UNL d   1       1.246  -0.044  -1.210  0.00  0.00     0.040 A 
ATOM      6  C   UNL d   1       0.537  -1.248  -1.170  0.00  0.00     0.019 A 
ENDROOT
BRANCH   3   7
ATOM      7  O   UNL d   1       1.835   2.063  -0.148  0.00  0.00    -0.308 OA
BRANCH   7   8
ATOM      8  C   UNL d   1       3.167   1.952  -0.481  0.00  0.00     0.076 A 
ATOM      9  C   UNL d   1       3.704   2.962  -1.276  0.00  0.00     0.038 A 
ATOM     10  C   UNL d   1       5.024   2.867  -1.726  0.00  0.00     0.021 A 
ATOM     11  C   UNL d   1       5.814   1.764  -1.388  0.00  0.00    -0.000 A 
ATOM     12  C   UNL d   1       5.290   0.796  -0.522  0.00  0.00     0.021 A 
ATOM     13  C   UNL d   1       3.977   0.897  -0.054  0.00  0.00     0.038 A 
BRANCH  11  14
ATOM     14  S   UNL d   1       7.482   1.533  -1.984  0.00  0.00    -0.134 SA
ATOM     15  C   UNL d   1       7.369   2.218  -3.660  0.00  0.00     0.095 C 
ENDBRANCH  11  14
ENDBRANCH   7   8
ENDBRANCH   3   7
BRANCH   1  16
ATOM     16  N   UNL d   1      -0.243   1.745   1.715  0.00  0.00    -0.113 N 
ATOM     17  O   UNL d   1      -0.294   1.394   2.902  0.00  0.00    -0.532 OA
ATOM     18  O   UNL d   1      -0.486   2.881   1.290  0.00  0.00    -0.532 OA
ENDBRANCH   1  16
BRANCH   4  19
ATOM     19  C   UNL d   1      -1.087  -2.842  -0.089  0.00  0.00     0.417 C 
ATOM     20  F   UNL d   1      -2.047  -2.913   0.872  0.00  0.00    -0.166 F 
ATOM     21  F   UNL d   1      -1.697  -3.171  -1.259  0.00  0.00    -0.166 F 
ATOM     22  F   UNL d   1      -0.212  -3.850   0.177  0.00  0.00    -0.166 F 
ENDBRANCH   4  19
TORSDOF 5
