REMARK  5 active torsions:
REMARK  status: ('A' for Active; 'I' for Inactive)
REMARK    1  A    between atoms: C_4  and  C_1 
REMARK    2  A    between atoms: N_6  and  C_2 
REMARK    3  A    between atoms: O_12  and  C_4 
REMARK       I    between atoms: C_9  and  N_6 
REMARK    4  A    between atoms: O_13  and  C_7 
REMARK    5  A    between atoms: O_14  and  C_8 
ROOT
ATOM      1  C   UNL d   1       1.418  -0.194   0.138  0.00  0.00     0.069 A 
ATOM      2  C   UNL d   1       0.606  -1.337   0.108  0.00  0.00     0.053 A 
ATOM      3  C   UNL d   1       0.823   1.074   0.137  0.00  0.00     0.059 A 
ATOM      4  C   UNL d   1      -0.792  -1.183   0.058  0.00  0.00     0.070 A 
ATOM      5  C   UNL d   1      -0.568   1.222   0.104  0.00  0.00     0.102 A 
ATOM      6  C   UNL d   1      -1.390   0.088   0.036  0.00  0.00     0.103 A 
ENDROOT
BRANCH   2   7
ATOM      7  N   UNL d   1       1.181  -2.633   0.085  0.00  0.00    -0.326 N 
ATOM      8  C   UNL d   1       0.652  -3.718   0.752  0.00  0.00     0.218 C 
ATOM      9  O   UNL d   1      -0.313  -3.680   1.517  0.00  0.00    -0.274 OA
ATOM     10  C   UNL d   1       1.352  -5.016   0.455  0.00  0.00     0.117 C 
ATOM     11  H   UNL d   1       2.172  -2.680  -0.160  0.00  0.00     0.169 HD
ENDBRANCH   2   7
BRANCH   1  12
ATOM     12  C   UNL d   1       2.896  -0.314   0.240  0.00  0.00     0.295 C 
ATOM     13  O   UNL d   1       3.523  -1.292  -0.135  0.00  0.00    -0.259 OA
BRANCH  12  14
ATOM     14  O   UNL d   1       3.394   0.785   0.858  0.00  0.00    -0.322 OA
ATOM     15  C   UNL d   1       4.804   0.819   1.076  0.00  0.00     0.213 C 
ENDBRANCH  12  14
ENDBRANCH   1  12
BRANCH   6  16
ATOM     16  O   UNL d   1      -2.739   0.292  -0.081  0.00  0.00    -0.353 OA
ATOM     17  C   UNL d   1      -3.580  -0.840  -0.260  0.00  0.00     0.210 C 
ENDBRANCH   6  16
BRANCH   5  18
ATOM     18  O   UNL d   1      -0.963   2.535   0.088  0.00  0.00    -0.353 OA
ATOM     19  C   UNL d   1      -2.197   2.836   0.727  0.00  0.00     0.210 C 
ENDBRANCH   5  18
TORSDOF 5
