REMARK  2 active torsions:
REMARK  status: ('A' for Active; 'I' for Inactive)
REMARK    1  A    between atoms: O_10  and  C_3 
REMARK    2  A    between atoms: O_11  and  C_4 
ROOT
ATOM      1  N   UNL d   1      -0.698   1.198  -0.002  0.00  0.00    -0.302 N 
ATOM      2  HN  UNL d   1      -1.197   2.087  -0.004  1.00  0.00     0.171 HD
ATOM      3  C   UNL d   1      -1.320   0.006  -0.002  0.00  0.00     0.162 A 
ATOM      4  C   UNL d   1       0.635   1.109   0.001  0.00  0.00     0.223 A 
ATOM      5  C   UNL d   1      -0.691  -1.220   0.000  0.00  0.00     0.077 A 
ATOM      6  N   UNL d   1       1.377  -0.001   0.003  0.00  0.00    -0.331 N 
ATOM      7  HN  UNL d   1       2.397   0.025   0.005  1.00  0.00     0.168 HD
ATOM      8  C   UNL d   1       0.683  -1.159   0.003  0.00  0.00     0.115 A 
ATOM      9 BR   UNL d   1      -1.598  -2.865  -0.000  0.00  0.00    -0.045 Br
ENDROOT
BRANCH   3  10
ATOM     10  O   UNL d   1      -2.676   0.111  -0.005  0.00  0.00    -0.345 OA
ATOM     11  H   UNL d   1      -2.800   1.076  -0.007  0.00  0.00     0.219 HD
ENDBRANCH   3  10
BRANCH   4  12
ATOM     12  O   UNL d   1       1.290   2.298   0.003  0.00  0.00    -0.332 OA
ATOM     13  H   UNL d   1       0.534   2.905   0.002  0.00  0.00     0.220 HD
ENDBRANCH   4  12
TORSDOF 2
