REMARK  4 active torsions:
REMARK  status: ('A' for Active; 'I' for Inactive)
REMARK    1  A    between atoms: C_5  and  C_3 
REMARK    2  A    between atoms: C_13  and  C_4 
REMARK    3  A    between atoms: C_10  and  O_14 
REMARK    4  A    between atoms: O_14  and  C_22 
ROOT
ATOM      1  N   UNL d   1       1.276   0.153  -0.013  0.00  0.00    -0.318 N 
ATOM      2  HN  UNL d   1       2.286   0.291  -0.065  1.00  0.00     0.169 HD
ATOM      3  C   UNL d   1       0.599  -0.977  -0.016  0.00  0.00     0.183 A 
ATOM      4  C   UNL d   1       0.280   1.103   0.078  0.00  0.00     0.138 A 
ATOM      5  N   UNL d   1      -0.953   0.587   0.176  0.00  0.00    -0.242 N 
ATOM      6  HN  UNL d   1      -1.839   1.085   0.264  1.00  0.00     0.196 HD
ATOM      7  O   UNL d   1      -0.742  -0.790   0.129  0.00  0.00    -0.217 OA
ENDROOT
BRANCH   4   8
ATOM      8  C   UNL d   1       0.566   2.536   0.042  0.00  0.00     0.010 A 
ATOM      9  C   UNL d   1       1.887   2.999  -0.031  0.00  0.00     0.018 A 
ATOM     10  C   UNL d   1       2.168   4.372  -0.113  0.00  0.00     0.038 A 
ATOM     11  C   UNL d   1       1.129   5.295  -0.145  0.00  0.00     0.078 A 
ATOM     12  C   UNL d   1      -0.188   4.844  -0.020  0.00  0.00     0.038 A 
ATOM     13  C   UNL d   1      -0.472   3.474   0.069  0.00  0.00     0.018 A 
BRANCH  11  14
ATOM     14  O   UNL d   1       1.239   6.649  -0.274  0.00  0.00    -0.255 OA
BRANCH  14  15
ATOM     15  C   UNL d   1       2.385   7.187  -0.919  0.00  0.00     0.530 C 
ATOM     16  F   UNL d   1       3.001   6.317  -1.748  0.00  0.00    -0.144 F 
ATOM     17  F   UNL d   1       1.990   8.248  -1.659  0.00  0.00    -0.144 F 
ATOM     18  F   UNL d   1       3.269   7.622   0.004  0.00  0.00    -0.144 F 
ENDBRANCH  14  15
ENDBRANCH  11  14
ENDBRANCH   4   8
BRANCH   3  19
ATOM     19  C   UNL d   1       1.100  -2.345  -0.047  0.00  0.00     0.039 A 
ATOM     20  C   UNL d   1       0.422  -3.426  -0.640  0.00  0.00     0.051 A 
ATOM     21  C   UNL d   1       0.983  -4.709  -0.631  0.00  0.00     0.067 A 
ATOM     22 CL   UNL d   1      -1.093  -3.258  -1.460  0.00  0.00    -0.083 Cl
ATOM     23  C   UNL d   1       2.222  -4.917  -0.041  0.00  0.00     0.118 A 
ATOM     24  C   UNL d   1       2.920  -3.869   0.539  0.00  0.00     0.043 A 
ATOM     25  F   UNL d   1       2.755  -6.145  -0.041  0.00  0.00    -0.206 F 
ATOM     26  C   UNL d   1       2.362  -2.589   0.533  0.00  0.00     0.020 A 
ENDBRANCH   3  19
TORSDOF 4
