REMARK  4 active torsions:
REMARK  status: ('A' for Active; 'I' for Inactive)
REMARK    1  A    between atoms: S_10  and  C_1 
REMARK       I    between atoms: N_6  and  C_8 
REMARK    2  A    between atoms: C_17  and  N_7 
REMARK    3  A    between atoms: C_8  and  C_16 
REMARK    4  A    between atoms: C_16  and  S_10 
ROOT
ATOM      1  N   UNL d   1      -7.140   1.782   0.069  0.00  0.00    -0.348 N 
ATOM      2  N   UNL d   1      -8.248  -0.795  -0.478  0.00  0.00    -0.378 N 
ATOM      3  C   UNL d   1      -6.137   2.702  -0.216  0.00  0.00     0.229 C 
ATOM      4  C   UNL d   1      -6.861   0.664   0.984  0.00  0.00     0.145 C 
ATOM      5  C   UNL d   1      -8.430   1.656  -0.626  0.00  0.00     0.145 C 
ATOM      6  C   UNL d   1      -8.494   0.328  -1.399  0.00  0.00     0.143 C 
ATOM      7  C   UNL d   1      -6.977  -0.708   0.274  0.00  0.00     0.143 C 
ATOM      8  O   UNL d   1      -5.078   2.701   0.418  0.00  0.00    -0.273 OA
ENDROOT
BRANCH   3   9
ATOM      9  C   UNL d   1      -6.429   3.751  -1.293  0.00  0.00     0.185 C 
BRANCH   9  10
ATOM     10  S   UNL d   1      -4.910   4.434  -2.030  0.00  0.00    -0.085 SA
BRANCH  10  11
ATOM     11  C   UNL d   1      -4.264   2.981  -2.696  0.00  0.00     0.145 A 
ATOM     12  N   UNL d   1      -4.938   1.937  -3.113  0.00  0.00    -0.335 N 
ATOM     13  C   UNL d   1      -3.972   0.995  -3.382  0.00  0.00     0.061 A 
ATOM     14  HN  UNL d   1      -5.948   1.844  -3.215  1.00  0.00     0.168 HD
ATOM     15  C   UNL d   1      -4.114  -0.336  -3.801  0.00  0.00     0.038 A 
ATOM     16  C   UNL d   1      -2.696   1.503  -3.152  0.00  0.00     0.061 A 
ATOM     17  C   UNL d   1      -2.963  -1.129  -3.956  0.00  0.00    -0.060 A 
ATOM     18  C   UNL d   1      -3.083  -2.574  -4.346  0.00  0.00     0.048 C 
ATOM     19  C   UNL d   1      -1.695  -0.578  -3.714  0.00  0.00     0.009 A 
ATOM     20  C   UNL d   1      -1.531   0.753  -3.314  0.00  0.00     0.032 A 
ATOM     21  N   UNL d   1      -2.917   2.791  -2.739  0.00  0.00    -0.335 N 
ATOM     22  H   UNL d   1      -2.225   3.458  -2.434  0.00  0.00     0.168 HD
ENDBRANCH  10  11
ENDBRANCH   9  10
ENDBRANCH   3   9
BRANCH   2  23
ATOM     23  C   UNL d   1      -9.172  -1.796  -0.256  0.00  0.00     0.030 A 
ATOM     24  C   UNL d   1      -8.776  -3.099   0.086  0.00  0.00     0.029 A 
ATOM     25  C   UNL d   1      -9.704  -4.127   0.299  0.00  0.00     0.002 A 
ATOM     26  C   UNL d   1     -11.064  -3.874   0.177  0.00  0.00     0.000 A 
ATOM     27  C   UNL d   1     -11.491  -2.595  -0.157  0.00  0.00     0.002 A 
ATOM     28  C   UNL d   1     -10.554  -1.575  -0.370  0.00  0.00     0.029 A 
ENDBRANCH   2  23
TORSDOF 4
