REMARK  5 active torsions:
REMARK  status: ('A' for Active; 'I' for Inactive)
REMARK    1  A    between atoms: N_4  and  C_1 
REMARK       I    between atoms: C_5  and  N_4 
REMARK       I    between atoms: N_10  and  C_5 
REMARK    2  A    between atoms: O_20  and  C_8 
REMARK    3  A    between atoms: C_9  and  N_10 
REMARK    4  A    between atoms: C_23  and  C_14 
REMARK    5  A    between atoms: C_24  and  C_23 
ROOT
ATOM      1  N   UNL d   1       1.955  -2.653   0.046  0.00  0.00    -0.022 N 
ATOM      2  C   UNL d   1       3.257  -2.930  -0.189  0.00  0.00     0.690 C 
ATOM      3  N   UNL d   1       4.053  -3.365   0.822  0.00  0.00    -0.192 N 
ATOM      4  N   UNL d   1       3.746  -2.974  -1.395  0.00  0.00    -0.234 N 
ATOM      5  HN  UNL d   1       4.700  -3.224  -1.657  1.00  0.00     0.174 HD
ATOM      6  H   UNL d   1       1.538  -3.058   0.871  0.00  0.00     0.203 HD
ATOM      7  H   UNL d   1       4.953  -3.671   0.462  0.00  0.00     0.184 HD
ATOM      8  H   UNL d   1       2.985  -2.709  -2.034  0.00  0.00     0.174 HD
ENDROOT
BRANCH   1   9
ATOM      9  C   UNL d   1       1.412  -1.386  -0.146  0.00  0.00     0.699 A 
ATOM     10  N   UNL d   1       0.069  -1.326  -0.170  0.00  0.00    -0.170 N 
ATOM     11  C   UNL d   1      -0.444  -0.109  -0.330  0.00  0.00     0.157 A 
ATOM     12  HN  UNL d   1      -0.516  -2.156  -0.072  1.00  0.00     0.186 HD
ATOM     13  C   UNL d   1       0.265   1.054  -0.382  0.00  0.00     0.082 A 
ATOM     14  C   UNL d   1       1.631   0.921  -0.241  0.00  0.00     0.030 A 
ATOM     15  N   UNL d   1       2.214  -0.294  -0.185  0.00  0.00    -0.195 N 
ATOM     16  HN  UNL d   1       3.230  -0.388  -0.172  1.00  0.00     0.184 HD
BRANCH  11  17
ATOM     17  O   UNL d   1      -1.802  -0.080  -0.399  0.00  0.00    -0.346 OA
ATOM     18  H   UNL d   1      -2.011  -1.027  -0.321  0.00  0.00     0.219 HD
ENDBRANCH  11  17
BRANCH  14  19
ATOM     19  C   UNL d   1       2.444   2.179  -0.022  0.00  0.00     0.057 C 
BRANCH  19  20
ATOM     20  C   UNL d   1       3.925   2.065   0.359  0.00  0.00     0.002 C 
ATOM     21  C   UNL d   1       4.874   1.999  -0.829  0.00  0.00     0.005 C 
ENDBRANCH  19  20
ENDBRANCH  14  19
ENDBRANCH   1   9
BRANCH   3  22
ATOM     22  C   UNL d   1       4.114  -2.967   2.172  0.00  0.00     0.052 A 
ATOM     23  C   UNL d   1       4.825  -3.781   3.067  0.00  0.00     0.054 A 
ATOM     24  C   UNL d   1       4.848  -3.492   4.433  0.00  0.00     0.037 A 
ATOM     25 CL   UNL d   1       5.715  -4.525   5.505  0.00  0.00    -0.084 Cl
ATOM     26  C   UNL d   1       4.170  -2.395   4.939  0.00  0.00     0.048 A 
ATOM     27  C   UNL d   1       3.487  -1.565   4.058  0.00  0.00     0.037 A 
ATOM     28  C   UNL d   1       3.459  -1.848   2.690  0.00  0.00     0.054 A 
ATOM     29 CL   UNL d   1       2.654  -0.178   4.653  0.00  0.00    -0.084 Cl
ENDBRANCH   3  22
TORSDOF 5
