REMARK  8 active torsions:
REMARK  status: ('A' for Active; 'I' for Inactive)
REMARK    1  A    between atoms: C_7  and  C_1 
REMARK    2  A    between atoms: C_3  and  C_2 
REMARK    3  A    between atoms: N_13  and  C_6 
REMARK    4  A    between atoms: O_26  and  C_7 
REMARK       I    between atoms: C_10  and  N_12 
REMARK    5  A    between atoms: C_14  and  C_10 
REMARK    6  A    between atoms: N_12  and  N_13 
REMARK    7  A    between atoms: C_15  and  C_16 
REMARK    8  A    between atoms: C_30  and  O_26 
ROOT
ATOM      1  C   UNL d   1      -2.167  -1.246   0.982  0.00  0.00     0.086 A 
ATOM      2  C   UNL d   1      -3.246  -0.417   1.213  0.00  0.00     0.136 A 
ATOM      3  N   UNL d   1      -3.209   0.908   0.840  0.00  0.00    -0.327 N 
ATOM      4  HN  UNL d   1      -4.019   1.506   0.999  1.00  0.00     0.168 HD
ATOM      5  C   UNL d   1      -2.104   1.408   0.268  0.00  0.00     0.176 A 
ATOM      6  N   UNL d   1      -1.004   0.672   0.058  0.00  0.00    -0.340 N 
ATOM      7  HN  UNL d   1      -0.164   1.075  -0.357  1.00  0.00     0.167 HD
ATOM      8  C   UNL d   1      -1.059  -0.629   0.421  0.00  0.00     0.110 A 
ENDROOT
BRANCH   5   9
ATOM      9  N   UNL d   1      -2.154   2.744  -0.156  0.00  0.00    -0.172 NA
ATOM     10  H   UNL d   1      -2.892   3.229   0.361  0.00  0.00     0.156 HD
BRANCH   9  11
ATOM     11  N   UNL d   1      -0.917   3.415  -0.120  0.00  0.00    -0.280 N 
ATOM     12  C   UNL d   1      -0.944   4.776   0.140  0.00  0.00     0.266 C 
ATOM     13  O   UNL d   1      -1.964   5.385   0.450  0.00  0.00    -0.266 OA
ATOM     14  H   UNL d   1      -0.159   2.960  -0.621  0.00  0.00     0.184 HD
BRANCH  12  15
ATOM     15  C   UNL d   1       0.356   5.492   0.008  0.00  0.00     0.033 A 
ATOM     16  C   UNL d   1       0.373   6.823  -0.417  0.00  0.00     0.017 A 
ATOM     17  C   UNL d   1       1.593   7.507  -0.546  0.00  0.00     0.009 A 
ATOM     18  C   UNL d   1       2.822   6.887  -0.241  0.00  0.00    -0.051 A 
ATOM     19  C   UNL d   1       2.770   5.560   0.222  0.00  0.00     0.009 A 
ATOM     20  C   UNL d   1       1.557   4.867   0.342  0.00  0.00     0.017 A 
BRANCH  18  21
ATOM     21  C   UNL d   1       4.154   7.640  -0.436  0.00  0.00    -0.024 C 
ATOM     22  C   UNL d   1       5.395   6.804  -0.042  0.00  0.00     0.019 C 
ATOM     23  C   UNL d   1       4.317   8.021  -1.923  0.00  0.00     0.019 C 
ATOM     24  C   UNL d   1       4.189   8.928   0.415  0.00  0.00     0.019 C 
ENDBRANCH  18  21
ENDBRANCH  12  15
ENDBRANCH   9  11
ENDBRANCH   5   9
BRANCH   2  25
ATOM     25  C   UNL d   1      -4.515  -0.843   1.928  0.00  0.00     0.433 C 
ATOM     26  F   UNL d   1      -4.538  -2.103   2.434  0.00  0.00    -0.165 F 
ATOM     27  F   UNL d   1      -4.774  -0.046   3.009  0.00  0.00    -0.165 F 
ATOM     28  F   UNL d   1      -5.618  -0.744   1.130  0.00  0.00    -0.165 F 
ENDBRANCH   2  25
BRANCH   1  29
ATOM     29  C   UNL d   1      -2.031  -2.676   1.284  0.00  0.00     0.296 C 
ATOM     30  O   UNL d   1      -0.977  -3.165   1.665  0.00  0.00    -0.259 OA
BRANCH  29  31
ATOM     31  O   UNL d   1      -3.157  -3.351   0.968  0.00  0.00    -0.318 OA
BRANCH  31  32
ATOM     32  C   UNL d   1      -3.129  -4.771   1.207  0.00  0.00     0.174 C 
ATOM     33  C   UNL d   1      -3.210  -5.102   2.690  0.00  0.00     0.034 C 
ENDBRANCH  31  32
ENDBRANCH  29  31
ENDBRANCH   1  29
TORSDOF 8
