REMARK  5 active torsions:
REMARK  status: ('A' for Active; 'I' for Inactive)
REMARK    1  A    between atoms: C_2  and  C_1 
REMARK    2  A    between atoms: O_5  and  C_1 
REMARK    3  A    between atoms: C_10  and  O_5 
REMARK    4  A    between atoms: C_6  and  C_10 
REMARK    5  A    between atoms: C_8  and  C_6 
ROOT
ATOM      1  O   UNL d   1       0.322  -1.026   0.545  0.00  0.00    -0.310 OA
ENDROOT
BRANCH   1   2
ATOM      2  C   UNL d   1       0.957  -0.718  -0.608  0.00  0.00     0.293 C 
ATOM      3  O   UNL d   1       0.429  -0.549  -1.696  0.00  0.00    -0.259 OA
BRANCH   2   4
ATOM      4  C   UNL d   1       2.420  -0.540  -0.380  0.00  0.00     0.041 A 
ATOM      5  C   UNL d   1       3.021  -0.740   0.872  0.00  0.00     0.044 A 
ATOM      6  C   UNL d   1       4.394  -0.530   1.027  0.00  0.00     0.073 A 
ATOM      7 CL   UNL d   1       5.115  -0.764   2.574  0.00  0.00    -0.081 Cl
ATOM      8  C   UNL d   1       5.168  -0.129  -0.061  0.00  0.00     0.138 A 
ATOM      9  C   UNL d   1       4.587   0.067  -1.308  0.00  0.00     0.045 A 
ATOM     10  F   UNL d   1       6.486   0.080   0.075  0.00  0.00    -0.204 F 
ATOM     11  C   UNL d   1       3.213  -0.137  -1.468  0.00  0.00     0.021 A 
ENDBRANCH   2   4
ENDBRANCH   1   2
BRANCH   1  12
ATOM     12  C   UNL d   1      -1.104  -1.167   0.473  0.00  0.00     0.263 C 
BRANCH  12  13
ATOM     13  C   UNL d   1      -1.546  -2.606   0.723  0.00  0.00     0.183 C 
ATOM     14  O   UNL d   1      -0.746  -3.530   0.875  0.00  0.00    -0.290 OA
BRANCH  13  15
ATOM     15  C   UNL d   1      -3.010  -2.904   0.758  0.00  0.00     0.012 A 
ATOM     16  C   UNL d   1      -3.430  -4.218   0.501  0.00  0.00     0.017 A 
ATOM     17  C   UNL d   1      -4.788  -4.552   0.536  0.00  0.00     0.025 A 
ATOM     18  C   UNL d   1      -5.731  -3.575   0.844  0.00  0.00     0.034 A 
ATOM     19  C   UNL d   1      -5.328  -2.268   1.108  0.00  0.00     0.025 A 
ATOM     20 CL   UNL d   1      -7.400  -3.984   0.905  0.00  0.00    -0.084 Cl
ATOM     21  C   UNL d   1      -3.969  -1.929   1.063  0.00  0.00     0.017 A 
ENDBRANCH  13  15
ENDBRANCH  12  13
ENDBRANCH   1  12
TORSDOF 5
