REMARK  6 active torsions:
REMARK  status: ('A' for Active; 'I' for Inactive)
REMARK    1  A    between atoms: C_5  and  C_1 
REMARK    2  A    between atoms: C_7  and  C_2 
REMARK    3  A    between atoms: O_9  and  C_7 
REMARK    4  A    between atoms: C_14  and  O_9 
REMARK    5  A    between atoms: C_12  and  C_14 
REMARK    6  A    between atoms: C_16  and  C_12 
ROOT
ATOM      1  C   UNL d   1      -1.220  -0.730   0.195  0.00  0.00     0.087 A 
ATOM      2  C   UNL d   1       0.040  -1.361  -0.091  0.00  0.00     0.100 A 
ATOM      3  N   UNL d   1      -1.022   0.567   0.493  0.00  0.00    -0.259 N 
ATOM      4  HN  UNL d   1      -1.737   1.240   0.770  1.00  0.00     0.195 HD
ATOM      5  O   UNL d   1       0.315   0.813   0.357  0.00  0.00    -0.241 OA
ATOM      6  C   UNL d   1       0.957  -0.331   0.028  0.00  0.00     0.091 A 
ATOM      7  C   UNL d   1       2.420  -0.197  -0.120  0.00  0.00     0.080 C 
ENDROOT
BRANCH   2   8
ATOM      8  C   UNL d   1       0.412  -2.734  -0.374  0.00  0.00     0.298 C 
ATOM      9  O   UNL d   1       1.525  -3.181  -0.114  0.00  0.00    -0.259 OA
BRANCH   8  10
ATOM     10  O   UNL d   1      -0.595  -3.495  -0.892  0.00  0.00    -0.310 OA
BRANCH  10  11
ATOM     11  C   UNL d   1      -0.260  -4.886  -0.980  0.00  0.00     0.263 C 
BRANCH  11  12
ATOM     12  C   UNL d   1       0.685  -5.274  -2.123  0.00  0.00     0.183 C 
ATOM     13  O   UNL d   1       1.007  -4.473  -3.000  0.00  0.00    -0.290 OA
BRANCH  12  14
ATOM     14  C   UNL d   1       1.196  -6.684  -2.183  0.00  0.00     0.012 A 
ATOM     15  C   UNL d   1       0.844  -7.656  -1.235  0.00  0.00     0.015 A 
ATOM     16  C   UNL d   1       1.338  -8.960  -1.343  0.00  0.00     0.001 A 
ATOM     17  C   UNL d   1       2.183  -9.310  -2.396  0.00  0.00     0.000 A 
ATOM     18  C   UNL d   1       2.539  -8.353  -3.343  0.00  0.00     0.001 A 
ATOM     19  C   UNL d   1       2.050  -7.048  -3.237  0.00  0.00     0.015 A 
ENDBRANCH  12  14
ENDBRANCH  11  12
ENDBRANCH  10  11
ENDBRANCH   8  10
ENDBRANCH   2   8
BRANCH   1  20
ATOM     20  C   UNL d   1      -2.593  -1.249   0.295  0.00  0.00     0.037 A 
ATOM     21  C   UNL d   1      -2.924  -2.329   1.136  0.00  0.00     0.048 A 
ATOM     22 CL   UNL d   1      -1.758  -3.175   2.100  0.00  0.00    -0.083 Cl
ATOM     23  C   UNL d   1      -4.257  -2.741   1.297  0.00  0.00     0.025 A 
ATOM     24  C   UNL d   1      -5.292  -2.058   0.667  0.00  0.00     0.003 A 
ATOM     25  C   UNL d   1      -4.995  -0.974  -0.149  0.00  0.00     0.025 A 
ATOM     26  C   UNL d   1      -3.663  -0.582  -0.351  0.00  0.00     0.048 A 
ATOM     27 CL   UNL d   1      -3.437   0.750  -1.442  0.00  0.00    -0.083 Cl
ENDBRANCH   1  20
TORSDOF 6
