REMARK  4 active torsions:
REMARK  status: ('A' for Active; 'I' for Inactive)
REMARK    1  A    between atoms: C_7  and  C_1 
REMARK    2  A    between atoms: C_13  and  C_2 
REMARK    3  A    between atoms: C_10  and  N_6 
REMARK       I    between atoms: N_9  and  C_7 
REMARK    4  A    between atoms: N_8  and  C_11 
ROOT
ATOM      1  C   UNL d   1      -0.140  -1.331   0.127  0.00  0.00     0.143 C 
ATOM      2  C   UNL d   1       1.164  -0.840   0.013  0.00  0.00     0.098 C 
ATOM      3  N   UNL d   1      -0.312   0.843   0.288  0.00  0.00    -0.014 NA
ATOM      4  N   UNL d   1      -1.006  -0.282   0.308  0.00  0.00    -0.276 N 
ATOM      5  HN  UNL d   1      -2.015  -0.358   0.435  1.00  0.00     0.184 HD
ATOM      6  N   UNL d   1       0.978   0.544   0.003  0.00  0.00    -0.237 N 
ENDROOT
BRANCH   6   7
ATOM      7  C   UNL d   1       1.935   1.580  -0.189  0.00  0.00     0.055 A 
ATOM      8  C   UNL d   1       3.028   1.395  -1.051  0.00  0.00     0.034 A 
ATOM      9  C   UNL d   1       4.090   2.302  -1.044  0.00  0.00     0.038 A 
ATOM     10  C   UNL d   1       4.042   3.410  -0.190  0.00  0.00     0.103 A 
ATOM     11  C   UNL d   1       2.907   3.656   0.597  0.00  0.00     0.038 A 
ATOM     12  C   UNL d   1       1.841   2.749   0.580  0.00  0.00     0.034 A 
BRANCH  10  13
ATOM     13  N   UNL d   1       5.214   4.288  -0.079  0.00  0.00    -0.116 N 
ATOM     14  O   UNL d   1       6.224   3.987  -0.732  0.00  0.00    -0.532 OA
ATOM     15  O   UNL d   1       5.132   5.267   0.676  0.00  0.00    -0.532 OA
ENDBRANCH  10  13
ENDBRANCH   6   7
BRANCH   2  16
ATOM     16  C   UNL d   1       2.462  -1.537  -0.012  0.00  0.00    -0.005 A 
ATOM     17  C   UNL d   1       2.641  -2.704  -0.767  0.00  0.00     0.014 A 
ATOM     18  C   UNL d   1       3.893  -3.320  -0.847  0.00  0.00     0.001 A 
ATOM     19  C   UNL d   1       4.993  -2.763  -0.200  0.00  0.00     0.000 A 
ATOM     20  C   UNL d   1       4.829  -1.625   0.581  0.00  0.00     0.001 A 
ATOM     21  C   UNL d   1       3.566  -1.045   0.707  0.00  0.00     0.014 A 
ENDBRANCH   2  16
BRANCH   1  22
ATOM     22  C   UNL d   1      -0.540  -2.734   0.201  0.00  0.00     0.273 C 
ATOM     23  N   UNL d   1      -1.637  -3.178  -0.551  0.00  0.00    -0.347 N 
ATOM     24  C   UNL d   1      -2.528  -2.355  -1.372  0.00  0.00     0.126 C 
ATOM     25  C   UNL d   1      -1.880  -4.614  -0.638  0.00  0.00     0.126 C 
ATOM     26  C   UNL d   1      -2.475  -2.786  -2.838  0.00  0.00     0.020 C 
ATOM     27  C   UNL d   1      -2.704  -4.290  -2.993  0.00  0.00     0.003 C 
ATOM     28  C   UNL d   1      -1.763  -5.083  -2.088  0.00  0.00     0.020 C 
ATOM     29  O   UNL d   1       0.125  -3.525   0.867  0.00  0.00    -0.266 OA
ENDBRANCH   1  22
TORSDOF 4
