REMARK  11 active torsions:
REMARK  status: ('A' for Active; 'I' for Inactive)
REMARK    1  A    between atoms: C_4  and  C_1 
REMARK    2  A    between atoms: C_5  and  C_1 
REMARK    3  A    between atoms: C_2  and  C_6 
REMARK    4  A    between atoms: N_8  and  C_3 
REMARK    5  A    between atoms: O_26  and  C_4 
REMARK    6  A    between atoms: O_27  and  C_5 
REMARK    7  A    between atoms: C_9  and  N_8 
REMARK    8  A    between atoms: C_12  and  O_15 
REMARK    9  A    between atoms: O_15  and  C_13 
REMARK   10  A    between atoms: C_30  and  O_26 
REMARK   11  A    between atoms: C_31  and  O_27 
ROOT
ATOM      1  C   UNL d   1      -1.593  -4.112   2.851  0.00  0.00     0.050 A 
ATOM      2  C   UNL d   1       0.322  -2.658   2.293  0.00  0.00     0.067 A 
ATOM      3  C   UNL d   1       0.725  -2.702   3.647  0.00  0.00     0.102 A 
ATOM      4  C   UNL d   1      -0.854  -3.353   1.932  0.00  0.00     0.048 A 
ATOM      5  C   UNL d   1      -1.159  -4.165   4.176  0.00  0.00     0.019 A 
ATOM      6  C   UNL d   1      -0.015  -3.466   4.565  0.00  0.00     0.040 A 
ENDROOT
BRANCH   2   7
ATOM      7  N   UNL d   1       1.020  -2.074   1.217  0.00  0.00    -0.362 N 
ATOM      8  H   UNL d   1       0.430  -1.609   0.532  0.00  0.00     0.165 HD
BRANCH   7   9
ATOM      9  C   UNL d   1       2.370  -2.006   0.966  0.00  0.00     0.112 C 
ATOM     10  C   UNL d   1       3.421  -2.781   1.300  0.00  0.00     0.129 C 
BRANCH  10  11
ATOM     11  C   UNL d   1       4.751  -2.266   0.911  0.00  0.00     0.300 C 
ATOM     12  O   UNL d   1       4.941  -1.173   0.393  0.00  0.00    -0.259 OA
BRANCH  11  13
ATOM     13  O   UNL d   1       5.720  -3.185   1.144  0.00  0.00    -0.318 OA
BRANCH  13  14
ATOM     14  C   UNL d   1       7.034  -2.830   0.695  0.00  0.00     0.174 C 
ATOM     15  C   UNL d   1       7.141  -3.075  -0.799  0.00  0.00     0.034 C 
ENDBRANCH  13  14
ENDBRANCH  11  13
ENDBRANCH  10  11
BRANCH  10  16
ATOM     16  C   UNL d   1       3.262  -4.086   1.970  0.00  0.00     0.300 C 
ATOM     17  O   UNL d   1       3.999  -4.527   2.846  0.00  0.00    -0.259 OA
BRANCH  16  18
ATOM     18  O   UNL d   1       2.256  -4.756   1.360  0.00  0.00    -0.318 OA
BRANCH  18  19
ATOM     19  C   UNL d   1       2.127  -6.155   1.620  0.00  0.00     0.174 C 
ATOM     20  C   UNL d   1       2.632  -6.865   0.382  0.00  0.00     0.034 C 
ENDBRANCH  18  19
ENDBRANCH  16  18
ENDBRANCH  10  16
ENDBRANCH   7   9
ENDBRANCH   2   7
BRANCH   3  21
ATOM     21  O   UNL d   1       1.827  -2.119   4.242  0.00  0.00    -0.308 OA
BRANCH  21  22
ATOM     22  C   UNL d   1       2.320  -0.902   3.838  0.00  0.00     0.077 C 
ATOM     23  C   UNL d   1       1.557   0.118   3.284  0.00  0.00     0.045 C 
ATOM     24  C   UNL d   1       2.185   1.213   2.672  0.00  0.00    -0.037 C 
ATOM     25  C   UNL d   1       1.338   2.177   1.884  0.00  0.00     0.050 C 
ATOM     26  C   UNL d   1       3.591   1.333   2.739  0.00  0.00     0.046 C 
ATOM     27  C   UNL d   1       4.359   0.373   3.425  0.00  0.00    -0.037 C 
ATOM     28 CL   UNL d   1       4.365   2.659   1.931  0.00  0.00    -0.083 Cl
ATOM     29  C   UNL d   1       3.703  -0.745   3.966  0.00  0.00     0.045 C 
ATOM     30  C   UNL d   1       5.860   0.410   3.514  0.00  0.00     0.050 C 
ENDBRANCH  21  22
ENDBRANCH   3  21
BRANCH   1  31
ATOM     31  C   UNL d   1      -2.808  -4.894   2.415  0.00  0.00     0.417 C 
ATOM     32  F   UNL d   1      -3.100  -4.754   1.093  0.00  0.00    -0.166 F 
ATOM     33  F   UNL d   1      -2.667  -6.232   2.625  0.00  0.00    -0.166 F 
ATOM     34  F   UNL d   1      -3.933  -4.525   3.087  0.00  0.00    -0.166 F 
ENDBRANCH   1  31
TORSDOF 11
