REMARK  7 active torsions:
REMARK  status: ('A' for Active; 'I' for Inactive)
REMARK    1  A    between atoms: N_4  and  S_1 
REMARK    2  A    between atoms: C_5  and  S_1 
REMARK    3  A    between atoms: S_2  and  C_3 
REMARK    4  A    between atoms: C_11  and  S_2 
REMARK    5  A    between atoms: C_3  and  C_6 
REMARK    6  A    between atoms: C_6  and  N_4 
REMARK    7  A    between atoms: C_18  and  N_4 
ROOT
ATOM      1  N   UNL d   1       0.290   1.358  -0.646  0.00  0.00    -0.206 NA
ENDROOT
BRANCH   1   2
ATOM      2  S   UNL d   1       0.994  -0.121  -0.051  0.00  0.00     0.243 S 
ATOM      3  O   UNL d   1       0.672  -0.177   1.362  0.00  0.00    -0.206 OA
ATOM      4  O   UNL d   1       2.366  -0.180  -0.504  0.00  0.00    -0.206 OA
BRANCH   2   5
ATOM      5  C   UNL d   1       0.183  -1.492  -0.838  0.00  0.00     0.074 A 
ATOM      6  C   UNL d   1       0.236  -1.636  -2.227  0.00  0.00     0.026 A 
ATOM      7  C   UNL d   1      -0.201  -2.831  -2.810  0.00  0.00     0.025 A 
ATOM      8  C   UNL d   1      -0.670  -3.873  -2.004  0.00  0.00     0.034 A 
ATOM      9  C   UNL d   1      -0.731  -3.724  -0.620  0.00  0.00     0.025 A 
ATOM     10 CL   UNL d   1      -1.134  -5.368  -2.720  0.00  0.00    -0.084 Cl
ATOM     11  C   UNL d   1      -0.307  -2.531  -0.034  0.00  0.00     0.026 A 
ENDBRANCH   2   5
ENDBRANCH   1   2
BRANCH   1  12
ATOM     12  C   UNL d   1      -1.228   1.416  -0.533  0.00  0.00     0.122 C 
BRANCH  12  13
ATOM     13  C   UNL d   1      -1.792   2.648  -1.238  0.00  0.00     0.161 C 
BRANCH  13  14
ATOM     14  S   UNL d   1      -3.561   2.729  -1.123  0.00  0.00     0.176 S 
ATOM     15  O   UNL d   1      -4.116   1.627  -1.885  0.00  0.00    -0.223 OA
ATOM     16  O   UNL d   1      -3.915   2.933   0.267  0.00  0.00    -0.223 OA
BRANCH  14  17
ATOM     17  C   UNL d   1      -3.927   4.240  -2.000  0.00  0.00     0.059 A 
ATOM     18  C   UNL d   1      -4.178   4.192  -3.374  0.00  0.00     0.023 A 
ATOM     19  C   UNL d   1      -4.427   5.377  -4.067  0.00  0.00     0.002 A 
ATOM     20  C   UNL d   1      -4.434   6.597  -3.390  0.00  0.00     0.000 A 
ATOM     21  C   UNL d   1      -4.203   6.638  -2.015  0.00  0.00     0.002 A 
ATOM     22  C   UNL d   1      -3.954   5.456  -1.310  0.00  0.00     0.023 A 
ENDBRANCH  14  17
ENDBRANCH  13  14
ENDBRANCH  12  13
ENDBRANCH   1  12
BRANCH   1  23
ATOM     23  C   UNL d   1       0.913   2.551   0.067  0.00  0.00     0.103 C 
ATOM     24  C   UNL d   1       2.394   2.743  -0.198  0.00  0.00     0.021 C 
ENDBRANCH   1  23
TORSDOF 7
