REMARK  2 active torsions:
REMARK  status: ('A' for Active; 'I' for Inactive)
REMARK    1  A    between atoms: C_3  and  C_8 
REMARK       I    between atoms: C_8  and  N_12 
REMARK    2  A    between atoms: N_12  and  C_18 
ROOT
ATOM      1  C   UNL d   1       0.052  -1.610  -0.138  0.00  0.00     0.199 A 
ATOM      2  C   UNL d   1       1.322  -0.874  -0.088  0.00  0.00     0.066 A 
ATOM      3  C   UNL d   1      -1.178  -0.825   0.072  0.00  0.00     0.051 A 
ATOM      4  C   UNL d   1       1.298   0.505   0.042  0.00  0.00     0.162 A 
ATOM      5  O   UNL d   1       0.138   1.229   0.176  0.00  0.00    -0.292 OA
ATOM      6  C   UNL d   1      -1.049   0.548   0.253  0.00  0.00     0.092 A 
ATOM      7  N   UNL d   1       2.422   1.260   0.078  0.00  0.00    -0.346 N 
ATOM      8  HN  UNL d   1       2.378   2.277   0.153  1.00  0.00     0.167 HD
ATOM      9  C   UNL d   1      -2.440  -1.439   0.105  0.00  0.00     0.048 A 
ATOM     10  O   UNL d   1       0.028  -2.816  -0.327  0.00  0.00    -0.286 OA
ATOM     11  C   UNL d   1      -3.584  -0.668   0.345  0.00  0.00     0.036 A 
ATOM     12  C   UNL d   1      -2.180   1.314   0.524  0.00  0.00     0.040 A 
ATOM     13  C   UNL d   1      -3.436   0.706   0.583  0.00  0.00     0.032 A 
ATOM     14  C   UNL d   1       2.553  -1.526  -0.148  0.00  0.00     0.021 A 
ATOM     15  C   UNL d   1       3.604   0.609   0.009  0.00  0.00     0.090 A 
ATOM     16  C   UNL d   1       3.720  -0.769  -0.091  0.00  0.00     0.018 A 
ENDROOT
BRANCH  11  17
ATOM     17  N   UNL d   1      -4.906  -1.161   0.316  0.00  0.00    -0.322 N 
ATOM     18  C   UNL d   1      -5.333  -2.432  -0.028  0.00  0.00     0.263 C 
ATOM     19  O   UNL d   1      -4.586  -3.392  -0.182  0.00  0.00    -0.267 OA
ATOM     20  H   UNL d   1      -5.645  -0.482   0.451  0.00  0.00     0.169 HD
BRANCH  18  21
ATOM     21  C   UNL d   1      -6.774  -2.555  -0.264  0.00  0.00     0.074 A 
ATOM     22  S   UNL d   1      -7.894  -1.317   0.099  0.00  0.00    -0.084 SA
ATOM     23  C   UNL d   1      -9.216  -2.187  -0.587  0.00  0.00     0.016 A 
ATOM     24  C   UNL d   1     -10.554  -1.759  -0.704  0.00  0.00     0.019 A 
ATOM     25  C   UNL d   1      -8.808  -3.435  -1.060  0.00  0.00    -0.018 A 
ATOM     26  C   UNL d   1     -11.480  -2.599  -1.331  0.00  0.00     0.001 A 
ATOM     27  C   UNL d   1     -11.092  -3.839  -1.819  0.00  0.00     0.001 A 
ATOM     28  C   UNL d   1      -9.770  -4.268  -1.680  0.00  0.00     0.013 A 
ATOM     29  C   UNL d   1      -7.410  -3.643  -0.828  0.00  0.00     0.037 A 
ENDBRANCH  18  21
ENDBRANCH  11  17
TORSDOF 2
