REMARK  2 active torsions:
REMARK  status: ('A' for Active; 'I' for Inactive)
REMARK    1  A    between atoms: C_15  and  C_2 
REMARK    2  A    between atoms: O_16  and  N_4 
ROOT
ATOM      1  C   UNL d   1       0.918   0.536  -0.020  0.00  0.00     0.040 A 
ATOM      2  C   UNL d   1       1.942   1.506   0.018  0.00  0.00     0.049 A 
ATOM      3  C   UNL d   1       1.419  -0.752  -0.072  0.00  0.00     0.076 A 
ATOM      4  N   UNL d   1       2.779  -0.569  -0.113  0.00  0.00    -0.228 N 
ATOM      5  C   UNL d   1       3.124   0.759  -0.024  0.00  0.00     0.051 A 
ATOM      6  C   UNL d   1      -0.501   0.681  -0.029  0.00  0.00     0.099 A 
ATOM      7  C   UNL d   1       0.620  -1.920  -0.081  0.00  0.00     0.035 A 
ATOM      8  C   UNL d   1      -1.290  -0.494  -0.038  0.00  0.00     0.086 A 
ATOM      9  N   UNL d   1      -1.207   1.792  -0.066  0.00  0.00    -0.239 N 
ATOM     10  HN  UNL d   1      -0.877   2.756  -0.093  1.00  0.00     0.197 HD
ATOM     11  O   UNL d   1      -2.524   1.317  -0.058  0.00  0.00    -0.156 OA
ATOM     12  N   UNL d   1      -2.570  -0.082  -0.045  0.00  0.00    -0.240 N 
ATOM     13  HN  UNL d   1      -3.404  -0.669  -0.041  1.00  0.00     0.197 HD
ATOM     14  C   UNL d   1      -0.783  -1.806  -0.047  0.00  0.00     0.036 A 
ATOM     15  C   UNL d   1       4.558   1.154   0.052  0.00  0.00     0.072 C 
ENDROOT
BRANCH   2  16
ATOM     16  C   UNL d   1       1.825   2.959   0.145  0.00  0.00     0.158 C 
ATOM     17  O   UNL d   1       1.035   3.466   0.942  0.00  0.00    -0.293 OA
ATOM     18  C   UNL d   1       2.704   3.848  -0.691  0.00  0.00     0.097 C 
ENDBRANCH   2  16
BRANCH   4  19
ATOM     19  O   UNL d   1       3.702  -1.600  -0.236  0.00  0.00    -0.282 OA
ATOM     20  H   UNL d   1       3.367  -2.203   0.446  0.00  0.00     0.245 HD
ENDBRANCH   4  19
TORSDOF 2
