REMARK  2 active torsions:
REMARK  status: ('A' for Active; 'I' for Inactive)
REMARK    1  A    between atoms: C_9  and  N_1 
REMARK    2  A    between atoms: C_6  and  C_14 
ROOT
ATOM      1  N   UNL d   1       3.271  -0.003  -0.023  0.00  0.00    -0.244 N 
ATOM      2  C   UNL d   1       2.487   1.123   0.117  0.00  0.00     0.266 A 
ATOM      3  C   UNL d   1       2.485  -1.135  -0.113  0.00  0.00     0.266 A 
ATOM      4  C   UNL d   1       1.098   0.681   0.085  0.00  0.00     0.050 A 
ATOM      5  C   UNL d   1       1.095  -0.691  -0.032  0.00  0.00     0.050 A 
ATOM      6  C   UNL d   1      -0.078  -1.421  -0.071  0.00  0.00     0.043 A 
ATOM      7  C   UNL d   1      -0.072   1.416   0.126  0.00  0.00     0.043 A 
ATOM      8  C   UNL d   1      -1.282  -0.706  -0.018  0.00  0.00     0.056 A 
ATOM      9  C   UNL d   1      -1.279   0.708   0.067  0.00  0.00     0.056 A 
ATOM     10  O   UNL d   1       2.764  -2.313  -0.215  0.00  0.00    -0.267 OA
ATOM     11  O   UNL d   1       2.768   2.305   0.212  0.00  0.00    -0.267 OA
ATOM     12 CL   UNL d   1      -2.748  -1.618  -0.066  0.00  0.00    -0.083 Cl
ATOM     13 CL   UNL d   1      -2.740   1.628   0.090  0.00  0.00    -0.083 Cl
ENDROOT
BRANCH   1  14
ATOM     14  C   UNL d   1       4.693   0.006  -0.099  0.00  0.00     0.046 A 
ATOM     15  C   UNL d   1       5.394  -1.051  -0.698  0.00  0.00     0.031 A 
ATOM     16  C   UNL d   1       6.790  -1.026  -0.815  0.00  0.00     0.018 A 
ATOM     17  C   UNL d   1       7.529   0.051  -0.313  0.00  0.00     0.048 A 
ATOM     18  C   UNL d   1       6.840   1.101   0.305  0.00  0.00     0.018 A 
ATOM     19  C   UNL d   1       5.442   1.081   0.401  0.00  0.00     0.031 A 
BRANCH  17  20
ATOM     20  C   UNL d   1       9.033   0.095  -0.429  0.00  0.00     0.417 C 
ATOM     21  F   UNL d   1       9.562  -0.985  -1.069  0.00  0.00    -0.166 F 
ATOM     22  F   UNL d   1       9.469   1.186  -1.118  0.00  0.00    -0.166 F 
ATOM     23  F   UNL d   1       9.647   0.149   0.785  0.00  0.00    -0.166 F 
ENDBRANCH  17  20
ENDBRANCH   1  14
TORSDOF 2
