REMARK  2 active torsions:
REMARK  status: ('A' for Active; 'I' for Inactive)
REMARK    1  A    between atoms: C_14  and  C_6 
REMARK    2  A    between atoms: C_8  and  C_13 
ROOT
ATOM      1  C   UNL d   1      -1.786   1.629   0.585  0.00  0.00     0.026 C 
ATOM      2  N   UNL d   1      -2.761   1.337   1.387  0.00  0.00    -0.357 N 
ATOM      3  HN  UNL d   1      -2.713   1.462   2.398  1.00  0.00     0.166 HD
ATOM      4  C   UNL d   1      -1.508   3.080   0.317  0.00  0.00     0.059 C 
ATOM      5  S   UNL d   1      -4.325   3.263  -0.594  0.00  0.00    -0.117 SA
ATOM      6  C   UNL d   1      -2.529   3.696  -0.678  0.00  0.00     0.095 C 
ATOM      7  C   UNL d   1      -0.955   0.800  -0.310  0.00  0.00    -0.007 A 
ATOM      8  C   UNL d   1      -0.104   3.054  -0.313  0.00  0.00     0.051 C 
ATOM      9  C   UNL d   1       0.003   1.660  -0.853  0.00  0.00    -0.045 A 
ATOM     10  C   UNL d   1      -3.891   0.833   0.727  0.00  0.00     0.049 C 
ATOM     11  C   UNL d   1      -4.383   1.476  -0.422  0.00  0.00     0.028 C 
ATOM     12  C   UNL d   1      -0.966  -0.553  -0.613  0.00  0.00     0.014 A 
ATOM     13  C   UNL d   1       0.963   1.205  -1.753  0.00  0.00     0.008 A 
ATOM     14  C   UNL d   1      -4.498  -0.333   1.175  0.00  0.00     0.031 C 
ATOM     15  C   UNL d   1      -5.155   0.741  -1.317  0.00  0.00     0.021 C 
ATOM     16  C   UNL d   1       0.004  -1.020  -1.525  0.00  0.00     0.001 A 
ATOM     17  C   UNL d   1       0.947  -0.145  -2.084  0.00  0.00     0.001 A 
ATOM     18  C   UNL d   1      -5.349  -1.026   0.320  0.00  0.00     0.002 C 
ATOM     19  C   UNL d   1      -5.580  -0.540  -0.968  0.00  0.00     0.002 C 
ENDROOT
BRANCH   6  20
ATOM     20  C   UNL d   1      -2.416   5.223  -0.577  0.00  0.00    -0.043 A 
ATOM     21  C   UNL d   1      -2.689   5.880   0.638  0.00  0.00     0.009 A 
ATOM     22  C   UNL d   1      -2.520   7.259   0.764  0.00  0.00     0.017 A 
ATOM     23  C   UNL d   1      -2.091   8.021  -0.328  0.00  0.00     0.047 A 
ATOM     24  C   UNL d   1      -1.839   7.373  -1.548  0.00  0.00     0.017 A 
ATOM     25  C   UNL d   1      -2.003   5.989  -1.674  0.00  0.00     0.009 A 
BRANCH  23  26
ATOM     26  C   UNL d   1      -1.902   9.512  -0.207  0.00  0.00     0.417 C 
ATOM     27  F   UNL d   1      -2.236  10.009   1.018  0.00  0.00    -0.166 F 
ATOM     28  F   UNL d   1      -0.611   9.891  -0.421  0.00  0.00    -0.166 F 
ATOM     29  F   UNL d   1      -2.650  10.208  -1.107  0.00  0.00    -0.166 F 
ENDBRANCH  23  26
ENDBRANCH   6  20
TORSDOF 2
