REMARK  6 active torsions:
REMARK  status: ('A' for Active; 'I' for Inactive)
REMARK    1  A    between atoms: C_9  and  N_1 
REMARK    2  A    between atoms: C_8  and  C_2 
REMARK       I    between atoms: C_7  and  N_10 
REMARK       I    between atoms: N_11  and  C_7 
REMARK    3  A    between atoms: O_19  and  C_8 
REMARK    4  A    between atoms: N_10  and  C_16 
REMARK    5  A    between atoms: C_17  and  N_11 
REMARK    6  A    between atoms: C_29  and  O_19 
ROOT
ATOM      1  C   UNL d   1      -0.398  -2.494  -0.508  0.00  0.00     0.056 A 
ATOM      2  C   UNL d   1       0.592  -3.371  -0.021  0.00  0.00     0.034 A 
ATOM      3  C   UNL d   1      -1.538  -3.058  -1.069  0.00  0.00     0.034 A 
ATOM      4  C   UNL d   1      -0.818  -5.305  -0.423  0.00  0.00     0.036 A 
ATOM      5  C   UNL d   1      -1.737  -4.445  -1.029  0.00  0.00     0.032 A 
ATOM      6  C   UNL d   1       0.384  -4.759   0.025  0.00  0.00     0.032 A 
ENDROOT
BRANCH   1   7
ATOM      7  N   UNL d   1      -0.200  -1.078  -0.371  0.00  0.00    -0.260 N 
ATOM      8  N   UNL d   1       0.992  -0.665   0.131  0.00  0.00    -0.297 N 
ATOM      9  C   UNL d   1       0.941   0.662   0.169  0.00  0.00     0.041 A 
ATOM     10  HN  UNL d   1       1.771  -1.256   0.422  1.00  0.00     0.187 HD
ATOM     11  C   UNL d   1       2.116   1.404   0.695  0.00  0.00     0.071 C 
ATOM     12  C   UNL d   1      -0.289   1.162  -0.322  0.00  0.00     0.087 A 
ATOM     13  C   UNL d   1      -1.041   0.016  -0.603  0.00  0.00     0.049 A 
ATOM     14  C   UNL d   1      -2.466  -0.070  -1.027  0.00  0.00     0.071 C 
BRANCH  12  15
ATOM     15  C   UNL d   1      -0.680   2.557  -0.507  0.00  0.00     0.297 C 
ATOM     16  O   UNL d   1      -1.742   2.920  -0.992  0.00  0.00    -0.259 OA
BRANCH  15  17
ATOM     17  O   UNL d   1       0.332   3.410  -0.174  0.00  0.00    -0.318 OA
BRANCH  17  18
ATOM     18  C   UNL d   1       0.285   4.714  -0.766  0.00  0.00     0.174 C 
ATOM     19  C   UNL d   1       0.953   4.636  -2.127  0.00  0.00     0.034 C 
ENDBRANCH  17  18
ENDBRANCH  15  17
ENDBRANCH  12  15
ENDBRANCH   1   7
BRANCH   4  20
ATOM     20  N   UNL d   1      -1.065  -6.684  -0.188  0.00  0.00    -0.309 N 
ATOM     21  C   UNL d   1      -2.275  -7.327  -0.393  0.00  0.00     0.325 C 
ATOM     22  N   UNL d   1      -2.298  -8.614   0.133  0.00  0.00    -0.309 N 
ATOM     23  O   UNL d   1      -3.239  -6.802  -0.941  0.00  0.00    -0.247 OA
ATOM     24  H   UNL d   1      -1.465  -8.943   0.593  0.00  0.00     0.170 HD
ATOM     25  H   UNL d   1      -0.341  -7.189   0.300  0.00  0.00     0.170 HD
BRANCH  22  26
ATOM     26  C   UNL d   1      -3.447  -9.443   0.222  0.00  0.00     0.036 A 
ATOM     27  C   UNL d   1      -4.685  -9.119  -0.349  0.00  0.00     0.031 A 
ATOM     28  C   UNL d   1      -5.816  -9.913  -0.131  0.00  0.00     0.026 A 
ATOM     29  C   UNL d   1      -5.714 -11.055   0.650  0.00  0.00     0.034 A 
ATOM     30  C   UNL d   1      -4.481 -11.428   1.180  0.00  0.00     0.026 A 
ATOM     31 CL   UNL d   1      -7.117 -11.996   0.971  0.00  0.00    -0.084 Cl
ATOM     32  C   UNL d   1      -3.350 -10.628   0.962  0.00  0.00     0.031 A 
ENDBRANCH  22  26
ENDBRANCH   4  20
TORSDOF 6
