REMARK  5 active torsions:
REMARK  status: ('A' for Active; 'I' for Inactive)
REMARK    1  A    between atoms: S_7  and  C_1 
REMARK    2  A    between atoms: N_3  and  C_2 
REMARK    3  A    between atoms: S_11  and  C_6 
REMARK    4  A    between atoms: C_13  and  S_7 
REMARK    5  A    between atoms: C_14  and  S_11 
ROOT
ATOM      1  C   UNL d   1      -0.601   1.179   0.075  0.00  0.00     0.109 A 
ATOM      2  C   UNL d   1       0.784   1.196   0.162  0.00  0.00     0.136 A 
ATOM      3  N   UNL d   1      -1.277   0.004  -0.033  0.00  0.00    -0.343 N 
ATOM      4  HN  UNL d   1      -2.296  -0.006  -0.089  1.00  0.00     0.167 HD
ATOM      5  C   UNL d   1      -0.573  -1.153  -0.066  0.00  0.00     0.075 A 
ATOM      6  C   UNL d   1       1.514   0.005   0.084  0.00  0.00     0.042 A 
ATOM      7  C   UNL d   1       0.817  -1.193  -0.034  0.00  0.00     0.040 A 
ENDROOT
BRANCH   1   8
ATOM      8  S   UNL d   1      -1.645   2.623   0.119  0.00  0.00    -0.070 SA
BRANCH   8   9
ATOM      9  C   UNL d   1      -1.773   3.049  -1.609  0.00  0.00     0.007 A 
ATOM     10  C   UNL d   1      -2.278   2.151  -2.557  0.00  0.00     0.019 A 
ATOM     11  C   UNL d   1      -2.408   2.534  -3.896  0.00  0.00     0.001 A 
ATOM     12  C   UNL d   1      -2.042   3.818  -4.295  0.00  0.00     0.000 A 
ATOM     13  C   UNL d   1      -1.552   4.723  -3.356  0.00  0.00     0.001 A 
ATOM     14  C   UNL d   1      -1.421   4.341  -2.018  0.00  0.00     0.019 A 
ENDBRANCH   8   9
ENDBRANCH   1   8
BRANCH   2  15
ATOM     15  N   UNL d   1       1.505   2.422   0.384  0.00  0.00    -0.113 N 
ATOM     16  O   UNL d   1       1.288   3.027   1.439  0.00  0.00    -0.532 OA
ATOM     17  O   UNL d   1       2.348   2.737  -0.468  0.00  0.00    -0.532 OA
ENDBRANCH   2  15
BRANCH   5  18
ATOM     18  S   UNL d   1      -1.510  -2.662  -0.173  0.00  0.00    -0.073 SA
BRANCH  18  19
ATOM     19  C   UNL d   1      -1.656  -3.109   1.550  0.00  0.00     0.007 A 
ATOM     20  C   UNL d   1      -2.251  -2.253   2.486  0.00  0.00     0.019 A 
ATOM     21  C   UNL d   1      -2.392  -2.650   3.819  0.00  0.00     0.001 A 
ATOM     22  C   UNL d   1      -1.946  -3.907   4.225  0.00  0.00     0.000 A 
ATOM     23  C   UNL d   1      -1.359  -4.768   3.299  0.00  0.00     0.001 A 
ATOM     24  C   UNL d   1      -1.217  -4.372   1.967  0.00  0.00     0.019 A 
ENDBRANCH  18  19
ENDBRANCH   5  18
TORSDOF 5
