REMARK  5 active torsions:
REMARK  status: ('A' for Active; 'I' for Inactive)
REMARK    1  A    between atoms: C_2  and  N_1 
REMARK       I    between atoms: C_3  and  N_9 
REMARK    2  A    between atoms: C_5  and  C_3 
REMARK    3  A    between atoms: C_6  and  C_7 
REMARK    4  A    between atoms: O_14  and  C_6 
REMARK    5  A    between atoms: N_9  and  C_11 
ROOT
ATOM      1  C   UNL d   1       1.781  -4.795   0.644  0.00  0.00     0.245 C 
ATOM      2  N   UNL d   1       0.614  -4.674  -0.083  0.00  0.00    -0.324 N 
ATOM      3  O   UNL d   1       2.599  -3.913   0.875  0.00  0.00    -0.268 OA
ATOM      4  H   UNL d   1       0.020  -5.490  -0.151  0.00  0.00     0.169 HD
ENDROOT
BRANCH   2   5
ATOM      5  C   UNL d   1       0.108  -3.490  -0.665  0.00  0.00     0.037 A 
ATOM      6  C   UNL d   1       0.799  -2.275  -0.673  0.00  0.00     0.065 A 
ATOM      7  C   UNL d   1       0.181  -1.122  -1.178  0.00  0.00     0.105 A 
ATOM      8  C   UNL d   1      -1.112  -1.178  -1.711  0.00  0.00     0.036 A 
ATOM      9  C   UNL d   1      -1.782  -2.399  -1.747  0.00  0.00     0.005 A 
ATOM     10  C   UNL d   1      -1.175  -3.547  -1.228  0.00  0.00     0.029 A 
BRANCH   7  11
ATOM     11  N   UNL d   1       0.887   0.165  -1.114  0.00  0.00    -0.116 N 
ATOM     12  O   UNL d   1       2.040   0.177  -0.665  0.00  0.00    -0.532 OA
ATOM     13  O   UNL d   1       0.280   1.172  -1.511  0.00  0.00    -0.532 OA
ENDBRANCH   7  11
ENDBRANCH   2   5
BRANCH   1  14
ATOM     14  C   UNL d   1       1.980  -6.162   1.181  0.00  0.00     0.081 C 
ATOM     15  C   UNL d   1       3.105  -6.419   1.864  0.00  0.00     0.086 C 
BRANCH  15  16
ATOM     16  C   UNL d   1       3.349  -7.774   2.357  0.00  0.00     0.165 C 
ATOM     17  O   UNL d   1       2.585  -8.717   2.300  0.00  0.00    -0.647 OA
BRANCH  16  18
ATOM     18  O   UNL d   1       4.582  -7.867   2.873  0.00  0.00    -0.773 OA
ATOM     19  H   UNL d   1       4.667  -8.805   3.141  0.00  0.00     0.167 HD
ENDBRANCH  16  18
ENDBRANCH  15  16
ENDBRANCH   1  14
TORSDOF 5
