REMARK  4 active torsions:
REMARK  status: ('A' for Active; 'I' for Inactive)
REMARK    1  A    between atoms: N_8  and  C_2 
REMARK    2  A    between atoms: C_16  and  N_8 
REMARK    3  A    between atoms: O_22  and  C_9 
REMARK    4  A    between atoms: O_23  and  C_10 
ROOT
ATOM      1  C   UNL d   1       0.157   0.694   0.158  0.00  0.00     0.038 A 
ATOM      2  C   UNL d   1      -1.089   1.341   0.150  0.00  0.00     0.119 A 
ATOM      3  C   UNL d   1       0.141  -0.695  -0.005  0.00  0.00     0.050 A 
ATOM      4  C   UNL d   1       1.390   1.353   0.307  0.00  0.00     0.057 A 
ATOM      5  N   UNL d   1      -2.245   0.660   0.073  0.00  0.00    -0.338 N 
ATOM      6  HN  UNL d   1      -3.150   1.130   0.099  1.00  0.00     0.168 HD
ATOM      7  C   UNL d   1       1.370  -1.347  -0.111  0.00  0.00     0.070 A 
ATOM      8  C   UNL d   1       2.625   0.696   0.207  0.00  0.00     0.102 A 
ATOM      9  C   UNL d   1       2.611  -0.676  -0.034  0.00  0.00     0.103 A 
ATOM     10  N   UNL d   1      -1.011  -1.379  -0.099  0.00  0.00    -0.351 N 
ATOM     11  HN  UNL d   1      -1.022  -2.392  -0.211  1.00  0.00     0.166 HD
ATOM     12  C   UNL d   1      -2.145  -0.669  -0.039  0.00  0.00     0.182 A 
ENDROOT
BRANCH   2  13
ATOM     13  N   UNL d   1      -1.125   2.766   0.151  0.00  0.00    -0.342 N 
ATOM     14  H   UNL d   1      -0.605   3.100  -0.651  0.00  0.00     0.167 HD
BRANCH  13  15
ATOM     15  C   UNL d   1      -2.273   3.545   0.418  0.00  0.00     0.036 A 
ATOM     16  C   UNL d   1      -3.094   3.264   1.513  0.00  0.00     0.075 A 
ATOM     17  C   UNL d   1      -4.227   4.032   1.761  0.00  0.00     0.157 A 
ATOM     18  F   UNL d   1      -5.001   3.742   2.813  0.00  0.00    -0.203 F 
ATOM     19  C   UNL d   1      -4.550   5.093   0.923  0.00  0.00     0.154 A 
ATOM     20  C   UNL d   1      -3.735   5.405  -0.158  0.00  0.00     0.048 A 
ATOM     21  F   UNL d   1      -5.648   5.822   1.153  0.00  0.00    -0.203 F 
ATOM     22  C   UNL d   1      -2.590   4.641  -0.406  0.00  0.00     0.032 A 
ENDBRANCH  13  15
ENDBRANCH   2  13
BRANCH   8  23
ATOM     23  O   UNL d   1       3.631   1.603   0.326  0.00  0.00    -0.353 OA
ATOM     24  C   UNL d   1       4.987   1.251   0.172  0.00  0.00     0.210 C 
ENDBRANCH   8  23
BRANCH   9  25
ATOM     25  O   UNL d   1       3.689  -1.425  -0.431  0.00  0.00    -0.353 OA
ATOM     26  C   UNL d   1       4.639  -1.743   0.578  0.00  0.00     0.210 C 
ENDBRANCH   9  25
TORSDOF 4
