REMARK  5 active torsions:
REMARK  status: ('A' for Active; 'I' for Inactive)
REMARK    1  A    between atoms: C_5  and  C_1 
REMARK    2  A    between atoms: S_10  and  C_5 
REMARK    3  A    between atoms: C_7  and  N_8 
REMARK       I    between atoms: N_8  and  C_9 
REMARK    4  A    between atoms: C_9  and  C_16 
REMARK    5  A    between atoms: C_16  and  S_10 
ROOT
ATOM      1  S   UNL d   1       4.232  -1.712  -1.596  0.00  0.00    -0.077 SA
ENDROOT
BRANCH   1   2
ATOM      2  C   UNL d   1       2.885  -0.617  -1.252  0.00  0.00     0.228 C 
ATOM      3  O   UNL d   1       2.420  -0.633  -0.115  0.00  0.00    -0.279 OA
BRANCH   2   4
ATOM      4  C   UNL d   1       2.410   0.277  -2.304  0.00  0.00     0.085 A 
ATOM      5  S   UNL d   1       1.203   1.411  -1.805  0.00  0.00    -0.083 SA
ATOM      6  C   UNL d   1       1.106   2.164  -3.336  0.00  0.00     0.017 A 
ATOM      7  C   UNL d   1       0.283   3.255  -3.686  0.00  0.00     0.020 A 
ATOM      8  C   UNL d   1       1.968   1.561  -4.251  0.00  0.00     0.004 A 
ATOM      9  C   UNL d   1       0.357   3.774  -4.979  0.00  0.00     0.001 A 
ATOM     10  C   UNL d   1       1.220   3.215  -5.908  0.00  0.00     0.001 A 
ATOM     11  C   UNL d   1       2.011   2.114  -5.561  0.00  0.00     0.014 A 
ATOM     12  C   UNL d   1       2.669   0.438  -3.655  0.00  0.00     0.067 A 
ATOM     13 CL   UNL d   1       3.702  -0.531  -4.637  0.00  0.00    -0.082 Cl
ENDBRANCH   2   4
ENDBRANCH   1   2
BRANCH   1  14
ATOM     14  C   UNL d   1       3.747  -3.005  -0.423  0.00  0.00     0.185 C 
BRANCH  14  15
ATOM     15  C   UNL d   1       4.600  -4.253  -0.498  0.00  0.00     0.231 C 
ATOM     16  N   UNL d   1       5.850  -4.146   0.097  0.00  0.00    -0.326 N 
ATOM     17  H   UNL d   1       5.995  -3.317   0.656  0.00  0.00     0.169 HD
ATOM     18  O   UNL d   1       4.113  -5.296  -0.946  0.00  0.00    -0.272 OA
BRANCH  16  19
ATOM     19  C   UNL d   1       6.628  -5.286   0.447  0.00  0.00     0.046 A 
ATOM     20  C   UNL d   1       6.961  -6.287  -0.494  0.00  0.00    -0.035 A 
ATOM     21  C   UNL d   1       7.681  -7.423  -0.073  0.00  0.00     0.009 A 
ATOM     22  C   UNL d   1       6.616  -6.227  -1.959  0.00  0.00     0.050 C 
ATOM     23  C   UNL d   1       8.115  -7.551   1.240  0.00  0.00     0.001 A 
ATOM     24  C   UNL d   1       7.831  -6.547   2.156  0.00  0.00     0.009 A 
ATOM     25  C   UNL d   1       7.081  -5.414   1.782  0.00  0.00    -0.035 A 
ATOM     26  C   UNL d   1       6.739  -4.456   2.894  0.00  0.00     0.050 C 
ENDBRANCH  16  19
ENDBRANCH  14  15
ENDBRANCH   1  14
TORSDOF 5
