REMARK  5 active torsions:
REMARK  status: ('A' for Active; 'I' for Inactive)
REMARK    1  A    between atoms: C_9  and  C_2 
REMARK    2  A    between atoms: S_8  and  C_5 
REMARK    3  A    between atoms: C_13  and  S_8 
REMARK    4  A    between atoms: C_10  and  C_13 
REMARK    5  A    between atoms: C_11  and  C_12 
ROOT
ATOM      1  N   UNL d   1       0.798  -0.044   0.032  0.00  0.00    -0.315 N 
ATOM      2  C   UNL d   1      -0.046   1.046  -0.081  0.00  0.00     0.134 A 
ATOM      3  N   UNL d   1      -1.291   0.593  -0.065  0.00  0.00    -0.283 N 
ATOM      4  HN  UNL d   1      -2.131   1.171  -0.087  1.00  0.00     0.188 HD
ATOM      5  C   UNL d   1      -0.012  -1.149   0.031  0.00  0.00     0.162 A 
ATOM      6  N   UNL d   1      -1.268  -0.777  -0.014  0.00  0.00    -0.278 N 
ATOM      7  HN  UNL d   1      -2.081  -1.394  -0.011  1.00  0.00     0.189 HD
ATOM      8  C   UNL d   1       2.231  -0.050   0.189  0.00  0.00     0.160 C 
ENDROOT
BRANCH   2   9
ATOM      9  C   UNL d   1       0.319   2.467  -0.151  0.00  0.00     0.009 A 
ATOM     10  C   UNL d   1       1.438   2.933  -0.847  0.00  0.00     0.016 A 
ATOM     11  C   UNL d   1       1.770   4.296  -0.847  0.00  0.00     0.009 A 
ATOM     12  C   UNL d   1       0.975   5.251  -0.189  0.00  0.00    -0.051 A 
ATOM     13  C   UNL d   1      -0.180   4.782   0.454  0.00  0.00     0.009 A 
ATOM     14  C   UNL d   1      -0.500   3.415   0.473  0.00  0.00     0.016 A 
BRANCH  12  15
ATOM     15  C   UNL d   1       1.386   6.735  -0.188  0.00  0.00    -0.024 C 
ATOM     16  C   UNL d   1       0.376   7.658   0.531  0.00  0.00     0.019 C 
ATOM     17  C   UNL d   1       2.743   6.892   0.531  0.00  0.00     0.019 C 
ATOM     18  C   UNL d   1       1.523   7.252  -1.637  0.00  0.00     0.019 C 
ENDBRANCH  12  15
ENDBRANCH   2   9
BRANCH   5  19
ATOM     19  S   UNL d   1       0.571  -2.780   0.073  0.00  0.00    -0.088 SA
BRANCH  19  20
ATOM     20  C   UNL d   1      -1.004  -3.689   0.031  0.00  0.00     0.122 C 
BRANCH  20  21
ATOM     21  C   UNL d   1      -0.812  -5.188   0.079  0.00  0.00    -0.027 A 
ATOM     22  C   UNL d   1      -0.713  -5.905   1.284  0.00  0.00     0.041 A 
ATOM     23 CL   UNL d   1      -0.757  -5.121   2.823  0.00  0.00    -0.084 Cl
ATOM     24  C   UNL d   1      -0.585  -7.299   1.276  0.00  0.00     0.024 A 
ATOM     25  C   UNL d   1      -0.540  -7.996   0.070  0.00  0.00     0.002 A 
ATOM     26  C   UNL d   1      -0.612  -7.299  -1.133  0.00  0.00     0.001 A 
ATOM     27  C   UNL d   1      -0.742  -5.909  -1.129  0.00  0.00     0.009 A 
ENDBRANCH  20  21
ENDBRANCH  19  20
ENDBRANCH   5  19
TORSDOF 5
