REMARK  5 active torsions:
REMARK  status: ('A' for Active; 'I' for Inactive)
REMARK    1  A    between atoms: N_7  and  C_1 
REMARK    2  A    between atoms: N_8  and  C_2 
REMARK    3  A    between atoms: N_9  and  N_8 
REMARK    4  A    between atoms: C_16  and  C_13 
REMARK    5  A    between atoms: O_22  and  C_17 
ROOT
ATOM      1  N   UNL d   1       1.525  -2.433  -0.184  0.00  0.00    -0.283 N 
ATOM      2  H   UNL d   1       2.533  -2.231  -0.219  0.00  0.00     0.188 HD
ENDROOT
BRANCH   1   3
ATOM      3  C   UNL d   1       0.675  -1.390  -0.424  0.00  0.00     0.172 A 
ATOM      4  C   UNL d   1       0.926  -0.067  -0.759  0.00  0.00     0.173 A 
ATOM      5  C   UNL d   1      -0.345   0.540  -0.918  0.00  0.00     0.059 A 
ATOM      6  N   UNL d   1      -1.333  -0.326  -0.665  0.00  0.00    -0.299 N 
ATOM      7  C   UNL d   1      -0.690   1.931  -1.308  0.00  0.00     0.072 C 
ATOM      8  N   UNL d   1      -0.699  -1.480  -0.351  0.00  0.00    -0.278 N 
ATOM      9  HN  UNL d   1      -2.338  -0.156  -0.702  1.00  0.00     0.187 HD
ATOM     10  C   UNL d   1      -1.536  -2.585   0.058  0.00  0.00     0.179 C 
BRANCH   4  11
ATOM     11  N   UNL d   1       2.214   0.533  -0.932  0.00  0.00    -0.110 N 
ATOM     12  O   UNL d   1       3.204  -0.176  -0.690  0.00  0.00    -0.532 OA
ATOM     13  O   UNL d   1       2.250   1.711  -1.302  0.00  0.00    -0.532 OA
ENDBRANCH   4  11
ENDBRANCH   1   3
BRANCH   1  14
ATOM     14  N   UNL d   1       1.144  -3.703  -0.459  0.00  0.00    -0.309 N 
ATOM     15  C   UNL d   1       1.869  -4.650   0.043  0.00  0.00     0.118 C 
ATOM     16  HN  UNL d   1       0.326  -3.903  -1.034  1.00  0.00     0.186 HD
BRANCH  15  17
ATOM     17  C   UNL d   1       1.438  -6.054  -0.121  0.00  0.00    -0.019 A 
ATOM     18  C   UNL d   1       0.469  -6.379  -1.076  0.00  0.00     0.015 A 
ATOM     19  C   UNL d   1      -0.021  -7.685  -1.167  0.00  0.00     0.037 A 
ATOM     20  C   UNL d   1       0.449  -8.668  -0.296  0.00  0.00     0.068 A 
ATOM     21  C   UNL d   1       1.429  -8.337   0.648  0.00  0.00     0.037 A 
ATOM     22  C   UNL d   1       1.933  -7.035   0.736  0.00  0.00     0.015 A 
BRANCH  20  23
ATOM     23  O   UNL d   1       0.029  -9.969  -0.258  0.00  0.00    -0.356 OA
ATOM     24  C   UNL d   1      -0.959 -10.354  -1.208  0.00  0.00     0.210 C 
ENDBRANCH  20  23
ENDBRANCH  15  17
ENDBRANCH   1  14
TORSDOF 5
