REMARK  1 active torsions:
REMARK  status: ('A' for Active; 'I' for Inactive)
REMARK    1  A    between atoms: C_7  and  C_3 
ROOT
ATOM      1  N   UNL d   1      -0.706  -0.153  -0.897  0.00  0.00    -0.351 N 
ATOM      2  HN  UNL d   1      -1.333  -0.272  -1.693  1.00  0.00     0.166 HD
ATOM      3  C   UNL d   1      -0.359  -1.105   0.039  0.00  0.00     0.059 A 
ATOM      4  N   UNL d   1       0.686   0.741   0.571  0.00  0.00    -0.360 N 
ATOM      5  C   UNL d   1      -0.063   0.938  -0.552  0.00  0.00     0.180 A 
ATOM      6  C   UNL d   1       0.507  -0.557   0.964  0.00  0.00     0.119 A 
ATOM      7  H   UNL d   1       1.272   1.430   1.022  0.00  0.00     0.166 HD
ENDROOT
BRANCH   3   8
ATOM      8  C   UNL d   1      -0.839  -2.479   0.005  0.00  0.00    -0.008 A 
ATOM      9  C   UNL d   1      -1.679  -2.895  -1.039  0.00  0.00     0.014 A 
ATOM     10  C   UNL d   1      -2.128  -4.216  -1.115  0.00  0.00     0.001 A 
ATOM     11  C   UNL d   1      -1.745  -5.139  -0.144  0.00  0.00     0.000 A 
ATOM     12  C   UNL d   1      -0.922  -4.740   0.905  0.00  0.00     0.001 A 
ATOM     13  C   UNL d   1      -0.473  -3.418   0.981  0.00  0.00     0.014 A 
ENDBRANCH   3   8
TORSDOF 1
