REMARK  3 active torsions:
REMARK  status: ('A' for Active; 'I' for Inactive)
REMARK    1  A    between atoms: C_12  and  N_1 
REMARK    2  A    between atoms: C_4  and  C_5 
REMARK    3  A    between atoms: C_13  and  C_7 
ROOT
ATOM      1  N   UNL d   1       1.012  -0.032  -0.206  0.00  0.00    -0.365 N 
ATOM      2  HN  UNL d   1       0.525   0.677   0.343  1.00  0.00     0.165 HD
ATOM      3  C   UNL d   1       0.348  -0.903  -0.892  0.00  0.00     0.099 C 
ENDROOT
BRANCH   1   4
ATOM      4  C   UNL d   1       2.419  -0.077  -0.230  0.00  0.00     0.031 A 
ATOM      5  C   UNL d   1       3.121   1.127  -0.235  0.00  0.00     0.030 A 
ATOM      6  C   UNL d   1       4.523   1.147  -0.255  0.00  0.00     0.010 A 
ATOM      7  C   UNL d   1       5.275  -0.043  -0.271  0.00  0.00    -0.051 A 
ATOM      8  C   UNL d   1       4.556  -1.248  -0.234  0.00  0.00     0.010 A 
ATOM      9  C   UNL d   1       3.155  -1.264  -0.200  0.00  0.00     0.030 A 
BRANCH   7  10
ATOM     10  C   UNL d   1       6.812   0.003  -0.326  0.00  0.00    -0.024 C 
ATOM     11  C   UNL d   1       7.472  -1.395  -0.373  0.00  0.00     0.019 C 
ATOM     12  C   UNL d   1       7.266   0.762  -1.591  0.00  0.00     0.019 C 
ATOM     13  C   UNL d   1       7.363   0.726   0.922  0.00  0.00     0.019 C 
ENDBRANCH   7  10
ENDBRANCH   1   4
BRANCH   3  14
ATOM     14  C   UNL d   1      -1.129  -0.907  -0.933  0.00  0.00    -0.019 A 
ATOM     15  C   UNL d   1      -1.865   0.131  -0.354  0.00  0.00     0.038 A 
ATOM     16  C   UNL d   1      -3.261   0.120  -0.434  0.00  0.00     0.056 A 
ATOM     17 CL   UNL d   1      -4.119   1.438   0.280  0.00  0.00    -0.083 Cl
ATOM     18  C   UNL d   1      -3.917  -0.935  -1.083  0.00  0.00     0.055 A 
ATOM     19  C   UNL d   1      -3.174  -1.975  -1.651  0.00  0.00     0.026 A 
ATOM     20 CL   UNL d   1      -5.638  -1.012  -1.225  0.00  0.00    -0.083 Cl
ATOM     21  C   UNL d   1      -1.779  -1.961  -1.579  0.00  0.00     0.014 A 
ENDBRANCH   3  14
TORSDOF 3
