REMARK  6 active torsions:
REMARK  status: ('A' for Active; 'I' for Inactive)
REMARK    1  A    between atoms: N_3  and  S_1 
REMARK    2  A    between atoms: C_9  and  S_1 
REMARK    3  A    between atoms: C_2  and  N_3 
REMARK    4  A    between atoms: N_10  and  C_4 
REMARK    5  A    between atoms: C_20  and  N_10 
REMARK       I    between atoms: C_15  and  N_16 
REMARK    6  A    between atoms: N_16  and  C_21 
ROOT
ATOM      1  C   UNL d   1       0.781   2.829   0.178  0.00  0.00     0.134 A 
ATOM      2  C   UNL d   1       2.100   3.057   0.615  0.00  0.00     0.125 A 
ATOM      3  N   UNL d   1      -0.279   3.576   0.543  0.00  0.00    -0.342 N 
ATOM      4  HN  UNL d   1      -1.224   3.377   0.214  1.00  0.00     0.167 HD
ATOM      5  N   UNL d   1       2.346   4.100   1.443  0.00  0.00    -0.342 N 
ATOM      6  HN  UNL d   1       3.292   4.301   1.767  1.00  0.00     0.167 HD
ATOM      7  C   UNL d   1      -0.009   4.604   1.371  0.00  0.00     0.060 A 
ATOM      8  C   UNL d   1       1.308   4.864   1.824  0.00  0.00     0.060 A 
ATOM      9  C   UNL d   1      -1.040   5.434   1.796  0.00  0.00     0.032 A 
ATOM     10  C   UNL d   1       1.534   5.938   2.676  0.00  0.00     0.032 A 
ATOM     11  C   UNL d   1       0.492   6.768   3.089  0.00  0.00     0.002 A 
ATOM     12  C   UNL d   1      -0.799   6.515   2.646  0.00  0.00     0.002 A 
ENDROOT
BRANCH   1  13
ATOM     13  N   UNL d   1       0.392   1.716  -0.614  0.00  0.00    -0.163 NA
ATOM     14  H   UNL d   1      -0.457   1.949  -1.124  0.00  0.00     0.147 HD
BRANCH  13  15
ATOM     15  S   UNL d   1       0.163   0.282   0.254  0.00  0.00     0.247 S 
ATOM     16  O   UNL d   1       1.312   0.073   1.107  0.00  0.00    -0.205 OA
ATOM     17  O   UNL d   1      -0.231  -0.719  -0.716  0.00  0.00    -0.205 OA
BRANCH  15  18
ATOM     18  C   UNL d   1      -1.260   0.603   1.276  0.00  0.00     0.075 A 
ATOM     19  C   UNL d   1      -2.542   0.328   0.790  0.00  0.00     0.027 A 
ATOM     20  C   UNL d   1      -3.659   0.564   1.604  0.00  0.00     0.031 A 
ATOM     21  C   UNL d   1      -3.506   1.067   2.904  0.00  0.00     0.034 A 
ATOM     22  C   UNL d   1      -2.216   1.302   3.385  0.00  0.00     0.031 A 
ATOM     23  C   UNL d   1      -1.093   1.061   2.583  0.00  0.00     0.027 A 
BRANCH  21  24
ATOM     24  N   UNL d   1      -4.681   1.309   3.654  0.00  0.00    -0.328 N 
ATOM     25  C   UNL d   1      -4.764   1.849   4.924  0.00  0.00     0.218 C 
ATOM     26  O   UNL d   1      -3.827   2.207   5.633  0.00  0.00    -0.274 OA
ATOM     27  C   UNL d   1      -6.179   1.997   5.427  0.00  0.00     0.117 C 
ATOM     28  H   UNL d   1      -5.554   1.079   3.194  0.00  0.00     0.169 HD
ENDBRANCH  21  24
ENDBRANCH  15  18
ENDBRANCH  13  15
ENDBRANCH   1  13
BRANCH   2  29
ATOM     29  N   UNL d   1       3.185   2.310   0.078  0.00  0.00    -0.243 NA
ATOM     30  H   UNL d   1       2.847   1.367  -0.124  0.00  0.00     0.135 HD
BRANCH  29  31
ATOM     31  C   UNL d   1       4.441   2.179   0.726  0.00  0.00     0.014 A 
ATOM     32  C   UNL d   1       4.537   1.991   2.109  0.00  0.00     0.024 A 
ATOM     33  C   UNL d   1       5.773   1.767   2.719  0.00  0.00     0.008 A 
ATOM     34  C   UNL d   1       6.939   1.704   1.951  0.00  0.00    -0.062 A 
ATOM     35  C   UNL d   1       6.843   1.846   0.563  0.00  0.00     0.008 A 
ATOM     36  C   UNL d   1       8.261   1.491   2.626  0.00  0.00     0.048 C 
ATOM     37  C   UNL d   1       5.602   2.063  -0.045  0.00  0.00     0.024 A 
ENDBRANCH  29  31
ENDBRANCH   2  29
TORSDOF 6
