REMARK  5 active torsions:
REMARK  status: ('A' for Active; 'I' for Inactive)
REMARK    1  A    between atoms: N_7  and  S_1 
REMARK    2  A    between atoms: C_8  and  S_1 
REMARK    3  A    between atoms: C_2  and  N_7 
REMARK    4  A    between atoms: C_9  and  C_3 
REMARK    5  A    between atoms: C_12  and  C_6 
ROOT
ATOM      1  C   UNL d   1       0.911  -0.014   2.678  0.00  0.00     0.045 A 
ATOM      2  C   UNL d   1       2.196  -0.364   3.060  0.00  0.00     0.073 A 
ATOM      3  S   UNL d   1       2.183  -1.197   4.553  0.00  0.00    -0.084 SA
ATOM      4  C   UNL d   1      -0.065  -0.443   3.639  0.00  0.00     0.045 A 
ATOM      5  C   UNL d   1       0.479  -1.151   4.696  0.00  0.00     0.017 A 
ENDROOT
BRANCH   1   6
ATOM      6  N   UNL d   1       0.529   0.659   1.485  0.00  0.00    -0.180 NA
ATOM      7  H   UNL d   1      -0.345   1.179   1.609  0.00  0.00     0.146 HD
BRANCH   6   8
ATOM      8  S   UNL d   1       0.227  -0.356   0.133  0.00  0.00     0.245 S 
ATOM      9  O   UNL d   1      -1.195  -0.631   0.181  0.00  0.00    -0.206 OA
ATOM     10  O   UNL d   1       1.205  -1.423   0.095  0.00  0.00    -0.206 OA
BRANCH   8  11
ATOM     11  C   UNL d   1       0.532   0.706  -1.256  0.00  0.00     0.074 A 
ATOM     12  C   UNL d   1       1.811   1.223  -1.463  0.00  0.00     0.025 A 
ATOM     13  C   UNL d   1       2.064   2.006  -2.596  0.00  0.00     0.008 A 
ATOM     14  C   UNL d   1       1.047   2.267  -3.525  0.00  0.00    -0.062 A 
ATOM     15  C   UNL d   1      -0.232   1.740  -3.305  0.00  0.00     0.008 A 
ATOM     16  C   UNL d   1       1.339   3.090  -4.746  0.00  0.00     0.048 C 
ATOM     17  C   UNL d   1      -0.492   0.960  -2.173  0.00  0.00     0.025 A 
ENDBRANCH   8  11
ENDBRANCH   6   8
ENDBRANCH   1   6
BRANCH   2  18
ATOM     18  C   UNL d   1       3.456  -0.071   2.384  0.00  0.00     0.164 C 
ATOM     19  O   UNL d   1       3.570   0.840   1.557  0.00  0.00    -0.292 OA
ATOM     20  C   UNL d   1       4.695  -0.879   2.716  0.00  0.00     0.097 C 
ENDBRANCH   2  18
BRANCH   5  21
ATOM     21  C   UNL d   1      -0.194  -1.851   5.808  0.00  0.00    -0.019 A 
ATOM     22  C   UNL d   1      -1.469  -2.410   5.624  0.00  0.00     0.013 A 
ATOM     23  C   UNL d   1      -2.096  -3.128   6.648  0.00  0.00     0.001 A 
ATOM     24  C   UNL d   1      -1.460  -3.299   7.875  0.00  0.00     0.000 A 
ATOM     25  C   UNL d   1      -0.203  -2.740   8.084  0.00  0.00     0.001 A 
ATOM     26  C   UNL d   1       0.419  -2.017   7.062  0.00  0.00     0.013 A 
ENDBRANCH   5  21
TORSDOF 5
