REMARK  4 active torsions:
REMARK  status: ('A' for Active; 'I' for Inactive)
REMARK    1  A    between atoms: N_3  and  C_1 
REMARK       I    between atoms: C_7  and  N_3 
REMARK    2  A    between atoms: C_8  and  C_7 
REMARK    3  A    between atoms: C_9  and  C_10 
REMARK    4  A    between atoms: O_14  and  C_9 
ROOT
ATOM      1  N   UNL d   1      -0.399  -2.418   0.055  0.00  0.00    -0.308 N 
ATOM      2  C   UNL d   1      -1.751  -2.644   0.205  0.00  0.00     0.247 C 
ATOM      3  O   UNL d   1      -2.651  -1.818   0.230  0.00  0.00    -0.268 OA
ATOM      4  H   UNL d   1       0.233  -3.184   0.254  0.00  0.00     0.170 HD
ENDROOT
BRANCH   1   5
ATOM      5  C   UNL d   1       0.205  -1.182  -0.110  0.00  0.00     0.125 A 
ATOM      6  N   UNL d   1      -0.319   0.013  -0.560  0.00  0.00    -0.281 N 
ATOM      7  N   UNL d   1       0.574   1.032  -0.495  0.00  0.00    -0.308 N 
ATOM      8  C   UNL d   1      -1.557   0.283  -1.252  0.00  0.00     0.179 C 
ATOM      9  C   UNL d   1       1.702   0.452  -0.093  0.00  0.00     0.111 A 
ATOM     10  HN  UNL d   1       0.417   2.017  -0.706  1.00  0.00     0.186 HD
ATOM     11  C   UNL d   1       1.542  -0.923   0.124  0.00  0.00     0.068 A 
ENDBRANCH   1   5
BRANCH   2  12
ATOM     12  C   UNL d   1      -2.041  -4.092   0.396  0.00  0.00     0.081 C 
ATOM     13  C   UNL d   1      -3.295  -4.510   0.608  0.00  0.00     0.086 C 
BRANCH  13  14
ATOM     14  C   UNL d   1      -3.524  -5.956   0.776  0.00  0.00     0.165 C 
ATOM     15  O   UNL d   1      -2.638  -6.794   0.759  0.00  0.00    -0.647 OA
BRANCH  14  16
ATOM     16  O   UNL d   1      -4.825  -6.252   0.943  0.00  0.00    -0.773 OA
ATOM     17  H   UNL d   1      -5.437  -5.494   0.933  0.00  0.00     0.167 HD
ENDBRANCH  14  16
ENDBRANCH  13  14
ENDBRANCH   2  12
TORSDOF 4
