REMARK  4 active torsions:
REMARK  status: ('A' for Active; 'I' for Inactive)
REMARK    1  A    between atoms: C_10  and  N_6 
REMARK    2  A    between atoms: C_11  and  C_10 
REMARK       I    between atoms: N_14  and  C_11 
REMARK    3  A    between atoms: N_12  and  N_14 
REMARK    4  A    between atoms: C_17  and  C_16 
ROOT
ATOM      1  C   UNL d   1       1.930   0.953   0.407  0.00  0.00     0.276 C 
ENDROOT
BRANCH   1   2
ATOM      2  N   UNL d   1       0.861  -0.018   0.318  0.00  0.00    -0.196 N 
ATOM      3  N   UNL d   1       0.985  -1.349   0.551  0.00  0.00    -0.113 N 
ATOM      4  C   UNL d   1      -0.272  -1.753   0.296  0.00  0.00     0.712 A 
ATOM      5  HN  UNL d   1       1.800  -1.891   0.837  1.00  0.00     0.207 HD
ATOM      6  N   UNL d   1      -1.112  -0.694   0.039  0.00  0.00    -0.115 N 
ATOM      7  N   UNL d   1      -0.749  -3.028   0.237  0.00  0.00    -0.215 N 
ATOM      8  N   UNL d   1      -0.392   0.409   0.096  0.00  0.00    -0.211 N 
ATOM      9  HN  UNL d   1      -2.111  -0.752  -0.159  1.00  0.00     0.207 HD
ATOM     10  HN  UNL d   1      -0.715   1.371  -0.007  1.00  0.00     0.210 HD
ATOM     11  C   UNL d   1      -0.316  -3.966   1.278  0.00  0.00     0.141 C 
ATOM     12  C   UNL d   1      -2.152  -3.175  -0.180  0.00  0.00     0.141 C 
ATOM     13  C   UNL d   1      -0.615  -5.413   0.871  0.00  0.00     0.020 C 
ATOM     14  C   UNL d   1      -2.063  -5.609   0.431  0.00  0.00     0.003 C 
ATOM     15  C   UNL d   1      -2.434  -4.599  -0.644  0.00  0.00     0.020 C 
ENDBRANCH   1   2
BRANCH   1  16
ATOM     16  C   UNL d   1       3.327   0.502   0.079  0.00  0.00     0.257 C 
ATOM     17  N   UNL d   1       3.618  -0.835   0.270  0.00  0.00    -0.269 N 
ATOM     18  H   UNL d   1       2.869  -1.499   0.475  0.00  0.00     0.190 HD
ATOM     19  O   UNL d   1       4.163   1.340  -0.261  0.00  0.00    -0.270 OA
BRANCH  17  20
ATOM     20  N   UNL d   1       4.877  -1.288   0.017  0.00  0.00    -0.308 N 
ATOM     21  C   UNL d   1       5.045  -2.563   0.134  0.00  0.00     0.118 C 
ATOM     22  HN  UNL d   1       5.637  -0.661  -0.248  1.00  0.00     0.186 HD
BRANCH  21  23
ATOM     23  C   UNL d   1       6.353  -3.194  -0.137  0.00  0.00    -0.019 A 
ATOM     24  C   UNL d   1       7.466  -2.420  -0.483  0.00  0.00     0.014 A 
ATOM     25  C   UNL d   1       8.687  -3.040  -0.758  0.00  0.00     0.024 A 
ATOM     26  C   UNL d   1       8.788  -4.430  -0.687  0.00  0.00     0.034 A 
ATOM     27  C   UNL d   1       7.680  -5.202  -0.336  0.00  0.00     0.024 A 
ATOM     28 CL   UNL d   1      10.287  -5.197  -1.036  0.00  0.00    -0.084 Cl
ATOM     29  C   UNL d   1       6.457  -4.587  -0.059  0.00  0.00     0.014 A 
ENDBRANCH  21  23
ENDBRANCH  17  20
ENDBRANCH   1  16
TORSDOF 4
