REMARK  1 active torsions:
REMARK  status: ('A' for Active; 'I' for Inactive)
REMARK    1  A    between atoms: C_4  and  N_1 
ROOT
ATOM      1  C   UNL d   1       3.350  -0.030  -0.052  0.00  0.00     0.107 A 
ATOM      2  C   UNL d   1       4.270  -0.985  -0.468  0.00  0.00     0.079 A 
ATOM      3  S   UNL d   1       4.162   1.314   0.654  0.00  0.00    -0.082 SA
ATOM      4  C   UNL d   1       3.981  -2.178  -1.212  0.00  0.00     0.102 C 
ATOM      5  N   UNL d   1       3.826  -3.126  -1.866  0.00  0.00    -0.191 NA
ATOM      6  C   UNL d   1       5.620  -0.612  -0.160  0.00  0.00     0.033 A 
ATOM      7  C   UNL d   1       5.699   0.613   0.456  0.00  0.00     0.053 A 
ENDROOT
BRANCH   1   8
ATOM      8  N   UNL d   1       1.956   0.003  -0.077  0.00  0.00    -0.236 N 
ATOM      9  C   UNL d   1       1.179   1.141  -0.040  0.00  0.00     0.267 A 
ATOM     10  C   UNL d   1      -0.211   0.691  -0.033  0.00  0.00     0.048 A 
ATOM     11  O   UNL d   1       1.454   2.327  -0.051  0.00  0.00    -0.267 OA
ATOM     12  C   UNL d   1      -1.382   1.424  -0.003  0.00  0.00     0.018 A 
ATOM     13  C   UNL d   1      -0.211  -0.688  -0.054  0.00  0.00     0.048 A 
ATOM     14  C   UNL d   1      -2.583   0.709   0.012  0.00  0.00     0.001 A 
ATOM     15  C   UNL d   1      -2.584  -0.701  -0.002  0.00  0.00     0.001 A 
ATOM     16  C   UNL d   1      -1.384  -1.418  -0.034  0.00  0.00     0.018 A 
ATOM     17  C   UNL d   1       1.180  -1.132  -0.055  0.00  0.00     0.267 A 
ATOM     18  O   UNL d   1       1.479  -2.307   0.045  0.00  0.00    -0.267 OA
ENDBRANCH   1   8
TORSDOF 1
