REMARK  3 active torsions:
REMARK  status: ('A' for Active; 'I' for Inactive)
REMARK    1  A    between atoms: C_6  and  C_1 
REMARK    2  A    between atoms: C_17  and  C_7 
REMARK    3  A    between atoms: C_20  and  C_12 
ROOT
ATOM      1  N   UNL d   1      -2.473  -0.782   3.100  0.00  0.00    -0.197 NA
ATOM      2  C   UNL d   1      -2.400  -0.332   2.025  0.00  0.00     0.065 C 
ATOM      3  C   UNL d   1      -2.311   0.221   0.648  0.00  0.00     0.188 C 
ENDROOT
BRANCH   3   4
ATOM      4  C   UNL d   1      -0.886   0.170   0.183  0.00  0.00     0.064 A 
ATOM      5  N   UNL d   1      -0.011   1.141   0.354  0.00  0.00    -0.352 N 
ATOM      6  C   UNL d   1       1.243   0.748  -0.088  0.00  0.00     0.050 A 
ATOM      7  HN  UNL d   1      -0.226   2.054   0.756  1.00  0.00     0.166 HD
ATOM      8  C   UNL d   1       1.280  -0.526  -0.628  0.00  0.00     0.081 A 
ATOM      9  S   UNL d   1      -0.276  -1.236  -0.600  0.00  0.00    -0.085 SA
BRANCH   6  10
ATOM     10  C   UNL d   1       2.405   1.637  -0.032  0.00  0.00    -0.002 A 
ATOM     11  C   UNL d   1       3.339   1.571  -1.084  0.00  0.00     0.022 A 
ATOM     12  C   UNL d   1       4.491   2.382  -1.157  0.00  0.00    -0.042 A 
ATOM     13  C   UNL d   1       5.475   2.163  -2.311  0.00  0.00    -0.020 C 
ATOM     14  C   UNL d   1       4.659   3.380  -0.184  0.00  0.00    -0.043 A 
ATOM     15  C   UNL d   1       6.791   2.947  -2.108  0.00  0.00     0.015 C 
ATOM     16  C   UNL d   1       4.792   2.589  -3.629  0.00  0.00     0.020 C 
ATOM     17  C   UNL d   1       5.882   0.672  -2.428  0.00  0.00     0.020 C 
ATOM     18  C   UNL d   1       6.563   4.356  -1.594  0.00  0.00     0.015 C 
ATOM     19  C   UNL d   1       5.805   4.397  -0.244  0.00  0.00    -0.020 C 
ATOM     20  C   UNL d   1       6.786   4.127   0.918  0.00  0.00     0.020 C 
ATOM     21  C   UNL d   1       5.261   5.838  -0.105  0.00  0.00     0.020 C 
ATOM     22  C   UNL d   1       3.740   3.424   0.894  0.00  0.00     0.016 A 
ATOM     23  C   UNL d   1       2.637   2.551   1.007  0.00  0.00    -0.045 A 
BRANCH  23  24
ATOM     24  C   UNL d   1       1.810   2.614   2.276  0.00  0.00     0.035 C 
ATOM     25  C   UNL d   1       0.721   3.677   2.278  0.00  0.00     0.010 C 
ENDBRANCH  23  24
ENDBRANCH   6  10
ENDBRANCH   3   4
TORSDOF 3
