REMARK  4 active torsions:
REMARK  status: ('A' for Active; 'I' for Inactive)
REMARK    1  A    between atoms: C_2  and  N_1 
REMARK    2  A    between atoms: C_3  and  C_12 
REMARK    3  A    between atoms: O_14  and  C_7 
REMARK    4  A    between atoms: C_17  and  O_14 
ROOT
ATOM      1  C   UNL d   1      -1.624   8.005   2.190  0.00  0.00    -0.035 A 
ATOM      2  C   UNL d   1      -1.668   7.348   3.433  0.00  0.00     0.012 A 
ATOM      3  C   UNL d   1      -1.665   7.223   1.024  0.00  0.00     0.012 A 
ATOM      4  C   UNL d   1      -1.906   5.202   2.338  0.00  0.00     0.077 A 
ATOM      5  C   UNL d   1      -1.805   5.957   3.506  0.00  0.00     0.038 A 
ATOM      6  C   UNL d   1      -1.786   5.835   1.098  0.00  0.00     0.038 A 
ENDROOT
BRANCH   4   7
ATOM      7  O   UNL d   1      -2.064   3.841   2.482  0.00  0.00    -0.294 OA
BRANCH   7   8
ATOM      8  C   UNL d   1      -2.908   3.194   1.589  0.00  0.00     0.148 A 
ATOM      9  C   UNL d   1      -2.632   1.859   1.320  0.00  0.00     0.059 A 
ATOM     10  C   UNL d   1      -3.418   1.196   0.378  0.00  0.00     0.041 A 
ATOM     11  C   UNL d   1      -4.453   1.895  -0.247  0.00  0.00     0.118 A 
ATOM     12  C   UNL d   1      -4.688   3.212   0.109  0.00  0.00     0.126 A 
ATOM     13  N   UNL d   1      -3.941   3.868   1.029  0.00  0.00    -0.344 N 
ATOM     14  HN  UNL d   1      -4.149   4.832   1.290  1.00  0.00     0.167 HD
BRANCH  11  15
ATOM     15  N   UNL d   1      -5.268   1.274  -1.281  0.00  0.00    -0.114 N 
ATOM     16  O   UNL d   1      -6.143   1.964  -1.821  0.00  0.00    -0.532 OA
ATOM     17  O   UNL d   1      -5.031   0.091  -1.563  0.00  0.00    -0.532 OA
ENDBRANCH  11  15
ENDBRANCH   7   8
ENDBRANCH   4   7
BRANCH   1  18
ATOM     18  C   UNL d   1      -1.570   9.517   2.136  0.00  0.00     0.141 C 
ATOM     19  S   UNL d   1      -3.034  10.235   1.325  0.00  0.00    -0.148 SA
ATOM     20  C   UNL d   1      -2.214  11.757   0.812  0.00  0.00     0.085 C 
ATOM     21  C   UNL d   1      -0.860  11.373   0.247  0.00  0.00     0.085 C 
ATOM     22  S   UNL d   1      -0.060  10.158   1.336  0.00  0.00    -0.148 SA
ENDBRANCH   1  18
TORSDOF 4
