REMARK  3 active torsions:
REMARK  status: ('A' for Active; 'I' for Inactive)
REMARK    1  A    between atoms: C_13  and  C_3 
REMARK    2  A    between atoms: C_8  and  C_7 
REMARK    3  A    between atoms: S_15  and  C_10 
ROOT
ATOM      1  N   UNL d   1       1.525  -0.108   0.056  0.00  0.00    -0.331 N 
ATOM      2  HN  UNL d   1       2.465  -0.502   0.080  1.00  0.00     0.168 HD
ATOM      3  C   UNL d   1       1.172   1.137   0.019  0.00  0.00     0.162 A 
ATOM      4  C   UNL d   1       0.319  -0.768   0.054  0.00  0.00     0.112 A 
ATOM      5  O   UNL d   1      -0.152   1.414   0.014  0.00  0.00    -0.256 OA
ATOM      6  C   UNL d   1      -0.802   0.218   0.037  0.00  0.00     0.316 A 
ATOM      7  C   UNL d   1       0.210  -2.103   0.032  0.00  0.00     0.054 C 
ATOM      8  O   UNL d   1      -2.005   0.056   0.045  0.00  0.00    -0.257 OA
ENDROOT
BRANCH   7   9
ATOM      9  C   UNL d   1      -1.032  -2.784  -0.025  0.00  0.00     0.008 A 
ATOM     10  S   UNL d   1      -1.645  -3.324  -1.537  0.00  0.00    -0.083 SA
ATOM     11  C   UNL d   1      -3.038  -4.005  -0.822  0.00  0.00     0.041 A 
ATOM     12  C   UNL d   1      -3.031  -3.854   0.547  0.00  0.00     0.027 A 
ATOM     13  C   UNL d   1      -1.878  -3.149   1.006  0.00  0.00     0.021 A 
BRANCH  11  14
ATOM     14  S   UNL d   1      -4.271  -4.860  -1.738  0.00  0.00    -0.127 SA
ATOM     15  C   UNL d   1      -4.859  -3.554  -2.841  0.00  0.00     0.096 C 
ENDBRANCH  11  14
ENDBRANCH   7   9
BRANCH   3  16
ATOM     16  C   UNL d   1       2.053   2.313  -0.043  0.00  0.00     0.015 A 
ATOM     17  C   UNL d   1       3.438   2.125  -0.104  0.00  0.00     0.016 A 
ATOM     18  C   UNL d   1       4.288   3.228  -0.214  0.00  0.00     0.001 A 
ATOM     19  C   UNL d   1       3.758   4.517  -0.259  0.00  0.00     0.000 A 
ATOM     20  C   UNL d   1       2.380   4.710  -0.184  0.00  0.00     0.001 A 
ATOM     21  C   UNL d   1       1.526   3.611  -0.075  0.00  0.00     0.016 A 
ENDBRANCH   3  16
TORSDOF 3
