REMARK  4 active torsions:
REMARK  status: ('A' for Active; 'I' for Inactive)
REMARK    1  A    between atoms: C_8  and  N_1 
REMARK    2  A    between atoms: C_9  and  C_2 
REMARK    3  A    between atoms: S_12  and  C_5 
REMARK    4  A    between atoms: C_10  and  C_11 
ROOT
ATOM      1  N   UNL d   1      -0.297  -1.154  -0.415  0.00  0.00    -0.275 N 
ATOM      2  C   UNL d   1       0.936  -0.622   0.007  0.00  0.00     0.139 A 
ATOM      3  N   UNL d   1       0.734   0.599   0.475  0.00  0.00    -0.282 N 
ATOM      4  HN  UNL d   1       1.443   1.194   0.904  1.00  0.00     0.188 HD
ATOM      5  C   UNL d   1      -1.181  -0.089  -0.257  0.00  0.00     0.167 A 
ATOM      6  N   UNL d   1      -0.574   0.934   0.291  0.00  0.00    -0.278 N 
ATOM      7  HN  UNL d   1      -1.005   1.825   0.538  1.00  0.00     0.189 HD
ENDROOT
BRANCH   2   8
ATOM      8  C   UNL d   1       2.271  -1.231  -0.074  0.00  0.00     0.010 A 
ATOM      9  C   UNL d   1       2.691  -2.002  -1.162  0.00  0.00     0.016 A 
ATOM     10  C   UNL d   1       3.946  -2.626  -1.159  0.00  0.00     0.009 A 
ATOM     11  C   UNL d   1       4.853  -2.454  -0.098  0.00  0.00    -0.051 A 
ATOM     12  C   UNL d   1       4.452  -1.613   0.951  0.00  0.00     0.009 A 
ATOM     13  C   UNL d   1       3.184  -1.014   0.963  0.00  0.00     0.016 A 
BRANCH  11  14
ATOM     14  C   UNL d   1       6.213  -3.175  -0.115  0.00  0.00    -0.024 C 
ATOM     15  C   UNL d   1       7.123  -2.812   1.081  0.00  0.00     0.019 C 
ATOM     16  C   UNL d   1       5.986  -4.702  -0.072  0.00  0.00     0.019 C 
ATOM     17  C   UNL d   1       6.990  -2.819  -1.401  0.00  0.00     0.019 C 
ENDBRANCH  11  14
ENDBRANCH   2   8
BRANCH   1  18
ATOM     18  C   UNL d   1      -0.557  -2.487  -0.876  0.00  0.00     0.043 A 
ATOM     19  C   UNL d   1       0.154  -3.572  -0.335  0.00  0.00     0.032 A 
ATOM     20  C   UNL d   1      -0.015  -4.863  -0.847  0.00  0.00     0.026 A 
ATOM     21  C   UNL d   1      -0.929  -5.088  -1.871  0.00  0.00     0.034 A 
ATOM     22  C   UNL d   1      -1.675  -4.033  -2.386  0.00  0.00     0.026 A 
ATOM     23 CL   UNL d   1      -1.127  -6.672  -2.511  0.00  0.00    -0.084 Cl
ATOM     24  C   UNL d   1      -1.482  -2.734  -1.900  0.00  0.00     0.032 A 
ENDBRANCH   1  18
BRANCH   5  25
ATOM     25  S   UNL d   1      -2.893  -0.121  -0.569  0.00  0.00    -0.096 SA
ATOM     26  C   UNL d   1      -3.360   1.585  -0.197  0.00  0.00     0.099 C 
ENDBRANCH   5  25
TORSDOF 4
