REMARK  3 active torsions:
REMARK  status: ('A' for Active; 'I' for Inactive)
REMARK    1  A    between atoms: C_2  and  C_1 
REMARK    2  A    between atoms: C_14  and  N_3 
REMARK    3  A    between atoms: C_9  and  C_4 
ROOT
ATOM      1  C   UNL d   1      -0.452  -2.724  -0.047  0.00  0.00     0.056 A 
ATOM      2  C   UNL d   1      -1.402  -3.393  -0.799  0.00  0.00     0.076 A 
ATOM      3  N   UNL d   1      -0.395  -4.910   0.584  0.00  0.00    -0.310 N 
ATOM      4  HN  UNL d   1      -0.138  -5.793   1.026  1.00  0.00     0.186 HD
ATOM      5  N   UNL d   1      -1.361  -4.685  -0.325  0.00  0.00    -0.299 N 
ATOM      6  C   UNL d   1       0.146  -3.707   0.768  0.00  0.00     0.124 A 
ATOM      7  H   UNL d   1      -1.945  -5.465  -0.610  0.00  0.00     0.187 HD
ENDROOT
BRANCH   1   8
ATOM      8  C   UNL d   1      -0.140  -1.273  -0.074  0.00  0.00     0.152 C 
ATOM      9  N   UNL d   1       1.078  -0.675   0.188  0.00  0.00    -0.224 N 
ATOM     10  N   UNL d   1       0.859   0.642   0.410  0.00  0.00     0.001 NA
ATOM     11  N   UNL d   1      -0.400   0.856   0.055  0.00  0.00    -0.007 NA
ATOM     12  N   UNL d   1      -1.027  -0.319  -0.273  0.00  0.00    -0.269 N 
ATOM     13  HN  UNL d   1      -1.986  -0.431  -0.604  1.00  0.00     0.185 HD
BRANCH   9  14
ATOM     14  C   UNL d   1       2.384  -1.197   0.056  0.00  0.00     0.056 A 
ATOM     15  C   UNL d   1       2.639  -2.244  -0.841  0.00  0.00     0.032 A 
ATOM     16  C   UNL d   1       3.940  -2.716  -1.010  0.00  0.00     0.009 A 
ATOM     17  C   UNL d   1       4.994  -2.159  -0.280  0.00  0.00    -0.062 A 
ATOM     18  C   UNL d   1       4.732  -1.111   0.614  0.00  0.00     0.009 A 
ATOM     19  C   UNL d   1       6.392  -2.654  -0.503  0.00  0.00     0.048 C 
ATOM     20  C   UNL d   1       3.436  -0.617   0.771  0.00  0.00     0.032 A 
ENDBRANCH   9  14
ENDBRANCH   1   8
BRANCH   2  21
ATOM     21  C   UNL d   1      -2.257  -2.987  -1.916  0.00  0.00     0.032 A 
ATOM     22  C   UNL d   1      -3.518  -3.567  -2.125  0.00  0.00     0.131 A 
ATOM     23  C   UNL d   1      -4.333  -3.182  -3.187  0.00  0.00     0.085 A 
ATOM     24  F   UNL d   1      -3.960  -4.531  -1.300  0.00  0.00    -0.205 F 
ATOM     25  C   UNL d   1      -3.877  -2.208  -4.064  0.00  0.00     0.119 A 
ATOM     26  C   UNL d   1      -2.623  -1.631  -3.905  0.00  0.00     0.043 A 
ATOM     27  F   UNL d   1      -4.652  -1.825  -5.085  0.00  0.00    -0.206 F 
ATOM     28  C   UNL d   1      -1.814  -2.027  -2.839  0.00  0.00     0.020 A 
ENDBRANCH   2  21
TORSDOF 3
