REMARK  3 active torsions:
REMARK  status: ('A' for Active; 'I' for Inactive)
REMARK    1  A    between atoms: C_10  and  C_1 
REMARK    2  A    between atoms: N_13  and  C_8 
REMARK    3  A    between atoms: N_12  and  C_9 
ROOT
ATOM      1  C   UNL d   1      -0.024   1.624   0.046  0.00  0.00     0.121 A 
ATOM      2  N   UNL d   1      -1.188   0.982   0.069  0.00  0.00    -0.318 N 
ATOM      3  HN  UNL d   1      -2.081   1.473   0.102  1.00  0.00     0.170 HD
ATOM      4  N   UNL d   1       1.163   1.021  -0.065  0.00  0.00    -0.318 N 
ATOM      5  HN  UNL d   1       2.040   1.540  -0.095  1.00  0.00     0.170 HD
ATOM      6  N   UNL d   1       0.014  -1.027  -0.067  0.00  0.00    -0.309 N 
ATOM      7  HN  UNL d   1       0.029  -2.046  -0.102  1.00  0.00     0.171 HD
ATOM      8  C   UNL d   1       1.115  -0.299  -0.133  0.00  0.00     0.158 A 
ATOM      9  C   UNL d   1      -1.107  -0.336   0.048  0.00  0.00     0.158 A 
ENDROOT
BRANCH   1  10
ATOM     10  C   UNL d   1      -0.026   3.101   0.088  0.00  0.00     0.030 A 
ATOM     11  C   UNL d   1      -0.988   3.878   0.766  0.00  0.00     0.048 A 
ATOM     12 CL   UNL d   1      -2.272   3.202   1.716  0.00  0.00    -0.083 Cl
ATOM     13  C   UNL d   1      -0.927   5.282   0.751  0.00  0.00     0.025 A 
ATOM     14  C   UNL d   1       0.094   5.943   0.074  0.00  0.00     0.002 A 
ATOM     15  C   UNL d   1       1.063   5.205  -0.591  0.00  0.00     0.001 A 
ATOM     16  C   UNL d   1       1.001   3.808  -0.584  0.00  0.00     0.017 A 
ENDBRANCH   1  10
BRANCH   9  17
ATOM     17  N   UNL d   1      -2.289  -1.043   0.129  0.00  0.00    -0.274 NA
ATOM     18  H   UNL d   1      -3.066  -0.466  -0.160  0.00  0.00     0.127 HD
ATOM     19  H   UNL d   1      -2.194  -1.953  -0.299  0.00  0.00     0.127 HD
ENDBRANCH   9  17
BRANCH   8  20
ATOM     20  N   UNL d   1       2.316  -0.973  -0.246  0.00  0.00    -0.274 NA
ATOM     21  H   UNL d   1       2.218  -1.911   0.120  0.00  0.00     0.127 HD
ATOM     22  H   UNL d   1       3.067  -0.411   0.129  0.00  0.00     0.127 HD
ENDBRANCH   8  20
TORSDOF 3
