REMARK  1 active torsions:
REMARK  status: ('A' for Active; 'I' for Inactive)
REMARK    1  A    between atoms: N_4  and  C_2 
ROOT
ATOM      1  C   UNL d   1      -0.927  -0.635  -0.436  0.00  0.00     0.094 A 
ATOM      2  C   UNL d   1       0.045  -1.490   0.152  0.00  0.00     0.052 A 
ATOM      3  C   UNL d   1      -0.647   0.730  -0.679  0.00  0.00     0.074 A 
ATOM      4  C   UNL d   1      -2.233  -1.145  -0.756  0.00  0.00     0.103 C 
ATOM      5  N   UNL d   1      -3.286  -1.549  -1.044  0.00  0.00    -0.191 NA
ATOM      6  C   UNL d   1       1.286  -0.917   0.477  0.00  0.00     0.032 A 
ATOM      7  C   UNL d   1       0.605   1.255  -0.338  0.00  0.00     0.034 A 
ATOM      8  C   UNL d   1       1.565   0.432   0.241  0.00  0.00     0.023 A 
ATOM      9 CL   UNL d   1      -1.859   1.758  -1.391  0.00  0.00    -0.081 Cl
ATOM     10 BR   UNL d   1       1.091   3.070  -0.631  0.00  0.00    -0.049 Br
ENDROOT
BRANCH   2  11
ATOM     11  N   UNL d   1      -0.217  -2.838   0.407  0.00  0.00    -0.380 N 
ATOM     12  C   UNL d   1       0.473  -3.592   1.464  0.00  0.00     0.123 C 
ATOM     13  C   UNL d   1       1.075  -4.795   0.750  0.00  0.00     0.021 C 
ATOM     14  C   UNL d   1       0.042  -5.097  -0.319  0.00  0.00     0.021 C 
ATOM     15  C   UNL d   1      -0.422  -3.712  -0.769  0.00  0.00     0.123 C 
ENDBRANCH   2  11
TORSDOF 1
