REMARK  7 active torsions:
REMARK  status: ('A' for Active; 'I' for Inactive)
REMARK    1  A    between atoms: C_8  and  N_1 
REMARK    2  A    between atoms: C_6  and  C_2 
REMARK    3  A    between atoms: C_4  and  C_11 
REMARK    4  A    between atoms: C_12  and  C_5 
REMARK    5  A    between atoms: O_23  and  C_6 
REMARK    6  A    between atoms: N_14  and  N_9 
REMARK    7  A    between atoms: C_22  and  N_14 
ROOT
ATOM      1  N   UNL d   1       1.005  -0.761   0.009  0.00  0.00    -0.305 N 
ATOM      2  C   UNL d   1      -0.329  -1.187   0.001  0.00  0.00     0.116 A 
ATOM      3  C   UNL d   1      -1.130  -0.058  -0.077  0.00  0.00     0.039 A 
ATOM      4  C   UNL d   1       1.015   0.639  -0.004  0.00  0.00     0.057 A 
ATOM      5  C   UNL d   1      -0.300   1.071  -0.028  0.00  0.00     0.034 A 
ENDROOT
BRANCH   4   6
ATOM      6  C   UNL d   1       2.175   1.502  -0.039  0.00  0.00     0.137 C 
ATOM      7  N   UNL d   1       2.099   2.689   0.472  0.00  0.00    -0.309 N 
ATOM      8  HN  UNL d   1       1.230   3.058   0.858  1.00  0.00     0.186 HD
BRANCH   7   9
ATOM      9  N   UNL d   1       3.251   3.416   0.462  0.00  0.00    -0.301 N 
ATOM     10  H   UNL d   1       3.874   3.352  -0.342  0.00  0.00     0.187 HD
BRANCH   9  11
ATOM     11  C   UNL d   1       3.209   4.707   1.038  0.00  0.00     0.048 A 
ATOM     12  C   UNL d   1       2.119   5.143   1.803  0.00  0.00     0.031 A 
ATOM     13  C   UNL d   1       2.117   6.401   2.415  0.00  0.00     0.018 A 
ATOM     14  C   UNL d   1       3.226   7.247   2.301  0.00  0.00     0.048 A 
ATOM     15  C   UNL d   1       4.340   6.799   1.576  0.00  0.00     0.018 A 
ATOM     16  C   UNL d   1       4.333   5.539   0.962  0.00  0.00     0.031 A 
BRANCH  14  17
ATOM     17  C   UNL d   1       3.233   8.610   2.949  0.00  0.00     0.417 C 
ATOM     18  F   UNL d   1       2.076   8.912   3.603  0.00  0.00    -0.166 F 
ATOM     19  F   UNL d   1       4.227   8.745   3.870  0.00  0.00    -0.166 F 
ATOM     20  F   UNL d   1       3.422   9.614   2.047  0.00  0.00    -0.166 F 
ENDBRANCH  14  17
ENDBRANCH   9  11
ENDBRANCH   7   9
ENDBRANCH   4   6
BRANCH   1  21
ATOM     21  C   UNL d   1       2.163  -1.608   0.032  0.00  0.00     0.040 A 
ATOM     22  C   UNL d   1       2.162  -2.832  -0.658  0.00  0.00     0.033 A 
ATOM     23  C   UNL d   1       3.266  -3.686  -0.586  0.00  0.00     0.044 A 
ATOM     24  C   UNL d   1       4.383  -3.302   0.142  0.00  0.00     0.116 A 
ATOM     25  C   UNL d   1       4.417  -2.083   0.806  0.00  0.00     0.044 A 
ATOM     26  F   UNL d   1       5.440  -4.122   0.211  0.00  0.00    -0.206 F 
ATOM     27  C   UNL d   1       3.303  -1.239   0.763  0.00  0.00     0.033 A 
ENDBRANCH   1  21
BRANCH   2  28
ATOM     28  C   UNL d   1      -0.795  -2.545   0.166  0.00  0.00     0.310 C 
ATOM     29  O   UNL d   1      -0.252  -3.424   0.825  0.00  0.00    -0.258 OA
BRANCH  28  30
ATOM     30  O   UNL d   1      -1.938  -2.728  -0.556  0.00  0.00    -0.321 OA
ATOM     31  C   UNL d   1      -2.417  -4.074  -0.542  0.00  0.00     0.213 C 
ENDBRANCH  28  30
ENDBRANCH   2  28
TORSDOF 7
