REMARK  1 active torsions:
REMARK  status: ('A' for Active; 'I' for Inactive)
REMARK    1  A    between atoms: C_5  and  C_2 
ROOT
ATOM      1  C   UNL d   1       1.446  -2.356   0.706  0.00  0.00    -0.024 A 
ATOM      2  C   UNL d   1       1.913  -3.335   2.896  0.00  0.00     0.056 A 
ATOM      3  C   UNL d   1       1.380  -2.304   2.111  0.00  0.00     0.035 A 
ATOM      4  C   UNL d   1       2.521  -4.434   2.283  0.00  0.00     0.055 A 
ATOM      5  C   UNL d   1       2.070  -3.463   0.108  0.00  0.00     0.012 A 
ATOM      6  C   UNL d   1       2.601  -4.493   0.890  0.00  0.00     0.026 A 
ATOM      7 CL   UNL d   1       1.770  -3.194   4.612  0.00  0.00    -0.083 Cl
ATOM      8 CL   UNL d   1       3.180  -5.753   3.182  0.00  0.00    -0.083 Cl
ENDROOT
BRANCH   1   9
ATOM      9  C   UNL d   1       0.821  -1.289  -0.158  0.00  0.00     0.180 C 
ATOM     10  N   UNL d   1      -0.588  -1.187   0.064  0.00  0.00    -0.343 N 
ATOM     11  C   UNL d   1      -1.161   0.051  -0.079  0.00  0.00     0.228 C 
ATOM     12  H   UNL d   1      -1.192  -1.998   0.088  0.00  0.00     0.164 HD
ATOM     13  C   UNL d   1      -0.132   1.149  -0.234  0.00  0.00     0.179 C 
ATOM     14  O   UNL d   1      -2.372   0.220  -0.096  0.00  0.00    -0.273 OA
ATOM     15  S   UNL d   1       1.476   0.370   0.089  0.00  0.00    -0.130 SA
ENDBRANCH   1   9
TORSDOF 1
