REMARK  5 active torsions:
REMARK  status: ('A' for Active; 'I' for Inactive)
REMARK    1  A    between atoms: C_10  and  N_1 
REMARK    2  A    between atoms: S_7  and  C_4 
REMARK    3  A    between atoms: C_9  and  C_6 
REMARK    4  A    between atoms: C_8  and  S_7 
REMARK    5  A    between atoms: O_14  and  C_9 
ROOT
ATOM      1  N   UNL d   1       0.115   0.865   0.160  0.00  0.00    -0.251 N 
ATOM      2  C   UNL d   1      -0.998   0.082   0.362  0.00  0.00     0.232 C 
ATOM      3  C   UNL d   1       1.263   0.101   0.151  0.00  0.00     0.245 C 
ATOM      4  C   UNL d   1       0.881  -1.364   0.095  0.00  0.00     0.154 C 
ATOM      5  C   UNL d   1      -0.572  -1.348   0.519  0.00  0.00     0.129 C 
ATOM      6  O   UNL d   1      -2.172   0.417   0.450  0.00  0.00    -0.273 OA
ATOM      7  O   UNL d   1       2.429   0.471   0.193  0.00  0.00    -0.271 OA
ENDROOT
BRANCH   4   8
ATOM      8  S   UNL d   1       1.201  -1.925  -1.632  0.00  0.00    -0.114 SA
BRANCH   8   9
ATOM      9  C   UNL d   1       0.866  -3.680  -1.524  0.00  0.00     0.018 A 
ATOM     10  C   UNL d   1      -0.356  -4.261  -1.912  0.00  0.00     0.054 A 
ATOM     11  C   UNL d   1      -0.525  -5.654  -1.839  0.00  0.00     0.020 A 
ATOM     12  C   UNL d   1       0.527  -6.478  -1.442  0.00  0.00     0.001 A 
ATOM     13  C   UNL d   1       1.751  -5.913  -1.098  0.00  0.00     0.001 A 
ATOM     14  C   UNL d   1       1.918  -4.524  -1.131  0.00  0.00     0.019 A 
BRANCH  10  15
ATOM     15  C   UNL d   1      -1.532  -3.496  -2.402  0.00  0.00     0.177 C 
ATOM     16  O   UNL d   1      -2.674  -3.824  -2.129  0.00  0.00    -0.646 OA
BRANCH  15  17
ATOM     17  O   UNL d   1      -1.237  -2.466  -3.219  0.00  0.00    -0.773 OA
ATOM     18  H   UNL d   1      -0.279  -2.299  -3.328  0.00  0.00     0.167 HD
ENDBRANCH  15  17
ENDBRANCH  10  15
ENDBRANCH   8   9
ENDBRANCH   4   8
BRANCH   1  19
ATOM     19  C   UNL d   1       0.103   2.286   0.035  0.00  0.00     0.045 A 
ATOM     20  C   UNL d   1      -0.954   3.064   0.535  0.00  0.00     0.030 A 
ATOM     21  C   UNL d   1      -0.943   4.460   0.428  0.00  0.00     0.002 A 
ATOM     22  C   UNL d   1       0.113   5.106  -0.205  0.00  0.00     0.000 A 
ATOM     23  C   UNL d   1       1.157   4.355  -0.733  0.00  0.00     0.002 A 
ATOM     24  C   UNL d   1       1.153   2.962  -0.609  0.00  0.00     0.030 A 
ENDBRANCH   1  19
TORSDOF 5
