REMARK  1 active torsions:
REMARK  status: ('A' for Active; 'I' for Inactive)
REMARK       I    between atoms: C_2  and  N_1 
REMARK       I    between atoms: C_3  and  N_1 
REMARK       I    between atoms: N_5  and  C_2 
REMARK    1  A    between atoms: C_4  and  C_3 
ROOT
ATOM      1  N   UNL d   1       1.098   0.366  -0.111  0.00  0.00    -0.275 N 
ATOM      2  C   UNL d   1       0.407   0.598   1.056  0.00  0.00     0.325 C 
ATOM      3  C   UNL d   1       0.766  -0.623  -1.020  0.00  0.00     0.261 C 
ATOM      4  N   UNL d   1       1.000   1.466   1.974  0.00  0.00    -0.332 N 
ATOM      5  O   UNL d   1      -0.682   0.084   1.302  0.00  0.00    -0.247 OA
ATOM      6  O   UNL d   1      -0.279  -1.265  -1.014  0.00  0.00    -0.267 OA
ATOM      7  S   UNL d   1       1.649   4.019   3.779  0.00  0.00    -0.166 SA
ATOM      8  C   UNL d   1       2.339   2.071   1.909  0.00  0.00     0.137 C 
ATOM      9  C   UNL d   1       0.320   1.628   3.273  0.00  0.00     0.137 C 
ATOM     10  C   UNL d   1       2.316   3.585   2.142  0.00  0.00     0.093 C 
ATOM     11  C   UNL d   1       0.086   3.088   3.658  0.00  0.00     0.093 C 
ATOM     12  H   UNL d   1       1.906   0.919  -0.313  0.00  0.00     0.173 HD
ENDROOT
BRANCH   3  13
ATOM     13  C   UNL d   1       1.762  -0.966  -2.087  0.00  0.00     0.054 A 
ATOM     14  C   UNL d   1       2.748  -0.120  -2.610  0.00  0.00     0.049 A 
ATOM     15 CL   UNL d   1       2.956   1.526  -2.126  0.00  0.00    -0.083 Cl
ATOM     16  C   UNL d   1       3.620  -0.589  -3.607  0.00  0.00     0.025 A 
ATOM     17  C   UNL d   1       3.515  -1.893  -4.093  0.00  0.00     0.002 A 
ATOM     18  C   UNL d   1       2.535  -2.738  -3.590  0.00  0.00     0.001 A 
ATOM     19  C   UNL d   1       1.667  -2.277  -2.599  0.00  0.00     0.019 A 
ENDBRANCH   3  13
TORSDOF 1
