REMARK  9 active torsions:
REMARK  status: ('A' for Active; 'I' for Inactive)
REMARK    1  A    between atoms: C_8  and  C_1 
REMARK    2  A    between atoms: C_3  and  C_2 
REMARK    3  A    between atoms: N_14  and  C_6 
REMARK    4  A    between atoms: C_7  and  O_16 
REMARK    5  A    between atoms: O_28  and  C_8 
REMARK       I    between atoms: C_11  and  N_13 
REMARK    6  A    between atoms: C_15  and  C_11 
REMARK    7  A    between atoms: N_13  and  N_14 
REMARK    8  A    between atoms: O_16  and  C_27 
REMARK    9  A    between atoms: C_31  and  O_28 
ROOT
ATOM      1  C   UNL d   1      -0.026  -1.441   0.015  0.00  0.00     0.086 A 
ATOM      2  C   UNL d   1       1.173  -0.758   0.069  0.00  0.00     0.136 A 
ATOM      3  N   UNL d   1       1.193   0.610   0.203  0.00  0.00    -0.327 N 
ATOM      4  HN  UNL d   1       2.082   1.106   0.262  1.00  0.00     0.168 HD
ATOM      5  C   UNL d   1       0.038   1.290   0.256  0.00  0.00     0.176 A 
ATOM      6  N   UNL d   1      -1.161   0.693   0.160  0.00  0.00    -0.340 N 
ATOM      7  HN  UNL d   1      -2.028   1.230   0.176  1.00  0.00     0.167 HD
ATOM      8  C   UNL d   1      -1.163  -0.653   0.040  0.00  0.00     0.110 A 
ENDROOT
BRANCH   5   9
ATOM      9  N   UNL d   1       0.121   2.673   0.461  0.00  0.00    -0.172 NA
ATOM     10  H   UNL d   1       1.053   2.993   0.185  0.00  0.00     0.156 HD
BRANCH   9  11
ATOM     11  N   UNL d   1      -0.920   3.410  -0.133  0.00  0.00    -0.280 N 
ATOM     12  C   UNL d   1      -0.615   4.699  -0.542  0.00  0.00     0.266 C 
ATOM     13  O   UNL d   1       0.523   5.159  -0.533  0.00  0.00    -0.266 OA
ATOM     14  H   UNL d   1      -1.860   3.098   0.091  0.00  0.00     0.184 HD
BRANCH  12  15
ATOM     15  C   UNL d   1      -1.763   5.534  -0.991  0.00  0.00     0.033 A 
ATOM     16  C   UNL d   1      -1.721   6.918  -0.774  0.00  0.00     0.020 A 
ATOM     17  C   UNL d   1      -2.760   7.742  -1.234  0.00  0.00     0.038 A 
ATOM     18  C   UNL d   1      -3.822   7.190  -1.949  0.00  0.00     0.078 A 
ATOM     19  C   UNL d   1      -3.871   5.803  -2.133  0.00  0.00     0.038 A 
ATOM     20  C   UNL d   1      -2.846   4.976  -1.664  0.00  0.00     0.020 A 
BRANCH  18  21
ATOM     21  O   UNL d   1      -4.873   7.859  -2.494  0.00  0.00    -0.255 OA
BRANCH  21  22
ATOM     22  C   UNL d   1      -4.752   9.234  -2.827  0.00  0.00     0.530 C 
ATOM     23  F   UNL d   1      -3.477   9.658  -2.943  0.00  0.00    -0.144 F 
ATOM     24  F   UNL d   1      -5.361   9.435  -4.018  0.00  0.00    -0.144 F 
ATOM     25  F   UNL d   1      -5.386   9.982  -1.900  0.00  0.00    -0.144 F 
ENDBRANCH  21  22
ENDBRANCH  18  21
ENDBRANCH  12  15
ENDBRANCH   9  11
ENDBRANCH   5   9
BRANCH   2  26
ATOM     26  C   UNL d   1       2.534  -1.409  -0.070  0.00  0.00     0.433 C 
ATOM     27  F   UNL d   1       2.545  -2.735  -0.372  0.00  0.00    -0.165 F 
ATOM     28  F   UNL d   1       3.268  -0.835  -1.070  0.00  0.00    -0.165 F 
ATOM     29  F   UNL d   1       3.289  -1.279   1.059  0.00  0.00    -0.165 F 
ENDBRANCH   2  26
BRANCH   1  30
ATOM     30  C   UNL d   1      -0.244  -2.886  -0.091  0.00  0.00     0.296 C 
ATOM     31  O   UNL d   1      -1.143  -3.365  -0.762  0.00  0.00    -0.259 OA
BRANCH  30  32
ATOM     32  O   UNL d   1       0.599  -3.561   0.723  0.00  0.00    -0.318 OA
BRANCH  32  33
ATOM     33  C   UNL d   1       0.453  -4.997   0.723  0.00  0.00     0.174 C 
ATOM     34  C   UNL d   1       0.998  -5.624  -0.552  0.00  0.00     0.034 C 
ENDBRANCH  32  33
ENDBRANCH  30  32
ENDBRANCH   1  30
TORSDOF 9
