REMARK  4 active torsions:
REMARK  status: ('A' for Active; 'I' for Inactive)
REMARK    1  A    between atoms: C_6  and  C_12 
REMARK    2  A    between atoms: C_14  and  C_7 
REMARK    3  A    between atoms: O_19  and  C_10 
REMARK    4  A    between atoms: O_20  and  C_11 
ROOT
ATOM      1  C   UNL d   1      -1.145  -0.746   0.041  0.00  0.00     0.045 A 
ATOM      2  C   UNL d   1      -1.759   0.633   0.075  0.00  0.00     0.257 A 
ATOM      3  C   UNL d   1       0.316  -0.568   0.026  0.00  0.00     0.009 A 
ATOM      4  N   UNL d   1      -0.675   1.498   0.084  0.00  0.00    -0.322 N 
ATOM      5  C   UNL d   1       0.531   0.808   0.055  0.00  0.00     0.049 A 
ATOM      6  C   UNL d   1      -1.805  -1.911   0.017  0.00  0.00     0.029 C 
ATOM      7  C   UNL d   1       1.394  -1.443  -0.018  0.00  0.00     0.054 A 
ATOM      8  C   UNL d   1       1.792   1.357   0.047  0.00  0.00     0.070 A 
ATOM      9  C   UNL d   1       2.703  -0.915  -0.036  0.00  0.00     0.102 A 
ATOM     10  C   UNL d   1       2.897   0.493   0.002  0.00  0.00     0.103 A 
ATOM     11  O   UNL d   1      -2.931   0.945   0.098  0.00  0.00    -0.267 OA
ATOM     12  H   UNL d   1      -0.782   2.501   0.105  0.00  0.00     0.169 HD
ENDROOT
BRANCH   6  13
ATOM     13  C   UNL d   1      -3.264  -2.055   0.011  0.00  0.00    -0.034 A 
ATOM     14  C   UNL d   1      -3.975  -2.102   1.214  0.00  0.00     0.027 A 
ATOM     15  C   UNL d   1      -5.362  -2.328   1.220  0.00  0.00     0.048 A 
ATOM     16  C   UNL d   1      -6.033  -2.468  -0.005  0.00  0.00     0.016 A 
ATOM     17  C   UNL d   1      -5.331  -2.392  -1.208  0.00  0.00     0.002 A 
ATOM     18  C   UNL d   1      -3.949  -2.194  -1.200  0.00  0.00     0.011 A 
BRANCH  15  19
ATOM     19  C   UNL d   1      -6.119  -2.466   2.516  0.00  0.00     0.417 C 
ATOM     20  F   UNL d   1      -5.335  -2.336   3.624  0.00  0.00    -0.166 F 
ATOM     21  F   UNL d   1      -7.117  -1.552   2.653  0.00  0.00    -0.166 F 
ATOM     22  F   UNL d   1      -6.715  -3.688   2.632  0.00  0.00    -0.166 F 
ENDBRANCH  15  19
ENDBRANCH   6  13
BRANCH   9  23
ATOM     23  O   UNL d   1       3.821  -1.704  -0.099  0.00  0.00    -0.353 OA
ATOM     24  C   UNL d   1       3.672  -3.115  -0.151  0.00  0.00     0.210 C 
ENDBRANCH   9  23
BRANCH  10  25
ATOM     25  O   UNL d   1       4.076   1.195   0.002  0.00  0.00    -0.353 OA
ATOM     26  C   UNL d   1       5.309   0.494  -0.023  0.00  0.00     0.210 C 
ENDBRANCH  10  25
TORSDOF 4
