REMARK  3 active torsions:
REMARK  status: ('A' for Active; 'I' for Inactive)
REMARK    1  A    between atoms: C_5  and  C_1 
REMARK    2  A    between atoms: S_3  and  C_5 
REMARK    3  A    between atoms: C_8  and  S_3 
ROOT
ATOM      1  S   UNL d   1       0.823   2.112   3.293  0.00  0.00     0.176 S 
ATOM      2  O   UNL d   1      -0.187   3.132   3.510  0.00  0.00    -0.223 OA
ATOM      3  O   UNL d   1       0.568   0.730   3.654  0.00  0.00    -0.223 OA
ENDROOT
BRANCH   1   4
ATOM      4  C   UNL d   1       1.323   2.163   1.576  0.00  0.00     0.153 C 
BRANCH   4   5
ATOM      5  C   UNL d   1       0.080   1.875   0.784  0.00  0.00     0.042 A 
ATOM      6  C   UNL d   1       0.079   1.926  -0.723  0.00  0.00     0.118 A 
ATOM      7 CL   UNL d   1      -0.909   0.746  -1.577  0.00  0.00    -0.101 Cl
ATOM      8 CL   UNL d   1       1.541   2.370  -1.585  0.00  0.00    -0.101 Cl
ATOM      9  C   UNL d   1      -0.633   2.992   0.061  0.00  0.00     0.051 A 
ENDBRANCH   4   5
ENDBRANCH   1   4
BRANCH   1  10
ATOM     10  C   UNL d   1       2.281   2.628   4.171  0.00  0.00     0.059 A 
ATOM     11  C   UNL d   1       2.464   3.985   4.458  0.00  0.00     0.023 A 
ATOM     12  C   UNL d   1       3.571   4.385   5.205  0.00  0.00     0.002 A 
ATOM     13  C   UNL d   1       4.481   3.434   5.670  0.00  0.00     0.000 A 
ATOM     14  C   UNL d   1       4.288   2.079   5.389  0.00  0.00     0.002 A 
ATOM     15  C   UNL d   1       3.183   1.670   4.642  0.00  0.00     0.023 A 
ENDBRANCH   1  10
TORSDOF 3
