REMARK  4 active torsions:
REMARK  status: ('A' for Active; 'I' for Inactive)
REMARK    1  A    between atoms: C_8  and  N_1 
REMARK    2  A    between atoms: C_9  and  C_4 
REMARK    3  A    between atoms: C_10  and  C_8 
REMARK    4  A    between atoms: C_11  and  C_10 
ROOT
ATOM      1  N   UNL d   1      -0.217  -1.065  -0.035  0.00  0.00    -0.209 N 
ATOM      2  N   UNL d   1      -0.794  -0.400   0.987  0.00  0.00    -0.268 N 
ATOM      3  HN  UNL d   1      -1.022  -0.722   1.927  1.00  0.00     0.190 HD
ATOM      4  C   UNL d   1      -0.986   0.804   0.420  0.00  0.00     0.144 A 
ATOM      5  N   UNL d   1      -0.465   0.876  -0.849  0.00  0.00    -0.266 N 
ATOM      6  HN  UNL d   1      -0.450   1.696  -1.454  1.00  0.00     0.186 HD
ATOM      7  N   UNL d   1       0.014  -0.326  -1.136  0.00  0.00    -0.002 NA
ENDROOT
BRANCH   4   8
ATOM      8  C   UNL d   1      -1.814   1.846   1.012  0.00  0.00     0.014 A 
ATOM      9  C   UNL d   1      -2.319   1.686   2.311  0.00  0.00     0.039 A 
ATOM     10  C   UNL d   1      -3.231   2.603   2.828  0.00  0.00     0.036 A 
ATOM     11 CL   UNL d   1      -3.881   2.356   4.400  0.00  0.00    -0.084 Cl
ATOM     12  C   UNL d   1      -3.642   3.696   2.069  0.00  0.00     0.047 A 
ATOM     13  C   UNL d   1      -3.119   3.876   0.794  0.00  0.00     0.036 A 
ATOM     14  C   UNL d   1      -2.205   2.964   0.261  0.00  0.00     0.039 A 
ATOM     15 CL   UNL d   1      -3.641   5.213  -0.155  0.00  0.00    -0.084 Cl
ENDBRANCH   4   8
BRANCH   1  16
ATOM     16  C   UNL d   1      -0.294  -2.505  -0.091  0.00  0.00     0.246 C 
BRANCH  16  17
ATOM     17  C   UNL d   1       1.067  -3.140  -0.100  0.00  0.00     0.155 C 
ATOM     18  O   UNL d   1       1.692  -3.237  -1.162  0.00  0.00    -0.295 OA
BRANCH  17  19
ATOM     19  C   UNL d   1       1.625  -3.746   1.205  0.00  0.00     0.011 C 
ATOM     20  C   UNL d   1       0.903  -5.073   1.479  0.00  0.00     0.022 C 
ATOM     21  C   UNL d   1       3.128  -4.024   1.020  0.00  0.00     0.022 C 
ATOM     22  C   UNL d   1       1.453  -2.798   2.398  0.00  0.00     0.022 C 
ENDBRANCH  17  19
ENDBRANCH  16  17
ENDBRANCH   1  16
TORSDOF 4
