REMARK  1 active torsions:
REMARK  status: ('A' for Active; 'I' for Inactive)
REMARK    1  A    between atoms: C_5  and  C_1 
ROOT
ATOM      1  C   UNL d   1       0.912  -1.718  -0.003  0.00  0.00     0.027 A 
ATOM      2  C   UNL d   1       2.041  -0.917  -0.028  0.00  0.00     0.066 A 
ATOM      3  S   UNL d   1       1.693   0.742   0.022  0.00  0.00    -0.100 SA
ATOM      4  C   UNL d   1      -0.300  -0.913  -0.017  0.00  0.00    -0.005 A 
ATOM      5  C   UNL d   1      -0.001   0.457   0.017  0.00  0.00     0.016 A 
ATOM      6  C   UNL d   1      -1.677  -1.266  -0.074  0.00  0.00     0.014 A 
ATOM      7  C   UNL d   1      -1.007   1.445   0.032  0.00  0.00     0.019 A 
ATOM      8  C   UNL d   1      -2.678  -0.287  -0.061  0.00  0.00     0.001 A 
ATOM      9  C   UNL d   1      -2.345   1.057  -0.003  0.00  0.00     0.001 A 
ENDROOT
BRANCH   1  10
ATOM     10  C   UNL d   1       1.062  -3.178   0.017  0.00  0.00     0.157 C 
ATOM     11  O   UNL d   1       2.072  -3.711  -0.451  0.00  0.00    -0.293 OA
ATOM     12  C   UNL d   1       0.006  -4.048   0.646  0.00  0.00     0.097 C 
ENDBRANCH   1  10
TORSDOF 1
