REMARK  3 active torsions:
REMARK  status: ('A' for Active; 'I' for Inactive)
REMARK    1  A    between atoms: N_3  and  C_1 
REMARK    2  A    between atoms: C_2  and  N_3 
REMARK    3  A    between atoms: C_13  and  N_10 
ROOT
ATOM      1  C   UNL d   1       0.883  -1.054   2.377  0.00  0.00     0.037 A 
ATOM      2  C   UNL d   1      -0.114  -1.059   3.360  0.00  0.00     0.053 A 
ATOM      3  C   UNL d   1       2.116  -1.645   2.668  0.00  0.00     0.053 A 
ATOM      4  C   UNL d   1       0.147  -1.593   4.625  0.00  0.00     0.037 A 
ATOM      5  C   UNL d   1       2.364  -2.177   3.935  0.00  0.00     0.037 A 
ATOM      6  C   UNL d   1       1.387  -2.147   4.923  0.00  0.00     0.048 A 
ATOM      7 CL   UNL d   1       3.893  -2.893   4.274  0.00  0.00    -0.084 Cl
ATOM      8 CL   UNL d   1      -1.082  -1.564   5.831  0.00  0.00    -0.084 Cl
ENDROOT
BRANCH   1   9
ATOM      9  N   UNL d   1       0.559  -0.504   1.114  0.00  0.00    -0.333 N 
ATOM     10  H   UNL d   1      -0.417  -0.278   0.978  0.00  0.00     0.168 HD
BRANCH   9  11
ATOM     11  C   UNL d   1       1.383   0.009   0.143  0.00  0.00     0.172 C 
ATOM     12  S   UNL d   1       2.953   0.559   0.304  0.00  0.00    -0.041 SA
ATOM     13  N   UNL d   1       0.837   0.126  -1.101  0.00  0.00    -0.367 N 
ATOM     14  H   UNL d   1       1.488   0.506  -1.781  0.00  0.00     0.161 HD
BRANCH  13  15
ATOM     15  C   UNL d   1      -0.454  -0.296  -1.619  0.00  0.00     0.117 C 
ATOM     16  C   UNL d   1      -1.291   0.914  -1.988  0.00  0.00     0.026 C 
ENDBRANCH  13  15
ENDBRANCH   9  11
ENDBRANCH   1   9
TORSDOF 3
