REMARK  2 active torsions:
REMARK  status: ('A' for Active; 'I' for Inactive)
REMARK    1  A    between atoms: C_9  and  C_1 
REMARK    2  A    between atoms: C_2  and  C_9 
ROOT
ATOM      1  C   UNL d   1      -3.386  -1.366  -0.091  0.00  0.00     0.130 C 
ENDROOT
BRANCH   1   2
ATOM      2  C   UNL d   1      -4.461  -0.316  -0.093  0.00  0.00     0.058 A 
ATOM      3  N   UNL d   1      -5.435  -0.265   0.792  0.00  0.00    -0.352 N 
ATOM      4  C   UNL d   1      -6.209   0.865   0.581  0.00  0.00     0.050 A 
ATOM      5  HN  UNL d   1      -5.596  -0.956   1.524  1.00  0.00     0.166 HD
ATOM      6  C   UNL d   1      -7.310   1.270   1.363  0.00  0.00     0.031 A 
ATOM      7  C   UNL d   1      -5.824   1.660  -0.499  0.00  0.00     0.033 A 
ATOM      8  C   UNL d   1      -7.968   2.469   1.070  0.00  0.00     0.002 A 
ATOM      9  C   UNL d   1      -7.551   3.258   0.003  0.00  0.00     0.002 A 
ATOM     10  C   UNL d   1      -6.481   2.863  -0.806  0.00  0.00     0.021 A 
ATOM     11  S   UNL d   1      -4.493   0.916  -1.295  0.00  0.00    -0.074 SA
ENDBRANCH   1   2
BRANCH   1  12
ATOM     12  C   UNL d   1      -1.991  -0.810  -0.019  0.00  0.00     0.058 A 
ATOM     13  N   UNL d   1      -1.065  -1.039  -0.929  0.00  0.00    -0.352 N 
ATOM     14  C   UNL d   1       0.097  -0.358  -0.608  0.00  0.00     0.050 A 
ATOM     15  HN  UNL d   1      -1.188  -1.631  -1.751  1.00  0.00     0.166 HD
ATOM     16  C   UNL d   1       1.286  -0.353  -1.365  0.00  0.00     0.031 A 
ATOM     17  C   UNL d   1       0.050   0.386   0.572  0.00  0.00     0.033 A 
ATOM     18  C   UNL d   1       2.381   0.405  -0.938  0.00  0.00     0.002 A 
ATOM     19  C   UNL d   1       2.306   1.152   0.233  0.00  0.00     0.002 A 
ATOM     20  C   UNL d   1       1.143   1.152   1.010  0.00  0.00     0.021 A 
ATOM     21  S   UNL d   1      -1.494   0.172   1.304  0.00  0.00    -0.074 SA
ENDBRANCH   1  12
TORSDOF 2
