REMARK  3 active torsions:
REMARK  status: ('A' for Active; 'I' for Inactive)
REMARK    1  A    between atoms: C_7  and  N_1 
REMARK    2  A    between atoms: C_6  and  C_2 
REMARK    3  A    between atoms: C_5  and  C_9 
ROOT
ATOM      1  N   UNL d   1      -0.607  -1.175   0.210  0.00  0.00    -0.299 N 
ATOM      2  C   UNL d   1       0.797  -1.337  -0.137  0.00  0.00     0.190 C 
ATOM      3  S   UNL d   1       1.532   0.315  -0.046  0.00  0.00    -0.129 SA
ATOM      4  C   UNL d   1      -1.128   0.116   0.084  0.00  0.00     0.235 C 
ATOM      5  C   UNL d   1      -0.060   1.128  -0.271  0.00  0.00     0.179 C 
ATOM      6  O   UNL d   1      -2.308   0.429   0.173  0.00  0.00    -0.272 OA
ENDROOT
BRANCH   1   7
ATOM      7  C   UNL d   1      -1.445  -2.295   0.454  0.00  0.00     0.038 A 
ATOM      8  C   UNL d   1      -1.296  -3.482  -0.272  0.00  0.00     0.030 A 
ATOM      9  C   UNL d   1      -2.084  -4.597   0.019  0.00  0.00     0.018 A 
ATOM     10  C   UNL d   1      -3.019  -4.559   1.063  0.00  0.00     0.048 A 
ATOM     11  C   UNL d   1      -3.166  -3.371   1.792  0.00  0.00     0.018 A 
ATOM     12  C   UNL d   1      -2.398  -2.245   1.478  0.00  0.00     0.030 A 
BRANCH  10  13
ATOM     13  C   UNL d   1      -3.850  -5.780   1.368  0.00  0.00     0.417 C 
ATOM     14  F   UNL d   1      -4.642  -5.643   2.467  0.00  0.00    -0.166 F 
ATOM     15  F   UNL d   1      -4.684  -6.107   0.342  0.00  0.00    -0.166 F 
ATOM     16  F   UNL d   1      -3.087  -6.885   1.594  0.00  0.00    -0.166 F 
ENDBRANCH  10  13
ENDBRANCH   1   7
BRANCH   2  17
ATOM     17  C   UNL d   1       1.537  -2.341   0.718  0.00  0.00    -0.010 A 
ATOM     18  C   UNL d   1       2.214  -3.399   0.115  0.00  0.00     0.097 A 
ATOM     19  N   UNL d   1       2.783  -4.425   0.785  0.00  0.00    -0.375 N 
ATOM     20  C   UNL d   1       2.693  -4.395   2.131  0.00  0.00     0.087 A 
ATOM     21  HN  UNL d   1       3.258  -5.185   0.297  1.00  0.00     0.164 HD
ATOM     22  C   UNL d   1       2.085  -3.371   2.837  0.00  0.00     0.018 A 
ATOM     23  C   UNL d   1       1.506  -2.327   2.120  0.00  0.00     0.013 A 
ENDBRANCH   2  17
TORSDOF 3
