REMARK  3 active torsions:
REMARK  status: ('A' for Active; 'I' for Inactive)
REMARK    1  A    between atoms: C_10  and  C_4 
REMARK    2  A    between atoms: O_12  and  C_8 
REMARK    3  A    between atoms: C_16  and  C_10 
ROOT
ATOM      1  N   UNL d   1      -0.713  -0.345  -0.040  0.00  0.00    -0.281 N 
ATOM      2  C   UNL d   1      -1.141   0.975   0.016  0.00  0.00     0.035 A 
ATOM      3  C   UNL d   1      -1.582  -1.431  -0.092  0.00  0.00     0.262 A 
ATOM      4  C   UNL d   1      -3.056  -1.090   0.005  0.00  0.00     0.048 A 
ATOM      5  C   UNL d   1      -2.444   1.271   0.064  0.00  0.00     0.064 A 
ATOM      6  C   UNL d   1       0.694  -0.398  -0.042  0.00  0.00     0.050 A 
ATOM      7  C   UNL d   1       0.064   1.912   0.015  0.00  0.00     0.025 A 
ATOM      8  C   UNL d   1      -3.411   0.209   0.082  0.00  0.00     0.079 A 
ATOM      9  C   UNL d   1       1.206   0.910  -0.009  0.00  0.00    -0.017 A 
ATOM     10  O   UNL d   1      -1.235  -2.605  -0.212  0.00  0.00    -0.267 OA
ATOM     11  C   UNL d   1       0.080   2.790  -1.242  0.00  0.00     0.027 C 
ATOM     12  C   UNL d   1       0.108   2.770   1.285  0.00  0.00     0.027 C 
ATOM     13  C   UNL d   1       1.537  -1.494  -0.054  0.00  0.00     0.031 A 
ATOM     14  C   UNL d   1       2.575   1.143   0.003  0.00  0.00     0.011 A 
ATOM     15  C   UNL d   1       2.917  -1.266  -0.038  0.00  0.00     0.002 A 
ATOM     16  C   UNL d   1       3.432   0.040  -0.012  0.00  0.00     0.001 A 
ENDROOT
BRANCH   4  17
ATOM     17  C   UNL d   1      -4.012  -2.257  -0.028  0.00  0.00     0.085 C 
BRANCH  17  18
ATOM     18  C   UNL d   1      -4.313  -2.792   1.356  0.00  0.00    -0.054 A 
ATOM     19  C   UNL d   1      -5.440  -2.359   2.070  0.00  0.00     0.007 A 
ATOM     20  C   UNL d   1      -5.632  -2.753   3.394  0.00  0.00     0.001 A 
ATOM     21  C   UNL d   1      -4.715  -3.600   4.012  0.00  0.00     0.000 A 
ATOM     22  C   UNL d   1      -3.618  -4.075   3.298  0.00  0.00     0.001 A 
ATOM     23  C   UNL d   1      -3.419  -3.676   1.977  0.00  0.00     0.007 A 
ENDBRANCH  17  18
ENDBRANCH   4  17
BRANCH   8  24
ATOM     24  O   UNL d   1      -4.697   0.673   0.213  0.00  0.00    -0.360 OA
ATOM     25  H   UNL d   1      -5.268  -0.059   0.490  0.00  0.00     0.217 HD
ENDBRANCH   8  24
TORSDOF 3
