REMARK  1 active torsions:
REMARK  status: ('A' for Active; 'I' for Inactive)
REMARK    1  A    between atoms: C_11  and  N_4 
ROOT
ATOM      1  C   UNL d   1       0.264  -0.722  -0.024  0.00  0.00     0.070 A 
ATOM      2  C   UNL d   1       0.225   0.676   0.021  0.00  0.00     0.021 A 
ATOM      3  C   UNL d   1       1.594  -1.112  -0.025  0.00  0.00     0.030 A 
ATOM      4  N   UNL d   1       2.388   0.050  -0.001  0.00  0.00    -0.318 N 
ATOM      5  C   UNL d   1       1.518   1.159   0.033  0.00  0.00     0.026 A 
ATOM      6  C   UNL d   1      -0.970  -1.492  -0.039  0.00  0.00     0.274 A 
ATOM      7  N   UNL d   1      -2.158   0.708   0.017  0.00  0.00    -0.306 N 
ATOM      8  HN  UNL d   1      -3.048   1.206   0.030  1.00  0.00     0.186 HD
ATOM      9  N   UNL d   1      -2.130  -0.690  -0.015  0.00  0.00    -0.262 N 
ATOM     10  C   UNL d   1      -1.037   1.367   0.028  0.00  0.00     0.121 A 
ATOM     11  O   UNL d   1      -0.995  -2.722  -0.075  0.00  0.00    -0.266 OA
ATOM     12  C   UNL d   1       2.117  -2.512   0.045  0.00  0.00     0.070 C 
ATOM     13  C   UNL d   1       1.941   2.590  -0.025  0.00  0.00     0.070 C 
ATOM     14  C   UNL d   1      -3.414  -1.360  -0.003  0.00  0.00     0.181 C 
ENDROOT
BRANCH   4  15
ATOM     15  C   UNL d   1       3.826   0.099  -0.015  0.00  0.00     0.039 A 
ATOM     16  C   UNL d   1       4.571  -0.833  -0.750  0.00  0.00     0.030 A 
ATOM     17  C   UNL d   1       5.970  -0.793  -0.756  0.00  0.00     0.002 A 
ATOM     18  C   UNL d   1       6.645   0.202  -0.058  0.00  0.00     0.000 A 
ATOM     19  C   UNL d   1       5.921   1.146   0.662  0.00  0.00     0.002 A 
ATOM     20  C   UNL d   1       4.523   1.084   0.700  0.00  0.00     0.030 A 
ENDBRANCH   4  15
TORSDOF 1
