REMARK  6 active torsions:
REMARK  status: ('A' for Active; 'I' for Inactive)
REMARK    1  A    between atoms: C_8  and  N_1 
REMARK    2  A    between atoms: C_7  and  C_2 
REMARK    3  A    between atoms: C_9  and  C_4 
REMARK    4  A    between atoms: O_15  and  C_7 
REMARK    5  A    between atoms: C_14  and  C_8 
REMARK    6  A    between atoms: O_27  and  C_17 
ROOT
ATOM      1  N   UNL d   1      -2.130  -0.237   0.099  0.00  0.00    -0.334 N 
ATOM      2  C   UNL d   1      -0.430  -2.036   0.283  0.00  0.00     0.145 C 
ATOM      3  C   UNL d   1      -1.211   0.749   0.439  0.00  0.00     0.255 C 
ATOM      4  C   UNL d   1      -1.699  -1.533  -0.450  0.00  0.00     0.139 C 
ATOM      5  C   UNL d   1       0.645  -0.965   0.311  0.00  0.00    -0.026 C 
ATOM      6  C   UNL d   1       0.235   0.385   0.352  0.00  0.00     0.039 C 
ATOM      7  O   UNL d   1      -1.524   1.875   0.802  0.00  0.00    -0.267 OA
ATOM      8  C   UNL d   1       2.018  -1.251   0.294  0.00  0.00     0.009 C 
ATOM      9  C   UNL d   1       1.176   1.414   0.225  0.00  0.00     0.017 C 
ATOM     10  C   UNL d   1       2.949  -0.220   0.150  0.00  0.00     0.001 C 
ATOM     11  C   UNL d   1       2.528   1.107   0.088  0.00  0.00     0.001 C 
ENDROOT
BRANCH   1  12
ATOM     12  C   UNL d   1      -3.561   0.047   0.195  0.00  0.00     0.165 C 
BRANCH  12  13
ATOM     13  C   UNL d   1      -4.160  -0.480   1.482  0.00  0.00    -0.040 A 
ATOM     14  C   UNL d   1      -3.748   0.042   2.720  0.00  0.00     0.012 A 
ATOM     15  C   UNL d   1      -4.271  -0.457   3.914  0.00  0.00     0.043 A 
ATOM     16  C   UNL d   1      -5.220  -1.469   3.873  0.00  0.00     0.116 A 
ATOM     17  C   UNL d   1      -5.666  -1.981   2.660  0.00  0.00     0.043 A 
ATOM     18  F   UNL d   1      -5.713  -1.958   5.018  0.00  0.00    -0.206 F 
ATOM     19  C   UNL d   1      -5.138  -1.487   1.464  0.00  0.00     0.012 A 
ENDBRANCH  12  13
ENDBRANCH   1  12
BRANCH   4  20
ATOM     20  C   UNL d   1      -1.591  -1.452  -1.983  0.00  0.00    -0.034 A 
ATOM     21  C   UNL d   1      -2.446  -2.232  -2.778  0.00  0.00     0.012 A 
ATOM     22  C   UNL d   1      -2.398  -2.165  -4.180  0.00  0.00     0.037 A 
ATOM     23  C   UNL d   1      -1.487  -1.325  -4.813  0.00  0.00     0.068 A 
ATOM     24  C   UNL d   1      -0.631  -0.550  -4.041  0.00  0.00     0.037 A 
ATOM     25  C   UNL d   1      -0.683  -0.612  -2.649  0.00  0.00     0.012 A 
BRANCH  23  26
ATOM     26  O   UNL d   1      -1.368  -1.131  -6.161  0.00  0.00    -0.356 OA
ATOM     27  C   UNL d   1      -1.799  -2.204  -6.985  0.00  0.00     0.210 C 
ENDBRANCH  23  26
ENDBRANCH   4  20
BRANCH   2  28
ATOM     28  C   UNL d   1      -0.066  -3.398  -0.270  0.00  0.00     0.150 C 
ATOM     29  O   UNL d   1      -0.534  -4.438   0.188  0.00  0.00    -0.649 OA
BRANCH  28  30
ATOM     30  O   UNL d   1       0.752  -3.422  -1.343  0.00  0.00    -0.776 OA
ATOM     31  H   UNL d   1       0.993  -2.546  -1.705  0.00  0.00     0.167 HD
ENDBRANCH  28  30
ENDBRANCH   2  28
TORSDOF 6
