REMARK  6 active torsions:
REMARK  status: ('A' for Active; 'I' for Inactive)
REMARK    1  A    between atoms: C_4  and  C_1 
REMARK    2  A    between atoms: N_2  and  C_3 
REMARK       I    between atoms: N_6  and  C_4 
REMARK    3  A    between atoms: C_5  and  N_7 
REMARK    4  A    between atoms: N_8  and  C_5 
REMARK    5  A    between atoms: N_7  and  N_6 
REMARK    6  A    between atoms: C_12  and  N_8 
ROOT
ATOM      1  C   UNL d   1       2.668  -0.339   0.349  0.00  0.00     0.272 C 
ATOM      2  N   UNL d   1       3.354   0.728   0.894  0.00  0.00    -0.264 N 
ATOM      3  O   UNL d   1       3.256  -1.393   0.112  0.00  0.00    -0.266 OA
ATOM      4  H   UNL d   1       4.353   0.602   1.041  0.00  0.00     0.190 HD
ENDROOT
BRANCH   2   5
ATOM      5  N   UNL d   1       2.856   2.030   1.039  0.00  0.00    -0.273 N 
ATOM      6  H   UNL d   1       1.938   2.203   0.648  0.00  0.00     0.189 HD
BRANCH   5   7
ATOM      7  C   UNL d   1       3.201   2.798   2.118  0.00  0.00     0.191 C 
ATOM      8  S   UNL d   1       4.098   2.257   3.430  0.00  0.00    -0.039 SA
BRANCH   7   9
ATOM      9  N   UNL d   1       2.822   4.110   2.133  0.00  0.00    -0.332 N 
ATOM     10  H   UNL d   1       3.090   4.554   3.006  0.00  0.00     0.168 HD
BRANCH   9  11
ATOM     11  C   UNL d   1       2.333   4.990   1.141  0.00  0.00     0.035 A 
ATOM     12  C   UNL d   1       2.002   4.644  -0.171  0.00  0.00     0.053 A 
ATOM     13  C   UNL d   1       1.556   5.617  -1.070  0.00  0.00     0.036 A 
ATOM     14 CL   UNL d   1       1.116   5.149  -2.669  0.00  0.00    -0.084 Cl
ATOM     15  C   UNL d   1       1.473   6.952  -0.695  0.00  0.00     0.024 A 
ATOM     16  C   UNL d   1       1.819   7.317   0.602  0.00  0.00     0.004 A 
ATOM     17  C   UNL d   1       2.231   6.341   1.515  0.00  0.00     0.029 A 
ENDBRANCH   9  11
ENDBRANCH   7   9
ENDBRANCH   5   7
ENDBRANCH   2   5
BRANCH   1  18
ATOM     18  C   UNL d   1       1.207  -0.236   0.096  0.00  0.00     0.060 A 
ATOM     19  C   UNL d   1       0.576  -0.767  -1.048  0.00  0.00     0.054 A 
ATOM     20  C   UNL d   1      -0.832  -0.786  -1.103  0.00  0.00     0.031 A 
ATOM     21  C   UNL d   1      -1.600  -0.257  -0.065  0.00  0.00     0.002 A 
ATOM     22  C   UNL d   1      -0.979   0.264   1.063  0.00  0.00     0.001 A 
ATOM     23  C   UNL d   1       0.410   0.245   1.155  0.00  0.00     0.019 A 
BRANCH  19  24
ATOM     24  N   UNL d   1       1.285  -1.261  -2.184  0.00  0.00    -0.332 N 
ATOM     25  C   UNL d   1       0.851  -2.275  -3.022  0.00  0.00     0.096 A 
ATOM     26  C   UNL d   1       1.761  -2.441  -4.044  0.00  0.00     0.019 A 
ATOM     27  C   UNL d   1       2.775  -1.480  -3.855  0.00  0.00     0.019 A 
ATOM     28  C   UNL d   1       2.458  -0.767  -2.718  0.00  0.00     0.096 A 
ENDBRANCH  19  24
ENDBRANCH   1  18
TORSDOF 6
