REMARK  5 active torsions:
REMARK  status: ('A' for Active; 'I' for Inactive)
REMARK    1  A    between atoms: C_10  and  C_1 
REMARK    2  A    between atoms: N_13  and  C_3 
REMARK    3  A    between atoms: C_9  and  C_6 
REMARK    4  A    between atoms: O_19  and  C_10 
REMARK    5  A    between atoms: C_15  and  C_11 
ROOT
ATOM      1  C   UNL d   1      -2.118  -0.240  -0.038  0.00  0.00     0.102 A 
ATOM      2  C   UNL d   1       0.002   0.814  -0.002  0.00  0.00     0.035 A 
ATOM      3  C   UNL d   1      -1.436   0.965   0.005  0.00  0.00     0.044 A 
ATOM      4  C   UNL d   1       0.319  -0.543  -0.042  0.00  0.00     0.088 A 
ATOM      5  S   UNL d   1      -1.041  -1.560  -0.133  0.00  0.00    -0.063 SA
ATOM      6  C   UNL d   1       1.110   1.706   0.005  0.00  0.00     0.065 A 
ATOM      7  N   UNL d   1       1.543  -1.101  -0.024  0.00  0.00    -0.349 N 
ATOM      8  HN  UNL d   1       1.676  -2.111  -0.053  1.00  0.00     0.166 HD
ATOM      9  C   UNL d   1       2.580  -0.249   0.034  0.00  0.00     0.044 A 
ATOM     10  C   UNL d   1       2.400   1.128   0.020  0.00  0.00     0.047 A 
ENDROOT
BRANCH   9  11
ATOM     11  C   UNL d   1       3.921  -0.872   0.122  0.00  0.00    -0.009 A 
ATOM     12  C   UNL d   1       4.172  -2.136  -0.443  0.00  0.00     0.013 A 
ATOM     13  C   UNL d   1       5.433  -2.737  -0.358  0.00  0.00     0.001 A 
ATOM     14  C   UNL d   1       6.474  -2.086   0.297  0.00  0.00     0.000 A 
ATOM     15  C   UNL d   1       6.253  -0.839   0.872  0.00  0.00     0.001 A 
ATOM     16  C   UNL d   1       4.991  -0.242   0.788  0.00  0.00     0.013 A 
ENDBRANCH   9  11
BRANCH   6  17
ATOM     17  C   UNL d   1       1.066   3.213  -0.008  0.00  0.00     0.418 C 
ATOM     18  F   UNL d   1      -0.179   3.760  -0.040  0.00  0.00    -0.166 F 
ATOM     19  F   UNL d   1       1.674   3.752   1.085  0.00  0.00    -0.166 F 
ATOM     20  F   UNL d   1       1.717   3.733  -1.085  0.00  0.00    -0.166 F 
ENDBRANCH   6  17
BRANCH   1  21
ATOM     21  C   UNL d   1      -3.541  -0.516   0.015  0.00  0.00     0.185 C 
ATOM     22  O   UNL d   1      -4.113  -1.496  -0.437  0.00  0.00    -0.646 OA
BRANCH  21  23
ATOM     23  O   UNL d   1      -4.224   0.471   0.659  0.00  0.00    -0.772 OA
ATOM     24  H   UNL d   1      -3.616   1.160   1.007  0.00  0.00     0.167 HD
ENDBRANCH  21  23
ENDBRANCH   1  21
BRANCH   3  25
ATOM     25  N   UNL d   1      -2.098   2.154   0.065  0.00  0.00    -0.301 NA
ATOM     26  H   UNL d   1      -1.555   3.023   0.095  0.00  0.00     0.124 HD
ATOM     27  H   UNL d   1      -2.859   2.307  -0.606  0.00  0.00     0.124 HD
ENDBRANCH   3  25
TORSDOF 5
