REMARK  2 active torsions:
REMARK  status: ('A' for Active; 'I' for Inactive)
REMARK       I    between atoms: N_2  and  C_1 
REMARK    1  A    between atoms: C_3  and  C_1 
REMARK       I    between atoms: C_4  and  N_2 
REMARK       I    between atoms: N_6  and  C_4 
REMARK    2  A    between atoms: C_5  and  N_6 
ROOT
ATOM      1  C   UNL d   1       1.053  -0.233  -0.195  0.00  0.00     0.263 C 
ATOM      2  N   UNL d   1       0.443   0.908  -0.700  0.00  0.00    -0.275 N 
ATOM      3  C   UNL d   1       1.013   2.116  -1.039  0.00  0.00     0.327 C 
ATOM      4  N   UNL d   1       2.372   2.114  -1.193  0.00  0.00    -0.306 N 
ATOM      5  O   UNL d   1       2.271  -0.334  -0.102  0.00  0.00    -0.267 OA
ATOM      6  O   UNL d   1       0.263   3.074  -1.205  0.00  0.00    -0.247 OA
ATOM      7  H   UNL d   1      -0.561   0.989  -0.634  0.00  0.00     0.173 HD
ATOM      8  H   UNL d   1       2.834   1.210  -1.077  0.00  0.00     0.171 HD
ENDROOT
BRANCH   4   9
ATOM      9  C   UNL d   1       3.174   3.180  -1.661  0.00  0.00     0.078 A 
ATOM     10  C   UNL d   1       2.732   4.502  -1.751  0.00  0.00     0.076 A 
ATOM     11  C   UNL d   1       3.563   5.478  -2.300  0.00  0.00     0.136 A 
ATOM     12  F   UNL d   1       3.106   6.737  -2.381  0.00  0.00    -0.205 F 
ATOM     13  C   UNL d   1       4.837   5.156  -2.765  0.00  0.00     0.052 A 
ATOM     14  C   UNL d   1       5.306   3.851  -2.647  0.00  0.00     0.067 A 
ATOM     15 BR   UNL d   1       5.930   6.471  -3.571  0.00  0.00    -0.048 Br
ATOM     16  C   UNL d   1       4.477   2.881  -2.085  0.00  0.00     0.144 A 
ATOM     17  F   UNL d   1       4.931   1.622  -1.999  0.00  0.00    -0.204 F 
ENDBRANCH   4   9
BRANCH   1  18
ATOM     18  C   UNL d   1       0.153  -1.360   0.207  0.00  0.00     0.075 A 
ATOM     19  C   UNL d   1       0.555  -2.691  -0.025  0.00  0.00     0.051 A 
ATOM     20 CL   UNL d   1       1.983  -3.126  -0.904  0.00  0.00    -0.083 Cl
ATOM     21  C   UNL d   1      -0.237  -3.766   0.406  0.00  0.00     0.025 A 
ATOM     22  C   UNL d   1      -1.448  -3.539   1.052  0.00  0.00     0.003 A 
ATOM     23  C   UNL d   1      -1.873  -2.233   1.265  0.00  0.00     0.025 A 
ATOM     24  C   UNL d   1      -1.079  -1.149   0.858  0.00  0.00     0.051 A 
ATOM     25 CL   UNL d   1      -1.714   0.416   1.239  0.00  0.00    -0.083 Cl
ENDBRANCH   1  18
TORSDOF 2
