REMARK  3 active torsions:
REMARK  status: ('A' for Active; 'I' for Inactive)
REMARK    1  A    between atoms: C_3  and  C_1 
REMARK       I    between atoms: N_4  and  C_1 
REMARK    2  A    between atoms: C_2  and  N_5 
REMARK    3  A    between atoms: N_5  and  N_4 
ROOT
ATOM      1  C   UNL d   1       0.813   0.077  -0.089  0.00  0.00     0.271 C 
ATOM      2  N   UNL d   1       0.067  -0.840  -0.803  0.00  0.00    -0.264 N 
ATOM      3  O   UNL d   1       2.028   0.194  -0.202  0.00  0.00    -0.266 OA
ATOM      4  H   UNL d   1      -0.875  -1.111  -0.526  0.00  0.00     0.190 HD
ENDROOT
BRANCH   1   5
ATOM      5  C   UNL d   1       0.047   0.917   0.857  0.00  0.00     0.049 A 
ATOM      6  C   UNL d   1       0.674   1.404   1.995  0.00  0.00     0.104 A 
ATOM      7  N   UNL d   1       0.051   2.170   2.927  0.00  0.00    -0.374 N 
ATOM      8  C   UNL d   1      -1.247   2.475   2.699  0.00  0.00     0.087 A 
ATOM      9  HN  UNL d   1       0.538   2.500   3.759  1.00  0.00     0.164 HD
ATOM     10  C   UNL d   1      -1.949   2.055   1.580  0.00  0.00     0.018 A 
ATOM     11  C   UNL d   1      -1.290   1.265   0.642  0.00  0.00     0.020 A 
ENDBRANCH   1   5
BRANCH   2  12
ATOM     12  N   UNL d   1       0.729  -1.713  -1.672  0.00  0.00    -0.274 N 
ATOM     13  H   UNL d   1       1.732  -1.551  -1.764  0.00  0.00     0.189 HD
BRANCH  12  14
ATOM     14  C   UNL d   1       0.207  -2.953  -1.943  0.00  0.00     0.184 C 
ATOM     15  S   UNL d   1      -1.237  -3.561  -1.376  0.00  0.00    -0.040 SA
ATOM     16  N   UNL d   1       0.975  -3.695  -2.783  0.00  0.00    -0.375 N 
ATOM     17  H   UNL d   1       1.617  -3.232  -3.413  0.00  0.00     0.158 HD
ATOM     18  H   UNL d   1       0.577  -4.567  -3.114  0.00  0.00     0.158 HD
ENDBRANCH  12  14
ENDBRANCH   2  12
TORSDOF 3
