REMARK  19 active torsions:
REMARK  status: ('A' for Active; 'I' for Inactive)
REMARK    1  A    between atoms: C_1  and  O_14 
REMARK    2  A    between atoms: C_2  and  O_15 
REMARK    3  A    between atoms: C_3  and  O_16 
REMARK    4  A    between atoms: C_4  and  O_17 
REMARK    5  A    between atoms: C_5  and  O_9 
REMARK    6  A    between atoms: C_6  and  O_9 
REMARK    7  A    between atoms: C_7  and  O_18 
REMARK    8  A    between atoms: C_10  and  O_37 
REMARK    9  A    between atoms: C_12  and  C_26 
REMARK   10  A    between atoms: C_13  and  C_27 
REMARK   11  A    between atoms: C_20  and  O_14 
REMARK   12  A    between atoms: C_19  and  O_15 
REMARK   13  A    between atoms: C_22  and  O_16 
REMARK   14  A    between atoms: C_21  and  O_17 
REMARK   15  A    between atoms: C_23  and  O_18 
REMARK   16  A    between atoms: C_24  and  O_28 
REMARK   17  A    between atoms: C_25  and  O_29 
REMARK   18  A    between atoms: O_28  and  C_26 
REMARK   19  A    between atoms: O_29  and  C_27 
ROOT
ATOM      1  C   UNL d   1       1.454  -0.666  -0.218  0.00  0.00     0.219 C 
ATOM      2  C   UNL d   1       2.139   0.631   0.265  0.00  0.00     0.198 C 
ATOM      3  C   UNL d   1      -0.085  -0.758   0.016  0.00  0.00     0.293 C 
ATOM      4  C   UNL d   1       1.272   1.830  -0.167  0.00  0.00     0.195 C 
ATOM      5  O   UNL d   1      -0.732   0.487  -0.183  0.00  0.00    -0.348 OA
ATOM      6  C   UNL d   1      -0.144   1.655   0.396  0.00  0.00     0.181 C 
ENDROOT
BRANCH   3   7
ATOM      7  O   UNL d   1      -0.626  -1.404   1.160  0.00  0.00    -0.348 OA
BRANCH   7   8
ATOM      8  C   UNL d   1      -1.986  -1.927   1.062  0.00  0.00     0.188 C 
ATOM      9  C   UNL d   1      -2.507  -2.503  -0.289  0.00  0.00     0.198 C 
ATOM     10  C   UNL d   1      -2.863  -1.416  -1.338  0.00  0.00     0.219 C 
ATOM     11  C   UNL d   1      -3.629  -0.212  -0.705  0.00  0.00     0.291 C 
ATOM     12  O   UNL d   1      -3.197   0.147   0.612  0.00  0.00    -0.348 OA
ATOM     13  C   UNL d   1      -3.106  -0.952   1.513  0.00  0.00     0.180 C 
BRANCH   9  14
ATOM     14  O   UNL d   1      -1.778  -3.596  -0.920  0.00  0.00    -0.311 OA
BRANCH  14  15
ATOM     15  C   UNL d   1      -0.938  -4.393  -0.218  0.00  0.00     0.255 C 
ATOM     16  O   UNL d   1      -0.213  -4.048   0.702  0.00  0.00    -0.266 OA
ATOM     17  C   UNL d   1      -1.094  -5.826  -0.624  0.00  0.00     0.126 C 
ENDBRANCH  14  15
ENDBRANCH   9  14
BRANCH  10  18
ATOM     18  O   UNL d   1      -3.658  -2.066  -2.377  0.00  0.00    -0.308 OA
BRANCH  18  19
ATOM     19  C   UNL d   1      -3.989  -1.283  -3.438  0.00  0.00     0.255 C 
ATOM     20  O   UNL d   1      -5.076  -0.728  -3.526  0.00  0.00    -0.266 OA
ATOM     21  C   UNL d   1      -2.995  -1.366  -4.562  0.00  0.00     0.126 C 
ENDBRANCH  18  19
ENDBRANCH  10  18
BRANCH  11  22
ATOM     22  O   UNL d   1      -3.412   0.902  -1.586  0.00  0.00    -0.363 OA
ATOM     23  C   UNL d   1      -4.192   2.035  -1.239  0.00  0.00     0.204 C 
ENDBRANCH  11  22
BRANCH  13  24
ATOM     24  C   UNL d   1      -2.945  -0.459   2.953  0.00  0.00     0.213 C 
BRANCH  24  25
ATOM     25  O   UNL d   1      -3.216  -1.502   3.909  0.00  0.00    -0.319 OA
BRANCH  25  26
ATOM     26  C   UNL d   1      -4.528  -1.694   4.214  0.00  0.00     0.254 C 
ATOM     27  O   UNL d   1      -5.468  -1.131   3.672  0.00  0.00    -0.266 OA
ATOM     28  C   UNL d   1      -4.678  -2.744   5.274  0.00  0.00     0.126 C 
ENDBRANCH  25  26
ENDBRANCH  24  25
ENDBRANCH  13  24
ENDBRANCH   7   8
ENDBRANCH   3   7
BRANCH   1  29
ATOM     29  O   UNL d   1       2.183  -1.901  -0.076  0.00  0.00    -0.308 OA
BRANCH  29  30
ATOM     30  C   UNL d   1       2.845  -2.186   1.066  0.00  0.00     0.255 C 
ATOM     31  O   UNL d   1       2.799  -1.547   2.105  0.00  0.00    -0.266 OA
ATOM     32  C   UNL d   1       3.789  -3.326   0.814  0.00  0.00     0.126 C 
ENDBRANCH  29  30
ENDBRANCH   1  29
BRANCH   2  33
ATOM     33  O   UNL d   1       3.525   0.749  -0.173  0.00  0.00    -0.311 OA
BRANCH  33  34
ATOM     34  C   UNL d   1       3.838   0.836  -1.488  0.00  0.00     0.255 C 
ATOM     35  O   UNL d   1       3.047   0.806  -2.415  0.00  0.00    -0.266 OA
ATOM     36  C   UNL d   1       5.316   1.017  -1.642  0.00  0.00     0.126 C 
ENDBRANCH  33  34
ENDBRANCH   2  33
BRANCH   6  37
ATOM     37  C   UNL d   1      -0.248   1.789   1.937  0.00  0.00     0.213 C 
BRANCH  37  38
ATOM     38  O   UNL d   1       0.400   0.712   2.630  0.00  0.00    -0.319 OA
BRANCH  38  39
ATOM     39  C   UNL d   1       0.729   0.936   3.930  0.00  0.00     0.254 C 
ATOM     40  O   UNL d   1       0.560   1.990   4.527  0.00  0.00    -0.266 OA
ATOM     41  C   UNL d   1       1.364  -0.281   4.537  0.00  0.00     0.126 C 
ENDBRANCH  38  39
ENDBRANCH  37  38
ENDBRANCH   6  37
BRANCH   4  42
ATOM     42  O   UNL d   1       1.857   3.089   0.208  0.00  0.00    -0.311 OA
BRANCH  42  43
ATOM     43  C   UNL d   1       1.407   4.148  -0.536  0.00  0.00     0.255 C 
ATOM     44  O   UNL d   1       0.546   4.093  -1.400  0.00  0.00    -0.266 OA
ATOM     45  C   UNL d   1       2.111   5.408  -0.150  0.00  0.00     0.126 C 
ENDBRANCH  42  43
ENDBRANCH   4  42
TORSDOF 19
