REMARK  5 active torsions:
REMARK  status: ('A' for Active; 'I' for Inactive)
REMARK    1  A    between atoms: N_6  and  C_1 
REMARK    2  A    between atoms: N_7  and  C_1 
REMARK    3  A    between atoms: N_2  and  N_6 
REMARK    4  A    between atoms: C_4  and  C_5 
REMARK    5  A    between atoms: C_13  and  N_7 
ROOT
ATOM      1  N   UNL d   1       2.302   0.830   2.134  0.00  0.00    -0.276 N 
ATOM      2  H   UNL d   1       2.788   1.088   2.985  0.00  0.00     0.189 HD
ENDROOT
BRANCH   1   3
ATOM      3  N   UNL d   1       0.940   0.863   2.089  0.00  0.00    -0.300 N 
ATOM      4  C   UNL d   1       0.284   1.568   2.965  0.00  0.00     0.055 C 
ATOM      5  C   UNL d   1       0.944   2.487   3.967  0.00  0.00     0.072 C 
ATOM      6  HN  UNL d   1       0.437   0.338   1.373  1.00  0.00     0.186 HD
BRANCH   4   7
ATOM      7  C   UNL d   1      -1.160   1.457   2.959  0.00  0.00     0.098 A 
ATOM      8  O   UNL d   1      -1.909   2.277   3.759  0.00  0.00    -0.321 OA
ATOM      9  C   UNL d   1      -3.214   1.962   3.552  0.00  0.00     0.142 A 
ATOM     10  C   UNL d   1      -3.325   0.940   2.641  0.00  0.00     0.027 A 
ATOM     11  C   UNL d   1      -2.003   0.614   2.257  0.00  0.00     0.041 A 
ENDBRANCH   4   7
ENDBRANCH   1   3
BRANCH   1  12
ATOM     12  C   UNL d   1       3.039   0.361   1.077  0.00  0.00     0.191 C 
ATOM     13  S   UNL d   1       2.557   0.417  -0.528  0.00  0.00    -0.039 SA
BRANCH  12  14
ATOM     14  N   UNL d   1       4.291  -0.122   1.347  0.00  0.00    -0.332 N 
ATOM     15  H   UNL d   1       4.863  -0.207   0.512  0.00  0.00     0.168 HD
BRANCH  14  16
ATOM     16  C   UNL d   1       4.802  -0.761   2.497  0.00  0.00     0.034 A 
ATOM     17  C   UNL d   1       4.025  -1.150   3.594  0.00  0.00     0.029 A 
ATOM     18  C   UNL d   1       4.606  -1.830   4.670  0.00  0.00     0.002 A 
ATOM     19  C   UNL d   1       5.959  -2.151   4.648  0.00  0.00     0.000 A 
ATOM     20  C   UNL d   1       6.737  -1.795   3.549  0.00  0.00     0.002 A 
ATOM     21  C   UNL d   1       6.160  -1.105   2.480  0.00  0.00     0.029 A 
ENDBRANCH  14  16
ENDBRANCH  12  14
ENDBRANCH   1  12
TORSDOF 5
