REMARK  7 active torsions:
REMARK  status: ('A' for Active; 'I' for Inactive)
REMARK       I    between atoms: N_2  and  C_1 
REMARK    1  A    between atoms: C_7  and  C_1 
REMARK    2  A    between atoms: C_4  and  N_2 
REMARK    3  A    between atoms: C_3  and  O_5 
REMARK    4  A    between atoms: C_8  and  C_3 
REMARK    5  A    between atoms: O_5  and  C_6 
REMARK    6  A    between atoms: C_9  and  C_11 
REMARK    7  A    between atoms: C_10  and  C_12 
ROOT
ATOM      1  C   UNL d   1       2.666  -2.600  -0.487  0.00  0.00     0.069 A 
ATOM      2  C   UNL d   1       3.119  -3.531   0.451  0.00  0.00     0.106 A 
ATOM      3  C   UNL d   1       1.581  -2.960  -1.308  0.00  0.00     0.039 A 
ATOM      4  C   UNL d   1       2.435  -4.746   0.621  0.00  0.00     0.040 A 
ATOM      5  C   UNL d   1       0.872  -4.153  -1.128  0.00  0.00    -0.060 A 
ATOM      6  C   UNL d   1       1.311  -5.049  -0.154  0.00  0.00     0.009 A 
ATOM      7  C   UNL d   1      -0.365  -4.422  -1.933  0.00  0.00     0.048 C 
ENDROOT
BRANCH   1   8
ATOM      8  N   UNL d   1       3.201  -1.295  -0.598  0.00  0.00    -0.320 N 
ATOM      9  C   UNL d   1       2.396  -0.195  -0.846  0.00  0.00     0.256 C 
ATOM     10  O   UNL d   1       1.165  -0.242  -0.933  0.00  0.00    -0.267 OA
ATOM     11  H   UNL d   1       4.159  -1.166  -0.282  0.00  0.00     0.169 HD
BRANCH   9  12
ATOM     12  C   UNL d   1       3.018   1.147  -0.978  0.00  0.00     0.032 A 
ATOM     13  C   UNL d   1       2.229   2.155  -1.549  0.00  0.00     0.017 A 
ATOM     14  C   UNL d   1       2.701   3.462  -1.670  0.00  0.00     0.009 A 
ATOM     15  C   UNL d   1       3.986   3.812  -1.232  0.00  0.00    -0.051 A 
ATOM     16  C   UNL d   1       4.765   2.789  -0.653  0.00  0.00     0.009 A 
ATOM     17  C   UNL d   1       4.296   1.472  -0.531  0.00  0.00     0.017 A 
BRANCH  15  18
ATOM     18  C   UNL d   1       4.486   5.265  -1.323  0.00  0.00    -0.024 C 
ATOM     19  C   UNL d   1       6.025   5.350  -1.418  0.00  0.00     0.019 C 
ATOM     20  C   UNL d   1       3.930   6.010  -2.561  0.00  0.00     0.019 C 
ATOM     21  C   UNL d   1       4.028   6.023  -0.061  0.00  0.00     0.019 C 
ENDBRANCH  15  18
ENDBRANCH   9  12
ENDBRANCH   1   8
BRANCH   2  22
ATOM     22  O   UNL d   1       4.133  -3.327   1.437  0.00  0.00    -0.273 OA
BRANCH  22  23
ATOM     23  C   UNL d   1       5.218  -2.457   1.468  0.00  0.00     0.298 C 
ATOM     24  O   UNL d   1       5.551  -1.688   0.574  0.00  0.00    -0.259 OA
BRANCH  23  25
ATOM     25  C   UNL d   1       5.948  -2.600   2.763  0.00  0.00     0.040 A 
ATOM     26  C   UNL d   1       7.178  -1.956   2.942  0.00  0.00     0.018 A 
ATOM     27  C   UNL d   1       7.895  -2.100   4.146  0.00  0.00     0.009 A 
ATOM     28  C   UNL d   1       7.408  -2.892   5.203  0.00  0.00    -0.051 A 
ATOM     29  C   UNL d   1       6.155  -3.502   5.012  0.00  0.00     0.009 A 
ATOM     30  C   UNL d   1       5.437  -3.361   3.817  0.00  0.00     0.018 A 
BRANCH  28  31
ATOM     31  C   UNL d   1       8.230  -3.102   6.493  0.00  0.00    -0.024 C 
ATOM     32  C   UNL d   1       7.527  -4.022   7.520  0.00  0.00     0.019 C 
ATOM     33  C   UNL d   1       9.585  -3.761   6.153  0.00  0.00     0.019 C 
ATOM     34  C   UNL d   1       8.500  -1.758   7.203  0.00  0.00     0.019 C 
ENDBRANCH  28  31
ENDBRANCH  23  25
ENDBRANCH  22  23
ENDBRANCH   2  22
TORSDOF 7
